data_PCOD9074496
_publ_section_title
;
Structure prediction by ZEFSAII (Michael W. Deem and Ramdas Pophale) SiO2 
 PCOD9074496
Probable space group: P -1
;
_chemical_formula_sum "Si O2"
_cell_formula_units_Z 16
_cell_length_a 12.000000
_cell_length_b 18.000000
_cell_length_c 21.000000
_cell_angle_alpha 160.000000
_cell_angle_beta 140.000000
_cell_angle_gamma 30.000000
_cell_volume 744.844803
_symmetry_space_group_name_H-M "P -1"
_symmetry_group_IT_number 2
_symmetry_cell_setting 'triclinic'
loop_
_space_group_symop_operation_xyz
x,y,z
-x,-y,-z
loop_
_atom_site_type_symbol
_atom_site_label
_atom_site_fract_x
_atom_site_fract_y
_atom_site_fract_z
Si Si1 0.350729 0.314427 0.656774
Si Si2 0.730045 0.748635 0.573210
Si Si3 0.915922 0.634941 0.814697
Si Si4 0.007790 0.916996 0.545465
Si Si5 0.010876 0.246232 0.926601
Si Si6 0.372206 0.709313 0.430411
Si Si7 0.550647 0.861493 0.982311
Si Si8 0.503856 0.612888 0.022813
O O1 0.324460 0.284160 0.548054
O O2 0.112800 0.513751 0.752362
O O3 0.500000 0.000000 0.500000
O O4 0.470533 0.444559 0.824437
O O5 0.571029 0.726517 0.529958
O O6 0.000000 0.500000 0.500000
O O7 0.680047 0.046396 0.792347
O O8 0.953685 0.370639 0.653169
O O9 0.666117 0.850032 0.844869
O O10 0.924542 0.814738 0.018639
O O11 0.210451 0.848966 0.535008
O O12 0.784956 0.127649 0.571015
O O13 0.010517 0.039156 0.712984
O O14 0.193435 0.263996 0.991363
O O15 0.744316 0.533586 0.048595
O O16 0.460253 0.386304 0.211664
O O17 0.500000 0.000000 0.000000
O O18 0.500000 0.500000 0.000000
#
# Coordination Sequence:
#
# PCOD9074496 Si02
#       8
#     2   2   2   2   2   2   2   2
#     4  12  24  47  79 105 142 193 243 298 348 423
#     4  12  30  48  69 108 149 192 236 295 367 420
#     4  11  23  45  69 104 139 174 241 292 348 413
#     4  11  24  42  75 101 134 185 226 293 353 415
#     4  11  22  42  69 104 133 175 242 278 354 416
#     4  11  24  48  67  98 150 178 229 292 350 427
#     4  10  23  44  68  97 140 182 221 299 349 407
#     4  12  24  44  76 102 137 189 247 291 339 434
#
# _framework density 21.480985
#
# number of rings (size 3 to 8) (size 9 to 14) (size 15 to 20)
#    0.000    0.750    5.000    3.000    3.500    2.500 
#    4.500    0.000    0.000    0.000    0.000    0.000 
#    0.000    0.000    0.000    0.000    0.000    0.000 
#
# Total GULP energy -89289.640658 kJ/mol
# GULP energy per Si atom -5580.602541 kJ/mol
# Density = 2.143209 g / cm^3
# Si number density = 21.480985 Si / 1000 Ang^3
#
#
#
# Elastic Constant Matrix: (Units=GPa)
#
#
# Indices 1 2 3 4 5 6 
#
# 1 91.6646 17.7861 12.9171 14.6221 6.5934 -25.4961
# 2 17.7861 45.3015 33.7773 26.8299 14.0975 -16.1919
# 3 12.9171 33.7773 104.0152 9.9396 19.5846 4.6802
# 4 14.6221 26.8299 9.9396 40.2531 5.9833 -9.2135
# 5 6.5934 14.0975 19.5846 5.9833 42.9025 -0.8676
# 6 -25.4961 -16.1919 4.6802 -9.2135 -0.8676 39.3221
#
#
#
# Elastic Compliance Matrix: (Units=1/GPa)
#
#
# Indices 1 2 3 4 5 6 
#
# 1 0.014097 0.001923 -0.002252 -0.003546 -0.001087 0.009345
# 2 0.001923 0.064178 -0.017325 -0.032946 -0.008439 0.021830
# 3 -0.002252 -0.017325 0.015697 0.006782 -0.002253 -0.008923
# 4 -0.003546 -0.032946 0.006782 0.044723 0.001913 -0.006151
# 5 -0.001087 -0.008439 -0.002253 0.001913 0.026952 -0.002869
# 6 0.009345 0.021830 -0.008923 -0.006151 -0.002869 0.040037
#
#
# Mechanical properties :
#
#
# Convention : Reuss Voigt Hill
#
# Bulk Modulus (GPa) = 17.04610 41.10471 29.07540
# Shear Modulus (GPa) = 19.19044 36.26226 27.72635
#
# Velocity S-wave (km/s) = 2.99217 4.11312 3.59658
# Velocity P-wave (km/s) = 4.45983 6.46018 5.55086
#
# Compressibility (1/GPa) = 0.05866445
#
# Stress axis : x y z
#
# Youngs Moduli (GPa) = 70.93863 15.58170 63.70579
#
# Poissons Ratio (x) = -0.02996 0.14347
# Poissons Ratio (y) = -0.13641 1.10367
# Poissons Ratio (z) = 0.15976 0.26995
#
# Static dielectric constant tensor:
#      x y z
#    x 1.790370 -0.080280 -0.062500 
#    y -0.080280 1.903900 -0.000180 
#    z -0.062500 -0.000180 1.822030 
# 
# From -- ./inp_files/596056.got.cif
#   From: 2010.05.17/outbox.ucp.g08.bks.cvg/sg2_299_cif.got.tgz:596056.got - 2010.06.11 11:32:03.
