data_PCOD9074797
_publ_section_title
;
Structure prediction by ZEFSAII (Michael W. Deem and Ramdas Pophale) SiO2 
 PCOD9074797
Probable space group: P -1
;
_chemical_formula_sum "Si O2"
_cell_formula_units_Z 16
_cell_length_a 15.000000
_cell_length_b 18.000000
_cell_length_c 27.000000
_cell_angle_alpha 20.000000
_cell_angle_beta 160.000000
_cell_angle_gamma 160.000000
_cell_volume 746.015535
_symmetry_space_group_name_H-M "P -1"
_symmetry_group_IT_number 2
_symmetry_cell_setting 'triclinic'
loop_
_space_group_symop_operation_xyz
x,y,z
-x,-y,-z
loop_
_atom_site_type_symbol
_atom_site_label
_atom_site_fract_x
_atom_site_fract_y
_atom_site_fract_z
Si Si1 0.478172 0.659124 0.634993
Si Si2 0.492542 0.747818 0.322502
Si Si3 0.017522 0.856043 0.268561
Si Si4 0.950671 0.779473 0.717338
Si Si5 0.814374 0.519322 0.099390
Si Si6 0.093519 0.989666 0.113109
Si Si7 0.398551 0.043533 0.642639
Si Si8 0.810299 0.611371 0.935081
O O1 0.329485 0.841629 0.442331
O O2 0.725229 0.727340 0.678162
O O3 0.627449 0.637904 0.777445
O O4 0.202081 0.378679 0.665492
O O5 0.500000 0.500000 0.500000
O O6 0.523849 0.893257 0.299101
O O7 0.168847 0.657101 0.187945
O O8 0.748725 0.949681 0.294212
O O9 0.936128 0.858606 0.165654
O O10 0.020321 0.100128 0.139374
O O11 0.788157 0.826182 0.555674
O O12 0.032480 0.555597 0.894287
O O13 0.752811 0.255507 0.254417
O O14 0.649165 0.478609 0.985993
O O15 0.766900 0.718459 0.981567
O O16 0.310081 0.871863 0.291219
O O17 0.000000 0.000000 0.000000
#
# Coordination Sequence:
#
# PCOD9074797 Si02
#       8
#     2   2   2   2   2   2   2   2
#     4  11  25  50  70  99 135 184 237 288 335 404
#     4  12  24  43  67 100 144 180 222 281 355 415
#     4  10  25  49  74  98 139 180 233 288 345 404
#     4  12  25  45  70 103 140 182 232 282 344 419
#     4  11  24  42  69 103 137 184 225 282 352 415
#     4  11  23  42  73 107 136 177 228 287 348 416
#     4  12  23  46  67 104 145 176 224 287 354 418
#     4  11  25  44  71  98 138 183 228 286 339 405
#
# _framework density 21.447275000000001
#
# number of rings (size 3 to 8) (size 9 to 14) (size 15 to 20)
#    0.000    0.750    5.000    2.250    5.250    0.500 
#    4.500    2.500    0.000    0.000    0.000    0.000 
#    0.000    0.000    0.000    0.000    0.000    0.000 
#
# Total GULP energy -89163.292039 kJ/mol
# GULP energy per Si atom -5572.705752 kJ/mol
# Density = 2.139846 g / cm^3
# Si number density = 21.447275 Si / 1000 Ang^3
#
#
#
# Elastic Constant Matrix: (Units=GPa)
#
#
# Indices 1 2 3 4 5 6 
#
# 1 110.6793 40.5807 26.3181 -0.4644 -1.1647 2.8242
# 2 40.5807 66.4762 35.9578 -14.7381 10.9964 8.3223
# 3 26.3181 35.9578 155.5645 -17.0628 -0.5962 -17.9596
# 4 -0.4644 -14.7381 -17.0628 41.6962 -8.1696 -6.8870
# 5 -1.1647 10.9964 -0.5962 -8.1696 50.0811 -1.0684
# 6 2.8242 8.3223 -17.9596 -6.8870 -1.0684 35.6457
#
#
#
# Elastic Compliance Matrix: (Units=1/GPa)
#
#
# Indices 1 2 3 4 5 6 
#
# 1 0.012067 -0.007988 -0.000434 -0.002506 0.001626 0.000255
# 2 -0.007988 0.025283 -0.004793 0.004729 -0.005171 -0.006926
# 3 -0.000434 -0.004793 0.008689 0.003236 0.001806 0.006210
# 4 -0.002506 0.004729 0.003236 0.028745 0.003767 0.006391
# 5 0.001626 -0.005171 0.001806 0.003767 0.021849 0.003371
# 6 0.000255 -0.006926 0.006210 0.006391 0.003371 0.034116
#
#
# Mechanical properties :
#
#
# Convention : Reuss Voigt Hill
#
# Bulk Modulus (GPa) = 51.00176 59.82590 55.41383
# Shear Modulus (GPa) = 30.54075 40.80881 35.67478
#
# Velocity S-wave (km/s) = 3.77768 4.36678 4.08287
# Velocity P-wave (km/s) = 6.54671 7.30616 6.93684
#
# Compressibility (1/GPa) = 0.01960716
#
# Stress axis : x y z
#
# Youngs Moduli (GPa) = 82.86818 39.55215 115.09462
#
# Poissons Ratio (x) = 0.31595 0.05000
# Poissons Ratio (y) = 0.66196 0.55169
# Poissons Ratio (z) = 0.03600 0.18959
#
# Static dielectric constant tensor:
#      x y z
#    x 1.791820 0.007980 0.000610 
#    y 0.007980 1.863950 0.055890 
#    z 0.000610 0.055890 1.790420 
# 
# From -- ./inp_files/619745.got.cif
#   From: 2010.05.17/outbox.ucp.g08.bks.cvg/sg2_310_cif.got.tgz:619745.got - 2010.06.11 11:32:03.
