data_PCOD9074575
_publ_section_title
;
Structure prediction by ZEFSAII (Michael W. Deem and Ramdas Pophale) SiO2 
 PCOD9074575
Probable space group: P -1
;
_chemical_formula_sum "Si O2"
_cell_formula_units_Z 14
_cell_length_a 11.562062
_cell_length_b 12.044466
_cell_length_c 6.948347
_cell_angle_alpha 48.915386
_cell_angle_beta 107.906810
_cell_angle_gamma 130.572654
_cell_volume 541.690420
_symmetry_space_group_name_H-M "P -1"
_symmetry_group_IT_number 2
_symmetry_cell_setting 'triclinic'
loop_
_space_group_symop_operation_xyz
x,y,z
-x,-y,-z
loop_
_atom_site_type_symbol
_atom_site_label
_atom_site_fract_x
_atom_site_fract_y
_atom_site_fract_z
Si Si1 0.354347 0.048277 0.174178
Si Si2 0.164809 0.156442 0.012480
Si Si3 0.859399 0.677136 0.691657
Si Si4 0.167068 0.021780 0.604715
Si Si5 0.455323 0.068663 0.645494
Si Si6 0.259002 0.533673 0.794127
Si Si7 0.944901 0.359529 0.457294
O O1 0.486776 0.051008 0.136007
O O2 0.180765 0.850242 0.286379
O O3 0.319567 0.193496 0.964675
O O4 0.394042 0.035444 0.431204
O O5 0.167957 0.083057 0.313157
O O6 0.190962 0.350024 0.838539
O O7 0.000000 0.000000 0.000000
O O8 0.833217 0.826954 0.449664
O O9 0.923964 0.618344 0.628713
O O10 0.710375 0.519279 0.922762
O O11 0.009773 0.807154 0.765631
O O12 0.310714 0.029404 0.726508
O O13 0.604780 0.287988 0.460515
O O14 0.156034 0.592231 0.756665
O O15 0.000000 0.500000 0.500000
#
# Coordination Sequence:
#
# PCOD9074575 Si02
#       7
#     2   2   2   2   2   2   2
#     4   9  18  32  55  78 108 148 185 223 273 332
#     4  10  18  32  51  84 113 143 186 229 272 330
#     4  10  19  35  53  89 111 140 189 241 284 311
#     4   9  19  34  60  82 111 150 187 229 284 333
#     4   9  17  35  55  84 109 146 190 229 274 338
#     4  10  22  31  57  89 110 143 190 245 273 316
#     4  11  20  35  56  84 114 148 188 229 282 344
#
# _framework density 25.845020999999999
#
# number of rings (size 3 to 8) (size 9 to 14) (size 15 to 20)
#    0.000    2.286    2.857    1.286    0.000    5.143 
#    0.000    0.000    0.000    4.286   44.571    0.000 
#    0.000    0.000    0.000    0.000    0.000    0.000 
#
# Total GULP energy -78074.947805 kJ/mol
# GULP energy per Si atom -5576.781986 kJ/mol
# Density = 2.578620 g / cm^3
# Si number density = 25.845021 Si / 1000 Ang^3
#
#
#
# Elastic Constant Matrix: (Units=GPa)
#
#
# Indices 1 2 3 4 5 6 
#
# 1 231.0024 42.6688 24.2219 3.9338 31.5183 -22.1647
# 2 42.6688 97.6392 6.2414 -1.9697 13.3848 -18.3180
# 3 24.2219 6.2414 59.7160 3.0811 7.9600 2.7498
# 4 3.9338 -1.9697 3.0811 27.4975 2.5778 9.8151
# 5 31.5183 13.3848 7.9600 2.5778 28.5642 0.2636
# 6 -22.1647 -18.3180 2.7498 9.8151 0.2636 41.7679
#
#
#
# Elastic Compliance Matrix: (Units=1/GPa)
#
#
# Indices 1 2 3 4 5 6 
#
# 1 0.005732 -0.001151 -0.001574 -0.001296 -0.005257 0.002978
# 2 -0.001151 0.012287 -0.000446 -0.000240 -0.004387 0.004892
# 3 -0.001574 -0.000446 0.017961 -0.000827 -0.002967 -0.002000
# 4 -0.001296 -0.000240 -0.000827 0.040447 -0.001782 -0.010232
# 5 -0.005257 -0.004387 -0.002967 -0.001782 0.043893 -0.004377
# 6 0.002978 0.004892 -0.002000 -0.010232 -0.004377 0.030231
#
#
# Mechanical properties :
#
#
# Convention : Reuss Voigt Hill
#
# Bulk Modulus (GPa) = 33.73894 59.40243 46.57068
# Shear Modulus (GPa) = 29.98084 40.58094 35.28089
#
# Velocity S-wave (km/s) = 3.40961 3.96683 3.69873
# Velocity P-wave (km/s) = 5.34633 6.63438 6.02487
#
# Compressibility (1/GPa) = 0.02963935
#
# Stress axis : x y z
#
# Youngs Moduli (GPa) = 174.46780 81.38366 55.67558
#
# Poissons Ratio (x) = 0.09367 0.08764
# Poissons Ratio (y) = 0.20080 0.02480
# Poissons Ratio (z) = 0.27463 0.03626
#
# Static dielectric constant tensor:
#      x y z
#    x 2.267130 0.037740 0.064330 
#    y 0.037740 2.173630 0.093430 
#    z 0.064330 0.093430 2.167370 
# 
# From -- ./inp_files/256953.got.cif
#   From: 2010.05.17/outbox.cif.g08.bks.cpg/sg2_129_cif.got.tgz:256953.got - 2010.06.03 11:33:40.
