data_PCOD9074444
_publ_section_title
;
Structure prediction by ZEFSAII (Michael W. Deem and Ramdas Pophale) SiO2 
 PCOD9074444
Probable space group: P -1
;
_chemical_formula_sum "Si O2"
_cell_formula_units_Z 14
_cell_length_a 9.000000
_cell_length_b 9.000000
_cell_length_c 12.000000
_cell_angle_alpha 100.000000
_cell_angle_beta 120.000000
_cell_angle_gamma 50.000000
_cell_volume 628.643806
_symmetry_space_group_name_H-M "P -1"
_symmetry_group_IT_number 2
_symmetry_cell_setting 'triclinic'
loop_
_space_group_symop_operation_xyz
x,y,z
-x,-y,-z
loop_
_atom_site_type_symbol
_atom_site_label
_atom_site_fract_x
_atom_site_fract_y
_atom_site_fract_z
Si Si1 0.353194 0.923714 0.271583
Si Si2 0.485500 0.430027 0.862058
Si Si3 0.660043 0.260563 0.532629
Si Si4 0.028861 0.601994 0.795582
Si Si5 0.034390 0.257403 0.754194
Si Si6 0.224138 0.492886 0.105396
Si Si7 0.568945 0.078112 0.278576
O O1 0.364588 0.799053 0.154692
O O2 0.387736 0.811782 0.383968
O O3 0.542162 0.941742 0.322878
O O4 0.133465 0.159003 0.230275
O O5 0.228649 0.526735 0.774992
O O6 0.560180 0.521138 0.821963
O O7 0.500000 0.500000 0.000000
O O8 0.500000 0.500000 0.500000
O O9 0.650622 0.160271 0.406689
O O10 0.899203 0.203125 0.635076
O O11 0.960809 0.469942 0.717204
O O12 0.134479 0.521733 0.950143
O O13 0.957456 0.314111 0.861655
O O14 0.287332 0.062994 0.792217
O O15 0.329278 0.280787 0.169530
#
# Coordination Sequence:
#
# PCOD9074444 Si02
#       7
#     2   2   2   2   2   2   2
#     4  12  24  46  71 101 139 179 226 285 336 409
#     4  10  23  43  65 100 139 178 221 280 334 407
#     4  12  25  50  71  96 139 178 232 286 337 399
#     4  11  25  44  69 106 138 180 226 275 352 399
#     4  12  24  44  70 102 138 182 225 282 338 406
#     4  11  24  45  69 101 145 177 222 285 334 414
#     4  12  26  44  71 102 134 186 231 273 345 394
#
# _framework density 22.270163
#
# number of rings (size 3 to 8) (size 9 to 14) (size 15 to 20)
#    0.000    0.571    5.714    1.286    2.000    5.143 
#    2.571    1.429    0.000    0.000    0.000    0.000 
#    0.000    0.000    0.000    0.000    0.000    0.000 
#
# Total GULP energy -78042.621103 kJ/mol
# GULP energy per Si atom -5574.472936 kJ/mol
# Density = 2.221948 g / cm^3
# Si number density = 22.270163 Si / 1000 Ang^3
#
#
#
# Elastic Constant Matrix: (Units=GPa)
#
#
# Indices 1 2 3 4 5 6 
#
# 1 115.1162 49.5318 32.5450 11.1387 -2.8739 6.2703
# 2 49.5318 173.4177 38.8196 19.7847 -21.7277 -5.0252
# 3 32.5450 38.8196 66.5745 9.1067 -13.3013 9.0947
# 4 11.1387 19.7847 9.1067 34.2458 3.4716 -2.3127
# 5 -2.8739 -21.7277 -13.3013 3.4716 25.4728 6.7262
# 6 6.2703 -5.0252 9.0947 -2.3127 6.7262 54.1622
#
#
#
# Elastic Compliance Matrix: (Units=1/GPa)
#
#
# Indices 1 2 3 4 5 6 
#
# 1 0.011002 -0.002460 -0.004369 -0.000728 -0.002924 -0.000436
# 2 -0.002460 0.008111 -0.001810 -0.003998 0.006132 0.000409
# 3 -0.004369 -0.001810 0.021803 -0.004810 0.011306 -0.004933
# 4 -0.000728 -0.003998 -0.004810 0.034435 -0.011603 0.003432
# 5 -0.002924 0.006132 0.011306 -0.011603 0.053800 -0.008168
# 6 -0.000436 0.000409 -0.004933 0.003432 -0.008168 0.020541
#
#
# Mechanical properties :
#
#
# Convention : Reuss Voigt Hill
#
# Bulk Modulus (GPa) = 42.30752 66.32237 54.31494
# Shear Modulus (GPa) = 28.59629 38.39028 33.49329
#
# Velocity S-wave (km/s) = 3.58727 4.15642 3.88229
# Velocity P-wave (km/s) = 6.01636 7.27186 6.67370
#
# Compressibility (1/GPa) = 0.02363646
#
# Stress axis : x y z
#
# Youngs Moduli (GPa) = 90.89411 123.29388 45.86596
#
# Poissons Ratio (x) = 0.30335 0.20037
# Poissons Ratio (y) = 0.22363 0.08304
# Poissons Ratio (z) = 0.39708 0.22321
#
# Static dielectric constant tensor:
#      x y z
#    x 1.977160 -0.025080 0.065480 
#    y -0.025080 1.796530 -0.008850 
#    z 0.065480 -0.008850 1.834510 
# 
# From -- ./inp_files/382716.got.cif
#   From: 2010.05.17/outbox.ucp.g08.bks.cvg/sg2_192_cif.got.tgz:382716.got - 2010.06.11 11:32:03.
