data_PCOD9074935
_publ_section_title
;
Structure prediction by ZEFSAII (Michael W. Deem and Ramdas Pophale) SiO2 
 PCOD9074935
Probable space group: P -1
;
_chemical_formula_sum "Si O2"
_cell_formula_units_Z 16
_cell_length_a 9.000000
_cell_length_b 18.000000
_cell_length_c 21.000000
_cell_angle_alpha 20.000000
_cell_angle_beta 40.000000
_cell_angle_gamma 40.000000
_cell_volume 731.217405
_symmetry_space_group_name_H-M "P -1"
_symmetry_group_IT_number 2
_symmetry_cell_setting 'triclinic'
loop_
_space_group_symop_operation_xyz
x,y,z
-x,-y,-z
loop_
_atom_site_type_symbol
_atom_site_label
_atom_site_fract_x
_atom_site_fract_y
_atom_site_fract_z
Si Si1 0.065108 0.525589 0.358469
Si Si2 0.877537 0.303407 0.365056
Si Si3 0.227917 0.059657 0.617103
Si Si4 0.716326 0.044605 0.459784
Si Si5 0.749620 0.497431 0.112938
Si Si6 0.307849 0.829658 0.958755
Si Si7 0.757953 0.385479 0.980250
Si Si8 0.359703 0.325685 0.542269
O O1 0.109869 0.300637 0.484732
O O2 0.250416 0.469598 0.401176
O O3 0.797571 0.565656 0.435681
O O4 0.118442 0.746361 0.132032
O O5 0.787195 0.398787 0.249833
O O6 0.635395 0.307311 0.478109
O O7 0.058919 0.453259 0.207128
O O8 0.033750 0.055146 0.511084
O O9 0.493979 0.997740 0.608946
O O10 0.263091 0.070899 0.521772
O O11 0.124263 0.843297 0.837595
O O12 0.656528 0.307441 0.257987
O O13 0.566064 0.726185 0.985232
O O14 0.000000 0.500000 0.000000
O O15 0.291212 0.087390 0.746829
O O16 0.282122 0.701149 0.006195
O O17 0.500000 0.500000 0.000000
#
# Coordination Sequence:
#
# PCOD9074935 Si02
#       8
#     2   2   2   2   2   2   2   2
#     4  11  23  46  71  95 134 178 238 277 334 405
#     4  12  24  42  64 103 142 174 227 285 336 395
#     4  11  21  41  64  98 129 182 216 274 332 409
#     4  11  22  37  65  92 138 173 217 270 344 400
#     4  12  24  37  62 101 141 174 218 276 341 408
#     4  12  23  44  70 100 131 182 230 269 345 411
#     4  12  24  39  66 101 139 180 216 269 345 417
#     4  11  25  45  71  97 131 183 232 289 330 390
#
# _framework density 21.881316999999999
#
# number of rings (size 3 to 8) (size 9 to 14) (size 15 to 20)
#    0.000    0.500    5.000    4.500    0.000    0.000 
#    0.000    3.125    0.000    0.000    0.000    0.000 
#    0.000    0.000    0.000    0.000    0.000    0.000 
#
# Total GULP energy -89270.331303 kJ/mol
# GULP energy per Si atom -5579.395706 kJ/mol
# Density = 2.183151 g / cm^3
# Si number density = 21.881317 Si / 1000 Ang^3
#
#
#
# Elastic Constant Matrix: (Units=GPa)
#
#
# Indices 1 2 3 4 5 6 
#
# 1 57.0230 22.0724 35.3223 -13.7616 15.8367 6.5608
# 2 22.0724 194.7991 -9.1967 61.0373 -61.0865 -30.4295
# 3 35.3223 -9.1967 147.3768 -25.8928 21.5733 19.5649
# 4 -13.7616 61.0373 -25.8928 51.8548 -39.4619 -15.1867
# 5 15.8367 -61.0865 21.5733 -39.4619 66.1809 23.4863
# 6 6.5608 -30.4295 19.5649 -15.1867 23.4863 21.1490
#
#
#
# Elastic Compliance Matrix: (Units=1/GPa)
#
#
# Indices 1 2 3 4 5 6 
#
# 1 0.028431 -0.009287 -0.004131 0.010353 -0.006566 -0.003635
# 2 -0.009287 0.012501 -0.000854 -0.012301 0.003554 0.008878
# 3 -0.004131 -0.000854 0.009163 0.003975 0.002575 -0.008428
# 4 0.010353 -0.012301 0.003975 0.049054 0.017077 -0.008329
# 5 -0.006566 0.003554 0.002575 0.017077 0.038391 -0.025602
# 6 -0.003635 0.008878 -0.008428 -0.008329 -0.025602 0.091433
#
#
# Mechanical properties :
#
#
# Convention : Reuss Voigt Hill
#
# Bulk Modulus (GPa) = 46.40373 55.06611 50.73492
# Shear Modulus (GPa) = 18.88928 51.23699 35.06313
#
# Velocity S-wave (km/s) = 2.94132 4.84424 4.00737
# Velocity P-wave (km/s) = 5.72610 7.51727 6.68197
#
# Compressibility (1/GPa) = 0.02154999
#
# Stress axis : x y z
#
# Youngs Moduli (GPa) = 35.17305 79.99159 109.13991
#
# Poissons Ratio (x) = 0.74290 0.45086
# Poissons Ratio (y) = 0.32666 0.09321
# Poissons Ratio (z) = 0.14530 0.06832
#
# Static dielectric constant tensor:
#      x y z
#    x 1.842800 0.016950 -0.061390 
#    y 0.016950 1.845390 0.091870 
#    z -0.061390 0.091870 1.802310 
# 
# From -- ./inp_files/274063.got.cif
#   From: 2010.05.17/outbox.ucp.g08.bks.cvg/sg2_138_cif.got.tgz:274063.got - 2010.06.11 11:32:03.
