data_PCOD9074060
_publ_section_title
;
Structure prediction by ZEFSAII (Michael W. Deem and Ramdas Pophale) SiO2 
 PCOD9074060
Probable space group: P -1
;
_chemical_formula_sum "Si O2"
_cell_formula_units_Z 14
_cell_length_a 15.000000
_cell_length_b 27.000000
_cell_length_c 6.000000
_cell_angle_alpha 130.000000
_cell_angle_beta 130.000000
_cell_angle_gamma 20.000000
_cell_volume 629.659215
_symmetry_space_group_name_H-M "P -1"
_symmetry_group_IT_number 2
_symmetry_cell_setting 'triclinic'
loop_
_space_group_symop_operation_xyz
x,y,z
-x,-y,-z
loop_
_atom_site_type_symbol
_atom_site_label
_atom_site_fract_x
_atom_site_fract_y
_atom_site_fract_z
Si Si1 0.875940 0.128816 0.588727
Si Si2 0.322173 0.381912 0.619317
Si Si3 0.013721 0.818027 0.751037
Si Si4 0.221090 0.292140 0.218232
Si Si5 0.026896 0.664835 0.451053
Si Si6 0.501410 0.931628 0.671532
Si Si7 0.446844 0.674761 0.755519
O O1 0.574445 0.287618 0.644920
O O2 0.798868 0.170519 0.326570
O O3 0.000000 0.000000 0.500000
O O4 0.023908 0.113778 0.905494
O O5 0.308157 0.316053 0.318870
O O6 0.041093 0.554625 0.625395
O O7 0.399804 0.349377 0.912184
O O8 0.074689 0.716530 0.643239
O O9 0.273923 0.710559 0.724733
O O10 0.749581 0.948154 0.548244
O O11 0.466991 0.142026 0.314446
O O12 0.105934 0.298277 0.878792
O O13 0.304016 0.488902 0.423799
O O14 0.784687 0.783662 0.577893
O O15 0.500000 0.000000 0.000000
#
# Coordination Sequence:
#
# PCOD9074060 Si02
#       7
#     2   2   2   2   2   2   2
#     4  11  26  40  65  92 132 167 216 261 318 379
#     4   9  22  42  64  96 125 169 215 261 308 382
#     4  11  26  42  65  98 128 167 218 263 318 379
#     4  10  22  41  67  92 132 165 213 262 316 377
#     4  11  24  44  68  95 128 170 217 262 317 385
#     4  12  26  40  66  98 132 165 209 265 329 374
#     4  10  24  45  67  93 128 174 214 260 320 374
#
# _framework density 22.234248999999998
#
# number of rings (size 3 to 8) (size 9 to 14) (size 15 to 20)
#    0.000    1.429    1.429    1.714    8.000    1.714 
#    0.000    4.286    0.000    0.000    0.000    0.000 
#    0.000    0.000    0.000    0.000    0.000    0.000 
#
# Total GULP energy -78036.392540 kJ/mol
# GULP energy per Si atom -5574.028039 kJ/mol
# Density = 2.218364 g / cm^3
# Si number density = 22.234249 Si / 1000 Ang^3
#
#
#
# Elastic Constant Matrix: (Units=GPa)
#
#
# Indices 1 2 3 4 5 6 
#
# 1 33.0938 10.2445 3.1404 2.3692 7.4443 -5.1365
# 2 10.2445 106.0841 1.5438 -18.3196 -2.2157 12.1989
# 3 3.1404 1.5438 43.4867 -8.2388 33.8368 17.2587
# 4 2.3692 -18.3196 -8.2388 35.8953 -5.0779 2.7927
# 5 7.4443 -2.2157 33.8368 -5.0779 22.5008 6.6695
# 6 -5.1365 12.1989 17.2587 2.7927 6.6695 48.4727
#
#
#
# Elastic Compliance Matrix: (Units=1/GPa)
#
#
# Indices 1 2 3 4 5 6 
#
# 1 0.031304 -0.004834 -0.025822 -0.008079 0.022902 0.011042
# 2 -0.004834 0.011712 0.006722 0.007736 -0.003903 -0.005762
# 3 -0.025822 0.006722 -0.094727 0.003965 0.150054 0.008425
# 4 -0.008079 0.007736 0.003965 0.034874 0.007493 -0.007255
# 5 0.022902 -0.003903 0.150054 0.007493 -0.179861 -0.025702
# 6 0.011042 -0.005762 0.008425 -0.007255 -0.025702 0.024205
#
#
# Mechanical properties :
#
#
# Convention : Reuss Voigt Hill
#
# Bulk Modulus (GPa) = -10.04244 23.61358 6.78557
# Shear Modulus (GPa) = -31.68220 32.55614 0.43697
#
# Velocity S-wave (km/s) = -3.77892 3.83068 0.44380
# Velocity P-wave (km/s) = 4.85456 5.49626 1.82239
#
# Compressibility (1/GPa) = -0.09957739
#
# Stress axis : x y z
#
# Youngs Moduli (GPa) = 31.94447 85.37955 -10.55665
#
# Poissons Ratio (x) = 0.41271 -0.27259
# Poissons Ratio (y) = 0.15441 0.07096
# Poissons Ratio (z) = 0.82487 -0.57394
#
# Static dielectric constant tensor:
#      x y z
#    x 1.962210 0.000420 -0.125310 
#    y 0.000420 1.756940 -0.008900 
#    z -0.125310 -0.008900 1.891220 
# 
# From -- ./inp_files/65878.got.cif
#   From: 2010.05.17/outbox.ucp.g08.bks.cvg/sg2_33_cif.got.tgz:65878.got - 2010.06.11 11:32:03.
