data_PCOD9074588
_publ_section_title
;
Structure prediction by ZEFSAII (Michael W. Deem and Ramdas Pophale) SiO2 
 PCOD9074588
Probable space group: P -1
;
_chemical_formula_sum "Si O2"
_cell_formula_units_Z 15
_cell_length_a 9.000000
_cell_length_b 9.000000
_cell_length_c 18.000000
_cell_angle_alpha 120.000000
_cell_angle_beta 120.000000
_cell_angle_gamma 30.000000
_cell_volume 623.732165
_symmetry_space_group_name_H-M "P -1"
_symmetry_group_IT_number 2
_symmetry_cell_setting 'triclinic'
loop_
_space_group_symop_operation_xyz
x,y,z
-x,-y,-z
loop_
_atom_site_type_symbol
_atom_site_label
_atom_site_fract_x
_atom_site_fract_y
_atom_site_fract_z
Si Si1 0.356937 0.944863 0.987757
Si Si2 0.159663 0.588133 0.246662
Si Si3 0.526723 0.400736 0.577467
Si Si4 0.245388 0.667863 0.132786
Si Si5 0.099472 0.540302 0.602366
Si Si6 0.404176 0.915214 0.284425
Si Si7 0.000000 0.000000 0.500000
Si Si8 0.472839 0.026226 0.814493
O O1 0.483656 0.674961 0.910443
O O2 0.435006 0.913104 0.085215
O O3 0.004908 0.200011 0.953505
O O4 0.500000 0.000000 0.000000
O O5 0.230911 0.652970 0.350006
O O6 0.113360 0.735369 0.197965
O O7 0.882424 0.689594 0.212563
O O8 0.441912 0.237974 0.210048
O O9 0.356414 0.459024 0.617895
O O10 0.264342 0.698662 0.539072
O O11 0.736108 0.105772 0.508174
O O12 0.357986 0.769446 0.196229
O O13 0.269332 0.314534 0.657204
O O14 0.000000 0.500000 0.500000
O O15 0.827394 0.864806 0.652160
O O16 0.364137 0.078246 0.248154
#
# Coordination Sequence:
#
# PCOD9074588 Si02
#       8
#     2   2   2   2   2   2   1   2
#     4  12  23  42  71 109 138 182 243 289 348 416
#     4  12  23  42  71  98 134 191 229 286 348 420
#     4  11  24  43  69 100 133 180 236 281 352 421
#     4  12  24  43  74  98 137 191 235 283 347 427
#     4  12  27  47  74  98 140 191 239 284 356 431
#     4  12  28  48  69 106 143 187 238 286 360 426
#     4  10  24  40  64 100 132 158 224 312 332 392
#     4  12  27  43  70 107 146 181 233 303 348 407
#
# _framework density 24.048784000000001
#
# number of rings (size 3 to 8) (size 9 to 14) (size 15 to 20)
#    0.000    0.267    4.000    4.800    1.867    7.467 
#    0.000    0.000    0.000    0.000    0.000    0.000 
#    0.000    0.000    0.000    0.000    0.000    0.000 
#
# Total GULP energy -83502.159020 kJ/mol
# GULP energy per Si atom -5566.810601 kJ/mol
# Density = 2.399405 g / cm^3
# Si number density = 24.048784 Si / 1000 Ang^3
#
#
#
# Elastic Constant Matrix: (Units=GPa)
#
#
# Indices 1 2 3 4 5 6 
#
# 1 10.4046 5.3881 32.4583 -15.0377 -18.0313 4.3372
# 2 5.3881 88.7496 20.3765 -17.2036 -10.0292 2.8886
# 3 32.4583 20.3765 56.2570 -29.8189 19.2006 21.7055
# 4 -15.0377 -17.2036 -29.8189 38.9988 -4.6622 1.5558
# 5 -18.0313 -10.0292 19.2006 -4.6622 36.2693 12.2274
# 6 4.3372 2.8886 21.7055 1.5558 12.2274 7.9730
#
#
#
# Elastic Compliance Matrix: (Units=1/GPa)
#
#
# Indices 1 2 3 4 5 6 
#
# 1 -0.025966 -0.007830 0.015806 -0.006334 -0.032888 0.025604
# 2 -0.007830 0.011682 -0.001328 0.000576 -0.002227 0.006944
# 3 0.015806 -0.001328 -0.024171 -0.016268 -0.004806 0.068229
# 4 -0.006334 0.000576 -0.016268 0.005685 -0.019245 0.075929
# 5 -0.032888 -0.002227 -0.004806 -0.019245 -0.002701 0.039679
# 6 0.025604 0.006944 0.068229 0.075929 0.039679 -0.152434
#
#
# Mechanical properties :
#
#
# Convention : Reuss Voigt Hill
#
# Bulk Modulus (GPa) = -39.74935 30.20633 -4.77151
# Shear Modulus (GPa) = -23.85635 23.12745 -0.36445
#
# Velocity S-wave (km/s) = -3.15302 3.10448 -0.38971
# Velocity P-wave (km/s) = 5.46076 5.04362 1.48017
#
# Compressibility (1/GPa) = -0.02515764
#
# Stress axis : x y z
#
# Youngs Moduli (GPa) = -38.51186 85.60378 -41.37265
#
# Poissons Ratio (x) = 0.67030 0.65395
# Poissons Ratio (y) = -0.30156 -0.05492
# Poissons Ratio (z) = 0.60874 0.11364
#
# Static dielectric constant tensor:
#      x y z
#    x 1.793170 0.128970 -0.214090 
#    y 0.128970 1.990650 0.085170 
#    z -0.214090 0.085170 1.869050 
# 
# From -- ./inp_files/557493.got.cif
#   From: 2010.05.17/outbox.ucp.g08.bks.cvg/sg2_279_cif.got.tgz:557493.got - 2010.06.11 11:32:03.
