data_PCOD9074312
_publ_section_title
;
Structure prediction by ZEFSAII (Michael W. Deem and Ramdas Pophale) SiO2 
 PCOD9074312
Probable space group: P -1
;
_chemical_formula_sum "Si O2"
_cell_formula_units_Z 13
_cell_length_a 5.107985
_cell_length_b 4.779749
_cell_length_c 19.566552
_cell_angle_alpha 62.223044
_cell_angle_beta 96.878779
_cell_angle_gamma 89.805075
_cell_volume 418.670177
_symmetry_space_group_name_H-M "P -1"
_symmetry_group_IT_number 2
_symmetry_cell_setting 'triclinic'
loop_
_space_group_symop_operation_xyz
x,y,z
-x,-y,-z
loop_
_atom_site_type_symbol
_atom_site_label
_atom_site_fract_x
_atom_site_fract_y
_atom_site_fract_z
Si Si1 0.650345 0.263619 0.678566
Si Si2 0.851863 0.336966 0.328712
Si Si3 0.098380 0.427274 0.830901
Si Si4 0.000000 0.500000 0.500000
Si Si5 0.393425 0.989098 0.156624
Si Si6 0.753083 0.785816 0.007236
Si Si7 0.500000 0.500000 0.500000
Si Si8 0.000000 0.000000 0.500000
O O1 0.437337 0.522914 0.676176
O O2 0.631661 0.978209 0.765923
O O3 0.558537 0.234702 0.600540
O O4 0.939250 0.400822 0.676224
O O5 0.886715 0.291683 0.254571
O O6 0.949599 0.028236 0.409636
O O7 0.321940 0.169303 0.837685
O O8 0.820720 0.270563 0.836700
O O9 0.186973 0.488504 0.903944
O O10 0.779873 0.690617 0.519249
O O11 0.231730 0.685217 0.521145
O O12 0.303435 0.269284 0.068188
O O13 0.500000 0.000000 0.000000
O O14 0.000000 0.000000 0.000000
#
# Coordination Sequence:
#
# PCOD9074312 Si02
#       8
#     2   2   2   1   2   2   1   1
#     4  10  18  32  50  76 108 148 191 237 289 343
#     4  10  20  32  54  74 110 146 190 238 288 346
#     4   8  14  24  38  64  92 136 172 224 274 335
#     4  12  28  40  68  84 124 152 212 244 308 352
#     4   8  14  22  38  62  94 136 172 225 273 335
#     4   8  12  20  34  56  92 128 170 216 271 331
#     4  12  20  40  56  88 112 164 194 256 290 360
#     4  12  24  46  60  94 116 166 196 258 296 362
#
# _framework density 31.050695000000001
#
# number of rings (size 3 to 8) (size 9 to 14) (size 15 to 20)
#    0.000    2.462    3.077    0.000    0.000    2.462 
#    0.000    0.000    0.000    0.000    0.000    0.000 
#    0.000    2.462    0.615    0.000    0.000    4.000 
#
# Total GULP energy -72493.988765 kJ/mol
# GULP energy per Si atom -5576.460674 kJ/mol
# Density = 3.098002 g / cm^3
# Si number density = 31.050695 Si / 1000 Ang^3
#
#
#
# Elastic Constant Matrix: (Units=GPa)
#
#
# Indices 1 2 3 4 5 6 
#
# 1 282.0905 82.8015 -3.3944 14.2032 15.7186 -1.9701
# 2 82.8015 99.8642 2.8761 11.5798 -0.7047 0.9785
# 3 -3.3944 2.8761 342.4708 15.0318 6.0079 5.9950
# 4 14.2032 11.5798 15.0318 17.1736 5.5591 1.4743
# 5 15.7186 -0.7047 6.0079 5.5591 37.4541 12.1605
# 6 -1.9701 0.9785 5.9950 1.4743 12.1605 71.2099
#
#
#
# Elastic Compliance Matrix: (Units=1/GPa)
#
#
# Indices 1 2 3 4 5 6 
#
# 1 0.004883 -0.003980 0.000146 -0.000816 -0.002212 0.000572
# 2 -0.003980 0.014195 0.000121 -0.007375 0.003245 -0.000717
# 3 0.000146 0.000121 0.003049 -0.002834 -0.000068 -0.000184
# 4 -0.000816 -0.007375 -0.002834 0.069493 -0.009837 0.000558
# 5 -0.002212 0.003245 -0.000068 -0.009837 0.030836 -0.005162
# 6 0.000572 -0.000717 -0.000184 0.000558 -0.005162 0.014954
#
#
# Mechanical properties :
#
#
# Convention : Reuss Voigt Hill
#
# Bulk Modulus (GPa) = 68.01725 98.77689 83.39707
# Shear Modulus (GPa) = 33.39198 67.97700 50.68449
#
# Velocity S-wave (km/s) = 3.28289 4.68399 4.04457
# Velocity P-wave (km/s) = 6.02682 7.81880 6.98055
#
# Compressibility (1/GPa) = 0.01470215
#
# Stress axis : x y z
#
# Youngs Moduli (GPa) = 204.78183 70.44796 327.95687
#
# Poissons Ratio (x) = 0.28036 -0.04803
# Poissons Ratio (y) = 0.81496 -0.03957
# Poissons Ratio (z) = -0.02999 -0.00850
#
# Static dielectric constant tensor:
#      x y z
#    x 2.374200 -0.007280 -0.051010 
#    y -0.007280 2.129940 0.090490 
#    z -0.051010 0.090490 2.393570 
# 
# From -- ./inp_files/6548.got.cif
#   From: 2010.05.17/outbox.cif.g08.bks.cpg/sg2_4_cif.got.tgz:6548.got - 2010.06.03 11:33:40.
