data_PCOD9074315
_publ_section_title
;
Structure prediction by ZEFSAII (Michael W. Deem and Ramdas Pophale) SiO2 
 PCOD9074315
Probable space group: P -1
;
_chemical_formula_sum "Si O2"
_cell_formula_units_Z 16
_cell_length_a 9.000000
_cell_length_b 12.000000
_cell_length_c 9.000000
_cell_angle_alpha 80.000000
_cell_angle_beta 90.000000
_cell_angle_gamma 130.000000
_cell_volume 725.212580
_symmetry_space_group_name_H-M "P -1"
_symmetry_group_IT_number 2
_symmetry_cell_setting 'triclinic'
loop_
_space_group_symop_operation_xyz
x,y,z
-x,-y,-z
loop_
_atom_site_type_symbol
_atom_site_label
_atom_site_fract_x
_atom_site_fract_y
_atom_site_fract_z
Si Si1 0.712046 0.314794 0.637306
Si Si2 0.742797 0.920404 0.300655
Si Si3 0.892070 0.748786 0.691688
Si Si4 0.135863 0.235215 0.838699
Si Si5 0.092438 0.376645 0.579910
Si Si6 0.173130 0.517319 0.082435
Si Si7 0.321229 0.998396 0.034321
Si Si8 0.402436 0.273065 0.100693
O O1 0.483563 0.193807 0.618403
O O2 0.857531 0.280523 0.622151
O O3 0.747051 0.374117 0.795623
O O4 0.807464 0.457018 0.501245
O O5 0.833537 0.845058 0.269677
O O6 0.708223 0.960770 0.133757
O O7 0.911631 0.077072 0.343895
O O8 0.906907 0.643498 0.820773
O O9 0.704903 0.727839 0.755208
O O10 0.868834 0.687200 0.542469
O O11 0.193353 0.379637 0.726759
O O12 0.266939 0.259445 0.970819
O O13 0.906395 0.141271 0.895904
O O14 0.369065 0.591308 0.967534
O O15 0.000000 0.500000 0.000000
O O16 0.382178 0.126844 0.120722
O O17 0.500000 0.000000 0.000000
#
# Coordination Sequence:
#
# PCOD9074315 Si02
#       8
#     2   2   2   2   2   2   2   2
#     4  10  22  47  65  97 137 180 229 270 335 412
#     4  11  21  40  70  96 133 172 226 282 332 398
#     4  11  24  44  63 102 141 171 223 286 333 394
#     4  11  21  40  70  98 130 182 223 270 337 410
#     4  10  25  43  67  94 142 184 220 271 336 405
#     4  11  25  42  69 101 134 173 227 288 340 389
#     4  11  21  36  68 103 129 173 225 275 335 397
#     4  11  22  43  68  98 135 175 227 283 336 399
#
# _framework density 22.062495999999999
#
# number of rings (size 3 to 8) (size 9 to 14) (size 15 to 20)
#    0.000    1.250    5.000    1.875    3.500    1.500 
#    0.000    2.500    0.000    0.000    0.000    0.000 
#    0.000    0.000    0.000    0.000    0.000    0.000 
#
# Total GULP energy -89310.256152 kJ/mol
# GULP energy per Si atom -5581.891010 kJ/mol
# Density = 2.201228 g / cm^3
# Si number density = 22.062496 Si / 1000 Ang^3
#
#
#
# Elastic Constant Matrix: (Units=GPa)
#
#
# Indices 1 2 3 4 5 6 
#
# 1 178.3773 41.4465 67.7118 -17.5504 -17.9715 6.0070
# 2 41.4465 75.9481 26.7597 -7.8056 -8.7593 17.0997
# 3 67.7118 26.7597 36.3639 -15.1021 -14.2364 -4.1324
# 4 -17.5504 -7.8056 -15.1021 19.8791 -3.0841 -15.0012
# 5 -17.9715 -8.7593 -14.2364 -3.0841 39.7867 -4.2952
# 6 6.0070 17.0997 -4.1324 -15.0012 -4.2952 42.9745
#
#
#
# Elastic Compliance Matrix: (Units=1/GPa)
#
#
# Indices 1 2 3 4 5 6 
#
# 1 0.000576 -0.011068 0.032537 0.040717 0.015124 0.023177
# 2 -0.011068 0.008750 0.034546 0.032626 0.013341 0.014110
# 3 0.032537 0.034546 -0.151739 -0.149474 -0.053338 -0.090393
# 4 0.040717 0.032626 -0.149474 -0.065894 -0.039495 -0.059996
# 5 0.015124 0.013341 -0.053338 -0.039495 0.010021 -0.025336
# 6 0.023177 0.014110 -0.090393 -0.059996 -0.025336 -0.017752
#
#
# Mechanical properties :
#
#
# Convention : Reuss Voigt Hill
#
# Bulk Modulus (GPa) = -32.91367 62.50282 14.79457
# Shear Modulus (GPa) = -14.78430 30.84613 8.03091
#
# Velocity S-wave (km/s) = -2.59146 3.74321 1.90997
# Velocity P-wave (km/s) = 4.88927 6.86102 3.40357
#
# Compressibility (1/GPa) = -0.03038251
#
# Stress axis : x y z
#
# Youngs Moduli (GPa) = 1735.36601 114.29092 -6.59027
#
# Poissons Ratio (x) = 1.26495 0.21443
# Poissons Ratio (y) = 19.20662 0.22767
# Poissons Ratio (z) = -56.46301 -3.94834
#
# Static dielectric constant tensor:
#      x y z
#    x 1.936720 0.007770 -0.052580 
#    y 0.007770 1.935540 -0.079850 
#    z -0.052580 -0.079850 1.866450 
# 
# From -- ./inp_files/186752.got.cif
#   From: 2010.05.17/outbox.ucp.g08.bks.cvg/sg2_94_cif.got.tgz:186752.got - 2010.06.11 11:32:03.
