data_PCOD9074228
_publ_section_title
;
Structure prediction by ZEFSAII (Michael W. Deem and Ramdas Pophale) SiO2 
 PCOD9074228
Probable space group: P -1
;
_chemical_formula_sum "Si O2"
_cell_formula_units_Z 16
_cell_length_a 15.000000
_cell_length_b 9.000000
_cell_length_c 9.000000
_cell_angle_alpha 110.000000
_cell_angle_beta 100.000000
_cell_angle_gamma 130.000000
_cell_volume 732.374747
_symmetry_space_group_name_H-M "P -1"
_symmetry_group_IT_number 2
_symmetry_cell_setting 'triclinic'
loop_
_space_group_symop_operation_xyz
x,y,z
-x,-y,-z
loop_
_atom_site_type_symbol
_atom_site_label
_atom_site_fract_x
_atom_site_fract_y
_atom_site_fract_z
Si Si1 0.694796 0.649976 0.722340
Si Si2 0.315600 0.854122 0.081854
Si Si3 0.668131 0.237282 0.615274
Si Si4 0.953281 0.104652 0.393040
Si Si5 0.106197 0.648687 0.433506
Si Si6 0.533927 0.408333 0.288379
Si Si7 0.104925 0.845885 0.930956
Si Si8 0.221586 0.413322 0.735559
O O1 0.702923 0.472778 0.699000
O O2 0.628290 0.576227 0.515042
O O3 0.581894 0.606597 0.770255
O O4 0.841497 0.938397 0.876778
O O5 0.287112 0.778751 0.219529
O O6 0.462688 0.141633 0.207815
O O7 0.216986 0.858191 0.989961
O O8 0.281055 0.648089 0.912115
O O9 0.740213 0.229029 0.498781
O O10 0.500000 0.000000 0.500000
O O11 0.893413 0.159003 0.510113
O O12 0.902865 0.088442 0.211118
O O13 0.121724 0.329298 0.538037
O O14 0.890741 0.846585 0.303965
O O15 0.000000 0.500000 0.500000
O O16 0.032458 0.446150 0.213879
O O17 0.646416 0.523466 0.234067
#
# Coordination Sequence:
#
# PCOD9074228 Si02
#       8
#     2   2   2   2   2   2   2   2
#     4  10  23  43  63  99 134 180 232 279 350 405
#     4  11  23  43  66 103 135 177 234 283 348 411
#     4  12  26  44  71 103 141 182 229 289 346 413
#     4  10  23  42  67  97 139 175 227 293 342 406
#     4  10  24  45  73 100 135 183 229 281 350 411
#     4  10  23  42  68  94 139 185 227 287 342 416
#     4  10  22  44  67  98 138 179 232 286 343 408
#     4  11  23  42  68 102 134 181 237 282 345 411
#
# _framework density 21.846738999999999
#
# number of rings (size 3 to 8) (size 9 to 14) (size 15 to 20)
#    0.000    1.500    2.500    1.125    5.250    1.000 
#   13.500    3.125    0.000    0.000    0.000    0.000 
#    0.000    0.000    0.000    0.000    0.000    0.000 
#
# Total GULP energy -89067.933691 kJ/mol
# GULP energy per Si atom -5566.745856 kJ/mol
# Density = 2.179701 g / cm^3
# Si number density = 21.846739 Si / 1000 Ang^3
#
#
#
# Elastic Constant Matrix: (Units=GPa)
#
#
# Indices 1 2 3 4 5 6 
#
# 1 100.6588 1.3397 -0.9471 2.7763 -6.6063 2.8912
# 2 1.3397 19.2477 22.6088 16.9085 -6.8883 1.1414
# 3 -0.9471 22.6088 97.2057 23.7144 -2.2090 -4.7233
# 4 2.7763 16.9085 23.7144 43.6480 -19.7301 -2.5218
# 5 -6.6063 -6.8883 -2.2090 -19.7301 30.6237 6.1719
# 6 2.8912 1.1414 -4.7233 -2.5218 6.1719 42.4546
#
#
#
# Elastic Compliance Matrix: (Units=1/GPa)
#
#
# Indices 1 2 3 4 5 6 
#
# 1 0.010131 -0.000210 0.000010 0.000611 0.002744 -0.001046
# 2 -0.000210 0.096616 -0.016097 -0.027046 0.004436 -0.006625
# 3 0.000010 -0.016097 0.015136 -0.004545 -0.006003 0.002719
# 4 0.000611 -0.027046 -0.004545 0.046555 0.023819 -0.000518
# 5 0.002744 0.004436 -0.006003 0.023819 0.050549 -0.006908
# 6 -0.001046 -0.006625 0.002719 -0.000518 -0.006908 0.025080
#
#
# Mechanical properties :
#
#
# Convention : Reuss Voigt Hill
#
# Bulk Modulus (GPa) = 11.19955 29.23499 20.21727
# Shear Modulus (GPa) = 16.31729 36.28599 26.30164
#
# Velocity S-wave (km/s) = 2.73591 4.07988 3.47351
# Velocity P-wave (km/s) = 3.88816 5.96697 5.03600
#
# Compressibility (1/GPa) = 0.08928932
#
# Stress axis : x y z
#
# Youngs Moduli (GPa) = 98.71009 10.35024 66.06798
#
# Poissons Ratio (x) = 0.00217 -0.00066
# Poissons Ratio (y) = 0.02073 1.06347
# Poissons Ratio (z) = -0.00098 0.16660
#
# Static dielectric constant tensor:
#      x y z
#    x 1.874740 0.011130 0.034390 
#    y 0.011130 1.880020 0.024720 
#    z 0.034390 0.024720 1.857180 
# 
# From -- ./inp_files/299272.got.cif
#   From: 2010.05.17/outbox.ucp.g08.bks.cvg/sg2_150_cif.got.tgz:299272.got - 2010.06.11 11:32:03.
