data_PCOD9074874
_publ_section_title
;
Structure prediction by ZEFSAII (Michael W. Deem and Ramdas Pophale) SiO2 
 PCOD9074874
Probable space group: P -1
;
_chemical_formula_sum "Si O2"
_cell_formula_units_Z 16
_cell_length_a 21.000000
_cell_length_b 9.000000
_cell_length_c 27.000000
_cell_angle_alpha 40.000000
_cell_angle_beta 160.000000
_cell_angle_gamma 150.000000
_cell_volume 837.950403
_symmetry_space_group_name_H-M "P -1"
_symmetry_group_IT_number 2
_symmetry_cell_setting 'triclinic'
loop_
_space_group_symop_operation_xyz
x,y,z
-x,-y,-z
loop_
_atom_site_type_symbol
_atom_site_label
_atom_site_fract_x
_atom_site_fract_y
_atom_site_fract_z
Si Si1 0.270928 0.731018 0.241385
Si Si2 0.153488 0.832709 0.417939
Si Si3 0.210066 0.377103 0.443840
Si Si4 0.755630 0.775312 0.706836
Si Si5 0.603684 0.677995 0.853799
Si Si6 0.897187 0.674504 0.367192
Si Si7 0.945787 0.273633 0.806840
Si Si8 0.216012 0.366848 0.562897
O O1 0.182752 0.434003 0.218741
O O2 0.163499 0.723819 0.219609
O O3 0.563631 0.921329 0.417229
O O4 0.254783 0.959424 0.141158
O O5 0.102810 0.519548 0.456189
O O6 0.958843 0.767890 0.331376
O O7 0.143565 0.963247 0.326892
O O8 0.454779 0.540038 0.548019
O O9 0.076648 0.506369 0.297358
O O10 0.302930 0.473905 0.543173
O O11 0.040867 0.006907 0.413184
O O12 0.834097 0.968395 0.767786
O O13 0.390142 0.542029 0.773283
O O14 0.445122 0.506053 0.731378
O O15 0.784757 0.613968 0.012947
O O16 0.000000 0.500000 0.500000
O O17 0.000000 0.000000 0.500000
#
# Coordination Sequence:
#
# PCOD9074874 Si02
#       8
#     2   2   2   2   2   2   2   2
#     4  11  22  41  67  96 133 172 220 275 324 385
#     4  11  20  37  64  96 124 157 226 283 308 369
#     4  12  22  39  69  98 125 172 225 274 319 392
#     4  12  22  41  68  99 128 172 229 272 323 386
#     4  11  25  43  63  96 141 173 208 277 338 393
#     4  12  21  40  67  94 125 171 227 270 322 389
#     4  12  26  42  65 101 141 170 213 271 347 394
#     4  11  21  40  65  93 124 171 223 265 318 390
#
# _framework density 19.094208999999999
#
# number of rings (size 3 to 8) (size 9 to 14) (size 15 to 20)
#    0.000    0.500    7.500    3.375    0.000    1.000 
#    0.000    3.125    0.000    0.000    0.000    0.000 
#    0.000    0.000    0.000    0.000    0.000    0.000 
#
# Total GULP energy -89083.603801 kJ/mol
# GULP energy per Si atom -5567.725238 kJ/mol
# Density = 1.905075 g / cm^3
# Si number density = 19.094209 Si / 1000 Ang^3
#
#
#
# Elastic Constant Matrix: (Units=GPa)
#
#
# Indices 1 2 3 4 5 6 
#
# 1 146.2449 36.4063 45.2642 -6.2433 14.4268 -1.4336
# 2 36.4063 95.5271 50.6480 -6.5418 4.1869 -24.9429
# 3 45.2642 50.6480 97.7615 -21.5671 12.6279 2.9855
# 4 -6.2433 -6.5418 -21.5671 17.6084 -6.7577 0.0512
# 5 14.4268 4.1869 12.6279 -6.7577 21.6807 0.1246
# 6 -1.4336 -24.9429 2.9855 0.0512 0.1246 46.3375
#
#
#
# Elastic Compliance Matrix: (Units=1/GPa)
#
#
# Indices 1 2 3 4 5 6 
#
# 1 0.008554 -0.001699 -0.003201 -0.003249 -0.004509 -0.000428
# 2 -0.001699 0.019535 -0.011370 -0.006589 0.001863 0.011198
# 3 -0.003201 -0.011370 0.022960 0.021957 -0.002159 -0.007717
# 4 -0.003249 -0.006589 0.021957 0.086918 0.017767 -0.005206
# 5 -0.004509 0.001863 -0.002159 0.017767 0.055555 0.000833
# 6 -0.000428 0.011198 -0.007717 -0.005206 0.000833 0.028096
#
#
# Mechanical properties :
#
#
# Convention : Reuss Voigt Hill
#
# Bulk Modulus (GPa) = 54.03102 67.13005 60.58053
# Shear Modulus (GPa) = 19.20648 30.93965 25.07306
#
# Velocity S-wave (km/s) = 3.17500 4.02975 3.62764
# Velocity P-wave (km/s) = 6.46524 7.54224 7.02441
#
# Compressibility (1/GPa) = 0.01850789
#
# Stress axis : x y z
#
# Youngs Moduli (GPa) = 116.91003 51.18970 43.55359
#
# Poissons Ratio (x) = 0.08698 0.13942
# Poissons Ratio (y) = 0.19865 0.49521
# Poissons Ratio (z) = 0.37425 0.58203
#
# Static dielectric constant tensor:
#      x y z
#    x 1.801080 -0.006940 -0.017350 
#    y -0.006940 1.689550 0.014530 
#    z -0.017350 0.014530 1.630990 
# 
# From -- ./inp_files/559026.got.cif
#   From: 2010.05.17/outbox.ucp.g08.bks.cvg/sg2_280_cif.got.tgz:559026.got - 2010.06.11 11:32:03.
