data_PCOD9074001
_publ_section_title
;
Structure prediction by ZEFSAII (Michael W. Deem and Ramdas Pophale) SiO2 
 PCOD9074001
Probable space group: P -1
;
_chemical_formula_sum "Si O2"
_cell_formula_units_Z 15
_cell_length_a 9.000000
_cell_length_b 30.000000
_cell_length_c 30.000000
_cell_angle_alpha 10.000000
_cell_angle_beta 30.000000
_cell_angle_gamma 30.000000
_cell_volume 695.153643
_symmetry_space_group_name_H-M "P -1"
_symmetry_group_IT_number 2
_symmetry_cell_setting 'triclinic'
loop_
_space_group_symop_operation_xyz
x,y,z
-x,-y,-z
loop_
_atom_site_type_symbol
_atom_site_label
_atom_site_fract_x
_atom_site_fract_y
_atom_site_fract_z
Si Si1 0.658347 0.237014 0.242897
Si Si2 0.648079 0.494021 0.399347
Si Si3 0.283609 0.291043 0.466800
Si Si4 0.211705 0.723587 0.726161
Si Si5 0.512122 0.453364 0.714721
Si Si6 0.666885 0.994101 0.734502
Si Si7 0.048082 0.303841 0.776289
Si Si8 0.500000 0.000000 0.000000
O O1 0.646356 0.272453 0.264861
O O2 0.500000 0.000000 0.500000
O O3 0.500000 0.500000 0.000000
O O4 0.007814 0.139555 0.235849
O O5 0.574221 0.533564 0.327616
O O6 0.394179 0.360562 0.623241
O O7 0.645419 0.770991 0.151597
O O8 0.962491 0.300099 0.516142
O O9 0.532045 0.327345 0.328781
O O10 0.449449 0.059772 0.683082
O O11 0.172717 0.525472 0.299658
O O12 0.000000 0.000000 0.500000
O O13 0.000000 0.500000 0.000000
O O14 0.363608 0.725675 0.508281
O O15 0.872959 0.383598 0.697559
O O16 0.416775 0.211445 0.005161
O O17 0.156275 0.012873 0.052322
#
# Coordination Sequence:
#
# PCOD9074001 Si02
#       8
#     2   2   2   2   2   2   2   1
#     4  12  27  48  78 108 155 192 248 318 383 442
#     4  11  25  47  70 111 144 196 253 305 364 444
#     4  10  24  47  74 103 149 191 248 301 370 438
#     4  12  27  50  78 112 147 198 254 308 372 460
#     4  11  27  45  75 108 150 196 243 305 367 448
#     4  11  26  48  71 108 151 195 244 300 382 440
#     4  10  24  43  72 101 151 192 244 302 373 425
#     4  10  22  40  70  96 142 186 248 294 364 418
#
# _framework density 21.577964000000001
#
# number of rings (size 3 to 8) (size 9 to 14) (size 15 to 20)
#    0.000    1.067    1.333    3.600   14.933    0.533 
#    4.800    0.000    0.000    0.000    0.000    0.000 
#    0.000    0.000    0.000    0.000    0.000    0.000 
#
# Total GULP energy -83553.233824 kJ/mol
# GULP energy per Si atom -5570.215588 kJ/mol
# Density = 2.152885 g / cm^3
# Si number density = 21.577964 Si / 1000 Ang^3
#
#
#
# Elastic Constant Matrix: (Units=GPa)
#
#
# Indices 1 2 3 4 5 6 
#
# 1 197.6183 67.9954 41.0457 5.9398 30.1537 0.4997
# 2 67.9954 183.0024 57.7957 1.5248 22.0329 -20.0629
# 3 41.0457 57.7957 110.2134 -4.2913 6.7385 -2.9101
# 4 5.9398 1.5248 -4.2913 43.8891 -5.0247 15.0477
# 5 30.1537 22.0329 6.7385 -5.0247 37.3522 -7.8889
# 6 0.4997 -20.0629 -2.9101 15.0477 -7.8889 50.9744
#
#
#
# Elastic Compliance Matrix: (Units=1/GPa)
#
#
# Indices 1 2 3 4 5 6 
#
# 1 0.006633 -0.001578 -0.001438 -0.001113 -0.004556 -0.001145
# 2 -0.001578 0.007710 -0.003302 -0.001666 -0.002268 0.003002
# 3 -0.001438 -0.003302 0.011320 0.001895 0.001104 -0.001028
# 4 -0.001113 -0.001666 0.001895 0.026228 0.003431 -0.007748
# 5 -0.004556 -0.002268 0.001104 0.003431 0.032741 0.003269
# 6 -0.001145 0.003002 -0.001028 -0.007748 0.003269 0.023545
#
#
# Mechanical properties :
#
#
# Convention : Reuss Voigt Hill
#
# Bulk Modulus (GPa) = 76.76748 91.61197 84.18972
# Shear Modulus (GPa) = 39.95041 48.04296 43.99669
#
# Velocity S-wave (km/s) = 4.30751 4.72368 4.52039
# Velocity P-wave (km/s) = 7.77133 8.50290 8.14533
#
# Compressibility (1/GPa) = 0.01302635
#
# Stress axis : x y z
#
# Youngs Moduli (GPa) = 150.75001 129.70484 88.34294
#
# Poissons Ratio (x) = 0.20472 0.12701
# Poissons Ratio (y) = 0.23794 0.29172
# Poissons Ratio (z) = 0.21674 0.42830
#
# Static dielectric constant tensor:
#      x y z
#    x 1.786280 -0.039200 -0.244320 
#    y -0.039200 1.771530 0.109030 
#    z -0.244320 0.109030 1.451050 
# 
# From -- ./inp_files/622774.got.cif
#   From: 2010.05.17/outbox.ucp.g08.bks.cvg/sg2_312_cif.got.tgz:622774.got - 2010.06.11 11:32:03.
