data_PCOD9074235
_publ_section_title
;
Structure prediction by ZEFSAII (Michael W. Deem and Ramdas Pophale) SiO2 
 PCOD9074235
Probable space group: P -1
;
_chemical_formula_sum "Si O2"
_cell_formula_units_Z 16
_cell_length_a 10.130387
_cell_length_b 26.118823
_cell_length_c 5.815723
_cell_angle_alpha 105.852175
_cell_angle_beta 38.146702
_cell_angle_gamma 129.689143
_cell_volume 640.868288
_symmetry_space_group_name_H-M "P -1"
_symmetry_group_IT_number 2
_symmetry_cell_setting 'triclinic'
loop_
_space_group_symop_operation_xyz
x,y,z
-x,-y,-z
loop_
_atom_site_type_symbol
_atom_site_label
_atom_site_fract_x
_atom_site_fract_y
_atom_site_fract_z
Si Si1 0.999404 0.800250 0.852127
Si Si2 0.575120 0.068237 0.200001
Si Si3 0.587245 0.471576 0.155157
Si Si4 0.062185 0.386868 0.386136
Si Si5 0.723627 0.243321 0.909775
Si Si6 0.764394 0.670930 0.296416
Si Si7 0.993173 0.093774 0.290066
Si Si8 0.282700 0.090297 0.241428
O O1 0.243262 0.870483 0.774234
O O2 0.150298 0.780383 0.465905
O O3 0.902356 0.831509 0.860309
O O4 0.751439 0.724569 0.248819
O O5 0.487157 0.090861 0.135813
O O6 0.263456 0.982907 0.600843
O O7 0.808249 0.070018 0.754250
O O8 0.500000 0.500000 0.500000
O O9 0.322511 0.429170 0.275641
O O10 0.535577 0.404503 0.255851
O O11 0.898275 0.548508 0.708150
O O12 0.766659 0.308432 0.812648
O O13 0.155754 0.360224 0.035268
O O14 0.946989 0.277802 0.863004
O O15 0.375044 0.163529 0.323690
O O16 0.270887 0.107105 0.008451
O O17 0.000000 0.000000 0.500000
#
# Coordination Sequence:
#
# PCOD9074235 Si02
#       8
#     2   2   2   2   2   2   2   2
#     4  11  18  32  53  74  98 135 172 215 268 313
#     4  10  20  38  52  70 101 134 171 226 268 307
#     4   8  13  24  39  71 105 132 168 209 250 308
#     4   8  15  24  44  69 101 136 171 207 253 308
#     4  10  18  32  50  70 103 138 170 218 264 303
#     4   9  16  26  47  70 102 139 165 209 265 305
#     4  10  21  35  53  72  99 133 177 220 265 314
#     4  10  20  37  53  71 102 139 175 220 267 306
#
# _framework density 24.96613
#
# number of rings (size 3 to 8) (size 9 to 14) (size 15 to 20)
#    0.000    2.500    2.500    0.375    0.000    0.000 
#    2.250    1.250    0.000    0.000    0.000    0.875 
#    0.000   99.000    0.000   23.125    0.000    5.875 
#
# Total GULP energy -89115.217975 kJ/mol
# GULP energy per Si atom -5569.701123 kJ/mol
# Density = 2.490931 g / cm^3
# Si number density = 24.966130 Si / 1000 Ang^3
#
#
#
# Elastic Constant Matrix: (Units=GPa)
#
#
# Indices 1 2 3 4 5 6 
#
# 1 100.7674 59.0651 42.0170 -19.0973 30.2564 -21.6657
# 2 59.0651 160.0611 48.8930 -31.1395 18.6212 12.0192
# 3 42.0170 48.8930 72.0508 -19.8659 9.7701 -15.8284
# 4 -19.0973 -31.1395 -19.8659 60.0637 -16.7598 38.9124
# 5 30.2564 18.6212 9.7701 -16.7598 26.9627 -18.1560
# 6 -21.6657 12.0192 -15.8284 38.9124 -18.1560 61.2703
#
#
#
# Elastic Compliance Matrix: (Units=1/GPa)
#
#
# Indices 1 2 3 4 5 6 
#
# 1 0.021513 -0.005658 -0.006936 -0.007567 -0.018144 0.006355
# 2 -0.005658 0.014084 -0.005656 0.012449 -0.003879 -0.015281
# 3 -0.006936 -0.005656 0.022157 0.000126 0.008289 0.006757
# 4 -0.007567 0.012449 0.000126 0.041667 0.005628 -0.029880
# 5 -0.018144 -0.003879 0.008289 0.005628 0.069772 0.013587
# 6 0.006355 -0.015281 0.006757 -0.029880 0.013587 0.046314
#
#
# Mechanical properties :
#
#
# Convention : Reuss Voigt Hill
#
# Bulk Modulus (GPa) = 47.05067 70.31441 58.68254
# Shear Modulus (GPa) = 19.29815 41.85295 30.57555
#
# Velocity S-wave (km/s) = 2.78326 4.09881 3.50334
# Velocity P-wave (km/s) = 5.40513 7.11516 6.31826
#
# Compressibility (1/GPa) = 0.02125368
#
# Stress axis : x y z
#
# Youngs Moduli (GPa) = 46.48429 71.00238 45.13249
#
# Poissons Ratio (x) = 0.40176 0.31302
# Poissons Ratio (y) = 0.26303 0.25527
# Poissons Ratio (z) = 0.32240 0.40159
#
# Static dielectric constant tensor:
#      x y z
#    x 2.000800 -0.007130 -0.025800 
#    y -0.007130 2.010910 -0.087540 
#    z -0.025800 -0.087540 2.298530 
# 
# From -- ./inp_files/47161.got.cif
#   From: 2010.05.17/outbox.cif.g08.bks.cpg/sg2_24_cif.got.tgz:47161.got - 2010.06.03 11:33:40.
