data_PCOD9074674
_publ_section_title
;
Structure prediction by ZEFSAII (Michael W. Deem and Ramdas Pophale) SiO2 
 PCOD9074674
Probable space group: P -1
;
_chemical_formula_sum "Si O2"
_cell_formula_units_Z 14
_cell_length_a 9.000000
_cell_length_b 18.000000
_cell_length_c 6.000000
_cell_angle_alpha 110.000000
_cell_angle_beta 110.000000
_cell_angle_gamma 120.000000
_cell_volume 614.029152
_symmetry_space_group_name_H-M "P -1"
_symmetry_group_IT_number 2
_symmetry_cell_setting 'triclinic'
loop_
_space_group_symop_operation_xyz
x,y,z
-x,-y,-z
loop_
_atom_site_type_symbol
_atom_site_label
_atom_site_fract_x
_atom_site_fract_y
_atom_site_fract_z
Si Si1 0.762705 0.091186 0.221147
Si Si2 0.520169 0.411779 0.966666
Si Si3 0.206268 0.071965 0.845546
Si Si4 0.669799 0.706263 0.746111
Si Si5 0.988584 0.569411 0.235529
Si Si6 0.042952 0.733630 0.126230
Si Si7 0.303155 0.772613 0.913745
O O1 0.862239 0.158873 0.574019
O O2 0.798935 0.178776 0.169536
O O3 0.826850 0.022651 0.130259
O O4 0.500000 0.000000 0.000000
O O5 0.445495 0.346697 0.616503
O O6 0.500000 0.500000 0.000000
O O7 0.423833 0.346705 0.095018
O O8 0.778858 0.483038 0.194602
O O9 0.243906 0.172115 0.076420
O O10 0.435645 0.137758 0.897159
O O11 0.000000 0.000000 0.500000
O O12 0.858629 0.705436 0.843681
O O13 0.942925 0.633100 0.135425
O O14 0.197124 0.667038 0.596256
O O15 0.000000 0.500000 0.000000
O O16 0.231034 0.749724 0.109305
#
# Coordination Sequence:
#
# PCOD9074674 Si02
#       7
#     2   2   2   2   2   2   2
#     4   9  21  44  67  94 140 185 240 287 372 423
#     4  12  26  48  74 105 148 198 238 304 371 430
#     4  11  23  46  71 106 145 187 244 309 369 428
#     4  12  27  46  72 113 149 187 252 301 363 442
#     4  11  25  43  70  98 142 190 240 300 363 433
#     4  11  23  42  69 102 138 186 245 293 362 445
#     4  10  24  44  71 100 140 188 247 295 360 455
#
# _framework density 22.800219999999999
#
# number of rings (size 3 to 8) (size 9 to 14) (size 15 to 20)
#    0.000    1.143    2.857    2.143    6.000    2.857 
#    2.571    1.429    0.000    0.000    0.000    0.000 
#    0.000    0.000    0.000    0.000    0.000    0.000 
#
# Total GULP energy -78021.637118 kJ/mol
# GULP energy per Si atom -5572.974080 kJ/mol
# Density = 2.274833 g / cm^3
# Si number density = 22.800220 Si / 1000 Ang^3
#
#
#
# Elastic Constant Matrix: (Units=GPa)
#
#
# Indices 1 2 3 4 5 6 
#
# 1 97.3710 51.4333 26.2569 16.3358 -3.8315 3.2936
# 2 51.4333 97.6491 52.2949 12.6376 -18.7954 -8.8764
# 3 26.2569 52.2949 117.5750 22.5166 -3.5130 5.1128
# 4 16.3358 12.6376 22.5166 35.2511 -10.4266 -8.8984
# 5 -3.8315 -18.7954 -3.5130 -10.4266 50.2794 7.7349
# 6 3.2936 -8.8764 5.1128 -8.8984 7.7349 64.9281
#
#
#
# Elastic Compliance Matrix: (Units=1/GPa)
#
#
# Indices 1 2 3 4 5 6 
#
# 1 0.015800 -0.009351 0.001974 -0.006868 -0.003147 -0.002802
# 2 -0.009351 0.020409 -0.007915 0.005043 0.006830 0.003765
# 3 0.001974 -0.007915 0.013186 -0.008173 -0.003125 -0.002968
# 4 -0.006868 0.005043 -0.008173 0.038834 0.007911 0.006061
# 5 -0.003147 0.006830 -0.003125 0.007911 0.023686 -0.000398
# 6 -0.002802 0.003765 -0.002968 0.006061 -0.000398 0.017170
#
#
# Mechanical properties :
#
#
# Convention : Reuss Voigt Hill
#
# Bulk Modulus (GPa) = 53.15919 63.61837 58.38878
# Shear Modulus (GPa) = 30.13174 42.26570 36.19872
#
# Velocity S-wave (km/s) = 3.63926 4.31018 3.98885
# Velocity P-wave (km/s) = 6.40506 7.26177 6.84683
#
# Compressibility (1/GPa) = 0.01881142
#
# Stress axis : x y z
#
# Youngs Moduli (GPa) = 63.29008 48.99859 75.84020
#
# Poissons Ratio (x) = 0.45817 -0.14968
# Poissons Ratio (y) = 0.59181 0.60024
# Poissons Ratio (z) = -0.12491 0.38780
#
# Static dielectric constant tensor:
#      x y z
#    x 1.906570 0.050240 0.033350 
#    y 0.050240 1.948150 0.023170 
#    z 0.033350 0.023170 1.913110 
# 
# From -- ./inp_files/27902.got.cif
#   From: 2010.05.17/outbox.ucp.g08.bks.cvg/sg2_14_cif.got.tgz:27902.got - 2010.06.11 11:32:03.
