data_PCOD9074223
_publ_section_title
;
Structure prediction by ZEFSAII (Michael W. Deem and Ramdas Pophale) SiO2 
 PCOD9074223
Probable space group: P -1
;
_chemical_formula_sum "Si O2"
_cell_formula_units_Z 16
_cell_length_a 18.000000
_cell_length_b 9.000000
_cell_length_c 12.000000
_cell_angle_alpha 40.000000
_cell_angle_beta 40.000000
_cell_angle_gamma 40.000000
_cell_volume 723.717541
_symmetry_space_group_name_H-M "P -1"
_symmetry_group_IT_number 2
_symmetry_cell_setting 'triclinic'
loop_
_space_group_symop_operation_xyz
x,y,z
-x,-y,-z
loop_
_atom_site_type_symbol
_atom_site_label
_atom_site_fract_x
_atom_site_fract_y
_atom_site_fract_z
Si Si1 0.703257 0.836815 0.816833
Si Si2 0.670255 0.457886 0.908176
Si Si3 0.467445 0.247953 0.740402
Si Si4 0.920782 0.099757 0.711365
Si Si5 0.031453 0.322998 0.284119
Si Si6 0.664175 0.263245 0.267083
Si Si7 0.939929 0.169624 0.078257
Si Si8 0.542627 0.929769 0.622881
O O1 0.731577 0.614441 0.820009
O O2 0.833501 0.819754 0.725004
O O3 0.611899 0.084509 0.711268
O O4 0.620558 0.817341 0.029479
O O5 0.778030 0.219286 0.857580
O O6 0.579299 0.659433 0.802513
O O7 0.625276 0.350638 0.131941
O O8 0.435560 0.535999 0.648288
O O9 0.451592 0.137447 0.701237
O O10 0.931431 0.313025 0.495650
O O11 0.959683 0.851720 0.731451
O O12 0.015749 0.002393 0.763614
O O13 0.018113 0.598650 0.102357
O O14 0.791785 0.273862 0.158215
O O15 0.667800 0.987302 0.441517
O O16 0.000000 0.000000 0.000000
O O17 0.500000 0.000000 0.500000
#
# Coordination Sequence:
#
# PCOD9074223 Si02
#       8
#     2   2   2   2   2   2   2   2
#     4   9  18  38  69  90 120 171 214 261 321 373
#     4  10  22  44  65  93 129 167 215 266 318 387
#     4   9  19  40  64  93 124 163 216 267 309 385
#     4  11  26  41  65  99 134 172 211 270 326 384
#     4  11  24  44  63  98 133 172 213 266 333 379
#     4  11  23  43  67  97 120 175 220 258 329 373
#     4  12  24  43  70  97 126 173 223 268 312 388
#     4  11  26  42  64 100 130 165 212 268 325 387
#
# _framework density 22.108073000000001
#
# number of rings (size 3 to 8) (size 9 to 14) (size 15 to 20)
#    0.000    1.500    3.750    1.500    5.250    3.500 
#    4.500    0.000    0.000    0.000    0.000    0.000 
#    0.000    0.000    0.000    0.000    0.000    0.000 
#
# Total GULP energy -89119.945056 kJ/mol
# GULP energy per Si atom -5569.996566 kJ/mol
# Density = 2.205775 g / cm^3
# Si number density = 22.108073 Si / 1000 Ang^3
#
#
#
# Elastic Constant Matrix: (Units=GPa)
#
#
# Indices 1 2 3 4 5 6 
#
# 1 90.3627 13.5509 17.3983 9.0016 42.7988 13.8125
# 2 13.5509 76.7123 26.2002 4.7254 19.4457 4.5659
# 3 17.3983 26.2002 93.7624 -9.5551 26.2243 14.1611
# 4 9.0016 4.7254 -9.5551 33.5254 10.2787 13.4318
# 5 42.7988 19.4457 26.2243 10.2787 43.0427 5.3836
# 6 13.8125 4.5659 14.1611 13.4318 5.3836 21.0978
#
#
#
# Elastic Compliance Matrix: (Units=1/GPa)
#
#
# Indices 1 2 3 4 5 6 
#
# 1 0.028173 0.001077 0.010222 0.016991 -0.035367 -0.027332
# 2 0.001077 0.015478 -0.003262 -0.001996 -0.005707 0.000862
# 3 0.010222 -0.003262 0.024121 0.025061 -0.025413 -0.031647
# 4 0.016991 -0.001996 0.025061 0.069709 -0.040199 -0.061635
# 5 -0.035367 -0.005707 -0.025413 -0.040199 0.080237 0.046565
# 6 -0.027332 0.000862 -0.031647 -0.061635 0.046565 0.113704
#
#
# Mechanical properties :
#
#
# Convention : Reuss Voigt Hill
#
# Bulk Modulus (GPa) = 11.92641 41.68179 26.80410
# Shear Modulus (GPa) = 14.56468 33.11238 23.83853
#
# Velocity S-wave (km/s) = 2.56948 3.87428 3.28727
# Velocity P-wave (km/s) = 3.76952 6.23762 5.15351
#
# Compressibility (1/GPa) = 0.08384756
#
# Stress axis : x y z
#
# Youngs Moduli (GPa) = 35.49486 64.60772 41.45702
#
# Poissons Ratio (x) = -0.06960 -0.42379
# Poissons Ratio (y) = -0.03824 0.13524
# Poissons Ratio (z) = -0.36285 0.21077
#
# Static dielectric constant tensor:
#      x y z
#    x 1.786540 0.014460 -0.015110 
#    y 0.014460 1.749580 -0.099220 
#    z -0.015110 -0.099220 1.898590 
# 
# From -- ./inp_files/461798.got.cif
#   From: 2010.05.17/outbox.ucp.g08.bks.cvg/sg2_231_cif.got.tgz:461798.got - 2010.06.11 11:32:03.
