data_PCOD9074385
_publ_section_title
;
Structure prediction by ZEFSAII (Michael W. Deem and Ramdas Pophale) SiO2 
 PCOD9074385
Probable space group: P -1
;
_chemical_formula_sum "Si O2"
_cell_formula_units_Z 14
_cell_length_a 9.000000
_cell_length_b 9.000000
_cell_length_c 24.000000
_cell_angle_alpha 140.000000
_cell_angle_beta 40.000000
_cell_angle_gamma 110.000000
_cell_volume 647.049418
_symmetry_space_group_name_H-M "P -1"
_symmetry_group_IT_number 2
_symmetry_cell_setting 'triclinic'
loop_
_space_group_symop_operation_xyz
x,y,z
-x,-y,-z
loop_
_atom_site_type_symbol
_atom_site_label
_atom_site_fract_x
_atom_site_fract_y
_atom_site_fract_z
Si Si1 0.341991 0.862952 0.372933
Si Si2 0.863557 0.874468 0.707275
Si Si3 0.040898 0.891865 0.893420
Si Si4 0.857511 0.879259 0.253249
Si Si5 0.303463 0.600950 0.952752
Si Si6 0.317932 0.527328 0.382402
Si Si7 0.285603 0.387122 0.073322
O O1 0.526818 0.988585 0.373301
O O2 0.505964 0.692177 0.220601
O O3 0.406331 0.657681 0.347615
O O4 0.000000 0.000000 0.500000
O O5 0.791844 0.643142 0.665069
O O6 0.051829 0.773617 0.567385
O O7 0.068629 0.888792 0.696792
O O8 0.543926 0.174797 0.893670
O O9 0.389150 0.686177 0.727178
O O10 0.881044 0.740025 0.893904
O O11 0.000000 0.000000 0.000000
O O12 0.870760 0.148306 0.971517
O O13 0.031670 0.682944 0.201419
O O14 0.053921 0.665035 0.084824
O O15 0.535364 0.603047 0.924835
#
# Coordination Sequence:
#
# PCOD9074385 Si02
#       7
#     2   2   2   2   2   2   2
#     4  12  27  43  67 102 138 176 225 284 341 399
#     4  10  23  41  68  98 130 179 223 271 334 400
#     4  12  21  42  69  98 138 180 229 268 336 403
#     4  11  25  46  70  99 139 180 225 279 339 401
#     4  11  24  42  68 105 133 180 227 278 330 409
#     4  11  24  43  67  97 139 183 219 276 339 401
#     4  11  22  43  71 100 138 177 229 278 333 404
#
# _framework density 21.636678
#
# number of rings (size 3 to 8) (size 9 to 14) (size 15 to 20)
#    0.000    0.857    4.286    2.571    4.000    5.143 
#    0.000    3.571    0.000    0.000    0.000    0.000 
#    0.000    0.000    0.000    0.000    0.000    0.000 
#
# Total GULP energy -78095.753497 kJ/mol
# GULP energy per Si atom -5578.268107 kJ/mol
# Density = 2.158743 g / cm^3
# Si number density = 21.636678 Si / 1000 Ang^3
#
#
#
# Elastic Constant Matrix: (Units=GPa)
#
#
# Indices 1 2 3 4 5 6 
#
# 1 146.0070 34.9559 32.9210 0.4713 -26.1659 23.0240
# 2 34.9559 59.4446 -0.0051 -12.2698 -10.5531 22.3370
# 3 32.9210 -0.0051 79.5284 -10.5996 -9.6138 15.5216
# 4 0.4713 -12.2698 -10.5996 28.7639 2.0911 -13.6891
# 5 -26.1659 -10.5531 -9.6138 2.0911 51.0504 -6.0221
# 6 23.0240 22.3370 15.5216 -13.6891 -6.0221 56.4287
#
#
#
# Elastic Compliance Matrix: (Units=1/GPa)
#
#
# Indices 1 2 3 4 5 6 
#
# 1 0.009999 -0.005790 -0.004135 -0.005129 0.003176 -0.001555
# 2 -0.005790 0.024947 0.005153 0.009430 0.002015 -0.006427
# 3 -0.004135 0.005153 0.015910 0.006613 0.001319 -0.002984
# 4 -0.005129 0.009430 0.006613 0.044850 -0.000401 0.007378
# 5 0.003176 0.002015 0.001319 -0.000401 0.021872 -0.000219
# 6 -0.001555 -0.006427 -0.002984 0.007378 -0.000219 0.023488
#
#
# Mechanical properties :
#
#
# Convention : Reuss Voigt Hill
#
# Bulk Modulus (GPa) = 24.20685 46.74705 35.47695
# Shear Modulus (GPa) = 30.41741 41.72248 36.06995
#
# Velocity S-wave (km/s) = 3.75350 4.39603 4.08741
# Velocity P-wave (km/s) = 5.47697 6.88616 6.22159
#
# Compressibility (1/GPa) = 0.04131061
#
# Stress axis : x y z
#
# Youngs Moduli (GPa) = 100.01351 40.08461 62.85549
#
# Poissons Ratio (x) = 0.23211 0.25994
# Poissons Ratio (y) = 0.57912 -0.32392
# Poissons Ratio (z) = 0.41360 -0.20658
#
# Static dielectric constant tensor:
#      x y z
#    x 1.809990 0.022140 0.026110 
#    y 0.022140 1.829400 0.039220 
#    z 0.026110 0.039220 1.825230 
# 
# From -- ./inp_files/216990.got.cif
#   From: 2010.05.17/outbox.ucp.g08.bks.cvg/sg2_109_cif.got.tgz:216990.got - 2010.06.11 11:32:03.
