data_PCOD9074482
_publ_section_title
;
Structure prediction by ZEFSAII (Michael W. Deem and Ramdas Pophale) SiO2 
 PCOD9074482
Probable space group: P -1
;
_chemical_formula_sum "Si O2"
_cell_formula_units_Z 15
_cell_length_a 15.000000
_cell_length_b 12.000000
_cell_length_c 12.000000
_cell_angle_alpha 40.000000
_cell_angle_beta 30.000000
_cell_angle_gamma 50.000000
_cell_volume 692.779491
_symmetry_space_group_name_H-M "P -1"
_symmetry_group_IT_number 2
_symmetry_cell_setting 'triclinic'
loop_
_space_group_symop_operation_xyz
x,y,z
-x,-y,-z
loop_
_atom_site_type_symbol
_atom_site_label
_atom_site_fract_x
_atom_site_fract_y
_atom_site_fract_z
Si Si1 0.000000 0.000000 0.500000
Si Si2 0.966865 0.794772 0.221865
Si Si3 0.552810 0.670930 0.737917
Si Si4 0.487966 0.543776 0.650617
Si Si5 0.932633 0.440420 0.911391
Si Si6 0.197717 0.215449 0.928139
Si Si7 0.754995 0.266799 0.621751
Si Si8 0.259279 0.869946 0.013656
O O1 0.828766 0.123976 0.571288
O O2 0.122248 0.114593 0.192756
O O3 0.756963 0.735997 0.494865
O O4 0.075951 0.779505 0.230987
O O5 0.052914 0.671369 0.131947
O O6 0.000000 0.000000 0.000000
O O7 0.522414 0.614164 0.686307
O O8 0.500000 0.500000 0.000000
O O9 0.418798 0.818142 0.801718
O O10 0.276694 0.532266 0.862800
O O11 0.614646 0.676491 0.338639
O O12 0.594583 0.369058 0.667543
O O13 0.041398 0.333337 0.965587
O O14 0.061655 0.615915 0.635156
O O15 0.231076 0.072896 0.905255
O O16 0.696249 0.195145 0.861431
#
# Coordination Sequence:
#
# PCOD9074482 Si02
#       8
#     1   2   2   2   2   2   2   2
#     4  10  24  50  74  80 124 160 220 282 330 356
#     4  12  23  36  58  96 139 181 209 246 313 387
#     4  12  23  36  58  96 139 181 209 246 313 387
#     4  11  22  39  63  94 135 162 208 254 321 385
#     4  11  22  39  63  94 135 162 208 254 321 385
#     4  10  23  44  63  95 119 172 213 267 318 380
#     4  10  23  44  63  95 119 172 213 267 318 380
#     4  11  22  35  64  92 138 167 216 253 306 380
#
# _framework density 21.651910999999998
#
# number of rings (size 3 to 8) (size 9 to 14) (size 15 to 20)
#    0.000    1.067    6.667    0.000    3.733    4.267 
#    0.000    8.000    0.000    0.000    0.000    0.000 
#    0.000    0.000    0.000    0.000    0.000    0.000 
#
# Total GULP energy -83547.941365 kJ/mol
# GULP energy per Si atom -5569.862758 kJ/mol
# Density = 2.160263 g / cm^3
# Si number density = 21.651911 Si / 1000 Ang^3
#
#
#
# Elastic Constant Matrix: (Units=GPa)
#
#
# Indices 1 2 3 4 5 6 
#
# 1 25.9494 0.2685 26.1613 4.1240 -16.5540 -22.0161
# 2 0.2685 98.8625 23.3937 47.1862 -13.9317 -26.5864
# 3 26.1613 23.3937 102.3991 25.2782 -9.4386 -25.4961
# 4 4.1240 47.1862 25.2782 30.4813 -11.0944 -12.8090
# 5 -16.5540 -13.9317 -9.4386 -11.0944 47.1455 14.7247
# 6 -22.0161 -26.5864 -25.4961 -12.8090 14.7247 23.1465
#
#
#
# Elastic Compliance Matrix: (Units=1/GPa)
#
#
# Indices 1 2 3 4 5 6 
#
# 1 -0.138419 -0.107444 -0.023219 0.114086 0.012205 -0.225278
# 2 -0.107444 -0.012352 0.006238 -0.024015 -0.009266 -0.116910
# 3 -0.023219 0.006238 0.019273 -0.026819 -0.007609 -0.003693
# 4 0.114086 -0.024015 -0.026819 0.131300 0.024643 0.108372
# 5 0.012205 -0.009266 -0.007609 0.024643 0.031312 -0.013697
# 6 -0.225278 -0.116910 -0.003693 0.108372 -0.013697 -0.240740
#
#
# Mechanical properties :
#
#
# Convention : Reuss Voigt Hill
#
# Bulk Modulus (GPa) = -2.62915 36.31757 16.84421
# Shear Modulus (GPa) = -57.10424 31.98049 -12.56187
#
# Velocity S-wave (km/s) = -5.14111 3.84738 -2.41129
# Velocity P-wave (km/s) = 6.03807 6.04535 0.20974
#
# Compressibility (1/GPa) = -0.38035109
#
# Stress axis : x y z
#
# Youngs Moduli (GPa) = -7.22443 -80.95685 51.88734
#
# Poissons Ratio (x) = -8.69836 1.20479
# Poissons Ratio (y) = -0.77622 -0.32365
# Poissons Ratio (z) = -0.16775 0.50498
#
# Static dielectric constant tensor:
#      x y z
#    x 1.768630 -0.004140 0.041460 
#    y -0.004140 1.836130 -0.047870 
#    z 0.041460 -0.047870 1.770640 
# 
# From -- ./inp_files/338833.got.cif
#   From: 2010.05.17/outbox.ucp.g08.bks.cvg/sg2_170_cif.got.tgz:338833.got - 2010.06.11 11:32:03.
