data_PCOD9074584
_publ_section_title
;
Structure prediction by ZEFSAII (Michael W. Deem and Ramdas Pophale) SiO2 
 PCOD9074584
Probable space group: P -1
;
_chemical_formula_sum "Si O2"
_cell_formula_units_Z 14
_cell_length_a 12.000000
_cell_length_b 18.000000
_cell_length_c 12.000000
_cell_angle_alpha 30.000000
_cell_angle_beta 120.000000
_cell_angle_gamma 140.000000
_cell_volume 717.332707
_symmetry_space_group_name_H-M "P -1"
_symmetry_group_IT_number 2
_symmetry_cell_setting 'triclinic'
loop_
_space_group_symop_operation_xyz
x,y,z
-x,-y,-z
loop_
_atom_site_type_symbol
_atom_site_label
_atom_site_fract_x
_atom_site_fract_y
_atom_site_fract_z
Si Si1 0.234246 0.861410 0.425510
Si Si2 0.515269 0.175702 0.722425
Si Si3 0.938015 0.106972 0.130190
Si Si4 0.956342 0.619222 0.384459
Si Si5 0.129239 0.954313 0.450035
Si Si6 0.417201 0.007457 0.655871
Si Si7 0.019587 0.390685 0.005037
O O1 0.185842 0.961357 0.344263
O O2 0.460978 0.013502 0.316320
O O3 0.102753 0.753118 0.389063
O O4 0.162133 0.656209 0.728915
O O5 0.306086 0.083114 0.742894
O O6 0.720999 0.424126 0.551013
O O7 0.547399 0.177503 0.604312
O O8 0.500000 0.000000 0.000000
O O9 0.031395 0.029606 0.307083
O O10 0.033064 0.301950 0.016930
O O11 0.998090 0.213266 0.899826
O O12 0.000000 0.500000 0.500000
O O13 0.971060 0.703870 0.758409
O O14 0.332929 0.079362 0.455446
O O15 0.209661 0.754497 0.925445
#
# Coordination Sequence:
#
# PCOD9074584 Si02
#       7
#     2   2   2   2   2   2   2
#     4  12  20  40  60  86 118 148 196 239 275 350
#     4  11  19  36  61  88 109 150 199 239 273 337
#     4  11  21  41  58  86 122 144 194 243 280 342
#     4  12  21  36  62  87 109 154 198 232 282 333
#     4  10  24  38  57  89 121 152 180 238 305 330
#     4   9  20  35  59  85 113 150 192 229 289 334
#     4   9  20  36  61  81 114 149 195 226 280 343
#
# _framework density 19.516746000000001
#
# number of rings (size 3 to 8) (size 9 to 14) (size 15 to 20)
#    0.857    0.571    4.286    2.143    0.000    0.571 
#    2.571    2.143    0.000    0.000    0.000    0.000 
#    0.000    0.000    0.000    0.000    0.000    0.000 
#
# Total GULP energy -77950.244804 kJ/mol
# GULP energy per Si atom -5567.874629 kJ/mol
# Density = 1.947232 g / cm^3
# Si number density = 19.516746 Si / 1000 Ang^3
#
#
#
# Elastic Constant Matrix: (Units=GPa)
#
#
# Indices 1 2 3 4 5 6 
#
# 1 98.6634 36.4944 30.6787 -0.5013 8.2543 28.0344
# 2 36.4944 70.9436 -29.9992 19.1059 -10.0321 -22.0364
# 3 30.6787 -29.9992 -14.4781 10.4424 -23.4740 -44.7640
# 4 -0.5013 19.1059 10.4424 26.6847 4.7825 -4.3796
# 5 8.2543 -10.0321 -23.4740 4.7825 13.9859 -9.1834
# 6 28.0344 -22.0364 -44.7640 -4.3796 -9.1834 -13.8416
#
#
#
# Elastic Compliance Matrix: (Units=1/GPa)
#
#
# Indices 1 2 3 4 5 6 
#
# 1 0.008116 -0.000853 0.004026 -0.000987 0.003506 0.002763
# 2 -0.000853 0.012854 -0.002576 -0.010348 0.001384 -0.011505
# 3 0.004026 -0.002576 0.011559 -0.006863 0.001707 -0.024089
# 4 -0.000987 -0.010348 -0.006863 0.055671 -0.017333 0.030554
# 5 0.003506 0.001384 0.001707 -0.017333 0.057402 -0.033221
# 6 0.002763 -0.011505 -0.024089 0.030554 -0.033221 0.041943
#
#
# Mechanical properties :
#
#
# Convention : Reuss Voigt Hill
#
# Bulk Modulus (GPa) = 29.65380 25.49743 27.57561
# Shear Modulus (GPa) = 25.30461 13.22945 19.26703
#
# Velocity S-wave (km/s) = 3.60468 2.60638 3.14539
# Velocity P-wave (km/s) = 5.70544 4.70642 5.22984
#
# Compressibility (1/GPa) = 0.03372249
#
# Stress axis : x y z
#
# Youngs Moduli (GPa) = 123.21544 77.79736 86.51304
#
# Poissons Ratio (x) = 0.06635 -0.34826
# Poissons Ratio (y) = 0.10508 0.22284
# Poissons Ratio (z) = -0.49601 0.20039
#
# Static dielectric constant tensor:
#      x y z
#    x 1.728550 -0.021410 -0.064000 
#    y -0.021410 1.717760 -0.027330 
#    z -0.064000 -0.027330 1.736930 
# 
# From -- ./inp_files/429081.got.cif
#   From: 2010.05.17/outbox.ucp.g08.bks.cvg/sg2_215_cif.got.tgz:429081.got - 2010.06.11 11:32:03.
