data_PCOD9074014
_publ_section_title
;
Structure prediction by ZEFSAII (Michael W. Deem and Ramdas Pophale) SiO2 
 PCOD9074014
Probable space group: P -1
;
_chemical_formula_sum "Si O2"
_cell_formula_units_Z 16
_cell_length_a 16.775751
_cell_length_b 25.568869
_cell_length_c 5.328810
_cell_angle_alpha 103.352184
_cell_angle_beta 68.031576
_cell_angle_gamma 159.790441
_cell_volume 678.852012
_symmetry_space_group_name_H-M "P -1"
_symmetry_group_IT_number 2
_symmetry_cell_setting 'triclinic'
loop_
_space_group_symop_operation_xyz
x,y,z
-x,-y,-z
loop_
_atom_site_type_symbol
_atom_site_label
_atom_site_fract_x
_atom_site_fract_y
_atom_site_fract_z
Si Si1 0.781567 0.294572 0.393641
Si Si2 0.651186 0.007219 0.712545
Si Si3 0.932175 0.528138 0.250116
Si Si4 0.218000 0.793050 0.359497
Si Si5 0.667032 0.823408 0.480124
Si Si6 0.375473 0.488916 0.900361
Si Si7 0.226520 0.180096 0.148141
Si Si8 0.199748 0.350283 0.458953
O O1 0.812791 0.248594 0.369021
O O2 0.889220 0.383486 0.623257
O O3 0.485395 0.116242 0.447696
O O4 0.949308 0.414615 0.096827
O O5 0.702139 0.098066 0.646829
O O6 0.946009 0.164174 0.594372
O O7 0.461917 0.905117 0.060097
O O8 0.629108 0.333253 0.399532
O O9 0.972023 0.616876 0.324639
O O10 0.687752 0.810851 0.721983
O O11 0.728473 0.816453 0.180092
O O12 0.919604 0.010760 0.363548
O O13 0.584947 0.658738 0.865929
O O14 0.216814 0.398016 0.731755
O O15 0.539797 0.530919 0.734852
O O16 0.196236 0.379614 0.233479
#
# Coordination Sequence:
#
# PCOD9074014 Si02
#       8
#     2   2   2   2   2   2   2   2
#     4   9  18  30  43  67 100 128 159 200 242 310
#     4  10  18  32  46  70  99 134 164 210 247 301
#     4   9  18  29  45  67 101 127 158 193 249 314
#     4   8  19  29  43  70 100 125 165 198 249 306
#     4  10  20  34  51  83  98 139 167 208 271 322
#     4  10  22  39  51  78 101 139 180 222 242 300
#     4  10  21  34  54  73 110 126 176 220 258 307
#     4  10  23  36  55  73 104 140 187 206 250 300
#
# _framework density 23.569203000000002
#
# number of rings (size 3 to 8) (size 9 to 14) (size 15 to 20)
#    0.750    1.750    0.000    1.875    5.250    0.000 
#    2.250    0.000    0.000    0.000    0.000    4.375 
#    0.000    0.125    0.000    0.000    0.000    0.000 
#
# Total GULP energy -89128.944466 kJ/mol
# GULP energy per Si atom -5570.559029 kJ/mol
# Density = 2.351556 g / cm^3
# Si number density = 23.569203 Si / 1000 Ang^3
#
#
#
# Elastic Constant Matrix: (Units=GPa)
#
#
# Indices 1 2 3 4 5 6 
#
# 1 30.5571 1.6778 4.2077 -2.3186 -4.4160 1.7688
# 2 1.6778 179.4039 71.1317 -5.8888 4.3374 7.3375
# 3 4.2077 71.1317 149.1418 14.1669 33.7833 -4.8852
# 4 -2.3186 -5.8888 14.1669 51.4607 13.1992 -4.9089
# 5 -4.4160 4.3374 33.7833 13.1992 24.5535 -13.1304
# 6 1.7688 7.3375 -4.8852 -4.9089 -13.1304 35.5137
#
#
#
# Elastic Compliance Matrix: (Units=1/GPa)
#
#
# Indices 1 2 3 4 5 6 
#
# 1 0.035118 0.001002 -0.004489 -0.000383 0.013857 0.002497
# 2 0.001002 0.007358 -0.004685 0.000959 0.004609 -0.000378
# 3 -0.004489 -0.004685 0.013824 0.000622 -0.021980 -0.004948
# 4 -0.000383 0.000959 0.000622 0.022888 -0.014653 -0.002347
# 5 0.013857 0.004609 -0.021980 -0.014653 0.095910 0.028769
# 6 0.002497 -0.000378 -0.004948 -0.002347 0.028769 0.037744
#
#
# Mechanical properties :
#
#
# Convention : Reuss Voigt Hill
#
# Bulk Modulus (GPa) = 25.02837 57.01525 41.02181
# Shear Modulus (GPa) = 20.61827 41.11130 30.86478
#
# Velocity S-wave (km/s) = 2.96091 4.18099 3.62268
# Velocity P-wave (km/s) = 4.72561 6.89570 5.91109
#
# Compressibility (1/GPa) = 0.03995467
#
# Stress axis : x y z
#
# Youngs Moduli (GPa) = 28.47559 135.91319 72.33866
#
# Poissons Ratio (x) = -0.13616 0.32475
# Poissons Ratio (y) = -0.02853 0.33890
# Poissons Ratio (z) = 0.12783 0.63674
#
# Static dielectric constant tensor:
#      x y z
#    x 2.017850 0.033650 -0.040080 
#    y 0.033650 1.903760 0.029570 
#    z -0.040080 0.029570 1.961320 
# 
# From -- ./inp_files/113247.got.cif
#   From: 2010.05.17/outbox.cif.g08.bks.cpg/sg2_57_cif.got.tgz:113247.got - 2010.06.03 11:33:40.
