data_PCOD9074949
_publ_section_title
;
Structure prediction by ZEFSAII (Michael W. Deem and Ramdas Pophale) SiO2 
 PCOD9074949
Probable space group: P -1
;
_chemical_formula_sum "Si O2"
_cell_formula_units_Z 14
_cell_length_a 30.000000
_cell_length_b 15.000000
_cell_length_c 12.000000
_cell_angle_alpha 150.000000
_cell_angle_beta 160.000000
_cell_angle_gamma 20.000000
_cell_volume 624.976433
_symmetry_space_group_name_H-M "P -1"
_symmetry_group_IT_number 2
_symmetry_cell_setting 'triclinic'
loop_
_space_group_symop_operation_xyz
x,y,z
-x,-y,-z
loop_
_atom_site_type_symbol
_atom_site_label
_atom_site_fract_x
_atom_site_fract_y
_atom_site_fract_z
Si Si1 0.229805 0.984449 0.081409
Si Si2 0.124019 0.944466 0.333435
Si Si3 0.874667 0.318096 0.744217
Si Si4 0.874636 0.649597 0.257985
Si Si5 0.458802 0.410192 0.074736
Si Si6 0.534602 0.176100 0.755904
Si Si7 0.543958 0.934040 0.166498
O O1 0.314330 0.712301 0.030148
O O2 0.293888 0.958112 0.075252
O O3 0.318586 0.052526 0.442564
O O4 0.003396 0.194951 0.802650
O O5 0.086537 0.876773 0.286407
O O6 0.343115 0.697724 0.538242
O O7 0.091714 0.187634 0.533556
O O8 0.000000 0.000000 0.000000
O O9 0.650452 0.546482 0.435579
O O10 0.918423 0.456193 0.061938
O O11 0.000000 0.500000 0.500000
O O12 0.657777 0.841878 0.999663
O O13 0.530665 0.251386 0.954259
O O14 0.393661 0.326123 0.921091
O O15 0.500000 0.000000 0.500000
O O16 0.500000 0.000000 0.000000
#
# Coordination Sequence:
#
# PCOD9074949 Si02
#       7
#     2   2   2   2   2   2   2
#     4  12  26  45  74 107 141 188 244 291 356 432
#     4  11  23  43  71 102 141 191 237 289 361 422
#     4  12  26  45  72 108 141 187 242 293 356 428
#     4  11  21  41  69  99 145 190 230 294 356 417
#     4  11  25  48  73 101 147 195 232 301 362 414
#     4  12  24  53  76 100 150 189 238 302 358 426
#     4  11  24  44  70 104 144 187 240 294 356 424
#
# _framework density 22.400845
#
# number of rings (size 3 to 8) (size 9 to 14) (size 15 to 20)
#    0.000    0.571    5.714    2.143    2.000    4.000 
#    0.000    0.000    0.000    0.000    0.000    0.000 
#    0.000    0.000    0.000    0.000    0.000    0.000 
#
# Total GULP energy -78314.062806 kJ/mol
# GULP energy per Si atom -5593.861629 kJ/mol
# Density = 2.234986 g / cm^3
# Si number density = 22.400845 Si / 1000 Ang^3
#
#
#
# Elastic Constant Matrix: (Units=GPa)
#
#
# Indices 1 2 3 4 5 6 
#
# 1 173.2655 40.7540 23.0915 12.1960 17.5730 15.9888
# 2 40.7540 70.2186 14.8342 12.7386 21.4389 11.8999
# 3 23.0915 14.8342 65.4307 6.9316 -0.8045 -2.6496
# 4 12.1960 12.7386 6.9316 30.9132 6.3098 7.4378
# 5 17.5730 21.4389 -0.8045 6.3098 47.0254 -1.8027
# 6 15.9888 11.8999 -2.6496 7.4378 -1.8027 43.2838
#
#
#
# Elastic Compliance Matrix: (Units=1/GPa)
#
#
# Indices 1 2 3 4 5 6 
#
# 1 0.007043 -0.002868 -0.001884 -0.000435 -0.001371 -0.001911
# 2 -0.002868 0.020552 -0.003521 -0.003833 -0.008015 -0.004481
# 3 -0.001884 -0.003521 0.017254 -0.003135 0.003155 0.003390
# 4 -0.000435 -0.003833 -0.003135 0.036781 -0.003287 -0.005435
# 5 -0.001371 -0.008015 0.003155 -0.003287 0.026101 0.004555
# 6 -0.001911 -0.004481 0.003390 -0.005435 0.004555 0.026372
#
#
# Mechanical properties :
#
#
# Convention : Reuss Voigt Hill
#
# Bulk Modulus (GPa) = 35.33120 51.80824 43.56972
# Shear Modulus (GPa) = 31.23330 39.59349 35.41340
#
# Velocity S-wave (km/s) = 3.73807 4.20873 3.98036
# Velocity P-wave (km/s) = 5.86834 6.84075 6.37312
#
# Compressibility (1/GPa) = 0.02830359
#
# Stress axis : x y z
#
# Youngs Moduli (GPa) = 141.98035 48.65692 57.95594
#
# Poissons Ratio (x) = 0.13957 0.10916
# Poissons Ratio (y) = 0.40727 0.20407
# Poissons Ratio (z) = 0.26742 0.17133
#
# Static dielectric constant tensor:
#      x y z
#    x 1.781640 0.008630 -0.001350 
#    y 0.008630 1.879380 0.012590 
#    z -0.001350 0.012590 2.079250 
# 
# From -- ./inp_files/356992.got.cif
#   From: 2010.05.17/outbox.ucp.g08.bks.cvg/sg2_179_cif.got.tgz:356992.got - 2010.06.11 11:32:03.
