data_PCOD9074767
_publ_section_title
;
Structure prediction by ZEFSAII (Michael W. Deem and Ramdas Pophale) SiO2 
 PCOD9074767
Probable space group: P -1
;
_chemical_formula_sum "Si O2"
_cell_formula_units_Z 16
_cell_length_a 15.000000
_cell_length_b 15.000000
_cell_length_c 15.000000
_cell_angle_alpha 140.000000
_cell_angle_beta 140.000000
_cell_angle_gamma 20.000000
_cell_volume 725.414092
_symmetry_space_group_name_H-M "P -1"
_symmetry_group_IT_number 2
_symmetry_cell_setting 'triclinic'
loop_
_space_group_symop_operation_xyz
x,y,z
-x,-y,-z
loop_
_atom_site_type_symbol
_atom_site_label
_atom_site_fract_x
_atom_site_fract_y
_atom_site_fract_z
Si Si1 0.873520 0.783632 0.931698
Si Si2 0.908145 0.429378 0.488472
Si Si3 0.283469 0.370035 0.700411
Si Si4 0.907241 0.737819 0.122177
Si Si5 0.229635 0.728949 0.410904
Si Si6 0.303193 0.162559 0.785913
Si Si7 0.885257 0.946758 0.899095
Si Si8 0.313542 0.898131 0.468087
O O1 0.910087 0.887760 0.978431
O O2 0.107345 0.465400 0.863973
O O3 0.596357 0.952855 0.817713
O O4 0.824652 0.861897 0.057208
O O5 0.752960 0.609913 0.418036
O O6 0.635703 0.638415 0.499162
O O7 0.133325 0.361371 0.619328
O O8 0.099520 0.127079 0.401763
O O9 0.091138 0.660737 0.798772
O O10 0.584213 0.158204 0.798275
O O11 0.687385 0.906984 0.159749
O O12 0.132694 0.654036 0.262055
O O13 0.000000 0.500000 0.000000
O O14 0.500000 0.500000 0.500000
O O15 0.266715 0.789139 0.395186
O O16 0.000000 0.000000 0.500000
O O17 0.217335 0.100473 0.618080
O O18 0.000000 0.000000 0.000000
#
# Coordination Sequence:
#
# PCOD9074767 Si02
#       8
#     2   2   2   2   2   2   2   2
#     4  11  24  41  67  99 130 177 239 284 338 420
#     4  11  24  42  70 104 131 183 229 298 344 420
#     4  11  24  45  67  98 141 172 237 291 356 410
#     4  10  25  45  70 100 140 187 235 286 344 417
#     4  12  27  46  67 102 145 186 228 288 358 415
#     4  11  22  40  69  97 135 175 230 290 343 406
#     4  12  25  44  68  97 138 187 226 290 357 420
#     4  12  23  40  70  99 140 180 234 280 358 422
#
# _framework density 22.056367999999999
#
# number of rings (size 3 to 8) (size 9 to 14) (size 15 to 20)
#    0.000    0.750    1.250    6.750    3.500    6.000 
#    0.000    1.250    0.000    0.000    0.000    0.000 
#    0.000    0.000    0.000    0.000    0.000    0.000 
#
# Total GULP energy -89254.580175 kJ/mol
# GULP energy per Si atom -5578.411261 kJ/mol
# Density = 2.200617 g / cm^3
# Si number density = 22.056368 Si / 1000 Ang^3
#
#
#
# Elastic Constant Matrix: (Units=GPa)
#
#
# Indices 1 2 3 4 5 6 
#
# 1 177.7238 32.3902 41.9369 -0.7296 29.1649 6.4301
# 2 32.3902 157.9466 16.4689 -13.7924 26.2412 -10.1006
# 3 41.9369 16.4689 67.4884 -12.1060 28.2135 5.5697
# 4 -0.7296 -13.7924 -12.1060 33.8375 4.2380 1.8476
# 5 29.1649 26.2412 28.2135 4.2380 47.9164 -1.8728
# 6 6.4301 -10.1006 5.5697 1.8476 -1.8728 42.5297
#
#
#
# Elastic Compliance Matrix: (Units=1/GPa)
#
#
# Indices 1 2 3 4 5 6 
#
# 1 0.006922 -0.000964 -0.003620 -0.001311 -0.001469 -0.000809
# 2 -0.000964 0.007609 0.001295 0.004050 -0.004646 0.001403
# 3 -0.003620 0.001295 0.025148 0.011454 -0.014466 -0.003573
# 4 -0.001311 0.004050 0.011454 0.036850 -0.011519 -0.002448
# 5 -0.001469 -0.004646 -0.014466 -0.011519 0.033962 0.003009
# 6 -0.000809 0.001403 -0.003573 -0.002448 0.003009 0.024675
#
#
# Mechanical properties :
#
#
# Convention : Reuss Voigt Hill
#
# Bulk Modulus (GPa) = 30.21067 64.97231 47.59149
# Shear Modulus (GPa) = 32.72755 45.68091 39.20423
#
# Velocity S-wave (km/s) = 3.85621 4.55587 4.22056
# Velocity P-wave (km/s) = 5.79257 7.56280 6.73609
#
# Compressibility (1/GPa) = 0.03310089
#
# Stress axis : x y z
#
# Youngs Moduli (GPa) = 144.47576 131.42058 39.76536
#
# Poissons Ratio (x) = 0.12670 0.14395
# Poissons Ratio (y) = 0.13928 -0.05151
# Poissons Ratio (z) = 0.52298 -0.17022
#
# Static dielectric constant tensor:
#      x y z
#    x 1.929950 0.038440 -0.126290 
#    y 0.038440 1.818280 -0.055740 
#    z -0.126290 -0.055740 1.962940 
# 
# From -- ./inp_files/534463.got.cif
#   From: 2010.05.17/outbox.ucp.g08.bks.cvg/sg2_268_cif.got.tgz:534463.got - 2010.06.11 11:32:03.
