data_PCOD9074287
_publ_section_title
;
Structure prediction by ZEFSAII (Michael W. Deem and Ramdas Pophale) SiO2 
 PCOD9074287
Probable space group: P -1
;
_chemical_formula_sum "Si O2"
_cell_formula_units_Z 15
_cell_length_a 9.000000
_cell_length_b 15.000000
_cell_length_c 15.000000
_cell_angle_alpha 150.000000
_cell_angle_beta 110.000000
_cell_angle_gamma 50.000000
_cell_volume 642.379314
_symmetry_space_group_name_H-M "P -1"
_symmetry_group_IT_number 2
_symmetry_cell_setting 'triclinic'
loop_
_space_group_symop_operation_xyz
x,y,z
-x,-y,-z
loop_
_atom_site_type_symbol
_atom_site_label
_atom_site_fract_x
_atom_site_fract_y
_atom_site_fract_z
Si Si1 0.193299 0.025471 0.434170
Si Si2 0.170773 0.861475 0.830564
Si Si3 0.654190 0.895111 0.133541
Si Si4 0.114738 0.630202 0.909780
Si Si5 0.505699 0.973277 0.589605
Si Si6 0.802188 0.565363 0.576075
Si Si7 0.500000 0.500000 0.000000
Si Si8 0.313804 0.441163 0.270710
O O1 0.386023 0.915432 0.299961
O O2 0.925636 0.261508 0.553142
O O3 0.302118 0.083692 0.573950
O O4 0.284547 0.756442 0.245068
O O5 0.147701 0.686366 0.631030
O O6 0.448619 0.660597 0.733930
O O7 0.050970 0.112412 0.963753
O O8 0.000000 0.000000 0.000000
O O9 0.615298 0.943020 0.269882
O O10 0.454503 0.185380 0.300506
O O11 0.922259 0.705920 0.000820
O O12 0.597443 0.746595 0.956822
O O13 0.299451 0.594463 0.970727
O O14 0.274761 0.345964 0.648804
O O15 0.774005 0.625299 0.727851
O O16 0.000000 0.500000 0.500000
#
# Coordination Sequence:
#
# PCOD9074287 Si02
#       8
#     2   2   2   2   2   2   1   2
#     4  10  22  45  73 101 144 184 243 296 356 425
#     4  12  27  46  70 107 148 187 236 301 362 423
#     4  12  25  42  74 102 145 187 240 293 358 431
#     4  11  24  49  69 104 143 188 240 298 358 425
#     4  10  23  47  70 103 141 193 240 297 351 425
#     4  12  26  44  74 103 144 194 235 291 363 432
#     4  10  24  44  74  94 140 192 228 304 358 406
#     4  12  25  44  72 110 142 188 242 293 357 438
#
# _framework density 23.35069
#
# number of rings (size 3 to 8) (size 9 to 14) (size 15 to 20)
#    0.000    0.800    2.667    4.000    3.733    1.600 
#    2.400    1.333    0.000    0.000    0.000    0.000 
#    0.000    0.000    0.000    0.000    0.000    0.000 
#
# Total GULP energy -83539.877359 kJ/mol
# GULP energy per Si atom -5569.325157 kJ/mol
# Density = 2.329754 g / cm^3
# Si number density = 23.350690 Si / 1000 Ang^3
#
#
#
# Elastic Constant Matrix: (Units=GPa)
#
#
# Indices 1 2 3 4 5 6 
#
# 1 85.2797 42.7208 30.5334 -6.0657 -31.5710 -20.9017
# 2 42.7208 90.1917 20.2674 17.8229 -18.9002 -23.8018
# 3 30.5334 20.2674 53.0397 -1.9068 -26.6992 18.4276
# 4 -6.0657 17.8229 -1.9068 33.0231 -5.9412 1.7026
# 5 -31.5710 -18.9002 -26.6992 -5.9412 36.4617 0.0827
# 6 -20.9017 -23.8018 18.4276 1.7026 0.0827 21.1430
#
#
#
# Elastic Compliance Matrix: (Units=1/GPa)
#
#
# Indices 1 2 3 4 5 6 
#
# 1 0.011944 -0.025645 0.033885 0.025195 0.026077 -0.048726
# 2 -0.025645 0.000415 0.037895 0.001345 0.006110 -0.058045
# 3 0.033885 0.037895 -0.063130 -0.025034 -0.001626 0.133203
# 4 0.025195 0.001345 -0.025034 0.032059 0.009302 0.045623
# 5 0.026077 0.006110 -0.001626 0.009302 0.053422 0.033116
# 6 -0.048726 -0.058045 0.133203 0.045623 0.033116 -0.186117
#
#
# Mechanical properties :
#
#
# Convention : Reuss Voigt Hill
#
# Bulk Modulus (GPa) = 24.09705 46.17271 35.13488
# Shear Modulus (GPa) = -21.75406 27.12486 2.68540
#
# Velocity S-wave (km/s) = -3.05556 3.41197 1.07356
# Velocity P-wave (km/s) = 1.45141 5.94462 4.07627
#
# Compressibility (1/GPa) = 0.04149886
#
# Stress axis : x y z
#
# Youngs Moduli (GPa) = 83.72134 2407.86880 -15.84030
#
# Poissons Ratio (x) = 61.75009 0.53674
# Poissons Ratio (y) = 2.14704 0.60027
# Poissons Ratio (z) = -2.83687 -91.24650
#
# Static dielectric constant tensor:
#      x y z
#    x 2.004800 0.042750 0.293280 
#    y 0.042750 1.883270 -0.076150 
#    z 0.293280 -0.076150 2.493950 
# 
# From -- ./inp_files/505889.got.cif
#   From: 2010.05.17/outbox.ucp.g08.bks.cvg/sg2_253_cif.got.tgz:505889.got - 2010.06.11 11:32:03.
