data_PCOD9074398
_publ_section_title
;
Structure prediction by ZEFSAII (Michael W. Deem and Ramdas Pophale) SiO2 
 PCOD9074398
Probable space group: P -1
;
_chemical_formula_sum "Si O2"
_cell_formula_units_Z 16
_cell_length_a 9.000000
_cell_length_b 12.000000
_cell_length_c 12.000000
_cell_angle_alpha 50.000000
_cell_angle_beta 60.000000
_cell_angle_gamma 50.000000
_cell_volume 752.153660
_symmetry_space_group_name_H-M "P -1"
_symmetry_group_IT_number 2
_symmetry_cell_setting 'triclinic'
loop_
_space_group_symop_operation_xyz
x,y,z
-x,-y,-z
loop_
_atom_site_type_symbol
_atom_site_label
_atom_site_fract_x
_atom_site_fract_y
_atom_site_fract_z
Si Si1 0.155559 0.120461 0.042340
Si Si2 0.296701 0.571699 0.458754
Si Si3 0.104190 0.339953 0.713854
Si Si4 0.873993 0.834750 0.413613
Si Si5 0.208521 0.336686 0.048981
Si Si6 0.374180 0.741476 0.120025
Si Si7 0.705255 0.653686 0.732545
Si Si8 0.721499 0.204350 0.142998
O O1 0.220717 0.171457 0.097713
O O2 0.919346 0.212336 0.082405
O O3 0.260381 0.923946 0.104787
O O4 0.193956 0.209323 0.864873
O O5 0.500000 0.500000 0.500000
O O6 0.230095 0.431860 0.582082
O O7 0.337576 0.616720 0.291049
O O8 0.087939 0.742354 0.455500
O O9 0.091365 0.252756 0.663151
O O10 0.885661 0.479778 0.738954
O O11 0.725182 0.790983 0.563368
O O12 0.780268 0.026970 0.292497
O O13 0.249911 0.320164 0.174402
O O14 0.391197 0.340658 0.919604
O O15 0.000000 0.500000 0.000000
O O16 0.304471 0.780945 0.991609
O O17 0.489886 0.669077 0.806731
#
# Coordination Sequence:
#
# PCOD9074398 Si02
#       8
#     2   2   2   2   2   2   2   2
#     4  12  22  43  70  99 128 173 226 268 320 394
#     4  11  23  39  63  99 131 168 214 269 323 381
#     4  11  23  43  71  96 131 173 222 271 327 389
#     4  11  22  45  68  95 133 173 220 270 330 389
#     4  11  24  43  62  95 137 179 207 267 331 390
#     4  11  23  43  72  94 134 170 225 268 324 388
#     4  10  23  42  63  93 136 176 210 269 336 386
#     4  11  23  42  68 101 129 169 221 282 322 381
#
# _framework density 21.272248999999999
#
# number of rings (size 3 to 8) (size 9 to 14) (size 15 to 20)
#    0.000    1.000    3.750    4.125    1.750    0.500 
#    4.500    0.625    0.000    0.000    0.000    0.000 
#    0.000    0.000    0.000    0.000    0.000    0.000 
#
# Total GULP energy -89384.458381 kJ/mol
# GULP energy per Si atom -5586.528649 kJ/mol
# Density = 2.122383 g / cm^3
# Si number density = 21.272249 Si / 1000 Ang^3
#
#
#
# Elastic Constant Matrix: (Units=GPa)
#
#
# Indices 1 2 3 4 5 6 
#
# 1 68.8634 28.9501 1.7290 11.1509 -0.6403 -16.5236
# 2 28.9501 64.7557 24.0257 8.8120 -3.0974 -7.3458
# 3 1.7290 24.0257 110.0270 -4.7132 -4.7236 1.0946
# 4 11.1509 8.8120 -4.7132 38.5860 -9.4844 -1.2550
# 5 -0.6403 -3.0974 -4.7236 -9.4844 29.4201 3.5964
# 6 -16.5236 -7.3458 1.0946 -1.2550 3.5964 32.3307
#
#
#
# Elastic Compliance Matrix: (Units=1/GPa)
#
#
# Indices 1 2 3 4 5 6 
#
# 1 0.020748 -0.008207 0.001074 -0.004374 -0.002731 0.008837
# 2 -0.008207 0.021331 -0.004651 -0.002978 0.000279 0.000663
# 3 0.001074 -0.004651 0.010295 0.002496 0.002113 -0.000995
# 4 -0.004374 -0.002978 0.002496 0.030579 0.010210 -0.002945
# 5 -0.002731 0.000279 0.002113 0.010210 0.038234 -0.005260
# 6 0.008837 0.000663 -0.000995 -0.002945 -0.005260 0.036102
#
#
# Mechanical properties :
#
#
# Convention : Reuss Voigt Hill
#
# Bulk Modulus (GPa) = 34.71606 39.22841 36.97224
# Shear Modulus (GPa) = 26.25224 32.66347 29.45785
#
# Velocity S-wave (km/s) = 3.51680 3.92279 3.72533
# Velocity P-wave (km/s) = 5.73113 6.24491 5.99352
#
# Compressibility (1/GPa) = 0.02880512
#
# Stress axis : x y z
#
# Youngs Moduli (GPa) = 48.19729 46.87989 97.13479
#
# Poissons Ratio (x) = 0.38474 -0.10428
# Poissons Ratio (y) = 0.39555 0.45178
# Poissons Ratio (z) = -0.05174 0.21804
#
# Static dielectric constant tensor:
#      x y z
#    x 1.823210 0.005970 -0.039360 
#    y 0.005970 1.756900 -0.009080 
#    z -0.039360 -0.009080 1.777600 
# 
# From -- ./inp_files/392006.got.cif
#   From: 2010.05.17/outbox.ucp.g08.bks.cvg/sg2_197_cif.got.tgz:392006.got - 2010.06.11 11:32:03.
