data_PCOD9074401
_publ_section_title
;
Structure prediction by ZEFSAII (Michael W. Deem and Ramdas Pophale) SiO2 
 PCOD9074401
Probable space group: P -1
;
_chemical_formula_sum "Si O2"
_cell_formula_units_Z 16
_cell_length_a 15.000000
_cell_length_b 9.000000
_cell_length_c 12.000000
_cell_angle_alpha 70.000000
_cell_angle_beta 150.000000
_cell_angle_gamma 110.000000
_cell_volume 757.522634
_symmetry_space_group_name_H-M "P -1"
_symmetry_group_IT_number 2
_symmetry_cell_setting 'triclinic'
loop_
_space_group_symop_operation_xyz
x,y,z
-x,-y,-z
loop_
_atom_site_type_symbol
_atom_site_label
_atom_site_fract_x
_atom_site_fract_y
_atom_site_fract_z
Si Si1 0.525820 0.316603 0.039669
Si Si2 0.882512 0.842315 0.357964
Si Si3 0.522873 0.666659 0.270129
Si Si4 0.928807 0.620554 0.665454
Si Si5 0.120827 0.115502 0.921699
Si Si6 0.729108 0.221159 0.867752
Si Si7 0.524630 0.699754 0.636483
Si Si8 0.776356 0.263799 0.524685
O O1 0.689128 0.266129 0.305347
O O2 0.500000 0.500000 0.000000
O O3 0.338570 0.197837 0.868574
O O4 0.561395 0.329450 0.944275
O O5 0.950981 0.707201 0.547081
O O6 0.903101 0.834096 0.248191
O O7 0.000000 0.000000 0.500000
O O8 0.741195 0.679922 0.496488
O O9 0.425493 0.794944 0.201055
O O10 0.467294 0.490205 0.303386
O O11 0.879238 0.434564 0.630098
O O12 0.100595 0.665509 0.921696
O O13 0.919059 0.138218 0.738077
O O14 0.275255 0.216128 0.138364
O O15 0.183407 0.939038 0.027980
O O16 0.604592 0.270425 0.616930
O O17 0.403433 0.754299 0.592255
#
# Coordination Sequence:
#
# PCOD9074401 Si02
#       8
#     2   2   2   2   2   2   2   2
#     4  11  19  43  72 102 138 174 226 283 343 412
#     4  11  21  41  65  98 144 164 222 286 343 403
#     4  10  23  42  70  98 128 172 227 280 341 390
#     4  10  23  42  65 101 129 169 226 281 341 397
#     4  12  26  41  64 101 134 177 229 268 344 405
#     4  12  26  43  65  96 140 178 221 279 337 408
#     4  11  24  47  67  93 132 182 232 274 329 403
#     4  11  24  41  71 100 128 179 223 285 333 407
#
# _framework density 21.121480999999999
#
# number of rings (size 3 to 8) (size 9 to 14) (size 15 to 20)
#    0.000    1.000    6.250    1.500    1.750    5.000 
#    0.000    1.875    0.000    0.000    0.000    0.000 
#    0.000    0.000    0.000    0.000    0.000    0.000 
#
# Total GULP energy -89171.291195 kJ/mol
# GULP energy per Si atom -5573.205700 kJ/mol
# Density = 2.107341 g / cm^3
# Si number density = 21.121481 Si / 1000 Ang^3
#
#
#
# Elastic Constant Matrix: (Units=GPa)
#
#
# Indices 1 2 3 4 5 6 
#
# 1 31.0495 4.4267 19.9438 -10.0720 -6.0221 -7.6803
# 2 4.4267 34.3407 20.8910 13.2162 6.1520 -4.7810
# 3 19.9438 20.8910 194.9855 18.7297 -12.0419 -4.1613
# 4 -10.0720 13.2162 18.7297 42.5918 -10.5325 6.2127
# 5 -6.0221 6.1520 -12.0419 -10.5325 47.3052 -2.4905
# 6 -7.6803 -4.7810 -4.1613 6.2127 -2.4905 16.3596
#
#
#
# Elastic Compliance Matrix: (Units=1/GPa)
#
#
# Indices 1 2 3 4 5 6 
#
# 1 0.047364 -0.009958 -0.004460 0.016937 0.010665 0.013383
# 2 -0.009958 0.042934 -0.002124 -0.019365 -0.011019 0.013009
# 3 -0.004460 -0.002124 0.006135 -0.002950 0.000617 0.000060
# 4 0.016937 -0.019365 -0.002950 0.039476 0.012102 -0.011607
# 5 0.010665 -0.011019 0.000617 0.012102 0.026857 0.001436
# 6 0.013383 0.013009 0.000060 -0.011607 0.001436 0.075853
#
#
# Mechanical properties :
#
#
# Convention : Reuss Voigt Hill
#
# Bulk Modulus (GPa) = 15.78573 38.98876 27.38725
# Shear Modulus (GPa) = 17.07541 35.59226 26.33383
#
# Velocity S-wave (km/s) = 2.84639 4.10948 3.53481
# Velocity P-wave (km/s) = 4.27698 6.40441 5.44559
#
# Compressibility (1/GPa) = 0.06334834
#
# Stress axis : x y z
#
# Youngs Moduli (GPa) = 21.11305 23.29177 162.99655
#
# Poissons Ratio (x) = 0.23193 0.72703
# Poissons Ratio (y) = 0.21024 0.34623
# Poissons Ratio (z) = 0.09417 0.04948
#
# Static dielectric constant tensor:
#      x y z
#    x 1.874820 0.018080 -0.011980 
#    y 0.018080 1.785670 -0.003960 
#    z -0.011980 -0.003960 1.745560 
# 
# From -- ./inp_files/428805.got.cif
#   From: 2010.05.17/outbox.ucp.g08.bks.cvg/sg2_215_cif.got.tgz:428805.got - 2010.06.11 11:32:03.
