data_PCOD9074798
_publ_section_title
;
Structure prediction by ZEFSAII (Michael W. Deem and Ramdas Pophale) SiO2 
 PCOD9074798
Probable space group: P -1
;
_chemical_formula_sum "Si O2"
_cell_formula_units_Z 14
_cell_length_a 15.000000
_cell_length_b 15.000000
_cell_length_c 6.000000
_cell_angle_alpha 70.000000
_cell_angle_beta 50.000000
_cell_angle_gamma 40.000000
_cell_volume 632.984913
_symmetry_space_group_name_H-M "P -1"
_symmetry_group_IT_number 2
_symmetry_cell_setting 'triclinic'
loop_
_space_group_symop_operation_xyz
x,y,z
-x,-y,-z
loop_
_atom_site_type_symbol
_atom_site_label
_atom_site_fract_x
_atom_site_fract_y
_atom_site_fract_z
Si Si1 0.847058 0.540725 0.370227
Si Si2 0.720488 0.023782 0.403750
Si Si3 0.659171 0.253957 0.525814
Si Si4 0.997545 0.892886 0.688966
Si Si5 0.084937 0.234860 0.375713
Si Si6 0.516093 0.602593 0.820493
Si Si7 0.372641 0.158989 0.664087
O O1 0.700169 0.549576 0.525088
O O2 0.722462 0.709964 0.468228
O O3 0.956840 0.405216 0.480329
O O4 0.000000 0.500000 0.000000
O O5 0.816733 0.871698 0.479985
O O6 0.733993 0.102236 0.486809
O O7 0.510773 0.136237 0.605782
O O8 0.822570 0.987896 0.043003
O O9 0.826166 0.219771 0.340917
O O10 0.576875 0.331214 0.340656
O O11 0.554944 0.314364 0.886284
O O12 0.002400 0.802729 0.580671
O O13 0.000000 0.000000 0.500000
O O14 0.229525 0.191444 0.013954
O O15 0.500000 0.500000 0.000000
O O16 0.500000 0.000000 0.500000
#
# Coordination Sequence:
#
# PCOD9074798 Si02
#       7
#     2   2   2   2   2   2   2
#     4  10  25  49  75 110 155 199 258 322 396 458
#     4  12  25  44  75 108 148 197 261 315 387 461
#     4  12  27  45  78 114 155 206 258 324 387 468
#     4  12  25  43  72 111 156 196 259 319 389 460
#     4  11  25  46  73 108 148 195 255 320 387 462
#     4  12  27  51  80 112 160 207 264 317 399 472
#     4  11  23  48  76 103 147 201 258 317 388 467
#
# _framework density 22.117431
#
# number of rings (size 3 to 8) (size 9 to 14) (size 15 to 20)
#    0.000    0.571    4.286    3.000    6.000    0.000 
#    0.000    1.429    0.000    0.000    0.000    0.000 
#    0.000    0.000    0.000    0.000    0.000    0.000 
#
# Total GULP energy -77961.556757 kJ/mol
# GULP energy per Si atom -5568.682626 kJ/mol
# Density = 2.206709 g / cm^3
# Si number density = 22.117431 Si / 1000 Ang^3
#
#
#
# Elastic Constant Matrix: (Units=GPa)
#
#
# Indices 1 2 3 4 5 6 
#
# 1 78.3429 11.2180 19.4151 -4.7947 -15.6371 -4.9315
# 2 11.2180 189.0293 31.9952 -31.1551 6.2777 4.3623
# 3 19.4151 31.9952 78.4377 -23.9218 -8.5634 1.2505
# 4 -4.7947 -31.1551 -23.9218 42.9025 4.1103 1.2336
# 5 -15.6371 6.2777 -8.5634 4.1103 50.7482 -3.8896
# 6 -4.9315 4.3623 1.2505 1.2336 -3.8896 44.3808
#
#
#
# Elastic Compliance Matrix: (Units=1/GPa)
#
#
# Indices 1 2 3 4 5 6 
#
# 1 0.014594 -0.000702 -0.003247 -0.001164 0.004298 0.002191
# 2 -0.000702 0.006280 -0.001358 0.003905 -0.001608 -0.000906
# 3 -0.003247 -0.001358 0.016648 0.007834 0.001281 -0.000802
# 4 -0.001164 0.003905 0.007834 0.030638 -0.002137 -0.001773
# 5 0.004298 -0.001608 0.001281 -0.002137 0.021815 0.002571
# 6 0.002191 -0.000906 -0.000802 -0.001773 0.002571 0.023162
#
#
# Mechanical properties :
#
#
# Convention : Reuss Voigt Hill
#
# Bulk Modulus (GPa) = 37.16204 52.34073 44.75138
# Shear Modulus (GPa) = 37.67349 46.48508 42.07929
#
# Velocity S-wave (km/s) = 4.13163 4.58945 4.36654
# Velocity P-wave (km/s) = 6.29278 7.19724 6.76016
#
# Compressibility (1/GPa) = 0.02690918
#
# Stress axis : x y z
#
# Youngs Moduli (GPa) = 68.52098 159.24728 60.06564
#
# Poissons Ratio (x) = 0.11173 0.19502
# Poissons Ratio (y) = 0.04808 0.08157
# Poissons Ratio (z) = 0.22247 0.21627
#
# Static dielectric constant tensor:
#      x y z
#    x 1.922330 -0.025940 -0.000580 
#    y -0.025940 1.901160 0.048690 
#    z -0.000580 0.048690 1.812690 
# 
# From -- ./inp_files/97647.got.cif
#   From: 2010.05.17/outbox.ucp.g08.bks.cvg/sg2_49_cif.got.tgz:97647.got - 2010.06.11 11:32:03.
