data_PCOD9074796
_publ_section_title
;
Structure prediction by ZEFSAII (Michael W. Deem and Ramdas Pophale) SiO2 
 PCOD9074796
Probable space group: P -1
;
_chemical_formula_sum "Si O2"
_cell_formula_units_Z 16
_cell_length_a 9.000000
_cell_length_b 12.000000
_cell_length_c 15.000000
_cell_angle_alpha 30.000000
_cell_angle_beta 100.000000
_cell_angle_gamma 110.000000
_cell_volume 734.803614
_symmetry_space_group_name_H-M "P -1"
_symmetry_group_IT_number 2
_symmetry_cell_setting 'triclinic'
loop_
_space_group_symop_operation_xyz
x,y,z
-x,-y,-z
loop_
_atom_site_type_symbol
_atom_site_label
_atom_site_fract_x
_atom_site_fract_y
_atom_site_fract_z
Si Si1 0.818904 0.504536 0.975740
Si Si2 0.593667 0.203010 0.682724
Si Si3 0.667634 0.612818 0.712422
Si Si4 0.721772 0.693469 0.452214
Si Si5 0.321022 0.867271 0.619200
Si Si6 0.916083 0.995127 0.746442
Si Si7 0.695347 0.769401 0.049806
Si Si8 0.225104 0.628792 0.588503
O O1 0.708120 0.295195 0.180316
O O2 0.756626 0.498123 0.871535
O O3 0.000000 0.500000 0.000000
O O4 0.829815 0.767858 0.828851
O O5 0.714551 0.463033 0.553108
O O6 0.416572 0.216125 0.661328
O O7 0.624027 0.213879 0.570599
O O8 0.625584 0.988989 0.887575
O O9 0.689124 0.597073 0.618472
O O10 0.474789 0.466514 0.818449
O O11 0.728114 0.903162 0.530235
O O12 0.890805 0.921068 0.300931
O O13 0.226152 0.693462 0.648532
O O14 0.500000 0.000000 0.500000
O O15 0.896009 0.249486 0.547847
O O16 0.832251 0.879381 0.911337
O O17 0.778057 0.646882 0.217700
#
# Coordination Sequence:
#
# PCOD9074796 Si02
#       8
#     2   2   2   2   2   2   2   2
#     4  12  28  41  65 108 146 182 230 280 351 422
#     4  10  25  49  74 100 136 183 242 290 340 418
#     4  12  26  42  70 103 140 189 225 280 348 417
#     4  11  25  50  72 100 143 183 230 296 353 401
#     4  12  23  41  68  97 138 182 226 276 340 410
#     4  11  25  43  69 101 145 179 227 294 345 412
#     4  11  24  44  71 103 136 184 238 280 341 414
#     4  11  22  44  69 100 141 177 232 287 339 408
#
# _framework density 21.774525000000001
#
# number of rings (size 3 to 8) (size 9 to 14) (size 15 to 20)
#    0.000    0.750    5.000    0.750    8.750    4.500 
#    0.000    1.250    0.000    0.000    0.000    0.000 
#    0.000    0.000    0.000    0.000    0.000    0.000 
#
# Total GULP energy -89130.204821 kJ/mol
# GULP energy per Si atom -5570.637801 kJ/mol
# Density = 2.172497 g / cm^3
# Si number density = 21.774525 Si / 1000 Ang^3
#
#
#
# Elastic Constant Matrix: (Units=GPa)
#
#
# Indices 1 2 3 4 5 6 
#
# 1 60.6285 5.2560 33.7769 10.5863 -3.9360 1.0563
# 2 5.2560 47.8523 35.1555 2.2128 -4.6809 -1.9445
# 3 33.7769 35.1555 178.3837 13.5339 12.4915 1.8517
# 4 10.5863 2.2128 13.5339 32.7002 -3.2015 7.9289
# 5 -3.9360 -4.6809 12.4915 -3.2015 51.4473 -6.6509
# 6 1.0563 -1.9445 1.8517 7.9289 -6.6509 18.3484
#
#
#
# Elastic Compliance Matrix: (Units=1/GPa)
#
#
# Indices 1 2 3 4 5 6 
#
# 1 0.019501 0.001191 -0.003733 -0.005220 0.002511 0.002546
# 2 0.001191 0.025519 -0.005568 -0.000603 0.004380 0.005046
# 3 -0.003733 -0.005568 0.007751 -0.001532 -0.002973 -0.001573
# 4 -0.005220 -0.000603 -0.001532 0.036698 0.000212 -0.015390
# 5 0.002511 0.004380 -0.002973 0.000212 0.021855 0.008450
# 6 0.002546 0.005046 -0.001573 -0.015390 0.008450 0.064761
#
#
# Mechanical properties :
#
#
# Convention : Reuss Voigt Hill
#
# Bulk Modulus (GPa) = 27.35973 48.36016 37.85995
# Shear Modulus (GPa) = 24.45123 34.67760 29.56441
#
# Velocity S-wave (km/s) = 3.35465 3.99504 3.68877
# Velocity P-wave (km/s) = 5.25330 6.59835 5.96386
#
# Compressibility (1/GPa) = 0.03655007
#
# Stress axis : x y z
#
# Youngs Moduli (GPa) = 51.28016 39.18680 129.01672
#
# Poissons Ratio (x) = -0.04669 0.48168
# Poissons Ratio (y) = -0.06110 0.71838
# Poissons Ratio (z) = 0.19145 0.21820
#
# Static dielectric constant tensor:
#      x y z
#    x 1.879350 -0.002750 0.034800 
#    y -0.002750 1.851070 -0.029460 
#    z 0.034800 -0.029460 1.757130 
# 
# From -- ./inp_files/499745.got.cif
#   From: 2010.05.17/outbox.ucp.g08.bks.cvg/sg2_250_cif.got.tgz:499745.got - 2010.06.11 11:32:03.
