data_PCOD9074555
_publ_section_title
;
Structure prediction by ZEFSAII (Michael W. Deem and Ramdas Pophale) SiO2 
 PCOD9074555
Probable space group: P -1
;
_chemical_formula_sum "Si O2"
_cell_formula_units_Z 16
_cell_length_a 12.000000
_cell_length_b 9.000000
_cell_length_c 12.000000
_cell_angle_alpha 50.000000
_cell_angle_beta 60.000000
_cell_angle_gamma 50.000000
_cell_volume 752.153660
_symmetry_space_group_name_H-M "P -1"
_symmetry_group_IT_number 2
_symmetry_cell_setting 'triclinic'
loop_
_space_group_symop_operation_xyz
x,y,z
-x,-y,-z
loop_
_atom_site_type_symbol
_atom_site_label
_atom_site_fract_x
_atom_site_fract_y
_atom_site_fract_z
Si Si1 0.636944 0.263934 0.550254
Si Si2 0.205752 0.119068 0.606597
Si Si3 0.250568 0.320575 0.264680
Si Si4 0.794868 0.940610 0.791183
Si Si5 0.777858 0.724215 0.120193
Si Si6 0.541646 0.959061 0.318407
Si Si7 0.135023 0.770300 0.710929
Si Si8 0.006402 0.769263 0.136963
O O1 0.500000 0.500000 0.500000
O O2 0.576735 0.128158 0.573051
O O3 0.789706 0.235014 0.442246
O O4 0.673585 0.181123 0.697078
O O5 0.188095 0.262607 0.436004
O O6 0.354717 0.078526 0.611645
O O7 0.077839 0.230196 0.708560
O O8 0.200439 0.892891 0.694123
O O9 0.207101 0.213154 0.234709
O O10 0.171913 0.580049 0.158922
O O11 0.426501 0.214861 0.232116
O O12 0.959249 0.903085 0.737074
O O13 0.744070 0.882391 0.957278
O O14 0.647819 0.828883 0.225102
O O15 0.812535 0.485930 0.171147
O O16 0.923126 0.706339 0.114174
O O17 0.000000 0.000000 0.000000
#
# Coordination Sequence:
#
# PCOD9074555 Si02
#       8
#     2   2   2   2   2   2   2   2
#     4  11  23  42  67  98 134 172 220 281 321 397
#     4  11  24  42  69  97 135 177 217 275 325 397
#     4  11  23  42  70  96 132 174 219 279 323 394
#     4  11  24  41  68  99 133 170 226 269 336 385
#     4  11  24  44  69  98 136 178 211 283 323 404
#     4  10  23  46  67  95 139 171 224 262 342 388
#     4  12  22  41  70 101 131 170 224 271 334 381
#     4  11  25  46  64  97 135 175 227 266 332 390
#
# _framework density 21.272248999999999
#
# number of rings (size 3 to 8) (size 9 to 14) (size 15 to 20)
#    0.000    1.000    5.000    2.250    1.750    2.000 
#    4.500    2.500    0.000    0.000    0.000    0.000 
#    0.000    0.000    0.000    0.000    0.000    0.000 
#
# Total GULP energy -89254.245816 kJ/mol
# GULP energy per Si atom -5578.390363 kJ/mol
# Density = 2.122383 g / cm^3
# Si number density = 21.272249 Si / 1000 Ang^3
#
#
#
# Elastic Constant Matrix: (Units=GPa)
#
#
# Indices 1 2 3 4 5 6 
#
# 1 -2.8461 9.7315 5.8316 12.1877 -22.2471 -5.7667
# 2 9.7315 64.2685 27.6103 -24.1525 7.3029 -24.2351
# 3 5.8316 27.6103 64.3855 -2.8853 7.6883 2.3782
# 4 12.1877 -24.1525 -2.8853 24.3479 8.3587 9.1723
# 5 -22.2471 7.3029 7.6883 8.3587 17.7051 -0.2922
# 6 -5.7667 -24.2351 2.3782 9.1723 -0.2922 23.2182
#
#
#
# Elastic Compliance Matrix: (Units=1/GPa)
#
#
# Indices 1 2 3 4 5 6 
#
# 1 -0.005853 0.016749 -0.002727 0.025618 -0.025077 0.005872
# 2 0.016749 0.045874 -0.023178 0.013613 0.006573 0.049122
# 3 -0.002727 -0.023178 0.026389 -0.008912 -0.001515 -0.024072
# 4 0.025618 0.013613 -0.008912 0.031962 0.015505 0.009053
# 5 -0.025077 0.006573 -0.001515 0.015505 0.015513 -0.005142
# 6 0.005872 0.049122 -0.024072 0.009053 -0.005142 0.094626
#
#
# Mechanical properties :
#
#
# Convention : Reuss Voigt Hill
#
# Bulk Modulus (GPa) = 20.79124 23.57275 22.18200
# Shear Modulus (GPa) = 20.58852 18.56323 19.57587
#
# Velocity S-wave (km/s) = 3.11442 2.95727 3.03686
# Velocity P-wave (km/s) = 4.76738 4.77138 4.76938
#
# Compressibility (1/GPa) = 0.04809717
#
# Stress axis : x y z
#
# Youngs Moduli (GPa) = -170.84563 21.79906 37.89521
#
# Poissons Ratio (x) = -0.36511 0.10333
# Poissons Ratio (y) = 2.86150 0.87834
# Poissons Ratio (z) = -0.46585 0.50526
#
# Static dielectric constant tensor:
#      x y z
#    x 1.745860 -0.005660 0.021080 
#    y -0.005660 1.935370 -0.037120 
#    z 0.021080 -0.037120 1.818320 
# 
# From -- ./inp_files/208420.got.cif
#   From: 2010.05.17/outbox.ucp.g08.bks.cvg/sg2_105_cif.got.tgz:208420.got - 2010.06.11 11:32:03.
