data_PCOD9074267
_publ_section_title
;
Structure prediction by ZEFSAII (Michael W. Deem and Ramdas Pophale) SiO2 
 PCOD9074267
Probable space group: P -1
;
_chemical_formula_sum "Si O2"
_cell_formula_units_Z 15
_cell_length_a 6.000000
_cell_length_b 12.000000
_cell_length_c 12.000000
_cell_angle_alpha 70.000000
_cell_angle_beta 130.000000
_cell_angle_gamma 110.000000
_cell_volume 612.923978
_symmetry_space_group_name_H-M "P -1"
_symmetry_group_IT_number 2
_symmetry_cell_setting 'triclinic'
loop_
_space_group_symop_operation_xyz
x,y,z
-x,-y,-z
loop_
_atom_site_type_symbol
_atom_site_label
_atom_site_fract_x
_atom_site_fract_y
_atom_site_fract_z
Si Si1 0.262002 0.920996 0.819955
Si Si2 0.181955 0.736922 0.304765
Si Si3 0.825224 0.077343 0.563693
Si Si4 0.386530 0.473539 0.798161
Si Si5 0.000000 0.500000 0.500000
Si Si6 0.305393 0.669167 0.885756
Si Si7 0.841063 0.104490 0.961428
Si Si8 0.134960 0.293336 0.442083
O O1 0.430395 0.811968 0.876815
O O2 0.498926 0.041373 0.873210
O O3 0.093222 0.872486 0.895990
O O4 0.026184 0.974612 0.653304
O O5 0.117338 0.840493 0.333549
O O6 0.125346 0.781584 0.147315
O O7 0.523095 0.723210 0.434600
O O8 0.947484 0.613417 0.292727
O O9 0.917398 0.175733 0.463005
O O10 0.500000 0.000000 0.500000
O O11 0.364577 0.525387 0.650804
O O12 0.415425 0.582186 0.858927
O O13 0.607729 0.388179 0.948624
O O14 0.074551 0.397949 0.469869
O O15 0.980156 0.677738 0.728493
O O16 0.000000 0.000000 0.000000
#
# Coordination Sequence:
#
# PCOD9074267 Si02
#       8
#     2   2   2   2   1   2   2   2
#     4  11  24  42  66 101 140 179 226 282 350 410
#     4  12  24  43  74 100 137 185 239 285 348 418
#     4  12  26  42  67 105 142 181 231 285 353 419
#     4  10  23  46  71 103 134 185 235 290 343 413
#     4  10  22  44  76  96 134 180 238 282 342 408
#     4  10  24  43  72  98 144 181 226 290 352 406
#     4  11  23  39  68 101 132 180 231 283 341 415
#     4  11  25  46  70 103 138 187 228 297 341 417
#
# _framework density 24.472856
#
# number of rings (size 3 to 8) (size 9 to 14) (size 15 to 20)
#    0.000    1.067    4.000    1.600    5.600    4.267 
#    2.400    0.667    0.000    0.000    0.000    0.000 
#    0.000    0.000    0.000    0.000    0.000    0.000 
#
# Total GULP energy -83562.344187 kJ/mol
# GULP energy per Si atom -5570.822946 kJ/mol
# Density = 2.441715 g / cm^3
# Si number density = 24.472856 Si / 1000 Ang^3
#
#
#
# Elastic Constant Matrix: (Units=GPa)
#
#
# Indices 1 2 3 4 5 6 
#
# 1 61.8541 31.0535 20.9805 0.9025 7.5663 1.6027
# 2 31.0535 134.5229 3.3841 -1.7880 -0.7187 -22.8806
# 3 20.9805 3.3841 139.4963 -8.8751 16.9676 -23.4787
# 4 0.9025 -1.7880 -8.8751 39.5154 -16.7234 3.2006
# 5 7.5663 -0.7187 16.9676 -16.7234 33.2223 6.0238
# 6 1.6027 -22.8806 -23.4787 3.2006 6.0238 38.5978
#
#
#
# Elastic Compliance Matrix: (Units=1/GPa)
#
#
# Indices 1 2 3 4 5 6 
#
# 1 0.020924 -0.005790 -0.003778 -0.002426 -0.003110 -0.005912
# 2 -0.005790 0.009991 0.001992 0.000088 -0.000797 0.007492
# 3 -0.003778 0.001992 0.009759 -0.000845 -0.006008 0.008282
# 4 -0.002426 0.000088 -0.000845 0.033752 0.019089 -0.006139
# 5 -0.003110 -0.000797 -0.006008 0.019089 0.045776 -0.012725
# 6 -0.005912 0.007492 0.008282 -0.006139 -0.012725 0.038128
#
#
# Mechanical properties :
#
#
# Convention : Reuss Voigt Hill
#
# Bulk Modulus (GPa) = 39.17878 49.63440 44.40659
# Shear Modulus (GPa) = 27.47405 40.96410 34.21907
#
# Velocity S-wave (km/s) = 3.35421 4.09572 3.74337
# Velocity P-wave (km/s) = 5.57178 6.53391 6.07193
#
# Compressibility (1/GPa) = 0.02552402
#
# Stress axis : x y z
#
# Youngs Moduli (GPa) = 47.79178 100.08786 102.46483
#
# Poissons Ratio (x) = 0.57947 0.38708
# Poissons Ratio (y) = 0.27669 -0.20409
# Poissons Ratio (z) = 0.18054 -0.19936
#
# Static dielectric constant tensor:
#      x y z
#    x 1.808390 -0.086990 0.235330 
#    y -0.086990 1.859430 0.213790 
#    z 0.235330 0.213790 1.742600 
# 
# From -- ./inp_files/364190.got.cif
#   From: 2010.05.17/outbox.ucp.g08.bks.cvg/sg2_183_cif.got.tgz:364190.got - 2010.06.11 11:32:03.
