data_PCOD9074288
_publ_section_title
;
Structure prediction by ZEFSAII (Michael W. Deem and Ramdas Pophale) SiO2 
 PCOD9074288
Probable space group: P -1
;
_chemical_formula_sum "Si O2"
_cell_formula_units_Z 16
_cell_length_a 6.000000
_cell_length_b 18.000000
_cell_length_c 9.000000
_cell_angle_alpha 100.000000
_cell_angle_beta 50.000000
_cell_angle_gamma 90.000000
_cell_volume 725.212580
_symmetry_space_group_name_H-M "P -1"
_symmetry_group_IT_number 2
_symmetry_cell_setting 'triclinic'
loop_
_space_group_symop_operation_xyz
x,y,z
-x,-y,-z
loop_
_atom_site_type_symbol
_atom_site_label
_atom_site_fract_x
_atom_site_fract_y
_atom_site_fract_z
Si Si1 0.059719 0.673352 0.321116
Si Si2 0.737978 0.600761 0.036938
Si Si3 0.978355 0.254959 0.965562
Si Si4 0.457883 0.102882 0.697030
Si Si5 0.619565 0.802192 0.704847
Si Si6 0.367904 0.080861 0.017657
Si Si7 0.273936 0.935312 0.712870
Si Si8 0.793148 0.529075 0.320124
O O1 0.394646 0.633445 0.181520
O O2 0.058518 0.710727 0.171794
O O3 0.895709 0.742355 0.514689
O O4 0.869048 0.604200 0.395816
O O5 0.755848 0.559605 0.176630
O O6 0.895691 0.676196 0.981912
O O7 0.921660 0.537541 0.828423
O O8 0.213575 0.177470 0.825438
O O9 0.675506 0.236633 0.160386
O O10 0.709013 0.101537 0.469713
O O11 0.333158 0.022157 0.703370
O O12 0.592885 0.096413 0.799580
O O13 0.681563 0.842316 0.843769
O O14 0.522693 0.878064 0.671606
O O15 0.047341 0.069888 0.091562
O O16 0.500000 0.000000 0.000000
O O17 0.500000 0.500000 0.500000
#
# Coordination Sequence:
#
# PCOD9074288 Si02
#       8
#     2   2   2   2   2   2   2   2
#     4  11  25  42  67 103 134 168 223 265 324 403
#     4  10  24  43  67 101 134 168 212 270 323 393
#     4  11  24  41  65  93 136 175 216 271 336 382
#     4  11  23  44  65  89 131 179 218 285 330 387
#     4  12  25  41  65  98 132 179 226 275 333 393
#     4  12  25  40  65  95 127 173 237 283 331 391
#     4  11  24  44  65  89 132 177 228 279 338 383
#     4  10  22  45  73  97 133 171 210 260 330 394
#
# _framework density 22.062495999999999
#
# number of rings (size 3 to 8) (size 9 to 14) (size 15 to 20)
#    0.000    1.000    3.750    2.250    3.500    2.000 
#    0.000    0.000    0.000    0.000    0.000    0.000 
#    0.000    0.000    0.000    0.000    0.000    0.000 
#
# Total GULP energy -89203.644740 kJ/mol
# GULP energy per Si atom -5575.227796 kJ/mol
# Density = 2.201228 g / cm^3
# Si number density = 22.062496 Si / 1000 Ang^3
#
#
#
# Elastic Constant Matrix: (Units=GPa)
#
#
# Indices 1 2 3 4 5 6 
#
# 1 27.4356 29.0557 11.5028 9.7989 -10.4437 -5.5108
# 2 29.0557 127.6212 6.7631 21.9406 -10.9744 -21.6002
# 3 11.5028 6.7631 76.5939 25.1815 -6.7615 -25.5882
# 4 9.7989 21.9406 25.1815 44.4660 1.2338 -9.1536
# 5 -10.4437 -10.9744 -6.7615 1.2338 27.4685 5.6096
# 6 -5.5108 -21.6002 -25.5882 -9.1536 5.6096 20.3513
#
#
#
# Elastic Compliance Matrix: (Units=1/GPa)
#
#
# Indices 1 2 3 4 5 6 
#
# 1 0.061380 -0.014420 -0.011651 -0.004601 0.019138 -0.020677
# 2 -0.014420 0.015283 0.010151 -0.005329 -0.001347 0.023053
# 3 -0.011651 0.010151 0.031989 -0.011736 -0.000704 0.042755
# 4 -0.004601 -0.005329 -0.011736 0.031871 -0.007103 -0.005364
# 5 0.019138 -0.001347 -0.000704 -0.007103 0.045942 -0.012991
# 6 -0.020677 0.023053 0.042755 -0.005364 -0.012991 0.122930
#
#
# Mechanical properties :
#
#
# Convention : Reuss Voigt Hill
#
# Bulk Modulus (GPa) = 13.01882 36.25488 24.63685
# Shear Modulus (GPa) = 13.62993 30.74576 22.18785
#
# Velocity S-wave (km/s) = 2.48823 3.73711 3.17469
# Velocity P-wave (km/s) = 3.76414 5.92367 4.96279
#
# Compressibility (1/GPa) = 0.07681187
#
# Stress axis : x y z
#
# Youngs Moduli (GPa) = 16.29191 65.43232 31.26101
#
# Poissons Ratio (x) = 0.94355 0.36421
# Poissons Ratio (y) = 0.23493 -0.31732
# Poissons Ratio (z) = 0.18981 -0.66418
#
# Static dielectric constant tensor:
#      x y z
#    x 1.932290 0.002260 0.104960 
#    y 0.002260 1.856090 0.035630 
#    z 0.104960 0.035630 1.821500 
# 
# From -- ./inp_files/48076.got.cif
#   From: 2010.05.17/outbox.ucp.g08.bks.cvg/sg2_25_cif.got.tgz:48076.got - 2010.06.11 11:32:03.
