data_PCOD9074018
_publ_section_title
;
Structure prediction by ZEFSAII (Michael W. Deem and Ramdas Pophale) SiO2 
 PCOD9074018
Probable space group: P -1
;
_chemical_formula_sum "Si O2"
_cell_formula_units_Z 16
_cell_length_a 12.000000
_cell_length_b 18.000000
_cell_length_c 21.000000
_cell_angle_alpha 20.000000
_cell_angle_beta 30.000000
_cell_angle_gamma 40.000000
_cell_volume 744.844803
_symmetry_space_group_name_H-M "P -1"
_symmetry_group_IT_number 2
_symmetry_cell_setting 'triclinic'
loop_
_space_group_symop_operation_xyz
x,y,z
-x,-y,-z
loop_
_atom_site_type_symbol
_atom_site_label
_atom_site_fract_x
_atom_site_fract_y
_atom_site_fract_z
Si Si1 0.839510 0.535450 0.752970
Si Si2 0.950058 0.754660 0.195264
Si Si3 0.619523 0.414914 0.711281
Si Si4 0.439325 0.088363 0.802309
Si Si5 0.370601 0.754995 0.286857
Si Si6 0.260443 0.640722 0.777616
Si Si7 0.358563 0.538747 0.950058
Si Si8 0.733919 0.975535 0.630505
O O1 0.628523 0.636446 0.757272
O O2 0.847159 0.311432 0.889829
O O3 0.090070 0.690420 0.480061
O O4 0.799867 0.482281 0.890991
O O5 0.864220 0.593666 0.428924
O O6 0.756073 0.785179 0.216881
O O7 0.000000 0.000000 0.000000
O O8 0.638528 0.175318 0.922162
O O9 0.537970 0.380550 0.704821
O O10 0.448077 0.518235 0.754526
O O11 0.597115 0.065898 0.681525
O O12 0.574206 0.240341 0.670363
O O13 0.500000 0.000000 0.000000
O O14 0.286632 0.653824 0.830550
O O15 0.290715 0.879050 0.536105
O O16 0.000000 0.500000 0.000000
O O17 0.350388 0.287328 0.132926
O O18 0.000000 0.000000 0.500000
#
# Coordination Sequence:
#
# PCOD9074018 Si02
#       8
#     2   2   2   2   2   2   2   2
#     4  10  24  45  69 100 137 190 221 285 351 403
#     4  11  24  42  66  98 133 175 224 275 343 408
#     4  10  22  41  63 101 132 165 230 277 336 402
#     4  11  21  40  66  96 133 177 219 288 336 397
#     4   9  21  41  65  97 132 174 229 280 338 400
#     4  12  24  40  68 103 130 179 227 278 337 406
#     4  11  24  46  68  98 148 175 229 281 343 419
#     4  12  22  40  67  99 137 179 229 279 341 406
#
# _framework density 21.480985
#
# number of rings (size 3 to 8) (size 9 to 14) (size 15 to 20)
#    0.000    1.250    3.750    1.500    0.000    4.500 
#    4.500    6.250    0.000    0.000    0.000    0.000 
#    0.000    0.000    0.000    0.000    0.000    0.000 
#
# Total GULP energy -89100.804325 kJ/mol
# GULP energy per Si atom -5568.800270 kJ/mol
# Density = 2.143209 g / cm^3
# Si number density = 21.480985 Si / 1000 Ang^3
#
#
#
# Elastic Constant Matrix: (Units=GPa)
#
#
# Indices 1 2 3 4 5 6 
#
# 1 109.3231 13.9240 37.8362 17.4808 25.9371 7.6513
# 2 13.9240 90.9556 3.6157 30.9676 14.5054 14.6706
# 3 37.8362 3.6157 63.5440 6.9211 22.2468 4.1309
# 4 17.4808 30.9676 6.9211 43.4294 -1.4867 8.2397
# 5 25.9371 14.5054 22.2468 -1.4867 39.8548 -1.5246
# 6 7.6513 14.6706 4.1309 8.2397 -1.5246 44.1955
#
#
#
# Elastic Compliance Matrix: (Units=1/GPa)
#
#
# Indices 1 2 3 4 5 6 
#
# 1 0.013225 0.001297 -0.004966 -0.005401 -0.006565 -0.001475
# 2 0.001297 0.017259 0.003282 -0.012885 -0.009598 -0.004189
# 3 -0.004966 0.003282 0.022916 -0.003989 -0.010980 -0.002007
# 4 -0.005401 -0.012885 -0.003989 0.035546 0.011733 -0.000637
# 5 -0.006565 -0.009598 -0.010980 0.011733 0.039596 0.004527
# 6 -0.001475 -0.004189 -0.002007 -0.000637 0.004527 0.024735
#
#
# Mechanical properties :
#
#
# Convention : Reuss Voigt Hill
#
# Bulk Modulus (GPa) = 19.00218 41.61938 30.31078
# Shear Modulus (GPa) = 29.13847 39.39239 34.26543
#
# Velocity S-wave (km/s) = 3.68703 4.28697 3.99827
# Velocity P-wave (km/s) = 5.19527 6.62730 5.95449
#
# Compressibility (1/GPa) = 0.05262555
#
# Stress axis : x y z
#
# Youngs Moduli (GPa) = 75.61361 57.94144 43.63709
#
# Poissons Ratio (x) = -0.07513 0.21670
# Poissons Ratio (y) = -0.09805 -0.14321
# Poissons Ratio (z) = 0.37550 -0.19016
#
# Static dielectric constant tensor:
#      x y z
#    x 1.782330 -0.025490 -0.096980 
#    y -0.025490 1.662810 -0.057810 
#    z -0.096980 -0.057810 1.906700 
# 
# From -- ./inp_files/427834.got.cif
#   From: 2010.05.17/outbox.ucp.g08.bks.cvg/sg2_214_cif.got.tgz:427834.got - 2010.06.11 11:32:03.
