data_PCOD9074708
_publ_section_title
;
Structure prediction by ZEFSAII (Michael W. Deem and Ramdas Pophale) SiO2 
 PCOD9074708
Probable space group: P -1
;
_chemical_formula_sum "Si O2"
_cell_formula_units_Z 16
_cell_length_a 18.000000
_cell_length_b 21.000000
_cell_length_c 12.000000
_cell_angle_alpha 160.000000
_cell_angle_beta 40.000000
_cell_angle_gamma 150.000000
_cell_volume 744.844803
_symmetry_space_group_name_H-M "P -1"
_symmetry_group_IT_number 2
_symmetry_cell_setting 'triclinic'
loop_
_space_group_symop_operation_xyz
x,y,z
-x,-y,-z
loop_
_atom_site_type_symbol
_atom_site_label
_atom_site_fract_x
_atom_site_fract_y
_atom_site_fract_z
Si Si1 0.610116 0.629815 0.479929
Si Si2 0.034972 0.543959 0.358528
Si Si3 0.169260 0.946475 0.508945
Si Si4 0.619711 0.580455 0.793086
Si Si5 0.730532 0.172177 0.249872
Si Si6 0.533328 0.902782 0.693368
Si Si7 0.074173 0.277695 0.399220
Si Si8 0.949782 0.832152 0.391133
O O1 0.500000 0.500000 0.500000
O O2 0.500725 0.458672 0.219936
O O3 0.777590 0.708123 0.424018
O O4 0.656396 0.894708 0.850936
O O5 0.191654 0.738822 0.570696
O O6 0.883737 0.355905 0.300299
O O7 0.984614 0.659457 0.530253
O O8 0.056033 0.387808 0.000353
O O9 0.288796 0.929004 0.280929
O O10 0.279183 0.168271 0.836788
O O11 0.012078 0.730318 0.405427
O O12 0.089433 0.995297 0.588511
O O13 0.518280 0.352365 0.620573
O O14 0.741630 0.572440 0.574061
O O15 0.593457 0.169505 0.372388
O O16 0.500000 0.000000 0.000000
O O17 0.000000 0.000000 0.000000
O O18 0.000000 0.000000 0.500000
#
# Coordination Sequence:
#
# PCOD9074708 Si02
#       8
#     2   2   2   2   2   2   2   2
#     4  12  27  44  70 106 147 183 230 294 366 421
#     4  11  25  45  73 103 140 191 239 291 351 431
#     4  11  27  42  71 101 140 185 242 289 358 419
#     4  11  24  44  71  99 140 189 230 291 358 425
#     4  11  25  43  72 101 142 188 236 288 362 424
#     4  12  23  44  67  98 136 179 239 296 348 418
#     4  10  24  45  73 101 139 183 239 291 355 424
#     4  12  26  45  70 102 144 189 242 288 347 431
#
# _framework density 21.480985
#
# number of rings (size 3 to 8) (size 9 to 14) (size 15 to 20)
#    0.000    0.750    3.750    2.625   10.500    1.500 
#    0.000    1.250    0.000    0.000    0.000    0.000 
#    0.000    0.000    0.000    0.000    0.000    0.000 
#
# Total GULP energy -89356.100029 kJ/mol
# GULP energy per Si atom -5584.756252 kJ/mol
# Density = 2.143209 g / cm^3
# Si number density = 21.480985 Si / 1000 Ang^3
#
#
#
# Elastic Constant Matrix: (Units=GPa)
#
#
# Indices 1 2 3 4 5 6 
#
# 1 126.3276 35.1090 17.5565 6.1024 14.0301 26.9741
# 2 35.1090 153.6348 5.0616 -18.4524 -5.2798 26.2124
# 3 17.5565 5.0616 59.9184 -7.6237 2.2695 -1.0666
# 4 6.1024 -18.4524 -7.6237 29.8734 6.4007 -3.3784
# 5 14.0301 -5.2798 2.2695 6.4007 35.2101 3.0585
# 6 26.9741 26.2124 -1.0666 -3.3784 3.0585 44.6792
#
#
#
# Elastic Compliance Matrix: (Units=1/GPa)
#
#
# Indices 1 2 3 4 5 6 
#
# 1 0.010672 -0.002011 -0.003481 -0.004268 -0.003080 -0.005458
# 2 -0.002011 0.008149 0.000410 0.004879 0.001395 -0.003283
# 3 -0.003481 0.000410 0.018566 0.006269 -0.001136 0.002856
# 4 -0.004268 0.004879 0.006269 0.040541 -0.005629 0.003315
# 5 -0.003080 0.001395 -0.001136 -0.005629 0.031068 -0.001539
# 6 -0.005458 -0.003283 0.002856 0.003315 -0.001539 0.028028
#
#
# Mechanical properties :
#
#
# Convention : Reuss Voigt Hill
#
# Bulk Modulus (GPa) = 36.73199 50.59277 43.66238
# Shear Modulus (GPa) = 31.99753 40.76276 36.38014
#
# Velocity S-wave (km/s) = 3.86369 4.36089 4.11980
# Velocity P-wave (km/s) = 6.08613 6.99714 6.55748
#
# Compressibility (1/GPa) = 0.02722422
#
# Stress axis : x y z
#
# Youngs Moduli (GPa) = 93.69998 122.71100 53.86174
#
# Poissons Ratio (x) = 0.24682 0.18748
# Poissons Ratio (y) = 0.18847 -0.02211
# Poissons Ratio (z) = 0.32614 -0.05037
#
# Static dielectric constant tensor:
#      x y z
#    x 1.794960 -0.052170 0.012760 
#    y -0.052170 1.859530 -0.011670 
#    z 0.012760 -0.011670 1.796570 
# 
# From -- ./inp_files/467222.got.cif
#   From: 2010.05.17/outbox.ucp.g08.bks.cvg/sg2_234_cif.got.tgz:467222.got - 2010.06.11 11:32:03.
