data_PCOD9074858
_publ_section_title
;
Structure prediction by ZEFSAII (Michael W. Deem and Ramdas Pophale) SiO2 
 PCOD9074858
Probable space group: P -1
;
_chemical_formula_sum "Si O2"
_cell_formula_units_Z 14
_cell_length_a 21.000000
_cell_length_b 15.000000
_cell_length_c 12.000000
_cell_angle_alpha 150.000000
_cell_angle_beta 150.000000
_cell_angle_gamma 20.000000
_cell_volume 615.533390
_symmetry_space_group_name_H-M "P -1"
_symmetry_group_IT_number 2
_symmetry_cell_setting 'triclinic'
loop_
_space_group_symop_operation_xyz
x,y,z
-x,-y,-z
loop_
_atom_site_type_symbol
_atom_site_label
_atom_site_fract_x
_atom_site_fract_y
_atom_site_fract_z
Si Si1 0.470698 0.949548 0.168372
Si Si2 0.775022 0.480318 0.481058
Si Si3 0.900580 0.097660 0.076607
Si Si4 0.848488 0.748195 0.185120
Si Si5 0.481671 0.532380 0.822526
Si Si6 0.178080 0.498670 0.953151
Si Si7 0.515698 0.314957 0.401861
O O1 0.397651 0.189921 0.399156
O O2 0.465694 0.760486 0.017155
O O3 0.684468 0.723181 0.181878
O O4 0.307578 0.128302 0.015630
O O5 0.862700 0.330243 0.330344
O O6 0.701599 0.365408 0.286445
O O7 0.968023 0.344393 0.689597
O O8 0.676504 0.277967 0.911125
O O9 0.041377 0.807869 0.041533
O O10 0.000000 0.000000 0.000000
O O11 0.718034 0.005942 0.349297
O O12 0.939872 0.509766 0.153756
O O13 0.498975 0.404983 0.596587
O O14 0.340846 0.380191 0.163329
O O15 0.500000 0.500000 0.500000
#
# Coordination Sequence:
#
# PCOD9074858 Si02
#       7
#     2   2   2   2   2   2   2
#     4  11  24  46  73 109 143 181 235 302 350 416
#     4  12  28  45  70 105 150 188 231 292 365 421
#     4  12  26  51  73 102 137 191 246 290 349 432
#     4  11  23  43  71 111 143 182 242 287 353 427
#     4  12  25  47  74 103 150 185 237 293 357 414
#     4  11  23  45  77 104 141 185 241 296 343 425
#     4  11  19  43  75 104 138 190 236 288 348 412
#
# _framework density 22.744501
#
# number of rings (size 3 to 8) (size 9 to 14) (size 15 to 20)
#    0.000    0.571    4.286    6.000    2.000    1.143 
#    2.571    2.143    0.000    0.000    0.000    0.000 
#    0.000    0.000    0.000    0.000    0.000    0.000 
#
# Total GULP energy -78103.539720 kJ/mol
# GULP energy per Si atom -5578.824266 kJ/mol
# Density = 2.269273 g / cm^3
# Si number density = 22.744501 Si / 1000 Ang^3
#
#
#
# Elastic Constant Matrix: (Units=GPa)
#
#
# Indices 1 2 3 4 5 6 
#
# 1 65.9757 44.3829 41.3673 4.5588 9.8679 -6.4164
# 2 44.3829 129.7441 33.3310 12.3415 -2.7423 10.7436
# 3 41.3673 33.3310 65.2788 19.2820 -19.7412 -4.3917
# 4 4.5588 12.3415 19.2820 48.4263 -13.2935 -0.3268
# 5 9.8679 -2.7423 -19.7412 -13.2935 46.4214 10.3679
# 6 -6.4164 10.7436 -4.3917 -0.3268 10.3679 24.3012
#
#
#
# Elastic Compliance Matrix: (Units=1/GPa)
#
#
# Indices 1 2 3 4 5 6 
#
# 1 0.054171 -0.012238 -0.037446 0.004037 -0.033061 0.027106
# 2 -0.012238 0.012254 0.003234 -0.001487 0.006721 -0.010952
# 3 -0.037446 0.003234 0.047742 -0.008311 0.029511 -0.015392
# 4 0.004037 -0.001487 -0.008311 0.024704 0.002730 -0.000611
# 5 -0.033061 0.006721 0.029511 0.002730 0.048316 -0.026944
# 6 0.027106 -0.010952 -0.015392 -0.000611 -0.026944 0.061855
#
#
# Mechanical properties :
#
#
# Convention : Reuss Voigt Hill
#
# Bulk Modulus (GPa) = 47.02642 55.46232 51.24437
# Shear Modulus (GPa) = 14.32537 33.29094 23.80815
#
# Velocity S-wave (km/s) = 2.51238 3.82997 3.23889
# Velocity P-wave (km/s) = 5.39786 6.63296 6.04703
#
# Compressibility (1/GPa) = 0.02126464
#
# Stress axis : x y z
#
# Youngs Moduli (GPa) = 18.45996 81.60864 20.94605
#
# Poissons Ratio (x) = 0.99875 0.78435
# Poissons Ratio (y) = 0.22592 -0.06773
# Poissons Ratio (z) = 0.69126 -0.26390
#
# Static dielectric constant tensor:
#      x y z
#    x 1.947030 -0.028430 0.073380 
#    y -0.028430 1.769460 -0.017220 
#    z 0.073380 -0.017220 1.809090 
# 
# From -- ./inp_files/472020.got.cif
#   From: 2010.05.17/outbox.ucp.g08.bks.cvg/sg2_237_cif.got.tgz:472020.got - 2010.06.11 11:32:03.
