data_PCOD9074619
_publ_section_title
;
Structure prediction by ZEFSAII (Michael W. Deem and Ramdas Pophale) SiO2 
 PCOD9074619
Probable space group: P -1
;
_chemical_formula_sum "Si O2"
_cell_formula_units_Z 16
_cell_length_a 18.000000
_cell_length_b 9.000000
_cell_length_c 18.000000
_cell_angle_alpha 150.000000
_cell_angle_beta 150.000000
_cell_angle_gamma 40.000000
_cell_volume 727.497153
_symmetry_space_group_name_H-M "P -1"
_symmetry_group_IT_number 2
_symmetry_cell_setting 'triclinic'
loop_
_space_group_symop_operation_xyz
x,y,z
-x,-y,-z
loop_
_atom_site_type_symbol
_atom_site_label
_atom_site_fract_x
_atom_site_fract_y
_atom_site_fract_z
Si Si1 0.001958 0.728804 0.172711
Si Si2 0.299448 0.919336 0.970662
Si Si3 0.348419 0.833359 0.246757
Si Si4 0.518784 0.221784 0.180763
Si Si5 0.218526 0.415240 0.471456
Si Si6 0.536238 0.841603 0.656366
Si Si7 0.758642 0.747314 0.407180
Si Si8 0.040456 0.646604 0.877418
O O1 0.009597 0.523329 0.164833
O O2 0.842201 0.908363 0.114487
O O3 0.117749 0.999232 0.386927
O O4 0.000000 0.500000 0.000000
O O5 0.266944 0.567411 0.794500
O O6 0.443071 0.037924 0.101473
O O7 0.322831 0.062946 0.133513
O O8 0.441194 0.556188 0.245812
O O9 0.280914 0.086529 0.354318
O O10 0.428090 0.037169 0.343276
O O11 0.215995 0.648695 0.018541
O O12 0.688404 0.321970 0.369341
O O13 0.500000 0.000000 0.000000
O O14 0.225125 0.385047 0.552453
O O15 0.051464 0.468590 0.320597
O O16 0.500000 0.500000 0.500000
O O17 0.393417 0.052027 0.646116
O O18 0.000000 0.000000 0.000000
#
# Coordination Sequence:
#
# PCOD9074619 Si02
#       8
#     2   2   2   2   2   2   2   2
#     4  12  26  46  73 103 140 184 234 287 343 416
#     4  12  27  47  69 101 145 185 228 284 354 419
#     4  11  23  45  68 101 134 174 237 288 334 407
#     4  12  23  45  70  97 138 182 228 282 344 409
#     4  11  24  42  72  98 138 177 232 288 340 406
#     4  12  27  43  73 105 137 183 237 286 346 409
#     4  12  27  47  65 104 143 186 223 287 358 408
#     4  10  24  42  68 103 132 172 230 287 338 397
#
# _framework density 21.993213000000001
#
# number of rings (size 3 to 8) (size 9 to 14) (size 15 to 20)
#    0.000    0.500    3.750    4.125   12.250    0.000 
#    0.000    1.250    0.000    0.000    0.000    0.000 
#    0.000    0.000    0.000    0.000    0.000    0.000 
#
# Total GULP energy -89218.919379 kJ/mol
# GULP energy per Si atom -5576.182461 kJ/mol
# Density = 2.194316 g / cm^3
# Si number density = 21.993213 Si / 1000 Ang^3
#
#
#
# Elastic Constant Matrix: (Units=GPa)
#
#
# Indices 1 2 3 4 5 6 
#
# 1 52.4663 10.7002 17.6392 10.5371 16.5570 21.0827
# 2 10.7002 78.2652 37.9201 10.8771 3.5015 19.8664
# 3 17.6392 37.9201 164.8691 17.1395 24.4135 1.2200
# 4 10.5371 10.8771 17.1395 54.8689 2.6205 9.0246
# 5 16.5570 3.5015 24.4135 2.6205 47.2253 8.3722
# 6 21.0827 19.8664 1.2200 9.0246 8.3722 29.2584
#
#
#
# Elastic Compliance Matrix: (Units=1/GPa)
#
#
# Indices 1 2 3 4 5 6 
#
# 1 0.030124 0.003247 -0.002832 -0.001714 -0.005392 -0.021722
# 2 0.003247 0.018523 -0.004862 -0.000378 0.002750 -0.015385
# 3 -0.002832 -0.004862 0.008234 -0.001984 -0.003990 0.006753
# 4 -0.001714 -0.000378 -0.001984 0.020004 0.001432 -0.005006
# 5 -0.005392 0.002750 -0.003990 0.001432 0.025847 -0.005653
# 6 -0.021722 -0.015385 0.006753 -0.005006 -0.005653 0.063157
#
#
# Mechanical properties :
#
#
# Convention : Reuss Voigt Hill
#
# Bulk Modulus (GPa) = 20.83911 47.56884 34.20398
# Shear Modulus (GPa) = 26.20829 41.55993 33.88411
#
# Velocity S-wave (km/s) = 3.45578 4.35175 3.92938
# Velocity P-wave (km/s) = 5.04173 6.85027 6.01436
#
# Compressibility (1/GPa) = 0.04798670
#
# Stress axis : x y z
#
# Youngs Moduli (GPa) = 33.19594 53.98577 121.44979
#
# Poissons Ratio (x) = -0.17529 0.34400
# Poissons Ratio (y) = -0.10779 0.59047
# Poissons Ratio (z) = 0.09402 0.26247
#
# Static dielectric constant tensor:
#      x y z
#    x 1.869680 -0.028210 0.004190 
#    y -0.028210 1.840260 -0.097840 
#    z 0.004190 -0.097840 1.878060 
# 
# From -- ./inp_files/566621.got.cif
#   From: 2010.05.17/outbox.ucp.g08.bks.cvg/sg2_284_cif.got.tgz:566621.got - 2010.06.11 11:32:03.
