data_PCOD9074037
_publ_section_title
;
Structure prediction by ZEFSAII (Michael W. Deem and Ramdas Pophale) SiO2 
 PCOD9074037
Probable space group: P -1
;
_chemical_formula_sum "Si O2"
_cell_formula_units_Z 16
_cell_length_a 12.000000
_cell_length_b 15.000000
_cell_length_c 9.000000
_cell_angle_alpha 100.000000
_cell_angle_beta 40.000000
_cell_angle_gamma 120.000000
_cell_volume 835.587839
_symmetry_space_group_name_H-M "P -1"
_symmetry_group_IT_number 2
_symmetry_cell_setting 'triclinic'
loop_
_space_group_symop_operation_xyz
x,y,z
-x,-y,-z
loop_
_atom_site_type_symbol
_atom_site_label
_atom_site_fract_x
_atom_site_fract_y
_atom_site_fract_z
Si Si1 0.264888 0.955569 0.857283
Si Si2 0.217784 0.174193 0.578909
Si Si3 0.798151 0.191209 0.702535
Si Si4 0.583085 0.944892 0.759435
Si Si5 0.884014 0.236989 0.280656
Si Si6 0.522894 0.785301 0.375252
Si Si7 0.622251 0.623801 0.093027
Si Si8 0.275878 0.360465 0.357305
O O1 0.437237 0.951065 0.781638
O O2 0.197959 0.879225 0.753715
O O3 0.359727 0.084856 0.761193
O O4 0.035271 0.890865 0.153616
O O5 0.255222 0.083247 0.461666
O O6 0.360249 0.213870 0.594581
O O7 0.298066 0.278758 0.417307
O O8 0.819280 0.221141 0.515928
O O9 0.014989 0.288794 0.590474
O O10 0.728775 0.063511 0.728962
O O11 0.588404 0.160389 0.993403
O O12 0.728575 0.264688 0.370665
O O13 0.145024 0.322433 0.045785
O O14 0.549916 0.704998 0.222014
O O15 0.434409 0.492143 0.282621
O O16 0.663734 0.633686 0.876168
#
# Coordination Sequence:
#
# PCOD9074037 Si02
#       8
#     2   2   2   2   2   2   2   2
#     4  12  23  41  63 101 139 160 206 264 326 390
#     4  12  25  39  67  98 128 173 204 263 329 381
#     4  10  22  41  65  90 133 168 205 271 314 372
#     4  11  23  40  62 101 132 164 208 262 331 381
#     4  11  22  42  65  95 129 166 210 266 316 379
#     4  12  24  39  68  98 125 176 209 257 329 385
#     4  10  25  46  65  91 127 174 223 260 313 373
#     4  10  24  47  64  89 133 172 217 272 303 373
#
# _framework density 19.148195999999999
#
# number of rings (size 3 to 8) (size 9 to 14) (size 15 to 20)
#    0.000    1.000    5.000    1.500    5.250    1.000 
#    2.250    2.500    0.000    0.000    0.000    0.000 
#    0.000    0.000    0.000    0.000    0.000    0.000 
#
# Total GULP energy -89128.830040 kJ/mol
# GULP energy per Si atom -5570.551877 kJ/mol
# Density = 1.910461 g / cm^3
# Si number density = 19.148196 Si / 1000 Ang^3
#
#
#
# Elastic Constant Matrix: (Units=GPa)
#
#
# Indices 1 2 3 4 5 6 
#
# 1 101.6177 43.3434 32.2826 -11.2868 -12.7894 -4.1195
# 2 43.3434 114.2464 34.5863 -15.4900 -19.5661 7.3521
# 3 32.2826 34.5863 88.9522 -12.4987 -25.5526 -3.7938
# 4 -11.2868 -15.4900 -12.4987 38.2637 -0.8405 -3.1939
# 5 -12.7894 -19.5661 -25.5526 -0.8405 34.3852 -5.6288
# 6 -4.1195 7.3521 -3.7938 -3.1939 -5.6288 36.5030
#
#
#
# Elastic Compliance Matrix: (Units=1/GPa)
#
#
# Indices 1 2 3 4 5 6 
#
# 1 0.012652 -0.003786 -0.002478 0.001602 0.001117 0.002245
# 2 -0.003786 0.011940 -0.001875 0.003003 0.003707 -0.002193
# 3 -0.002478 -0.001875 0.016966 0.004638 0.011391 0.004024
# 4 0.001602 0.003003 0.004638 0.029807 0.007095 0.003760
# 5 0.001117 0.003707 0.011391 0.007095 0.041487 0.007581
# 6 0.002245 -0.002193 0.004024 0.003760 0.007581 0.030006
#
#
# Mechanical properties :
#
#
# Convention : Reuss Voigt Hill
#
# Bulk Modulus (GPa) = 39.55705 58.36010 48.95858
# Shear Modulus (GPa) = 29.83935 34.80398 32.32166
#
# Velocity S-wave (km/s) = 3.95186 4.26797 4.11295
# Velocity P-wave (km/s) = 6.44408 7.40484 6.94110
#
# Compressibility (1/GPa) = 0.02527994
#
# Stress axis : x y z
#
# Youngs Moduli (GPa) = 79.03630 83.75100 58.94144
#
# Poissons Ratio (x) = 0.31708 0.14606
# Poissons Ratio (y) = 0.29923 0.11053
# Poissons Ratio (z) = 0.19586 0.15706
#
# Static dielectric constant tensor:
#      x y z
#    x 1.693700 0.031650 0.035430 
#    y 0.031650 1.674000 0.048470 
#    z 0.035430 0.048470 1.752880 
# 
# From -- ./inp_files/259254.got.cif
#   From: 2010.05.17/outbox.ucp.g08.bks.cvg/sg2_130_cif.got.tgz:259254.got - 2010.06.11 11:32:03.
