data_PCOD9074197
_publ_section_title
;
Structure prediction by ZEFSAII (Michael W. Deem and Ramdas Pophale) SiO2 
 PCOD9074197
Probable space group: P -1
;
_chemical_formula_sum "Si O2"
_cell_formula_units_Z 16
_cell_length_a 9.408696
_cell_length_b 15.418279
_cell_length_c 14.264976
_cell_angle_alpha 41.488526
_cell_angle_beta 89.160018
_cell_angle_gamma 120.370098
_cell_volume 858.055993
_symmetry_space_group_name_H-M "P -1"
_symmetry_group_IT_number 2
_symmetry_cell_setting 'triclinic'
loop_
_space_group_symop_operation_xyz
x,y,z
-x,-y,-z
loop_
_atom_site_type_symbol
_atom_site_label
_atom_site_fract_x
_atom_site_fract_y
_atom_site_fract_z
Si Si1 0.000697 0.297025 0.414872
Si Si2 0.756406 0.838559 0.183993
Si Si3 0.598254 0.014028 0.083521
Si Si4 0.516325 0.006382 0.605862
Si Si5 0.865466 0.398003 0.489844
Si Si6 0.299586 0.573691 0.687972
Si Si7 0.619238 0.593727 0.577192
Si Si8 0.871976 0.355209 0.960827
O O1 0.183160 0.322653 0.425683
O O2 0.736585 0.075585 0.574756
O O3 0.980996 0.374662 0.442996
O O4 0.075736 0.452687 0.206356
O O5 0.725880 0.744266 0.362357
O O6 0.555804 0.637448 0.280863
O O7 0.723440 0.968577 0.097925
O O8 0.000000 0.000000 0.000000
O O9 0.733365 0.213244 0.984244
O O10 0.384718 0.823798 0.302416
O O11 0.500000 0.000000 0.000000
O O12 0.572191 0.195266 0.485737
O O13 0.500000 0.000000 0.500000
O O14 0.287122 0.792749 0.830557
O O15 0.840491 0.512169 0.338781
O O16 0.000000 0.500000 0.500000
O O17 0.471706 0.582303 0.655944
O O18 0.107653 0.441829 0.877934
#
# Coordination Sequence:
#
# PCOD9074197 Si02
#       8
#     2   2   2   2   2   2   2   2
#     4  10  23  35  58  87 113 154 186 246 297 336
#     4  11  24  34  51  80 116 171 204 229 281 334
#     4  12  20  32  54  80 114 153 202 235 272 334
#     4  10  21  42  67  88 109 142 196 252 298 345
#     4  10  18  32  49  77 110 146 194 231 275 320
#     4  10  21  37  58  82 112 155 185 239 294 339
#     4  11  22  39  52  79 129 153 197 236 287 355
#     4  10  19  38  59  84 114 141 199 238 290 343
#
# _framework density 18.646801
#
# number of rings (size 3 to 8) (size 9 to 14) (size 15 to 20)
#    0.000    1.750    3.750    3.750    3.500    3.000 
#    0.000    0.625    0.000    1.500    0.000    0.000 
#    0.000    0.000    0.000    0.000    0.000    0.000 
#
# Total GULP energy -89133.597641 kJ/mol
# GULP energy per Si atom -5570.849853 kJ/mol
# Density = 1.860436 g / cm^3
# Si number density = 18.646801 Si / 1000 Ang^3
#
#
#
# Elastic Constant Matrix: (Units=GPa)
#
#
# Indices 1 2 3 4 5 6 
#
# 1 144.3297 23.7457 39.7667 15.8972 -19.2453 4.3547
# 2 23.7457 53.8607 20.6460 21.8118 0.8189 4.8863
# 3 39.7667 20.6460 137.5985 25.3602 -29.2223 -3.1791
# 4 15.8972 21.8118 25.3602 25.8410 -2.6844 0.8510
# 5 -19.2453 0.8189 -29.2223 -2.6844 24.1196 -1.0488
# 6 4.3547 4.8863 -3.1791 0.8510 -1.0488 15.6978
#
#
#
# Elastic Compliance Matrix: (Units=1/GPa)
#
#
# Indices 1 2 3 4 5 6 
#
# 1 0.008572 -0.002920 -0.000439 -0.001702 0.006172 -0.001053
# 2 -0.002920 0.030696 -0.001338 -0.023354 -0.007952 -0.008281
# 3 -0.000439 -0.001338 0.012381 -0.009462 0.013838 0.004483
# 4 -0.001702 -0.023354 -0.009462 0.068231 -0.004355 0.001836
# 5 0.006172 -0.007952 0.013838 -0.004355 0.063284 0.008030
# 6 -0.001053 -0.008281 0.004483 0.001836 0.008030 0.067918
#
#
# Mechanical properties :
#
#
# Convention : Reuss Voigt Hill
#
# Bulk Modulus (GPa) = 23.66516 56.01173 39.83844
# Shear Modulus (GPa) = 18.21079 29.90704 24.05892
#
# Velocity S-wave (km/s) = 3.12848 4.00918 3.59589
# Velocity P-wave (km/s) = 5.07628 7.17878 6.21705
#
# Compressibility (1/GPa) = 0.04225622
#
# Stress axis : x y z
#
# Youngs Moduli (GPa) = 116.65633 32.57708 80.76637
#
# Poissons Ratio (x) = 0.09512 0.03548
# Poissons Ratio (y) = 0.34062 0.10805
# Poissons Ratio (z) = 0.05124 0.04358
#
# Static dielectric constant tensor:
#      x y z
#    x 1.684030 0.003030 -0.001890 
#    y 0.003030 1.673010 -0.016850 
#    z -0.001890 -0.016850 1.718350 
# 
# From -- ./inp_files/503830.got.cif
#   From: 2010.05.17/outbox.cif.g08.bks.cpg/sg2_252_cif.got.tgz:503830.got - 2010.06.03 11:33:40.
