data_PCOD9074498
_publ_section_title
;
Structure prediction by ZEFSAII (Michael W. Deem and Ramdas Pophale) SiO2 
 PCOD9074498
Probable space group: P -1
;
_chemical_formula_sum "Si O2"
_cell_formula_units_Z 14
_cell_length_a 7.274992
_cell_length_b 9.300467
_cell_length_c 11.560508
_cell_angle_alpha 77.782828
_cell_angle_beta 129.052243
_cell_angle_gamma 83.446370
_cell_volume 561.232236
_symmetry_space_group_name_H-M "P -1"
_symmetry_group_IT_number 2
_symmetry_cell_setting 'triclinic'
loop_
_space_group_symop_operation_xyz
x,y,z
-x,-y,-z
loop_
_atom_site_type_symbol
_atom_site_label
_atom_site_fract_x
_atom_site_fract_y
_atom_site_fract_z
Si Si1 0.940972 0.302042 0.115463
Si Si2 0.834141 0.232734 0.432593
Si Si3 0.660353 0.609554 0.879017
Si Si4 0.796408 0.039135 0.015655
Si Si5 0.802898 0.013997 0.647807
Si Si6 0.561395 0.528230 0.387170
Si Si7 0.408250 0.126709 0.673533
O O1 0.147371 0.304495 0.099365
O O2 0.095768 0.174304 0.291098
O O3 0.787694 0.481447 0.048146
O O4 0.755058 0.216228 0.007251
O O5 0.627799 0.283339 0.239140
O O6 0.727516 0.130918 0.493190
O O7 0.361716 0.490674 0.227833
O O8 0.122259 0.138564 0.547448
O O9 0.420499 0.302019 0.650347
O O10 0.543687 0.034416 0.858108
O O11 0.000000 0.000000 0.000000
O O12 0.961513 0.947344 0.203404
O O13 0.580906 0.052414 0.645584
O O14 0.500000 0.500000 0.500000
O O15 0.192414 0.607524 0.536924
#
# Coordination Sequence:
#
# PCOD9074498 Si02
#       7
#     2   2   2   2   2   2   2
#     4   9  17  34  55  72 111 142 177 216 257 321
#     4  10  21  31  54  83 106 132 179 220 269 308
#     4   9  19  32  52  81 101 147 180 207 267 322
#     4   8  16  29  53  74 102 137 171 211 263 307
#     4   9  19  34  53  79 103 139 174 219 265 306
#     4  10  18  32  51  78 108 134 174 215 262 311
#     4  11  17  34  54  81 107 134 174 227 262 309
#
# _framework density 24.945112999999999
#
# number of rings (size 3 to 8) (size 9 to 14) (size 15 to 20)
#    1.714    0.857    2.857    0.429    0.000    1.143 
#    0.000    0.714    0.000    0.000    0.000   11.000 
#    0.000    0.000    0.000    0.000    0.000    0.000 
#
# Total GULP energy -78034.376758 kJ/mol
# GULP energy per Si atom -5573.884054 kJ/mol
# Density = 2.488834 g / cm^3
# Si number density = 24.945113 Si / 1000 Ang^3
#
#
#
# Elastic Constant Matrix: (Units=GPa)
#
#
# Indices 1 2 3 4 5 6 
#
# 1 57.0845 6.4419 37.8893 4.0207 29.3179 -1.2880
# 2 6.4419 65.4969 19.1840 -5.2739 -2.9220 7.1651
# 3 37.8893 19.1840 135.5157 -27.2873 24.7220 -0.3781
# 4 4.0207 -5.2739 -27.2873 34.9918 2.4107 1.9213
# 5 29.3179 -2.9220 24.7220 2.4107 48.7270 -7.0462
# 6 -1.2880 7.1651 -0.3781 1.9213 -7.0462 26.9161
#
#
#
# Elastic Compliance Matrix: (Units=1/GPa)
#
#
# Indices 1 2 3 4 5 6 
#
# 1 0.030709 -0.002065 -0.007331 -0.008475 -0.014652 -0.001314
# 2 -0.002065 0.016718 -0.002041 0.001201 0.002647 -0.003971
# 3 -0.007331 -0.002041 0.012272 0.010342 -0.002602 -0.001054
# 4 -0.008475 0.001201 0.010342 0.038191 -0.002539 -0.003971
# 5 -0.014652 0.002647 -0.002602 -0.002539 0.031971 0.007108
# 6 -0.001314 -0.003971 -0.001054 -0.003971 0.007108 0.040276
#
#
# Mechanical properties :
#
#
# Convention : Reuss Voigt Hill
#
# Bulk Modulus (GPa) = 27.15633 42.79195 34.97414
# Shear Modulus (GPa) = 24.35607 35.09910 29.72758
#
# Velocity S-wave (km/s) = 3.12811 3.75514 3.45587
# Velocity P-wave (km/s) = 4.89457 5.99943 5.47494
#
# Compressibility (1/GPa) = 0.03682383
#
# Stress axis : x y z
#
# Youngs Moduli (GPa) = 32.56333 59.81531 81.48602
#
# Poissons Ratio (x) = 0.12355 0.59737
# Poissons Ratio (y) = 0.06726 0.16635
# Poissons Ratio (z) = 0.23872 0.12211
#
# Static dielectric constant tensor:
#      x y z
#    x 1.930250 -0.039130 0.022450 
#    y -0.039130 1.990960 0.025480 
#    z 0.022450 0.025480 2.065750 
# 
# From -- ./inp_files/406112.got.cif
#   From: 2010.05.17/outbox.cif.g08.bks.cpg/sg2_204_cif.got.tgz:406112.got - 2010.06.03 11:33:40.
