data_PCOD9074159
_publ_section_title
;
Structure prediction by ZEFSAII (Michael W. Deem and Ramdas Pophale) SiO2 
 PCOD9074159
Probable space group: P -1
;
_chemical_formula_sum "Si O2"
_cell_formula_units_Z 16
_cell_length_a 12.000000
_cell_length_b 9.000000
_cell_length_c 15.000000
_cell_angle_alpha 110.000000
_cell_angle_beta 120.000000
_cell_angle_gamma 120.000000
_cell_volume 745.925389
_symmetry_space_group_name_H-M "P -1"
_symmetry_group_IT_number 2
_symmetry_cell_setting 'triclinic'
loop_
_space_group_symop_operation_xyz
x,y,z
-x,-y,-z
loop_
_atom_site_type_symbol
_atom_site_label
_atom_site_fract_x
_atom_site_fract_y
_atom_site_fract_z
Si Si1 0.202956 0.571009 0.268454
Si Si2 0.424673 0.821440 0.212093
Si Si3 0.529698 0.274980 0.423977
Si Si4 0.860370 0.900772 0.707031
Si Si5 0.796725 0.986541 0.095328
Si Si6 0.923354 0.591574 0.178825
Si Si7 0.262478 0.446241 0.734804
Si Si8 0.162898 0.980072 0.658755
O O1 0.296380 0.641501 0.218181
O O2 0.393943 0.709635 0.444027
O O3 0.128537 0.676824 0.269108
O O4 0.970325 0.260079 0.156213
O O5 0.496552 0.081084 0.311929
O O6 0.649353 0.944831 0.299968
O O7 0.249163 0.619195 0.016488
O O8 0.722122 0.608290 0.554069
O O9 0.303545 0.154193 0.310953
O O10 0.087376 0.068204 0.879965
O O11 0.956117 0.115750 0.716763
O O12 0.813347 0.026233 0.222252
O O13 0.540538 0.740631 0.904351
O O14 0.801435 0.482323 0.203197
O O15 0.087878 0.294202 0.548270
O O16 0.226386 0.228050 0.711826
#
# Coordination Sequence:
#
# PCOD9074159 Si02
#       8
#     2   2   2   2   2   2   2   2
#     4  11  26  43  72 108 147 187 242 306 371 435
#     4  12  24  44  75 111 145 192 243 306 376 432
#     4  10  23  44  69 104 145 188 245 303 361 436
#     4  10  22  42  75  98 142 196 235 303 365 426
#     4  11  23  50  70 107 152 191 242 310 363 433
#     4  12  23  45  74 103 151 193 241 304 370 435
#     4  11  24  45  78 104 147 197 253 297 363 445
#     4  11  24  44  79 109 139 201 250 298 373 440
#
# _framework density 21.449867000000001
#
# number of rings (size 3 to 8) (size 9 to 14) (size 15 to 20)
#    0.000    1.000    3.750    2.625    1.750    0.500 
#    4.500    8.750    0.000    0.000    0.000    0.000 
#    0.000    0.000    0.000    0.000    0.000    0.000 
#
# Total GULP energy -89140.131210 kJ/mol
# GULP energy per Si atom -5571.258201 kJ/mol
# Density = 2.140105 g / cm^3
# Si number density = 21.449867 Si / 1000 Ang^3
#
#
#
# Elastic Constant Matrix: (Units=GPa)
#
#
# Indices 1 2 3 4 5 6 
#
# 1 169.6572 30.5394 55.6764 2.7197 13.3250 -0.8353
# 2 30.5394 90.7702 39.4772 7.1493 -2.1198 -1.8098
# 3 55.6764 39.4772 147.7324 -1.3197 10.9774 11.3372
# 4 2.7197 7.1493 -1.3197 32.4774 4.0854 1.9882
# 5 13.3250 -2.1198 10.9774 4.0854 54.2802 2.5567
# 6 -0.8353 -1.8098 11.3372 1.9882 2.5567 31.7254
#
#
#
# Elastic Compliance Matrix: (Units=1/GPa)
#
#
# Indices 1 2 3 4 5 6 
#
# 1 0.006994 -0.001362 -0.002254 -0.000272 -0.001343 0.001037
# 2 -0.001362 0.013263 -0.003337 -0.003274 0.001680 0.001983
# 3 -0.002254 -0.003337 0.008887 0.001662 -0.001338 -0.003422
# 4 -0.000272 -0.003274 0.001662 0.032098 -0.002691 -0.002583
# 5 -0.001343 0.001680 -0.001338 -0.002691 0.019331 -0.000851
# 6 0.001037 0.001983 -0.003422 -0.002583 -0.000851 0.033114
#
#
# Mechanical properties :
#
#
# Convention : Reuss Voigt Hill
#
# Bulk Modulus (GPa) = 65.62687 73.28286 69.45486
# Shear Modulus (GPa) = 37.68631 42.52772 40.10702
#
# Velocity S-wave (km/s) = 4.19614 4.45753 4.32881
# Velocity P-wave (km/s) = 7.35790 7.79305 7.57860
#
# Compressibility (1/GPa) = 0.01523766
#
# Stress axis : x y z
#
# Youngs Moduli (GPa) = 142.97794 75.39722 112.52152
#
# Poissons Ratio (x) = 0.10269 0.25364
# Poissons Ratio (y) = 0.19474 0.37550
# Poissons Ratio (z) = 0.32230 0.25161
#
# Static dielectric constant tensor:
#      x y z
#    x 1.799600 -0.006310 0.021400 
#    y -0.006310 1.930780 0.036450 
#    z 0.021400 0.036450 1.796490 
# 
# From -- ./inp_files/515957.got.cif
#   From: 2010.05.17/outbox.ucp.g08.bks.cvg/sg2_258_cif.got.tgz:515957.got - 2010.06.11 11:32:03.
