data_PCOD9074392
_publ_section_title
;
Structure prediction by ZEFSAII (Michael W. Deem and Ramdas Pophale) SiO2 
 PCOD9074392
Probable space group: P -1
;
_chemical_formula_sum "Si O2"
_cell_formula_units_Z 16
_cell_length_a 15.000000
_cell_length_b 9.000000
_cell_length_c 18.000000
_cell_angle_alpha 150.000000
_cell_angle_beta 140.000000
_cell_angle_gamma 40.000000
_cell_volume 740.097418
_symmetry_space_group_name_H-M "P -1"
_symmetry_group_IT_number 2
_symmetry_cell_setting 'triclinic'
loop_
_space_group_symop_operation_xyz
x,y,z
-x,-y,-z
loop_
_atom_site_type_symbol
_atom_site_label
_atom_site_fract_x
_atom_site_fract_y
_atom_site_fract_z
Si Si1 0.822372 0.232273 0.591719
Si Si2 0.891522 0.711164 0.742729
Si Si3 0.672391 0.751589 0.837414
Si Si4 0.669186 0.347631 0.189672
Si Si5 0.790630 0.398974 0.030912
Si Si6 0.077229 0.607316 0.527032
Si Si7 0.594693 0.640890 0.889929
Si Si8 0.380753 0.156492 0.756350
O O1 0.841010 0.434006 0.621809
O O2 0.785395 0.478097 0.743725
O O3 0.695030 0.095336 0.426731
O O4 0.965793 0.934230 0.567697
O O5 0.893161 0.661385 0.633762
O O6 0.797276 0.043575 0.861694
O O7 0.054837 0.643663 0.850137
O O8 0.604121 0.581102 0.782910
O O9 0.549850 0.967661 0.797799
O O10 0.711255 0.009208 0.026928
O O11 0.779914 0.338049 0.323067
O O12 0.507482 0.502440 0.189209
O O13 0.667873 0.586237 0.226988
O O14 0.751572 0.558176 0.993938
O O15 0.675858 0.640370 0.116739
O O16 0.000000 0.500000 0.500000
O O17 0.500000 0.000000 0.000000
#
# Coordination Sequence:
#
# PCOD9074392 Si02
#       8
#     2   2   2   2   2   2   2   2
#     4  12  27  43  70 101 137 181 221 280 339 400
#     4  11  27  44  74  99 133 181 227 275 337 406
#     4  11  26  44  68 104 134 177 231 274 332 402
#     4  11  24  43  74  96 134 187 219 275 340 396
#     4  11  23  46  73  99 133 176 232 274 334 396
#     4  12  26  47  67 101 141 173 222 281 341 393
#     4  10  23  41  70  99 132 174 225 280 326 393
#     4  12  23  46  71  97 142 172 227 277 337 401
#
# _framework density 21.618776
#
# number of rings (size 3 to 8) (size 9 to 14) (size 15 to 20)
#    0.000    0.750    5.000    1.875    8.750    1.500 
#    0.000    1.250    0.000    0.000    0.000    0.000 
#    0.000    0.000    0.000    0.000    0.000    0.000 
#
# Total GULP energy -89236.938753 kJ/mol
# GULP energy per Si atom -5577.308672 kJ/mol
# Density = 2.156957 g / cm^3
# Si number density = 21.618776 Si / 1000 Ang^3
#
#
#
# Elastic Constant Matrix: (Units=GPa)
#
#
# Indices 1 2 3 4 5 6 
#
# 1 65.0924 -11.5604 19.0737 10.1016 -15.0458 6.1888
# 2 -11.5604 79.8247 25.3509 -11.1239 -2.7206 0.7171
# 3 19.0737 25.3509 114.6535 -8.4198 -7.6260 -2.7749
# 4 10.1016 -11.1239 -8.4198 42.2707 2.0566 2.3949
# 5 -15.0458 -2.7206 -7.6260 2.0566 24.2233 8.9727
# 6 6.1888 0.7171 -2.7749 2.3949 8.9727 25.2917
#
#
#
# Elastic Compliance Matrix: (Units=1/GPa)
#
#
# Indices 1 2 3 4 5 6 
#
# 1 0.024138 0.004935 -0.004541 -0.005586 0.019365 -0.012886
# 2 0.004935 0.014909 -0.003744 0.001986 0.004856 -0.003952
# 3 -0.004541 -0.003744 0.010449 0.002089 -0.001072 0.002546
# 4 -0.005586 0.001986 0.002089 0.026130 -0.005136 0.000888
# 5 0.019365 0.004856 -0.001072 -0.005136 0.064040 -0.027227
# 6 -0.012886 -0.003952 0.002546 0.000888 -0.027227 0.052658
#
#
# Mechanical properties :
#
#
# Convention : Reuss Voigt Hill
#
# Bulk Modulus (GPa) = 23.36668 36.14433 29.75550
# Shear Modulus (GPa) = 23.44224 33.47091 28.45657
#
# Velocity S-wave (km/s) = 3.29651 3.93903 3.63201
# Velocity P-wave (km/s) = 5.03203 6.11908 5.60199
#
# Compressibility (1/GPa) = 0.04279598
#
# Stress axis : x y z
#
# Youngs Moduli (GPa) = 41.42839 67.07325 95.70304
#
# Poissons Ratio (x) = -0.33102 0.43457
# Poissons Ratio (y) = -0.20445 0.35834
# Poissons Ratio (z) = 0.18812 0.25114
#
# Static dielectric constant tensor:
#      x y z
#    x 1.950260 0.008350 0.121130 
#    y 0.008350 1.830380 -0.055320 
#    z 0.121130 -0.055320 1.861930 
# 
# From -- ./inp_files/242945.got.cif
#   From: 2010.05.17/outbox.ucp.g08.bks.cvg/sg2_122_cif.got.tgz:242945.got - 2010.06.11 11:32:03.
