data_PCOD9074974
_publ_section_title
;
Structure prediction by ZEFSAII (Michael W. Deem and Ramdas Pophale) SiO2 
 PCOD9074974
Probable space group: P -1
;
_chemical_formula_sum "Si O2"
_cell_formula_units_Z 14
_cell_length_a 10.765923
_cell_length_b 6.933353
_cell_length_c 10.185764
_cell_angle_alpha 110.101312
_cell_angle_beta 57.389770
_cell_angle_gamma 127.205979
_cell_volume 509.916022
_symmetry_space_group_name_H-M "P -1"
_symmetry_group_IT_number 2
_symmetry_cell_setting 'triclinic'
loop_
_space_group_symop_operation_xyz
x,y,z
-x,-y,-z
loop_
_atom_site_type_symbol
_atom_site_label
_atom_site_fract_x
_atom_site_fract_y
_atom_site_fract_z
Si Si1 0.484418 0.836128 0.157910
Si Si2 0.878576 0.133728 0.050824
Si Si3 0.270429 0.555692 0.694108
Si Si4 0.572047 0.373212 0.126556
Si Si5 0.329830 0.017578 0.452359
Si Si6 0.983634 0.075273 0.240731
Si Si7 0.227653 0.294361 0.391265
O O1 0.677600 0.901642 0.100959
O O2 0.524566 0.100437 0.137625
O O3 0.358771 0.805324 0.342456
O O4 0.395219 0.641752 0.048036
O O5 0.839432 0.336864 0.163260
O O6 0.013249 0.174548 0.099699
O O7 0.958527 0.119885 0.862596
O O8 0.302148 0.457999 0.789895
O O9 0.526342 0.244713 0.415593
O O10 0.202509 0.407743 0.564149
O O11 0.412592 0.412131 0.240824
O O12 0.232277 0.070240 0.404075
O O13 0.209226 0.980003 0.634362
O O14 0.091769 0.228613 0.338896
#
# Coordination Sequence:
#
# PCOD9074974 Si02
#       7
#     2   2   2   2   2   2   2
#     4   8  14  28  49  73  92 126 169 202 236 281
#     4   9  20  34  51  73  99 145 164 198 247 313
#     4   9  19  33  54  74 101 134 171 194 258 300
#     4   8  13  26  50  71  95 122 166 200 233 297
#     4   9  19  31  54  80  98 125 170 222 241 284
#     4  11  20  33  53  74 106 128 173 206 249 289
#     4  10  18  32  53  79 101 134 158 209 257 305
#
# _framework density 27.455501000000002
#
# number of rings (size 3 to 8) (size 9 to 14) (size 15 to 20)
#    0.000    3.429    1.429    2.143    2.000    2.857 
#    0.000    0.714    3.143    3.429    0.000    0.000 
#    0.000    0.000    0.000    0.000    0.000    0.000 
#
# Total GULP energy -78047.258160 kJ/mol
# GULP energy per Si atom -5574.804154 kJ/mol
# Density = 2.739301 g / cm^3
# Si number density = 27.455501 Si / 1000 Ang^3
#
#
#
# Elastic Constant Matrix: (Units=GPa)
#
#
# Indices 1 2 3 4 5 6 
#
# 1 99.4449 22.6819 87.0927 24.1758 24.5278 15.6621
# 2 22.6819 49.0319 51.7131 7.0588 1.5716 17.0564
# 3 87.0927 51.7131 286.7133 20.7206 20.7032 33.2307
# 4 24.1758 7.0588 20.7206 39.3320 6.5937 4.6609
# 5 24.5278 1.5716 20.7032 6.5937 57.8653 2.3725
# 6 15.6621 17.0564 33.2307 4.6609 2.3725 35.5124
#
#
#
# Elastic Compliance Matrix: (Units=1/GPa)
#
#
# Indices 1 2 3 4 5 6 
#
# 1 0.017012 -0.002184 -0.003705 -0.007079 -0.004949 -0.001728
# 2 -0.002184 0.028404 -0.003417 -0.001152 0.001896 -0.009457
# 3 -0.003705 -0.003417 0.005439 0.000283 -0.000240 -0.001836
# 4 -0.007079 -0.001152 0.000283 0.029970 -0.000464 -0.000492
# 5 -0.004949 0.001896 -0.000240 -0.000464 0.019456 0.000258
# 6 -0.001728 -0.009457 -0.001836 -0.000492 0.000258 0.035228
#
#
# Mechanical properties :
#
#
# Convention : Reuss Voigt Hill
#
# Bulk Modulus (GPa) = 31.01369 84.24061 57.62715
# Shear Modulus (GPa) = 30.32731 44.78877 37.55804
#
# Velocity S-wave (km/s) = 3.32716 4.04334 3.70261
# Velocity P-wave (km/s) = 5.10690 7.24896 6.27008
#
# Compressibility (1/GPa) = 0.03224383
#
# Stress axis : x y z
#
# Youngs Moduli (GPa) = 58.78249 35.20616 183.85377
#
# Poissons Ratio (x) = 0.07688 0.68109
# Poissons Ratio (y) = 0.12837 0.62829
# Poissons Ratio (z) = 0.21776 0.12031
#
# Static dielectric constant tensor:
#      x y z
#    x 2.161690 -0.106090 -0.060760 
#    y -0.106090 2.520360 -0.019500 
#    z -0.060760 -0.019500 2.142530 
# 
# From -- ./inp_files/332279.got.cif
#   From: 2010.05.17/outbox.cif.g08.bks.cpg/sg2_167_cif.got.tgz:332279.got - 2010.06.03 11:33:40.
