data_PCOD9074516
_publ_section_title
;
Structure prediction by ZEFSAII (Michael W. Deem and Ramdas Pophale) SiO2 
 PCOD9074516
Probable space group: P -1
;
_chemical_formula_sum "Si O2"
_cell_formula_units_Z 16
_cell_length_a 15.000000
_cell_length_b 12.000000
_cell_length_c 15.000000
_cell_angle_alpha 140.000000
_cell_angle_beta 60.000000
_cell_angle_gamma 150.000000
_cell_volume 747.221570
_symmetry_space_group_name_H-M "P -1"
_symmetry_group_IT_number 2
_symmetry_cell_setting 'triclinic'
loop_
_space_group_symop_operation_xyz
x,y,z
-x,-y,-z
loop_
_atom_site_type_symbol
_atom_site_label
_atom_site_fract_x
_atom_site_fract_y
_atom_site_fract_z
Si Si1 0.891549 0.482360 0.605323
Si Si2 0.798841 0.620924 0.586678
Si Si3 0.718851 0.220258 0.035278
Si Si4 0.019807 0.227840 0.596727
Si Si5 0.642707 0.862280 0.467527
Si Si6 0.521978 0.652220 0.897495
Si Si7 0.840313 0.601286 0.043659
Si Si8 0.914182 0.063956 0.052080
O O1 0.791995 0.480615 0.588961
O O2 0.000000 0.500000 0.500000
O O3 0.061930 0.802716 0.784927
O O4 0.732614 0.161809 0.556534
O O5 0.585162 0.414868 0.554763
O O6 0.857739 0.605385 0.456857
O O7 0.985406 0.023393 0.766622
O O8 0.813171 0.399501 0.001096
O O9 0.855642 0.497027 0.217415
O O10 0.500000 0.000000 0.000000
O O11 0.659503 0.943670 0.929590
O O12 0.805019 0.014798 0.550050
O O13 0.000000 0.000000 0.500000
O O14 0.621096 0.690741 0.293851
O O15 0.369283 0.581920 0.970331
O O16 0.684398 0.781271 0.957063
O O17 0.929857 0.670352 0.946121
O O18 0.000000 0.000000 0.000000
#
# Coordination Sequence:
#
# PCOD9074516 Si02
#       8
#     2   2   2   2   2   2   2   2
#     4  12  25  49  74 102 144 187 234 296 353 419
#     4  12  24  46  70 103 144 182 237 295 347 420
#     4  10  23  44  72 102 137 183 232 286 349 414
#     4  12  23  44  73 101 145 186 234 290 354 419
#     4  12  25  44  71 105 140 188 236 288 355 418
#     4  11  23  44  71 101 141 186 232 287 353 411
#     4  11  22  47  69 100 143 181 228 297 346 415
#     4  12  26  45  71 107 140 182 239 287 353 420
#
# _framework density 21.412658
#
# number of rings (size 3 to 8) (size 9 to 14) (size 15 to 20)
#    0.000    0.500    6.250    1.875    0.000    3.500 
#    2.250    0.000    0.000    0.000    0.000    0.000 
#    0.000    0.000    0.000    0.000    0.000    0.000 
#
# Total GULP energy -89380.160823 kJ/mol
# GULP energy per Si atom -5586.260051 kJ/mol
# Density = 2.136392 g / cm^3
# Si number density = 21.412658 Si / 1000 Ang^3
#
#
#
# Elastic Constant Matrix: (Units=GPa)
#
#
# Indices 1 2 3 4 5 6 
#
# 1 162.1481 34.0310 31.1943 15.8077 40.6723 5.1208
# 2 34.0310 82.1526 0.8679 -7.5763 23.7355 11.5747
# 3 31.1943 0.8679 68.5938 -9.3858 32.3008 0.4000
# 4 15.8077 -7.5763 -9.3858 38.8140 -7.5781 -0.8630
# 5 40.6723 23.7355 32.3008 -7.5781 39.1032 4.9089
# 6 5.1208 11.5747 0.4000 -0.8630 4.9089 54.3134
#
#
#
# Elastic Compliance Matrix: (Units=1/GPa)
#
#
# Indices 1 2 3 4 5 6 
#
# 1 0.009737 -0.001857 -0.000726 -0.006386 -0.009670 0.000256
# 2 -0.001857 0.017610 0.007809 0.003240 -0.014293 -0.002292
# 3 -0.000726 0.007809 0.027617 0.003393 -0.026218 0.000624
# 4 -0.006386 0.003240 0.003393 0.031371 0.007994 -0.000338
# 5 -0.009670 -0.014293 -0.026218 0.007994 0.067745 -0.001845
# 6 0.000256 -0.002292 0.000624 -0.000338 -0.001845 0.019033
#
#
# Mechanical properties :
#
#
# Convention : Reuss Voigt Hill
#
# Bulk Modulus (GPa) = 15.28676 49.45344 32.37010
# Shear Modulus (GPa) = 27.10530 42.89953 35.00242
#
# Velocity S-wave (km/s) = 3.56174 4.48087 4.04748
# Velocity P-wave (km/s) = 4.90605 7.06516 6.08218
#
# Compressibility (1/GPa) = 0.06541608
#
# Stress axis : x y z
#
# Youngs Moduli (GPa) = 102.70477 56.78474 36.21014
#
# Poissons Ratio (x) = 0.10543 0.02629
# Poissons Ratio (y) = 0.19068 -0.28276
# Poissons Ratio (z) = 0.07456 -0.44342
#
# Static dielectric constant tensor:
#      x y z
#    x 1.779990 -0.019470 -0.050760 
#    y -0.019470 1.814050 0.060280 
#    z -0.050760 0.060280 1.823990 
# 
# From -- ./inp_files/532723.got.cif
#   From: 2010.05.17/outbox.ucp.g08.bks.cvg/sg2_267_cif.got.tgz:532723.got - 2010.06.11 11:32:03.
