data_PCOD9074514
_publ_section_title
;
Structure prediction by ZEFSAII (Michael W. Deem and Ramdas Pophale) SiO2 
 PCOD9074514
Probable space group: P -1
;
_chemical_formula_sum "Si O2"
_cell_formula_units_Z 15
_cell_length_a 18.000000
_cell_length_b 9.000000
_cell_length_c 9.000000
_cell_angle_alpha 80.000000
_cell_angle_beta 60.000000
_cell_angle_gamma 130.000000
_cell_volume 643.920384
_symmetry_space_group_name_H-M "P -1"
_symmetry_group_IT_number 2
_symmetry_cell_setting 'triclinic'
loop_
_space_group_symop_operation_xyz
x,y,z
-x,-y,-z
loop_
_atom_site_type_symbol
_atom_site_label
_atom_site_fract_x
_atom_site_fract_y
_atom_site_fract_z
Si Si1 0.519791 0.139086 0.317444
Si Si2 0.025595 0.791398 0.219593
Si Si3 0.678766 0.371875 0.601684
Si Si4 0.391649 0.135135 0.057729
Si Si5 0.880584 0.787351 0.796038
Si Si6 0.436377 0.322875 0.309942
Si Si7 0.127157 0.040293 0.754002
Si Si8 0.000000 0.500000 0.500000
O O1 0.474497 0.240832 0.391662
O O2 0.500000 0.000000 0.500000
O O3 0.387285 0.867057 0.385171
O O4 0.707408 0.438496 0.012843
O O5 0.839778 0.559783 0.498564
O O6 0.046406 0.652792 0.270114
O O7 0.147540 0.087568 0.132980
O O8 0.045518 0.858668 0.016740
O O9 0.761498 0.640749 0.386976
O O10 0.518026 0.192762 0.876884
O O11 0.444932 0.266104 0.146484
O O12 0.444835 0.354734 0.861178
O O13 0.197993 0.813087 0.297972
O O14 0.000000 0.000000 0.500000
O O15 0.990369 0.869812 0.796613
O O16 0.253179 0.107828 0.554818
#
# Coordination Sequence:
#
# PCOD9074514 Si02
#       8
#     2   2   2   2   2   2   2   1
#     4  12  25  42  67 104 140 175 231 288 343 405
#     4  11  24  46  70  98 139 183 227 276 349 415
#     4  10  23  44  71  97 129 184 224 282 337 411
#     4  10  24  43  67  97 134 174 230 278 337 402
#     4  11  26  43  73 103 137 180 234 289 341 411
#     4  10  24  44  69  95 136 182 222 272 348 412
#     4  10  23  49  73  95 137 188 227 272 353 417
#     4  12  26  38  64 104 138 172 224 288 332 396
#
# _framework density 23.294805
#
# number of rings (size 3 to 8) (size 9 to 14) (size 15 to 20)
#    0.000    1.333    0.000    4.800   11.200    2.133 
#    0.000    6.667    0.000    0.000    0.000    0.000 
#    0.000    0.000    0.000    0.000    0.000    0.000 
#
# Total GULP energy -83505.098979 kJ/mol
# GULP energy per Si atom -5567.006599 kJ/mol
# Density = 2.324179 g / cm^3
# Si number density = 23.294805 Si / 1000 Ang^3
#
#
#
# Elastic Constant Matrix: (Units=GPa)
#
#
# Indices 1 2 3 4 5 6 
#
# 1 86.6723 10.6892 26.0366 -7.5763 29.6153 -15.4276
# 2 10.6892 49.3215 9.8260 -28.4496 5.5943 -2.1412
# 3 26.0366 9.8260 61.9544 -25.8377 16.3331 2.7301
# 4 -7.5763 -28.4496 -25.8377 46.5312 4.7936 -5.6771
# 5 29.6153 5.5943 16.3331 4.7936 42.1122 -2.2820
# 6 -15.4276 -2.1412 2.7301 -5.6771 -2.2820 28.1190
#
#
#
# Elastic Compliance Matrix: (Units=1/GPa)
#
#
# Indices 1 2 3 4 5 6 
#
# 1 0.018817 0.000724 -0.003758 0.003921 -0.011744 0.010582
# 2 0.000724 0.037476 0.009276 0.030346 -0.012133 0.007492
# 3 -0.003758 0.009276 0.028805 0.022244 -0.012330 -0.000662
# 4 0.003921 0.030346 0.022244 0.056688 -0.021217 0.012025
# 5 -0.011744 -0.012133 -0.012330 -0.021217 0.040426 -0.007173
# 6 0.010582 0.007492 -0.000662 0.012025 -0.007173 0.043850
#
#
# Mechanical properties :
#
#
# Convention : Reuss Voigt Hill
#
# Bulk Modulus (GPa) = 10.24776 32.33908 21.29342
# Shear Modulus (GPa) = 20.31670 33.44557 26.88114
#
# Velocity S-wave (km/s) = 2.95643 3.79324 3.40068
# Velocity P-wave (km/s) = 4.00783 5.75305 4.95784
#
# Compressibility (1/GPa) = 0.09758229
#
# Stress axis : x y z
#
# Youngs Moduli (GPa) = 53.14474 26.68389 34.71591
#
# Poissons Ratio (x) = -0.01931 0.13045
# Poissons Ratio (y) = -0.03845 -0.32204
# Poissons Ratio (z) = 0.19969 -0.24753
#
# Static dielectric constant tensor:
#      x y z
#    x 1.979000 -0.021590 0.001020 
#    y -0.021590 2.065570 0.149140 
#    z 0.001020 0.149140 1.876170 
# 
# From -- ./inp_files/328857.got.cif
#   From: 2010.05.17/outbox.ucp.g08.bks.cvg/sg2_165_cif.got.tgz:328857.got - 2010.06.11 11:32:03.
