data_PCOD9074270
_publ_section_title
;
Structure prediction by ZEFSAII (Michael W. Deem and Ramdas Pophale) SiO2 
 PCOD9074270
Probable space group: P -1
;
_chemical_formula_sum "Si O2"
_cell_formula_units_Z 15
_cell_length_a 5.147558
_cell_length_b 14.271637
_cell_length_c 13.962114
_cell_angle_alpha 33.712037
_cell_angle_beta 78.643975
_cell_angle_gamma 77.811755
_cell_volume 556.030215
_symmetry_space_group_name_H-M "P -1"
_symmetry_group_IT_number 2
_symmetry_cell_setting 'triclinic'
loop_
_space_group_symop_operation_xyz
x,y,z
-x,-y,-z
loop_
_atom_site_type_symbol
_atom_site_label
_atom_site_fract_x
_atom_site_fract_y
_atom_site_fract_z
Si Si1 0.890700 0.831035 0.009120
Si Si2 0.405795 0.129220 0.188779
Si Si3 0.494034 0.746542 0.244756
Si Si4 0.837739 0.322945 0.102250
Si Si5 0.285253 0.899415 0.543927
Si Si6 0.000000 0.000000 0.000000
Si Si7 0.596474 0.384605 0.433276
Si Si8 0.136950 0.461921 0.251229
O O1 0.653795 0.860727 0.927098
O O2 0.751186 0.848955 0.111214
O O3 0.062719 0.983146 0.886310
O O4 0.040540 0.651658 0.132215
O O5 0.665681 0.202275 0.151302
O O6 0.148063 0.255020 0.135135
O O7 0.361335 0.945575 0.391259
O O8 0.566461 0.569616 0.333531
O O9 0.464832 0.728865 0.375042
O O10 0.229496 0.834090 0.145159
O O11 0.730628 0.282789 0.249788
O O12 0.812525 0.502622 0.895650
O O13 0.500000 0.000000 0.500000
O O14 0.000000 0.000000 0.500000
O O15 0.385979 0.398043 0.351033
O O16 0.888695 0.359942 0.385410
#
# Coordination Sequence:
#
# PCOD9074270 Si02
#       8
#     2   2   2   2   2   1   2   2
#     4  10  21  32  49  69  98 133 170 204 247 290
#     4   9  17  27  44  64  96 129 162 191 239 297
#     4  10  22  35  50  70  95 128 167 212 249 291
#     4   9  15  26  45  68  97 125 157 193 240 295
#     4   8  14  24  39  65  93 126 153 187 235 294
#     4  12  22  36  50  70  96 134 174 212 246 286
#     4  10  21  34  54  70  96 127 168 202 251 290
#     4  10  18  32  50  73  95 129 163 200 241 299
#
# _framework density 26.976949999999999
#
# number of rings (size 3 to 8) (size 9 to 14) (size 15 to 20)
#    0.000    2.400    1.333    2.800    3.733    1.600 
#    0.000    0.000    0.000    0.000    0.000    0.000 
#    0.000    2.133    0.000    0.267    0.000    0.000 
#
# Total GULP energy -83704.499987 kJ/mol
# GULP energy per Si atom -5580.299999 kJ/mol
# Density = 2.691555 g / cm^3
# Si number density = 26.976950 Si / 1000 Ang^3
#
#
#
# Elastic Constant Matrix: (Units=GPa)
#
#
# Indices 1 2 3 4 5 6 
#
# 1 143.0765 34.8624 42.9137 15.2018 -10.2753 6.5884
# 2 34.8624 85.5828 38.5127 13.4037 1.0737 12.0552
# 3 42.9137 38.5127 150.7162 56.8296 -14.1741 -2.0592
# 4 15.2018 13.4037 56.8296 56.3860 0.4117 -1.9404
# 5 -10.2753 1.0737 -14.1741 0.4117 40.2614 -1.0566
# 6 6.5884 12.0552 -2.0592 -1.9404 -1.0566 38.3751
#
#
#
# Elastic Compliance Matrix: (Units=1/GPa)
#
#
# Indices 1 2 3 4 5 6 
#
# 1 0.008227 -0.002593 -0.001482 -0.000142 0.001632 -0.000640
# 2 -0.002593 0.014926 -0.003617 0.000660 -0.002457 -0.004472
# 3 -0.001482 -0.003617 0.012794 -0.011612 0.004383 0.001611
# 4 -0.000142 0.000660 -0.011612 0.029371 -0.004428 0.000557
# 5 0.001632 -0.002457 0.004383 -0.004428 0.026941 0.001245
# 6 -0.000640 -0.004472 0.001611 0.000557 0.001245 0.027722
#
#
# Mechanical properties :
#
#
# Convention : Reuss Voigt Hill
#
# Bulk Modulus (GPa) = 48.62857 67.99477 58.31167
# Shear Modulus (GPa) = 35.15744 44.54363 39.85053
#
# Velocity S-wave (km/s) = 3.61396 4.06787 3.84761
# Velocity P-wave (km/s) = 5.95646 6.87917 6.43437
#
# Compressibility (1/GPa) = 0.02056404
#
# Stress axis : x y z
#
# Youngs Moduli (GPa) = 121.54827 66.99849 78.16376
#
# Poissons Ratio (x) = 0.17371 0.11581
# Poissons Ratio (y) = 0.31514 0.28272
# Poissons Ratio (z) = 0.18008 0.24233
#
# Static dielectric constant tensor:
#      x y z
#    x 2.055260 0.028400 -0.089890 
#    y 0.028400 2.219220 0.059100 
#    z -0.089890 0.059100 2.189430 
# 
# From -- ./inp_files/550963.got.cif
#   From: 2010.05.17/outbox.cif.g08.bks.cpg/sg2_276_cif.got.tgz:550963.got - 2010.06.03 11:33:40.
