data_PCOD9074104
_publ_section_title
;
Structure prediction by ZEFSAII (Michael W. Deem and Ramdas Pophale) SiO2 
 PCOD9074104
Probable space group: P -1
;
_chemical_formula_sum "Si O2"
_cell_formula_units_Z 12
_cell_length_a 15.000000
_cell_length_b 6.000000
_cell_length_c 12.000000
_cell_angle_alpha 80.000000
_cell_angle_beta 30.000000
_cell_angle_gamma 90.000000
_cell_volume 506.387931
_symmetry_space_group_name_H-M "P -1"
_symmetry_group_IT_number 2
_symmetry_cell_setting 'triclinic'
loop_
_space_group_symop_operation_xyz
x,y,z
-x,-y,-z
loop_
_atom_site_type_symbol
_atom_site_label
_atom_site_fract_x
_atom_site_fract_y
_atom_site_fract_z
Si Si1 0.995229 0.129783 0.370297
Si Si2 0.597603 0.880018 0.316897
Si Si3 0.386577 0.512520 0.944793
Si Si4 0.646576 0.260223 0.815787
Si Si5 0.350912 0.447710 0.523211
Si Si6 0.002101 0.101483 0.855808
O O1 0.837546 0.256019 0.552939
O O2 0.000000 0.000000 0.500000
O O3 0.944276 0.000836 0.313293
O O4 0.205413 0.307083 0.116555
O O5 0.447727 0.729349 0.404335
O O6 0.661768 0.674863 0.331134
O O7 0.500000 0.000000 0.500000
O O8 0.788661 0.074973 0.060952
O O9 0.538616 0.414393 0.852695
O O10 0.507161 0.644885 0.698360
O O11 0.318540 0.655743 0.101261
O O12 0.500000 0.000000 0.000000
O O13 0.149252 0.358310 0.693238
O O14 0.000000 0.000000 0.000000
#
# Coordination Sequence:
#
# PCOD9074104 Si02
#       6
#     2   2   2   2   2   2
#     4  12  24  44  72 101 141 185 232 288 354 416
#     4  10  22  42  67  96 131 182 231 281 347 415
#     4  11  24  43  68 101 139 181 236 288 347 418
#     4  11  24  43  67  98 139 185 229 288 351 415
#     4  10  22  42  66  93 137 175 227 292 338 412
#     4  10  23  44  68  96 138 179 224 285 344 415
#
# _framework density 23.697247000000001
#
# number of rings (size 3 to 8) (size 9 to 14) (size 15 to 20)
#    0.000    1.333    3.333    1.500    2.333    6.000 
#    3.000    0.000    0.000    0.000    0.000    0.000 
#    0.000    0.000    0.000    0.000    0.000    0.000 
#
# Total GULP energy -66897.051723 kJ/mol
# GULP energy per Si atom -5574.754310 kJ/mol
# Density = 2.364331 g / cm^3
# Si number density = 23.697247 Si / 1000 Ang^3
#
#
#
# Elastic Constant Matrix: (Units=GPa)
#
#
# Indices 1 2 3 4 5 6 
#
# 1 113.7251 39.6059 28.3582 -10.1688 0.4723 41.2732
# 2 39.6059 56.7146 32.7531 9.2088 -17.0305 35.0514
# 3 28.3582 32.7531 139.9517 1.4529 -24.8136 22.9224
# 4 -10.1688 9.2088 1.4529 46.9884 15.4756 -1.6579
# 5 0.4723 -17.0305 -24.8136 15.4756 61.0364 -13.2424
# 6 41.2732 35.0514 22.9224 -1.6579 -13.2424 57.7982
#
#
#
# Elastic Compliance Matrix: (Units=1/GPa)
#
#
# Indices 1 2 3 4 5 6 
#
# 1 0.015078 -0.009176 -0.001094 0.006917 -0.006174 -0.005984
# 2 -0.009176 0.040226 -0.003195 -0.013676 0.010294 -0.014609
# 3 -0.001094 -0.003195 0.008636 -0.000807 0.002814 -0.000085
# 4 0.006917 -0.013676 -0.000807 0.029238 -0.011188 0.001950
# 5 -0.006174 0.010294 0.002814 -0.011188 0.023756 0.002172
# 6 -0.005984 -0.014609 -0.000085 0.001950 0.002172 0.031021
#
#
# Mechanical properties :
#
#
# Convention : Reuss Voigt Hill
#
# Bulk Modulus (GPa) = 27.02030 56.86957 41.94493
# Shear Modulus (GPa) = 26.70655 47.14288 36.92472
#
# Velocity S-wave (km/s) = 3.36071 4.46509 3.95167
# Velocity P-wave (km/s) = 5.14647 7.11570 6.20964
#
# Compressibility (1/GPa) = 0.03700921
#
# Stress axis : x y z
#
# Youngs Moduli (GPa) = 66.32382 24.85971 115.79577
#
# Poissons Ratio (x) = 0.22812 0.12668
# Poissons Ratio (y) = 0.60860 0.36995
# Poissons Ratio (z) = 0.07256 0.07942
#
# Static dielectric constant tensor:
#      x y z
#    x 1.955890 -0.001260 0.062780 
#    y -0.001260 1.949900 -0.008210 
#    z 0.062780 -0.008210 1.941860 
# 
# From -- ./inp_files/27366.got.cif
#   From: 2010.05.17/outbox.ucp.g08.bks.cvg/sg2_14_cif.got.tgz:27366.got - 2010.06.11 11:32:03.
