data_PCOD9074621
_publ_section_title
;
Structure prediction by ZEFSAII (Michael W. Deem and Ramdas Pophale) SiO2 
 PCOD9074621
Probable space group: P -1
;
_chemical_formula_sum "Si O2"
_cell_formula_units_Z 16
_cell_length_a 16.830379
_cell_length_b 28.469657
_cell_length_c 25.741054
_cell_angle_alpha 170.028919
_cell_angle_beta 155.613005
_cell_angle_gamma 23.637731
_cell_volume 849.822882
_symmetry_space_group_name_H-M "P -1"
_symmetry_group_IT_number 2
_symmetry_cell_setting 'triclinic'
loop_
_space_group_symop_operation_xyz
x,y,z
-x,-y,-z
loop_
_atom_site_type_symbol
_atom_site_label
_atom_site_fract_x
_atom_site_fract_y
_atom_site_fract_z
Si Si1 0.888030 0.802172 0.369280
Si Si2 0.651837 0.568535 0.591678
Si Si3 0.567473 0.137063 0.381199
Si Si4 0.234652 0.431695 0.573530
Si Si5 0.511541 0.600914 0.785027
Si Si6 0.912570 0.160795 0.675620
Si Si7 0.568861 0.094023 0.817681
Si Si8 0.771743 0.147450 0.299981
O O1 0.644706 0.890680 0.319549
O O2 0.014488 0.870929 0.567260
O O3 0.950454 0.961964 0.531233
O O4 0.950454 0.463751 0.033021
O O5 0.661896 0.427033 0.386971
O O6 0.742629 0.336370 0.436365
O O7 0.415248 0.692339 0.599945
O O8 0.742628 0.835728 0.935722
O O9 0.338549 0.264822 0.401144
O O10 0.619919 0.287108 0.525177
O O11 0.678031 0.217000 0.584023
O O12 0.619918 0.805410 0.043478
O O13 0.000000 0.500000 0.500000
O O14 0.307309 0.219886 0.434527
O O15 0.307309 0.716752 0.931393
O O16 0.471436 0.752395 0.982169
O O17 0.000000 0.000000 0.500000
#
# Coordination Sequence:
#
# PCOD9074621 Si02
#       8
#     2   2   2   2   2   2   2   2
#     4  12  21  38  51  73 112 138 174 229 252 312
#     4  10  21  38  48  70  95 136 189 223 251 296
#     4  10  19  33  46  80 104 131 170 211 251 310
#     4  10  18  32  52  74 112 142 160 200 264 335
#     4  10  18  32  55  65 104 133 162 218 259 292
#     4  12  23  32  50  76 110 142 178 205 263 314
#     4  10  19  34  51  82 106 131 167 218 264 317
#     4  10  23  35  51  68  97 139 184 222 258 295
#
# _framework density 18.827451
#
# number of rings (size 3 to 8) (size 9 to 14) (size 15 to 20)
#    0.000    1.500    5.000    2.250    3.500    0.000 
#    0.000    0.000    0.000    0.000    0.000    0.000 
#    0.000   80.000    0.000    0.000    0.000    0.000 
#
# Total GULP energy -89126.107646 kJ/mol
# GULP energy per Si atom -5570.381728 kJ/mol
# Density = 1.878460 g / cm^3
# Si number density = 18.827451 Si / 1000 Ang^3
#
#
#
# Elastic Constant Matrix: (Units=GPa)
#
#
# Indices 1 2 3 4 5 6 
#
# 1 37.1938 33.0521 39.0414 -4.5510 20.5102 13.7177
# 2 33.0521 149.4373 42.7235 0.4589 6.5621 20.2159
# 3 39.0414 42.7235 150.2262 -9.0220 44.7448 22.0898
# 4 -4.5510 0.4589 -9.0220 52.0035 10.7860 15.3201
# 5 20.5102 6.5621 44.7448 10.7860 40.2034 1.1315
# 6 13.7177 20.2159 22.0898 15.3201 1.1315 44.9353
#
#
#
# Elastic Compliance Matrix: (Units=1/GPa)
#
#
# Indices 1 2 3 4 5 6 
#
# 1 0.067516 -0.010722 0.002217 0.021588 -0.040300 -0.023223
# 2 -0.010722 0.009284 -0.002538 -0.003441 0.007665 0.001324
# 3 0.002217 -0.002538 0.014404 0.009411 -0.019009 -0.009346
# 4 0.021588 -0.003441 0.009411 0.035107 -0.029757 -0.020889
# 5 -0.040300 0.007665 -0.019009 -0.029757 0.072575 0.026516
# 6 -0.023223 0.001324 -0.009346 -0.020889 0.026516 0.039796
#
#
# Mechanical properties :
#
#
# Convention : Reuss Voigt Hill
#
# Bulk Modulus (GPa) = 14.46810 62.94348 38.70579
# Shear Modulus (GPa) = 17.61763 42.23114 29.92439
#
# Velocity S-wave (km/s) = 3.06231 4.74124 3.99106
# Velocity P-wave (km/s) = 4.49499 7.96723 6.46845
#
# Compressibility (1/GPa) = 0.06911759
#
# Stress axis : x y z
#
# Youngs Moduli (GPa) = 14.81132 107.71559 69.42730
#
# Poissons Ratio (x) = 1.15493 -0.15395
# Poissons Ratio (y) = 0.15881 0.17622
# Poissons Ratio (z) = -0.03284 0.27341
#
# Static dielectric constant tensor:
#      x y z
#    x 1.677070 -0.006540 0.057060 
#    y -0.006540 1.746290 0.012910 
#    z 0.057060 0.012910 1.723760 
# 
# From -- ./inp_files/97425.got.cif
#   From: 2010.05.17/outbox.cif.g08.bks.cpg/sg2_49_cif.got.tgz:97425.got - 2010.06.03 11:33:40.
