data_PCOD9074481
_publ_section_title
;
Structure prediction by ZEFSAII (Michael W. Deem and Ramdas Pophale) SiO2 
 PCOD9074481
Probable space group: P -1
;
_chemical_formula_sum "Si O2"
_cell_formula_units_Z 16
_cell_length_a 18.000000
_cell_length_b 12.000000
_cell_length_c 9.000000
_cell_angle_alpha 100.000000
_cell_angle_beta 140.000000
_cell_angle_gamma 50.000000
_cell_volume 729.599496
_symmetry_space_group_name_H-M "P -1"
_symmetry_group_IT_number 2
_symmetry_cell_setting 'triclinic'
loop_
_space_group_symop_operation_xyz
x,y,z
-x,-y,-z
loop_
_atom_site_type_symbol
_atom_site_label
_atom_site_fract_x
_atom_site_fract_y
_atom_site_fract_z
Si Si1 0.536471 0.719403 0.661550
Si Si2 0.083667 0.634753 0.003431
Si Si3 0.149932 0.630224 0.446712
Si Si4 0.714026 0.039119 0.954501
Si Si5 0.835937 0.052472 0.681927
Si Si6 0.794974 0.175537 0.315210
Si Si7 0.380876 0.100569 0.033418
Si Si8 0.198773 0.327906 0.526310
O O1 0.742101 0.500307 0.882028
O O2 0.375243 0.778028 0.522737
O O3 0.571564 0.812392 0.814100
O O4 0.432934 0.829223 0.373778
O O5 0.169773 0.593163 0.290530
O O6 0.970946 0.602704 0.809981
O O7 0.921316 0.858049 0.773730
O O8 0.264555 0.644425 0.708666
O O9 0.177131 0.482067 0.523564
O O10 0.932646 0.854866 0.182290
O O11 0.674799 0.175982 0.037438
O O12 0.690577 0.935796 0.969516
O O13 0.815543 0.109976 0.496290
O O14 0.000000 0.000000 0.000000
O O15 0.000000 0.000000 0.500000
O O16 0.584236 0.881778 0.241943
O O17 0.209175 0.261532 0.689198
#
# Coordination Sequence:
#
# PCOD9074481 Si02
#       8
#     2   2   2   2   2   2   2   2
#     4  12  26  44  74 109 141 189 239 291 358 426
#     4  12  24  45  73 107 138 192 238 288 362 422
#     4  11  22  44  68 103 143 187 241 291 353 429
#     4  11  22  43  72 102 146 187 235 298 356 418
#     4  12  23  48  74 102 149 182 235 298 349 420
#     4  10  23  43  74 101 140 194 228 291 362 411
#     4  11  24  44  69 105 143 183 237 300 362 416
#     4  11  24  42  71 102 144 185 234 301 358 420
#
# _framework density 21.929839999999999
#
# number of rings (size 3 to 8) (size 9 to 14) (size 15 to 20)
#    0.000    0.750    3.750    3.750    1.750    4.500 
#    0.000    3.750    0.000    0.000    0.000    0.000 
#    0.000    0.000    0.000    0.000    0.000    0.000 
#
# Total GULP energy -89381.138843 kJ/mol
# GULP energy per Si atom -5586.321178 kJ/mol
# Density = 2.187993 g / cm^3
# Si number density = 21.929840 Si / 1000 Ang^3
#
#
#
# Elastic Constant Matrix: (Units=GPa)
#
#
# Indices 1 2 3 4 5 6 
#
# 1 101.4286 23.7585 4.5482 -0.8928 -2.7125 -1.3015
# 2 23.7585 112.3507 18.8397 5.0293 6.5373 0.2152
# 3 4.5482 18.8397 51.2848 5.3883 -0.2308 -8.0252
# 4 -0.8928 5.0293 5.3883 45.5552 -3.8115 9.0470
# 5 -2.7125 6.5373 -0.2308 -3.8115 37.3994 -0.1140
# 6 -1.3015 0.2152 -8.0252 9.0470 -0.1140 30.2293
#
#
#
# Elastic Compliance Matrix: (Units=1/GPa)
#
#
# Indices 1 2 3 4 5 6 
#
# 1 0.010439 -0.002287 -0.000088 0.000510 0.001209 0.000294
# 2 -0.002287 0.010141 -0.003598 -0.000727 -0.002037 -0.000916
# 3 -0.000088 -0.003598 0.022308 -0.003603 0.000414 0.007024
# 4 0.000510 -0.000727 -0.003603 0.024313 0.002595 -0.008196
# 5 0.001209 -0.002037 0.000414 0.002595 0.027448 -0.000496
# 6 0.000294 -0.000916 0.007024 -0.008196 -0.000496 0.037415
#
#
# Mechanical properties :
#
#
# Convention : Reuss Voigt Hill
#
# Bulk Modulus (GPa) = 32.31839 39.92852 36.12345
# Shear Modulus (GPa) = 32.39939 37.16463 34.78201
#
# Velocity S-wave (km/s) = 3.84788 4.12115 3.98686
# Velocity P-wave (km/s) = 5.87459 6.39469 6.14015
#
# Compressibility (1/GPa) = 0.03094214
#
# Stress axis : x y z
#
# Youngs Moduli (GPa) = 95.79179 98.61430 44.82644
#
# Poissons Ratio (x) = 0.22549 0.00394
# Poissons Ratio (y) = 0.21904 0.16131
# Poissons Ratio (z) = 0.00842 0.35486
#
# Static dielectric constant tensor:
#      x y z
#    x 1.858300 -0.036080 0.036930 
#    y -0.036080 1.823330 0.071890 
#    z 0.036930 0.071890 1.840220 
# 
# From -- ./inp_files/333452.got.cif
#   From: 2010.05.17/outbox.ucp.g08.bks.cvg/sg2_167_cif.got.tgz:333452.got - 2010.06.11 11:32:03.
