data_PCOD9074456
_publ_section_title
;
Structure prediction by ZEFSAII (Michael W. Deem and Ramdas Pophale) SiO2 
 PCOD9074456
Probable space group: P -1
;
_chemical_formula_sum "Si O2"
_cell_formula_units_Z 16
_cell_length_a 9.000000
_cell_length_b 15.000000
_cell_length_c 15.000000
_cell_angle_alpha 140.000000
_cell_angle_beta 100.000000
_cell_angle_gamma 50.000000
_cell_volume 759.999475
_symmetry_space_group_name_H-M "P -1"
_symmetry_group_IT_number 2
_symmetry_cell_setting 'triclinic'
loop_
_space_group_symop_operation_xyz
x,y,z
-x,-y,-z
loop_
_atom_site_type_symbol
_atom_site_label
_atom_site_fract_x
_atom_site_fract_y
_atom_site_fract_z
Si Si1 0.237456 0.522712 0.463582
Si Si2 0.770749 0.561458 0.048642
Si Si3 0.441593 0.192212 0.598524
Si Si4 0.733883 0.509261 0.350224
Si Si5 0.543273 0.563653 0.766437
Si Si6 0.684333 0.037259 0.824452
Si Si7 0.023973 0.818722 0.348249
Si Si8 0.275749 0.178869 0.183304
O O1 0.340627 0.438127 0.511626
O O2 0.420026 0.431194 0.330798
O O3 0.172761 0.410562 0.352545
O O4 0.980584 0.805438 0.650723
O O5 0.701353 0.619800 0.191363
O O6 0.513373 0.796798 0.149418
O O7 0.850320 0.351624 0.855259
O O8 0.000000 0.500000 0.000000
O O9 0.303252 0.331462 0.597384
O O10 0.500000 0.000000 0.500000
O O11 0.729383 0.008210 0.461668
O O12 0.581355 0.494775 0.280723
O O13 0.036775 0.260849 0.195252
O O14 0.817203 0.360782 0.689147
O O15 0.375345 0.797962 0.983461
O O16 0.631393 0.936757 0.798290
O O17 0.000000 0.000000 0.500000
O O18 0.500000 0.000000 0.000000
#
# Coordination Sequence:
#
# PCOD9074456 Si02
#       8
#     2   2   2   2   2   2   2   2
#     4  11  24  44  71  96 132 181 220 278 344 390
#     4  11  25  41  71 103 132 182 233 278 341 405
#     4  12  26  44  71 101 140 179 229 288 332 409
#     4  11  26  44  66 103 135 172 233 268 335 414
#     4  11  23  46  69  99 138 175 219 280 338 408
#     4  10  23  43  67  98 136 170 228 277 335 405
#     4  11  24  47  69 102 143 178 225 283 350 407
#     4  11  24  42  68  97 132 175 222 284 332 392
#
# _framework density 21.052645999999999
#
# number of rings (size 3 to 8) (size 9 to 14) (size 15 to 20)
#    0.000    1.000    3.750    2.625    7.000    2.500 
#    4.500    0.000    0.000    0.000    0.000    0.000 
#    0.000    0.000    0.000    0.000    0.000    0.000 
#
# Total GULP energy -89174.749581 kJ/mol
# GULP energy per Si atom -5573.421849 kJ/mol
# Density = 2.100473 g / cm^3
# Si number density = 21.052646 Si / 1000 Ang^3
#
#
#
# Elastic Constant Matrix: (Units=GPa)
#
#
# Indices 1 2 3 4 5 6 
#
# 1 -0.5829 13.4397 11.3386 3.3628 13.1301 3.4609
# 2 13.4397 114.4475 36.1533 -5.3930 3.1528 3.5307
# 3 11.3386 36.1533 135.7872 -7.0493 8.3264 0.9813
# 4 3.3628 -5.3930 -7.0493 36.5285 8.4782 -4.5688
# 5 13.1301 3.1528 8.3264 8.4782 27.9724 3.2124
# 6 3.4609 3.5307 0.9813 -4.5688 3.2124 27.5543
#
#
#
# Elastic Compliance Matrix: (Units=1/GPa)
#
#
# Indices 1 2 3 4 5 6 
#
# 1 -0.121564 0.011444 0.003918 0.002320 0.052999 0.007869
# 2 0.011444 0.008528 -0.002838 0.000731 -0.005519 -0.001665
# 3 0.003918 -0.002838 0.008170 0.001914 -0.004581 0.000432
# 4 0.002320 0.000731 0.001914 0.031161 -0.011886 0.006099
# 5 0.052999 -0.005519 -0.004581 -0.011886 0.017587 -0.009808
# 6 0.007869 -0.001665 0.000432 0.006099 -0.009808 0.037656
#
#
# Mechanical properties :
#
#
# Convention : Reuss Voigt Hill
#
# Bulk Modulus (GPa) = -12.52858 41.27945 14.37543
# Shear Modulus (GPa) = -71.31094 30.99238 -20.15928
#
# Velocity S-wave (km/s) = -5.82634 3.84101 -3.09781
# Velocity P-wave (km/s) = 7.15721 6.27068 2.43969
#
# Compressibility (1/GPa) = -0.07981749
#
# Stress axis : x y z
#
# Youngs Moduli (GPa) = -8.22613 117.26106 122.39808
#
# Poissons Ratio (x) = -1.34198 -0.47951
# Poissons Ratio (y) = 0.09414 0.34735
# Poissons Ratio (z) = 0.03223 0.33277
#
# Static dielectric constant tensor:
#      x y z
#    x 1.764490 0.003310 0.035420 
#    y 0.003310 1.761510 0.003500 
#    z 0.035420 0.003500 1.754050 
# 
# From -- ./inp_files/505598.got.cif
#   From: 2010.05.17/outbox.ucp.g08.bks.cvg/sg2_253_cif.got.tgz:505598.got - 2010.06.11 11:32:03.
