data_PCOD9074439
_publ_section_title
;
Structure prediction by ZEFSAII (Michael W. Deem and Ramdas Pophale) SiO2 
 PCOD9074439
Probable space group: P -1
;
_chemical_formula_sum "Si O2"
_cell_formula_units_Z 16
_cell_length_a 27.000000
_cell_length_b 6.000000
_cell_length_c 12.000000
_cell_angle_alpha 120.000000
_cell_angle_beta 150.000000
_cell_angle_gamma 50.000000
_cell_volume 736.400153
_symmetry_space_group_name_H-M "P -1"
_symmetry_group_IT_number 2
_symmetry_cell_setting 'triclinic'
loop_
_space_group_symop_operation_xyz
x,y,z
-x,-y,-z
loop_
_atom_site_type_symbol
_atom_site_label
_atom_site_fract_x
_atom_site_fract_y
_atom_site_fract_z
Si Si1 0.028854 0.152496 0.880621
Si Si2 0.060026 0.669614 0.484774
Si Si3 0.391306 0.288912 0.690237
Si Si4 0.522461 0.662895 0.687083
Si Si5 0.141258 0.544781 0.202604
Si Si6 0.274089 0.213802 0.917144
Si Si7 0.425419 0.572402 0.027193
Si Si8 0.872572 0.490186 0.096159
O O1 0.945536 0.322774 0.658468
O O2 0.955646 0.173417 0.851398
O O3 0.104173 0.827804 0.898629
O O4 0.107239 0.293006 0.101812
O O5 0.182803 0.465462 0.723069
O O6 0.983955 0.521405 0.334083
O O7 0.000000 0.000000 0.500000
O O8 0.259530 0.487910 0.464799
O O9 0.465636 0.407659 0.799436
O O10 0.423550 0.971134 0.621503
O O11 0.416626 0.320282 0.877042
O O12 0.500000 0.500000 0.500000
O O13 0.566102 0.466999 0.834043
O O14 0.617388 0.742337 0.852383
O O15 0.150767 0.519311 0.081781
O O16 0.220991 0.259594 0.947879
O O17 0.316465 0.889048 0.871032
#
# Coordination Sequence:
#
# PCOD9074439 Si02
#       8
#     2   2   2   2   2   2   2   2
#     4  10  23  43  60  98 133 172 219 268 323 400
#     4  11  24  40  64  97 132 168 218 268 326 393
#     4  10  24  45  69  97 128 180 217 275 328 387
#     4  11  27  43  71  99 131 168 222 275 333 392
#     4  10  24  40  66  93 132 175 219 267 327 389
#     4  11  26  40  69  97 127 179 212 273 334 384
#     4  10  25  47  66  97 134 166 231 268 329 400
#     4  11  24  40  65  95 134 169 221 265 331 392
#
# _framework density 21.727318
#
# number of rings (size 3 to 8) (size 9 to 14) (size 15 to 20)
#    0.000    1.500    1.250    1.125   10.500    1.000 
#    0.000    0.000    0.000    0.000    0.000    0.000 
#    0.000    0.000    0.000    0.000    0.000    0.000 
#
# Total GULP energy -89319.357671 kJ/mol
# GULP energy per Si atom -5582.459854 kJ/mol
# Density = 2.167787 g / cm^3
# Si number density = 21.727318 Si / 1000 Ang^3
#
#
#
# Elastic Constant Matrix: (Units=GPa)
#
#
# Indices 1 2 3 4 5 6 
#
# 1 87.5592 8.8546 30.4165 -4.2325 -12.9888 -27.0971
# 2 8.8546 68.5942 20.0376 20.0453 0.4249 -22.3804
# 3 30.4165 20.0376 70.7019 14.3985 -13.4580 -22.0071
# 4 -4.2325 20.0453 14.3985 25.8766 -16.1432 -8.1652
# 5 -12.9888 0.4249 -13.4580 -16.1432 26.1788 -0.1260
# 6 -27.0971 -22.3804 -22.0071 -8.1652 -0.1260 23.0627
#
#
#
# Elastic Compliance Matrix: (Units=1/GPa)
#
#
# Indices 1 2 3 4 5 6 
#
# 1 0.091117 -0.009319 0.011463 0.164551 0.153532 0.168049
# 2 -0.009319 0.029371 -0.001531 -0.043836 -0.032917 0.000392
# 3 0.011463 -0.001531 0.025025 0.024295 0.033774 0.044648
# 4 0.164551 -0.043836 0.024295 0.400350 0.343249 0.317597
# 5 0.153532 -0.032917 0.033774 0.343249 0.345399 0.304086
# 6 0.168049 0.000392 0.044648 0.317597 0.304086 0.397894
#
#
# Mechanical properties :
#
#
# Convention : Reuss Voigt Hill
#
# Bulk Modulus (GPa) = 6.81483 38.38585 22.60034
# Shear Modulus (GPa) = 3.74016 26.19339 14.96677
#
# Velocity S-wave (km/s) = 1.31345 3.47587 2.62743
# Velocity P-wave (km/s) = 2.33314 5.81501 4.43046
#
# Compressibility (1/GPa) = 0.14673870
#
# Stress axis : x y z
#
# Youngs Moduli (GPa) = 10.97493 34.04747 39.96037
#
# Poissons Ratio (x) = 0.31728 -0.45809
# Poissons Ratio (y) = 0.10227 0.06120
# Poissons Ratio (z) = -0.12581 0.05214
#
# Static dielectric constant tensor:
#      x y z
#    x 1.823190 0.017700 -0.027830 
#    y 0.017700 1.838800 -0.031240 
#    z -0.027830 -0.031240 1.751720 
# 
# From -- ./inp_files/78537.got.cif
#   From: 2010.05.17/outbox.ucp.g08.bks.cvg/sg2_40_cif.got.tgz:78537.got - 2010.06.11 11:32:03.
