data_PCOD9074488
_publ_section_title
;
Structure prediction by ZEFSAII (Michael W. Deem and Ramdas Pophale) SiO2 
 PCOD9074488
Probable space group: P -1
;
_chemical_formula_sum "Si O2"
_cell_formula_units_Z 16
_cell_length_a 9.000000
_cell_length_b 9.000000
_cell_length_c 12.000000
_cell_angle_alpha 80.000000
_cell_angle_beta 80.000000
_cell_angle_gamma 50.000000
_cell_volume 730.800219
_symmetry_space_group_name_H-M "P -1"
_symmetry_group_IT_number 2
_symmetry_cell_setting 'triclinic'
loop_
_space_group_symop_operation_xyz
x,y,z
-x,-y,-z
loop_
_atom_site_type_symbol
_atom_site_label
_atom_site_fract_x
_atom_site_fract_y
_atom_site_fract_z
Si Si1 0.446161 0.473861 0.387728
Si Si2 0.645529 0.529166 0.923919
Si Si3 0.213181 0.311770 0.957248
Si Si4 0.053735 0.631750 0.519937
Si Si5 0.584506 0.155509 0.264927
Si Si6 0.645133 0.624998 0.294532
Si Si7 0.931769 0.888860 0.083426
Si Si8 0.378723 0.017123 0.408758
O O1 0.500000 0.500000 0.500000
O O2 0.213504 0.593618 0.414963
O O3 0.578451 0.243067 0.373905
O O4 0.526074 0.552773 0.284991
O O5 0.543222 0.646761 0.811733
O O6 0.862546 0.328350 0.898345
O O7 0.500000 0.500000 0.000000
O O8 0.653105 0.675581 0.979840
O O9 0.272876 0.329846 0.823865
O O10 0.197160 0.140638 0.975246
O O11 0.000000 0.500000 0.000000
O O12 0.172079 0.536950 0.631702
O O13 0.000000 0.500000 0.500000
O O14 0.848750 0.843590 0.546456
O O15 0.440988 0.103911 0.298269
O O16 0.792117 0.000685 0.196278
O O17 0.488170 0.807956 0.368229
O O18 0.000000 0.000000 0.000000
O O19 0.500000 0.000000 0.500000
#
# Coordination Sequence:
#
# PCOD9074488 Si02
#       8
#     2   2   2   2   2   2   2   2
#     4  10  23  44  67  95 136 177 223 286 345 409
#     4  11  24  45  68 100 138 182 232 279 340 412
#     4  10  24  42  67  98 143 180 223 283 341 409
#     4  11  22  41  69  95 128 179 225 279 346 406
#     4  12  24  43  71  98 136 183 226 278 350 406
#     4  11  23  44  64  98 138 174 225 284 347 401
#     4  11  24  45  68 101 136 183 228 283 342 405
#     4  12  24  41  69 101 132 173 231 283 337 415
#
# _framework density 21.893808
#
# number of rings (size 3 to 8) (size 9 to 14) (size 15 to 20)
#    0.000    1.000    5.000    1.500    5.250    2.000 
#    0.000    5.000    0.000    0.000    0.000    0.000 
#    0.000    0.000    0.000    0.000    0.000    0.000 
#
# Total GULP energy -89160.310888 kJ/mol
# GULP energy per Si atom -5572.519431 kJ/mol
# Density = 2.184398 g / cm^3
# Si number density = 21.893808 Si / 1000 Ang^3
#
#
#
# Elastic Constant Matrix: (Units=GPa)
#
#
# Indices 1 2 3 4 5 6 
#
# 1 156.8868 57.4166 37.1397 10.7890 -20.1611 6.7005
# 2 57.4166 144.9916 38.8873 30.3648 -0.6399 -16.5011
# 3 37.1397 38.8873 65.9457 15.3968 -9.5066 4.3794
# 4 10.7890 30.3648 15.3968 46.1678 0.1173 -11.1993
# 5 -20.1611 -0.6399 -9.5066 0.1173 46.2107 8.7793
# 6 6.7005 -16.5011 4.3794 -11.1993 8.7793 56.0127
#
#
#
# Elastic Compliance Matrix: (Units=1/GPa)
#
#
# Indices 1 2 3 4 5 6 
#
# 1 0.008615 -0.003052 -0.002435 0.000248 0.003644 -0.002261
# 2 -0.003052 0.010404 -0.004107 -0.003932 -0.002665 0.003382
# 3 -0.002435 -0.004107 0.020903 -0.004710 0.003975 -0.004118
# 4 0.000248 -0.003932 -0.004710 0.026945 -0.001908 0.004867
# 5 0.003644 -0.002665 0.003975 -0.001908 0.025128 -0.005852
# 6 -0.002261 0.003382 -0.004118 0.004867 -0.005852 0.021332
#
#
# Mechanical properties :
#
#
# Convention : Reuss Voigt Hill
#
# Bulk Modulus (GPa) = 48.22704 70.52348 59.37526
# Shear Modulus (GPa) = 35.86162 45.30359 40.58260
#
# Velocity S-wave (km/s) = 4.05159 4.55383 4.31003
# Velocity P-wave (km/s) = 6.63044 7.74153 7.20743
#
# Compressibility (1/GPa) = 0.02073526
#
# Stress axis : x y z
#
# Youngs Moduli (GPa) = 116.07540 96.12004 47.83958
#
# Poissons Ratio (x) = 0.29333 0.11648
# Poissons Ratio (y) = 0.35423 0.19647
# Poissons Ratio (z) = 0.28261 0.39475
#
# Static dielectric constant tensor:
#      x y z
#    x 2.560440 0.273860 -0.668240 
#    y 0.273860 1.814810 -0.237980 
#    z -0.668240 -0.237980 2.407150 
# 
# From -- ./inp_files/207516.got.cif
#   From: 2010.05.17/outbox.ucp.g08.bks.cvg/sg2_104_cif.got.tgz:207516.got - 2010.06.11 11:32:03.
