data_PCOD9074294
_publ_section_title
;
Structure prediction by ZEFSAII (Michael W. Deem and Ramdas Pophale) SiO2 
 PCOD9074294
Probable space group: P -1
;
_chemical_formula_sum "Si O2"
_cell_formula_units_Z 15
_cell_length_a 6.000000
_cell_length_b 12.000000
_cell_length_c 18.000000
_cell_angle_alpha 140.000000
_cell_angle_beta 60.000000
_cell_angle_gamma 130.000000
_cell_volume 638.079485
_symmetry_space_group_name_H-M "P -1"
_symmetry_group_IT_number 2
_symmetry_cell_setting 'triclinic'
loop_
_space_group_symop_operation_xyz
x,y,z
-x,-y,-z
loop_
_atom_site_type_symbol
_atom_site_label
_atom_site_fract_x
_atom_site_fract_y
_atom_site_fract_z
Si Si1 0.442970 0.743815 0.625839
Si Si2 0.860205 0.011288 0.808129
Si Si3 0.876259 0.625043 0.423038
Si Si4 0.919832 0.491916 0.185631
Si Si5 0.956891 0.868038 0.010534
Si Si6 0.312363 0.649694 0.992874
Si Si7 0.509462 0.875371 0.269467
Si Si8 0.500000 0.000000 0.500000
O O1 0.610455 0.674111 0.504928
O O2 0.165960 0.553804 0.606396
O O3 0.665175 0.821761 0.697874
O O4 0.434406 0.937679 0.695979
O O5 0.184259 0.129144 0.780579
O O6 0.710661 0.150829 0.907170
O O7 0.898327 0.976907 0.869246
O O8 0.858258 0.561177 0.308536
O O9 0.178253 0.816529 0.485394
O O10 0.683599 0.442761 0.135150
O O11 0.920455 0.286293 0.095654
O O12 0.230059 0.665702 0.191907
O O13 0.622915 0.721939 0.014918
O O14 0.000000 0.000000 0.000000
O O15 0.000000 0.500000 0.000000
O O16 0.435692 0.924575 0.387398
#
# Coordination Sequence:
#
# PCOD9074294 Si02
#       8
#     2   2   2   2   2   2   2   1
#     4  11  24  44  71 100 135 178 228 271 345 393
#     4  11  23  41  70  96 137 172 230 271 329 407
#     4  10  24  46  66 103 136 175 225 282 326 418
#     4  10  24  42  67  99 141 171 232 275 335 402
#     4  11  26  42  67 102 137 179 222 279 341 389
#     4  11  23  43  67  97 132 181 225 275 335 397
#     4  11  23  44  70 100 136 181 219 284 333 400
#     4  10  22  46  64  98 140 168 224 270 334 394
#
# _framework density 23.508043000000001
#
# number of rings (size 3 to 8) (size 9 to 14) (size 15 to 20)
#    0.000    1.333    1.333    3.200    5.600    5.867 
#    7.200    0.000    0.000    0.000    0.000    0.000 
#    0.000    0.000    0.000    0.000    0.000    0.000 
#
# Total GULP energy -83516.843618 kJ/mol
# GULP energy per Si atom -5567.789575 kJ/mol
# Density = 2.345454 g / cm^3
# Si number density = 23.508043 Si / 1000 Ang^3
#
#
#
# Elastic Constant Matrix: (Units=GPa)
#
#
# Indices 1 2 3 4 5 6 
#
# 1 33.1939 -6.2666 30.3829 -6.9115 14.1339 6.8242
# 2 -6.2666 66.7524 24.0964 -10.3372 7.8439 17.9994
# 3 30.3829 24.0964 101.8777 -7.7443 14.4493 -1.9113
# 4 -6.9115 -10.3372 -7.7443 23.8768 -2.3173 5.8970
# 5 14.1339 7.8439 14.4493 -2.3173 21.9136 5.7838
# 6 6.8242 17.9994 -1.9113 5.8970 5.7838 26.3553
#
#
#
# Elastic Compliance Matrix: (Units=1/GPa)
#
#
# Indices 1 2 3 4 5 6 
#
# 1 0.172084 0.091144 -0.058971 0.093078 -0.063768 -0.117914
# 2 0.091144 0.072728 -0.036573 0.063411 -0.032072 -0.083072
# 3 -0.058971 -0.036573 0.032483 -0.032589 0.013897 0.046845
# 4 0.093078 0.063411 -0.032589 0.104612 -0.027161 -0.087218
# 5 -0.063768 -0.032072 0.013897 -0.027161 0.078760 0.028216
# 6 -0.117914 -0.083072 0.046845 -0.087218 0.028216 0.141929
#
#
# Mechanical properties :
#
#
# Convention : Reuss Voigt Hill
#
# Bulk Modulus (GPa) = 3.72445 33.13884 18.43164
# Shear Modulus (GPa) = 7.13374 24.66990 15.90182
#
# Velocity S-wave (km/s) = 1.74390 3.24300 2.60367
# Velocity P-wave (km/s) = 2.37543 5.30567 4.11052
#
# Compressibility (1/GPa) = 0.26849610
#
# Stress axis : x y z
#
# Youngs Moduli (GPa) = 5.81111 13.74987 30.78492
#
# Poissons Ratio (x) = -1.25322 1.81541
# Poissons Ratio (y) = -0.52965 1.12590
# Poissons Ratio (z) = 0.34269 0.50288
#
# Static dielectric constant tensor:
#      x y z
#    x 1.924950 -0.006450 0.028920 
#    y -0.006450 1.922370 0.013300 
#    z 0.028920 0.013300 2.019290 
# 
# From -- ./inp_files/78273.got.cif
#   From: 2010.05.17/outbox.ucp.g08.bks.cvg/sg2_40_cif.got.tgz:78273.got - 2010.06.11 11:32:03.
