data_PCOD9074219
_publ_section_title
;
Structure prediction by ZEFSAII (Michael W. Deem and Ramdas Pophale) SiO2 
 PCOD9074219
Probable space group: P -1
;
_chemical_formula_sum "Si O2"
_cell_formula_units_Z 12
_cell_length_a 12.000000
_cell_length_b 6.000000
_cell_length_c 12.000000
_cell_angle_alpha 110.000000
_cell_angle_beta 130.000000
_cell_angle_gamma 100.000000
_cell_volume 520.799820
_symmetry_space_group_name_H-M "P -1"
_symmetry_group_IT_number 2
_symmetry_cell_setting 'triclinic'
loop_
_space_group_symop_operation_xyz
x,y,z
-x,-y,-z
loop_
_atom_site_type_symbol
_atom_site_label
_atom_site_fract_x
_atom_site_fract_y
_atom_site_fract_z
Si Si1 0.914600 0.691006 0.341001
Si Si2 0.560025 0.092820 0.734534
Si Si3 0.200882 0.629360 0.401422
Si Si4 0.101104 0.877284 0.988295
Si Si5 0.639233 0.323164 0.277544
Si Si6 0.304650 0.310666 0.008400
O O1 0.793578 0.438642 0.307459
O O2 0.084493 0.701106 0.412745
O O3 0.788834 0.661598 0.154124
O O4 0.000000 0.000000 0.500000
O O5 0.643213 0.423271 0.832991
O O6 0.384683 0.888129 0.517257
O O7 0.470970 0.986560 0.785068
O O8 0.722637 0.057602 0.828864
O O9 0.269407 0.499078 0.517416
O O10 0.058411 0.444043 0.185845
O O11 0.170002 0.019702 0.935350
O O12 0.000000 0.000000 0.000000
O O13 0.488814 0.339683 0.122732
#
# Coordination Sequence:
#
# PCOD9074219 Si02
#       6
#     2   2   2   2   2   2
#     4  12  22  37  67  99 129 177 210 251 319 385
#     4   9  22  42  62  95 131 161 215 265 312 374
#     4  10  22  44  64  94 136 164 214 263 309 388
#     4  11  24  45  68  92 127 171 211 276 330 363
#     4   9  22  38  63  93 136 167 203 254 323 369
#     4  11  22  43  64  97 132 163 224 261 307 394
#
# _framework density 23.041482999999999
#
# number of rings (size 3 to 8) (size 9 to 14) (size 15 to 20)
#    1.000    0.667    1.667    3.000    0.000    2.000 
#    0.000    0.833    0.000    0.000    0.000    0.000 
#    0.000    0.000    0.000    0.000    0.000    0.000 
#
# Total GULP energy -66837.532335 kJ/mol
# GULP energy per Si atom -5569.794361 kJ/mol
# Density = 2.298904 g / cm^3
# Si number density = 23.041483 Si / 1000 Ang^3
#
#
#
# Elastic Constant Matrix: (Units=GPa)
#
#
# Indices 1 2 3 4 5 6 
#
# 1 95.9761 -6.2444 49.1936 10.5708 31.7690 -8.9725
# 2 -6.2444 15.0717 -5.1071 0.3683 12.0698 -1.7663
# 3 49.1936 -5.1071 102.9711 12.2558 59.2867 -17.9991
# 4 10.5708 0.3683 12.2558 35.5183 -3.2363 1.8982
# 5 31.7690 12.0698 59.2867 -3.2363 38.1774 1.0775
# 6 -8.9725 -1.7663 -17.9991 1.8982 1.0775 21.8805
#
#
#
# Elastic Compliance Matrix: (Units=1/GPa)
#
#
# Indices 1 2 3 4 5 6 
#
# 1 0.013438 -0.002067 -0.009883 0.000041 0.004907 -0.003031
# 2 -0.002067 0.019481 -0.028153 0.015270 0.041303 -0.025793
# 3 -0.009883 -0.028153 -0.004978 0.007971 0.025880 -0.012386
# 4 0.000041 0.015270 0.007971 0.023478 -0.015434 0.006530
# 5 0.004907 0.041303 0.025880 -0.015434 -0.033282 0.029614
# 6 -0.003031 -0.025793 -0.012386 0.006530 0.029614 0.030164
#
#
# Mechanical properties :
#
#
# Convention : Reuss Voigt Hill
#
# Bulk Modulus (GPa) = -19.13328 32.18924 6.52798
# Shear Modulus (GPa) = 45.01074 30.86036 37.93555
#
# Velocity S-wave (km/s) = 4.42460 3.66367 4.06199
# Velocity P-wave (km/s) = 4.21674 5.64775 4.98387
#
# Compressibility (1/GPa) = -0.05226495
#
# Stress axis : x y z
#
# Youngs Moduli (GPa) = 74.41643 51.33294 -200.88318
#
# Poissons Ratio (x) = 0.10612 -1.98523
# Poissons Ratio (y) = 0.15384 -5.65544
# Poissons Ratio (z) = 0.73542 1.44517
#
# Static dielectric constant tensor:
#      x y z
#    x 1.113360 0.237550 0.431180 
#    y 0.237550 1.798260 -0.152990 
#    z 0.431180 -0.152990 1.608140 
# 
# From -- ./inp_files/68081.got.cif
#   From: 2010.05.17/outbox.ucp.g08.bks.cvg/sg2_35_cif.got.tgz:68081.got - 2010.06.11 11:32:03.
