data_PCOD9074149
_publ_section_title
;
Structure prediction by ZEFSAII (Michael W. Deem and Ramdas Pophale) SiO2 
 PCOD9074149
Probable space group: P -1
;
_chemical_formula_sum "Si O2"
_cell_formula_units_Z 16
_cell_length_a 12.000000
_cell_length_b 30.000000
_cell_length_c 9.000000
_cell_angle_alpha 30.000000
_cell_angle_beta 50.000000
_cell_angle_gamma 30.000000
_cell_volume 731.734496
_symmetry_space_group_name_H-M "P -1"
_symmetry_group_IT_number 2
_symmetry_cell_setting 'triclinic'
loop_
_space_group_symop_operation_xyz
x,y,z
-x,-y,-z
loop_
_atom_site_type_symbol
_atom_site_label
_atom_site_fract_x
_atom_site_fract_y
_atom_site_fract_z
Si Si1 0.750047 0.941714 0.284731
Si Si2 0.721118 0.412223 0.176449
Si Si3 0.361696 0.227850 0.592498
Si Si4 0.589400 0.368808 0.686280
Si Si5 0.046191 0.508756 0.268278
Si Si6 0.944002 0.302292 0.757332
Si Si7 0.492806 0.226899 0.173981
Si Si8 0.301768 0.028120 0.436188
O O1 0.562283 0.951134 0.435715
O O2 0.028121 0.770835 0.518960
O O3 0.737209 0.994930 0.302915
O O4 0.611424 0.065660 0.918897
O O5 0.610167 0.440000 0.349333
O O6 0.500000 0.500000 0.000000
O O7 0.806962 0.471186 0.918901
O O8 0.201839 0.359574 0.471669
O O9 0.439775 0.252355 0.320849
O O10 0.173416 0.241634 0.658856
O O11 0.813147 0.280391 0.861221
O O12 0.298175 0.515197 0.557280
O O13 0.615196 0.257221 0.925349
O O14 0.000000 0.500000 0.500000
O O15 0.774808 0.654322 0.012108
O O16 0.077814 0.205866 0.073956
O O17 0.668607 0.058704 0.466167
#
# Coordination Sequence:
#
# PCOD9074149 Si02
#       8
#     2   2   2   2   2   2   2   2
#     4  10  23  44  68  99 133 174 230 273 338 395
#     4  12  26  44  70  99 136 177 221 273 345 406
#     4  11  25  43  72 100 133 177 233 281 322 398
#     4  11  25  42  65 100 139 176 219 277 342 400
#     4  12  25  44  71 101 134 175 229 276 328 399
#     4  10  23  41  68  94 137 174 223 273 345 387
#     4  12  24  43  69 102 135 178 229 277 331 392
#     4  10  22  42  71  95 130 178 226 281 326 396
#
# _framework density 21.865853999999999
#
# number of rings (size 3 to 8) (size 9 to 14) (size 15 to 20)
#    0.000    1.000    2.500    3.375    8.750    1.500 
#    0.000    1.250    0.000    0.000    0.000    0.000 
#    0.000    0.000    0.000    0.000    0.000    0.000 
#
# Total GULP energy -89308.547895 kJ/mol
# GULP energy per Si atom -5581.784243 kJ/mol
# Density = 2.181609 g / cm^3
# Si number density = 21.865854 Si / 1000 Ang^3
#
#
#
# Elastic Constant Matrix: (Units=GPa)
#
#
# Indices 1 2 3 4 5 6 
#
# 1 87.8045 39.3529 39.8593 -1.1596 6.5834 -20.0287
# 2 39.3529 42.0068 35.7680 -7.9721 3.6230 -9.4016
# 3 39.8593 35.7680 98.9063 -5.8942 14.2190 -10.1815
# 4 -1.1596 -7.9721 -5.8942 45.3102 -11.6066 2.1172
# 5 6.5834 3.6230 14.2190 -11.6066 41.5126 -6.3736
# 6 -20.0287 -9.4016 -10.1815 2.1172 -6.3736 39.1182
#
#
#
# Elastic Compliance Matrix: (Units=1/GPa)
#
#
# Indices 1 2 3 4 5 6 
#
# 1 0.021734 -0.018167 -0.001554 -0.003479 -0.001330 0.006329
# 2 -0.018167 0.052006 -0.011618 0.008364 0.004736 0.000493
# 3 -0.001554 -0.011618 0.015479 -0.001189 -0.004407 -0.000212
# 4 -0.003479 0.008364 -0.001189 0.025161 0.007223 -0.000265
# 5 -0.001330 0.004736 -0.004407 0.007223 0.027949 0.003473
# 6 0.006329 0.000493 -0.000212 -0.000265 0.003473 0.029447
#
#
# Mechanical properties :
#
#
# Convention : Reuss Voigt Hill
#
# Bulk Modulus (GPa) = 37.67532 50.96423 44.31978
# Shear Modulus (GPa) = 20.55083 32.77069 26.66076
#
# Velocity S-wave (km/s) = 3.06904 3.87552 3.49562
# Velocity P-wave (km/s) = 5.46134 6.58669 6.05024
#
# Compressibility (1/GPa) = 0.02654258
#
# Stress axis : x y z
#
# Youngs Moduli (GPa) = 46.01131 19.22849 64.60465
#
# Poissons Ratio (x) = 0.34932 0.10037
# Poissons Ratio (y) = 0.83588 0.75055
# Poissons Ratio (z) = 0.07148 0.22339
#
# Static dielectric constant tensor:
#      x y z
#    x 1.859450 0.062340 0.005680 
#    y 0.062340 1.814410 0.021030 
#    z 0.005680 0.021030 1.786760 
# 
# From -- ./inp_files/262345.got.cif
#   From: 2010.05.17/outbox.ucp.g08.bks.cvg/sg2_132_cif.got.tgz:262345.got - 2010.06.11 11:32:03.
