data_PCOD9074050
_publ_section_title
;
Structure prediction by ZEFSAII (Michael W. Deem and Ramdas Pophale) SiO2 
 PCOD9074050
Probable space group: P -1
;
_chemical_formula_sum "Si O2"
_cell_formula_units_Z 16
_cell_length_a 9.000000
_cell_length_b 21.000000
_cell_length_c 9.000000
_cell_angle_alpha 80.000000
_cell_angle_beta 50.000000
_cell_angle_gamma 120.000000
_cell_volume 751.240448
_symmetry_space_group_name_H-M "P -1"
_symmetry_group_IT_number 2
_symmetry_cell_setting 'triclinic'
loop_
_space_group_symop_operation_xyz
x,y,z
-x,-y,-z
loop_
_atom_site_type_symbol
_atom_site_label
_atom_site_fract_x
_atom_site_fract_y
_atom_site_fract_z
Si Si1 0.340015 0.559212 0.717044
Si Si2 0.799980 0.028734 0.297429
Si Si3 0.403245 0.223403 0.024893
Si Si4 0.214467 0.233082 0.440551
Si Si5 0.287850 0.796901 0.340339
Si Si6 0.728076 0.580295 0.962537
Si Si7 0.674499 0.417106 0.634391
Si Si8 0.003083 0.945729 0.160887
O O1 0.609486 0.677481 0.579340
O O2 0.323299 0.486670 0.847297
O O3 0.329108 0.558397 0.543817
O O4 0.000000 0.500000 0.000000
O O5 0.028737 0.105151 0.263033
O O6 0.500000 0.000000 0.500000
O O7 0.001798 0.087174 0.987363
O O8 0.746965 0.935660 0.366495
O O9 0.434270 0.264203 0.149914
O O10 0.626261 0.220720 0.855962
O O11 0.525277 0.305734 0.786982
O O12 0.959216 0.212337 0.535322
O O13 0.044282 0.124570 0.665436
O O14 0.096387 0.697859 0.619397
O O15 0.634478 0.922648 0.115173
O O16 0.577570 0.605072 0.110423
O O17 0.500000 0.500000 0.000000
O O18 0.000000 0.500000 0.500000
#
# Coordination Sequence:
#
# PCOD9074050 Si02
#       8
#     2   2   2   2   2   2   2   2
#     4  12  26  44  68 104 137 183 238 292 352 423
#     4  10  22  41  66  94 136 180 234 284 346 411
#     4  11  23  42  68  99 135 187 227 284 360 407
#     4  12  24  45  68  99 143 179 237 289 353 417
#     4  11  23  42  72  99 141 184 230 290 354 418
#     4  12  23  45  72 100 142 183 230 290 354 419
#     4  12  25  45  71 100 138 181 233 292 356 422
#     4  10  24  42  66 101 138 183 232 292 345 417
#
# _framework density 21.298107999999999
#
# number of rings (size 3 to 8) (size 9 to 14) (size 15 to 20)
#    0.000    0.750    2.500    5.250    0.000    5.000 
#    2.250    0.000    0.000    0.000    0.000    0.000 
#    0.000    0.000    0.000    0.000    0.000    0.000 
#
# Total GULP energy -89229.317010 kJ/mol
# GULP energy per Si atom -5576.832313 kJ/mol
# Density = 2.124963 g / cm^3
# Si number density = 21.298108 Si / 1000 Ang^3
#
#
#
# Elastic Constant Matrix: (Units=GPa)
#
#
# Indices 1 2 3 4 5 6 
#
# 1 94.1655 47.0154 44.4026 3.8214 27.8973 -2.5339
# 2 47.0154 96.7356 43.3627 8.8790 -4.1503 -10.1244
# 3 44.4026 43.3627 95.8353 4.9799 8.2138 -9.3913
# 4 3.8214 8.8790 4.9799 45.4943 -9.3114 0.1217
# 5 27.8973 -4.1503 8.2138 -9.3114 44.4376 3.3980
# 6 -2.5339 -10.1244 -9.3913 0.1217 3.3980 40.7313
#
#
#
# Elastic Compliance Matrix: (Units=1/GPa)
#
#
# Indices 1 2 3 4 5 6 
#
# 1 0.021363 -0.008719 -0.004721 -0.002398 -0.013797 -0.000769
# 2 -0.008719 0.016993 -0.004054 -0.000607 0.007521 0.002121
# 3 -0.004721 -0.004054 0.014727 -0.000513 -0.000407 0.002130
# 4 -0.002398 -0.000607 -0.000513 0.023708 0.006591 -0.001039
# 5 -0.013797 0.007521 -0.000407 0.006591 0.033468 -0.001895
# 6 -0.000769 0.002121 0.002130 -0.001039 -0.001895 0.025683
#
#
# Mechanical properties :
#
#
# Convention : Reuss Voigt Hill
#
# Bulk Modulus (GPa) = 55.26752 61.81086 58.53919
# Shear Modulus (GPa) = 28.25469 36.26302 32.25885
#
# Velocity S-wave (km/s) = 3.64624 4.13078 3.89605
# Velocity P-wave (km/s) = 6.61306 7.19972 6.91262
#
# Compressibility (1/GPa) = 0.01809381
#
# Stress axis : x y z
#
# Youngs Moduli (GPa) = 46.80991 58.84882 67.90392
#
# Poissons Ratio (x) = 0.51309 0.32059
# Poissons Ratio (y) = 0.40813 0.27530
# Poissons Ratio (z) = 0.22100 0.23859
#
# Static dielectric constant tensor:
#      x y z
#    x 1.864420 0.071970 -0.005690 
#    y 0.071970 1.571320 0.014800 
#    z -0.005690 0.014800 1.764000 
# 
# From -- ./inp_files/223574.got.cif
#   From: 2010.05.17/outbox.ucp.g08.bks.cvg/sg2_112_cif.got.tgz:223574.got - 2010.06.11 11:32:03.
