data_PCOD9074416
_publ_section_title
;
Structure prediction by ZEFSAII (Michael W. Deem and Ramdas Pophale) SiO2 
 PCOD9074416
Probable space group: P -1
;
_chemical_formula_sum "Si O2"
_cell_formula_units_Z 16
_cell_length_a 6.000000
_cell_length_b 18.000000
_cell_length_c 9.000000
_cell_angle_alpha 60.000000
_cell_angle_beta 80.000000
_cell_angle_gamma 60.000000
_cell_volume 725.212580
_symmetry_space_group_name_H-M "P -1"
_symmetry_group_IT_number 2
_symmetry_cell_setting 'triclinic'
loop_
_space_group_symop_operation_xyz
x,y,z
-x,-y,-z
loop_
_atom_site_type_symbol
_atom_site_label
_atom_site_fract_x
_atom_site_fract_y
_atom_site_fract_z
Si Si1 0.406415 0.383843 0.835596
Si Si2 0.928975 0.269947 0.717878
Si Si3 0.693712 0.548996 0.920616
Si Si4 0.036275 0.433763 0.414197
Si Si5 0.308564 0.211474 0.979177
Si Si6 0.662884 0.881303 0.613538
Si Si7 0.826317 0.103561 0.496917
Si Si8 0.824421 0.101126 0.835600
O O1 0.643222 0.345127 0.733782
O O2 0.232181 0.498709 0.708308
O O3 0.460760 0.367531 0.021441
O O4 0.254654 0.323200 0.886241
O O5 0.050993 0.331032 0.562269
O O6 0.928320 0.179456 0.726327
O O7 0.078314 0.218306 0.901978
O O8 0.742368 0.573697 0.720777
O O9 0.500000 0.500000 0.000000
O O10 0.000000 0.500000 0.000000
O O11 0.000000 0.500000 0.500000
O O12 0.333740 0.157721 0.182837
O O13 0.567166 0.155585 0.908606
O O14 0.469263 0.848091 0.583844
O O15 0.968371 0.852079 0.575298
O O16 0.500000 0.000000 0.500000
O O17 0.782784 0.080812 0.692967
O O18 0.000000 0.000000 0.500000
O O19 0.000000 0.000000 0.000000
#
# Coordination Sequence:
#
# PCOD9074416 Si02
#       8
#     2   2   2   2   2   2   2   2
#     4  10  23  44  69 100 144 189 234 297 366 433
#     4  11  25  42  72 107 142 190 250 300 376 435
#     4  10  23  42  69 104 137 188 238 284 359 430
#     4  11  21  44  74 104 145 189 239 298 364 437
#     4  11  25  44  69 104 138 192 245 301 368 440
#     4  10  23  42  68  93 133 180 233 290 357 427
#     4  10  23  44  69 100 131 182 237 292 367 427
#     4  11  26  45  72 101 145 190 246 310 370 443
#
# _framework density 22.062495999999999
#
# number of rings (size 3 to 8) (size 9 to 14) (size 15 to 20)
#    0.000    1.500    1.250    2.625   10.500    2.500 
#    0.000    0.000    0.000    0.000    0.000    0.000 
#    0.000    0.000    0.000    0.000    0.000    0.000 
#
# Total GULP energy -89071.050214 kJ/mol
# GULP energy per Si atom -5566.940638 kJ/mol
# Density = 2.201228 g / cm^3
# Si number density = 22.062496 Si / 1000 Ang^3
#
#
#
# Elastic Constant Matrix: (Units=GPa)
#
#
# Indices 1 2 3 4 5 6 
#
# 1 115.0893 1.5390 36.5695 6.7739 -11.6661 2.2928
# 2 1.5390 54.7991 33.8440 5.8176 -2.1408 17.6149
# 3 36.5695 33.8440 179.0113 16.8319 -12.3868 3.0751
# 4 6.7739 5.8176 16.8319 39.0384 -2.6962 8.9647
# 5 -11.6661 -2.1408 -12.3868 -2.6962 42.7735 0.4009
# 6 2.2928 17.6149 3.0751 8.9647 0.4009 6.6092
#
#
#
# Elastic Compliance Matrix: (Units=1/GPa)
#
#
# Indices 1 2 3 4 5 6 
#
# 1 0.008839 -0.007427 -0.000172 -0.005952 0.001382 0.024799
# 2 -0.007427 -0.081880 0.017252 -0.063129 -0.007909 0.298887
# 3 -0.000172 0.017252 0.002609 0.010737 0.002829 -0.061870
# 4 -0.005952 -0.063129 0.010737 -0.009975 -0.003981 0.179094
# 5 0.001382 -0.007909 0.002829 -0.003981 0.023710 0.023244
# 6 0.024799 0.298887 -0.061870 0.179094 0.023244 -0.869445
#
#
# Mechanical properties :
#
#
# Convention : Reuss Voigt Hill
#
# Bulk Modulus (GPa) = -19.55885 54.75607 17.59861
# Shear Modulus (GPa) = -5.19486 36.14737 15.47625
#
# Velocity S-wave (km/s) = -1.53614 4.05212 2.65141
# Velocity P-wave (km/s) = 3.46854 6.83852 4.16741
#
# Compressibility (1/GPa) = -0.05112776
#
# Stress axis : x y z
#
# Youngs Moduli (GPa) = 113.13128 -12.21293 383.32791
#
# Poissons Ratio (x) = -0.09071 0.06604
# Poissons Ratio (y) = 0.84027 -6.61315
# Poissons Ratio (z) = 0.01949 0.21070
#
# Static dielectric constant tensor:
#      x y z
#    x 1.893750 0.013980 0.056760 
#    y 0.013980 2.217440 -0.081910 
#    z 0.056760 -0.081910 1.869630 
# 
# From -- ./inp_files/138722.got.cif
#   From: 2010.05.17/outbox.ucp.g08.bks.cvg/sg2_70_cif.got.tgz:138722.got - 2010.06.11 11:32:03.
