data_PCOD9074404
_publ_section_title
;
Structure prediction by ZEFSAII (Michael W. Deem and Ramdas Pophale) SiO2 
 PCOD9074404
Probable space group: P -1
;
_chemical_formula_sum "Si O2"
_cell_formula_units_Z 16
_cell_length_a 9.000000
_cell_length_b 27.000000
_cell_length_c 9.000000
_cell_angle_alpha 140.000000
_cell_angle_beta 110.000000
_cell_angle_gamma 40.000000
_cell_volume 727.930595
_symmetry_space_group_name_H-M "P -1"
_symmetry_group_IT_number 2
_symmetry_cell_setting 'triclinic'
loop_
_space_group_symop_operation_xyz
x,y,z
-x,-y,-z
loop_
_atom_site_type_symbol
_atom_site_label
_atom_site_fract_x
_atom_site_fract_y
_atom_site_fract_z
Si Si1 0.351105 0.509533 0.341868
Si Si2 0.784622 0.089385 0.350464
Si Si3 0.729315 0.768426 0.116836
Si Si4 0.560484 0.695588 0.066582
Si Si5 0.097853 0.067095 0.693509
Si Si6 0.151812 0.052560 0.221511
Si Si7 0.250189 0.647327 0.166275
Si Si8 0.807123 0.801286 0.905201
O O1 0.500000 0.500000 0.500000
O O2 0.039024 0.673262 0.574230
O O3 0.303451 0.442016 0.220797
O O4 0.575281 0.405577 0.046145
O O5 0.475738 0.252278 0.661584
O O6 0.024145 0.058010 0.331751
O O7 0.856683 0.995315 0.279701
O O8 0.791010 0.037009 0.083909
O O9 0.713023 0.689812 0.992768
O O10 0.971555 0.713255 0.168313
O O11 0.406412 0.931577 0.407474
O O12 0.801187 0.747401 0.920730
O O13 0.217410 0.833684 0.233435
O O14 0.059465 0.173001 0.939133
O O15 0.900373 0.218526 0.493742
O O16 0.472569 0.956496 0.117800
O O17 0.500000 0.500000 0.000000
#
# Coordination Sequence:
#
# PCOD9074404 Si02
#       8
#     2   2   2   2   2   2   2   2
#     4  12  25  45  67  99 142 180 220 282 347 400
#     4  10  23  42  66 100 133 178 224 280 342 395
#     4  11  23  42  69 103 132 177 232 281 339 405
#     4  11  22  43  68 103 141 172 225 290 344 400
#     4  11  21  38  73 100 137 170 226 292 338 395
#     4  11  24  46  70  96 135 181 234 275 332 418
#     4  12  27  47  69  99 145 185 222 280 347 409
#     4  12  24  41  72 102 130 177 235 280 335 406
#
# _framework density 21.980117
#
# number of rings (size 3 to 8) (size 9 to 14) (size 15 to 20)
#    0.000    0.750    5.000    3.375    1.750    3.000 
#    4.500    1.250    0.000    0.000    0.000    0.000 
#    0.000    0.000    0.000    0.000    0.000    0.000 
#
# Total GULP energy -89116.189037 kJ/mol
# GULP energy per Si atom -5569.761815 kJ/mol
# Density = 2.193009 g / cm^3
# Si number density = 21.980117 Si / 1000 Ang^3
#
#
#
# Elastic Constant Matrix: (Units=GPa)
#
#
# Indices 1 2 3 4 5 6 
#
# 1 83.8966 -12.6499 22.9376 13.4380 9.6746 0.0158
# 2 -12.6499 4.1011 -36.9981 11.0282 3.0036 5.1416
# 3 22.9376 -36.9981 2.5951 2.1377 11.0494 45.1503
# 4 13.4380 11.0282 2.1377 17.1148 -7.0647 3.7896
# 5 9.6746 3.0036 11.0494 -7.0647 22.7962 8.8414
# 6 0.0158 5.1416 45.1503 3.7896 8.8414 7.5467
#
#
#
# Elastic Compliance Matrix: (Units=1/GPa)
#
#
# Indices 1 2 3 4 5 6 
#
# 1 0.003497 -0.019351 0.001103 0.021118 0.015830 -0.022570
# 2 -0.019351 -0.033594 -0.005546 0.064338 0.047717 -0.032103
# 3 0.001103 -0.005546 -0.000505 -0.005077 -0.008597 0.019417
# 4 0.021118 0.064338 -0.005077 -0.029907 -0.045516 0.054840
# 5 0.015830 0.047717 -0.008597 -0.045516 0.008672 0.031586
# 6 -0.022570 -0.032103 0.019417 0.054840 0.031586 -0.026282
#
#
# Mechanical properties :
#
#
# Convention : Reuss Voigt Hill
#
# Bulk Modulus (GPa) = -12.78929 4.13021 -4.32954
# Shear Modulus (GPa) = -88.34729 17.31176 -35.51777
#
# Velocity S-wave (km/s) = -6.34677 2.80948 -4.02419
# Velocity P-wave (km/s) = 7.71620 3.52241 4.85450
#
# Compressibility (1/GPa) = -0.07819042
#
# Stress axis : x y z
#
# Youngs Moduli (GPa) = 285.99240 -29.76687 -1981.26543
#
# Poissons Ratio (x) = -0.57601 2.18475
# Poissons Ratio (y) = 5.53420 -10.98771
# Poissons Ratio (z) = -0.31537 -0.16508
#
# Static dielectric constant tensor:
#      x y z
#    x 1.846560 0.009190 0.023550 
#    y 0.009190 1.883110 -0.075890 
#    z 0.023550 -0.075890 1.865560 
# 
# From -- ./inp_files/227703.got.cif
#   From: 2010.05.17/outbox.ucp.g08.bks.cvg/sg2_114_cif.got.tgz:227703.got - 2010.06.11 11:32:03.
