data_PCOD9074964
_publ_section_title
;
Structure prediction by ZEFSAII (Michael W. Deem and Ramdas Pophale) SiO2 
 PCOD9074964
Probable space group: P -1
;
_chemical_formula_sum "Si O2"
_cell_formula_units_Z 16
_cell_length_a 9.000000
_cell_length_b 18.000000
_cell_length_c 12.000000
_cell_angle_alpha 30.000000
_cell_angle_beta 50.000000
_cell_angle_gamma 50.000000
_cell_volume 725.531033
_symmetry_space_group_name_H-M "P -1"
_symmetry_group_IT_number 2
_symmetry_cell_setting 'triclinic'
loop_
_space_group_symop_operation_xyz
x,y,z
-x,-y,-z
loop_
_atom_site_type_symbol
_atom_site_label
_atom_site_fract_x
_atom_site_fract_y
_atom_site_fract_z
Si Si1 0.640298 0.518056 0.796768
Si Si2 0.062537 0.369571 0.851620
Si Si3 0.575740 0.874130 0.369205
Si Si4 0.793830 0.384075 0.384307
Si Si5 0.493364 0.199802 0.881819
Si Si6 0.145111 0.899172 0.649176
Si Si7 0.427765 0.330907 0.994509
Si Si8 0.808807 0.870994 0.489287
O O1 0.599607 0.697261 0.548922
O O2 0.597315 0.387459 0.905550
O O3 0.880496 0.476329 0.736959
O O4 0.500000 0.500000 0.000000
O O5 0.147874 0.496924 0.711394
O O6 0.269028 0.251292 0.872669
O O7 0.931315 0.257173 0.113556
O O8 0.362310 0.896973 0.501066
O O9 0.731585 0.886363 0.378671
O O10 0.565236 0.014979 0.103786
O O11 0.631274 0.293763 0.626179
O O12 0.723304 0.501989 0.163679
O O13 0.987272 0.254955 0.435171
O O14 0.481897 0.262900 0.933714
O O15 0.150345 0.978797 0.664488
O O16 0.000000 0.000000 0.500000
O O17 0.345059 0.205651 0.266565
#
# Coordination Sequence:
#
# PCOD9074964 Si02
#       8
#     2   2   2   2   2   2   2   2
#     4  12  23  38  69 107 141 163 225 299 339 387
#     4  11  21  43  65  96 133 177 222 277 331 393
#     4  12  24  43  67 102 144 173 221 280 353 395
#     4  11  25  47  68  98 138 185 232 269 337 412
#     4  11  26  47  70  92 145 189 221 268 342 424
#     4  12  23  38  69 104 132 171 224 289 339 391
#     4  11  22  42  72 102 131 180 225 283 337 400
#     4  12  24  41  70 105 133 179 228 284 342 398
#
# _framework density 22.052813
#
# number of rings (size 3 to 8) (size 9 to 14) (size 15 to 20)
#    0.000    0.500    6.250    3.000    3.500    1.500 
#    0.000    6.250    0.000    0.000    0.000    0.000 
#    0.000    0.000    0.000    0.000    0.000    0.000 
#
# Total GULP energy -89220.623650 kJ/mol
# GULP energy per Si atom -5576.288978 kJ/mol
# Density = 2.200262 g / cm^3
# Si number density = 22.052813 Si / 1000 Ang^3
#
#
#
# Elastic Constant Matrix: (Units=GPa)
#
#
# Indices 1 2 3 4 5 6 
#
# 1 75.5584 8.1783 15.3894 0.3915 -19.3210 -16.9313
# 2 8.1783 34.7862 13.6275 -25.6388 1.4744 0.6835
# 3 15.3894 13.6275 111.7314 -32.0672 -22.3096 0.0823
# 4 0.3915 -25.6388 -32.0672 32.2984 -4.2495 5.1432
# 5 -19.3210 1.4744 -22.3096 -4.2495 35.3295 -2.8052
# 6 -16.9313 0.6835 0.0823 5.1432 -2.8052 8.8184
#
#
#
# Elastic Compliance Matrix: (Units=1/GPa)
#
#
# Indices 1 2 3 4 5 6 
#
# 1 -0.028275 0.077772 0.025148 0.106612 0.000257 -0.122649
# 2 0.077772 -0.080669 -0.033855 -0.133578 0.027717 0.242614
# 3 0.025148 -0.033855 0.004223 -0.032488 0.019973 0.076171
# 4 0.106612 -0.133578 -0.032488 -0.153050 0.050415 0.320651
# 5 0.000257 0.027717 0.019973 0.050415 0.044611 -0.017054
# 6 -0.122649 0.242614 0.076171 0.320651 -0.017054 -0.334040
#
#
# Mechanical properties :
#
#
# Convention : Reuss Voigt Hill
#
# Bulk Modulus (GPa) = 29.93126 32.94073 31.43600
# Shear Modulus (GPa) = -7.41628 27.61464 10.09918
#
# Velocity S-wave (km/s) = -1.83583 3.54249 2.14231
# Velocity P-wave (km/s) = 3.01800 5.63045 4.51720
#
# Compressibility (1/GPa) = 0.03340988
#
# Stress axis : x y z
#
# Youngs Moduli (GPa) = -35.36667 -12.39637 236.78186
#
# Poissons Ratio (x) = 0.96409 -5.95469
# Poissons Ratio (y) = 2.75053 8.01621
# Poissons Ratio (z) = 0.88942 -0.41968
#
# Static dielectric constant tensor:
#      x y z
#    x 2.058480 0.011020 0.089520 
#    y 0.011020 1.904310 -0.063000 
#    z 0.089520 -0.063000 1.883490 
# 
# From -- ./inp_files/333709.got.cif
#   From: 2010.05.17/outbox.ucp.g08.bks.cvg/sg2_167_cif.got.tgz:333709.got - 2010.06.11 11:32:03.
