data_PCOD9074934
_publ_section_title
;
Structure prediction by ZEFSAII (Michael W. Deem and Ramdas Pophale) SiO2 
 PCOD9074934
Probable space group: P -1
;
_chemical_formula_sum "Si O2"
_cell_formula_units_Z 16
_cell_length_a 11.856774
_cell_length_b 15.127901
_cell_length_c 8.694601
_cell_angle_alpha 146.803658
_cell_angle_beta 53.494696
_cell_angle_gamma 114.414850
_cell_volume 673.573617
_symmetry_space_group_name_H-M "P -1"
_symmetry_group_IT_number 2
_symmetry_cell_setting 'triclinic'
loop_
_space_group_symop_operation_xyz
x,y,z
-x,-y,-z
loop_
_atom_site_type_symbol
_atom_site_label
_atom_site_fract_x
_atom_site_fract_y
_atom_site_fract_z
Si Si1 0.224462 0.657636 0.299893
Si Si2 0.674489 0.120690 0.018088
Si Si3 0.121258 0.103041 0.860420
Si Si4 0.106911 0.783298 0.262028
Si Si5 0.888966 0.641932 0.031672
Si Si6 0.756202 0.983405 0.074145
Si Si7 0.426230 0.346903 0.713917
Si Si8 0.562693 0.967104 0.596950
O O1 0.201545 0.679963 0.168111
O O2 0.215901 0.834187 0.638871
O O3 0.108006 0.549223 0.288897
O O4 0.375621 0.541702 0.054474
O O5 0.737835 0.001118 0.931591
O O6 0.567088 0.278570 0.404310
O O7 0.799096 0.175445 0.897464
O O8 0.583119 0.034384 0.848566
O O9 0.043629 0.959211 0.651471
O O10 0.127005 0.132311 0.081439
O O11 0.092962 0.252692 0.982062
O O12 0.288157 0.014460 0.570336
O O13 0.992643 0.685824 0.141780
O O14 0.723326 0.688694 0.289769
O O15 0.596472 0.952898 0.207293
O O16 0.436487 0.227468 0.678671
#
# Coordination Sequence:
#
# PCOD9074934 Si02
#       8
#     2   2   2   2   2   2   2   2
#     4   9  20  33  55  78 104 136 180 208 253 312
#     4  10  20  33  54  80 109 132 170 217 267 299
#     4   9  18  32  53  81  98 136 183 215 245 306
#     4  10  19  34  56  77 102 141 173 214 258 306
#     4   9  18  35  54  76 105 135 178 216 249 303
#     4  10  18  32  53  78 106 140 168 212 261 310
#     4   8  17  31  51  76 105 128 173 208 256 297
#     4   9  17  32  53  77 107 136 169 217 262 301
#
# _framework density 23.753900000000002
#
# number of rings (size 3 to 8) (size 9 to 14) (size 15 to 20)
#    0.750    2.000    0.000    2.625    0.000    2.500 
#    0.000    1.250    5.500    1.500    0.000    0.000 
#    0.000    0.000    0.000    0.000    0.000    0.000 
#
# Total GULP energy -89143.079038 kJ/mol
# GULP energy per Si atom -5571.442440 kJ/mol
# Density = 2.369983 g / cm^3
# Si number density = 23.753900 Si / 1000 Ang^3
#
#
#
# Elastic Constant Matrix: (Units=GPa)
#
#
# Indices 1 2 3 4 5 6 
#
# 1 116.9261 17.4938 20.5264 1.5249 20.5763 -3.2131
# 2 17.4938 84.8397 15.8388 6.5208 5.2382 -8.5222
# 3 20.5264 15.8388 57.9949 11.7191 3.6439 -4.2198
# 4 1.5249 6.5208 11.7191 39.8070 4.3525 1.1655
# 5 20.5763 5.2382 3.6439 4.3525 41.5983 4.5439
# 6 -3.2131 -8.5222 -4.2198 1.1655 4.5439 47.5912
#
#
#
# Elastic Compliance Matrix: (Units=1/GPa)
#
#
# Indices 1 2 3 4 5 6 
#
# 1 0.010133 -0.001240 -0.003156 0.001248 -0.004777 0.000608
# 2 -0.001240 0.012895 -0.002620 -0.001259 -0.000879 0.002108
# 3 -0.003156 -0.002620 0.020239 -0.005505 0.000564 0.001193
# 4 0.001248 -0.001259 -0.005505 0.027227 -0.002712 -0.001037
# 5 -0.004777 -0.000879 0.000564 -0.002712 0.027069 -0.002948
# 6 0.000608 0.002108 0.001193 -0.001037 -0.002948 0.021843
#
#
# Mechanical properties :
#
#
# Convention : Reuss Voigt Hill
#
# Bulk Modulus (GPa) = 34.20493 40.83098 37.51795
# Shear Modulus (GPa) = 34.92048 39.52609 37.22328
#
# Velocity S-wave (km/s) = 3.83834 4.08362 3.96288
# Velocity P-wave (km/s) = 5.83736 6.28181 6.06366
#
# Compressibility (1/GPa) = 0.02923556
#
# Stress axis : x y z
#
# Youngs Moduli (GPa) = 98.68814 77.55236 49.40957
#
# Poissons Ratio (x) = 0.09619 0.15592
# Poissons Ratio (y) = 0.12240 0.12943
# Poissons Ratio (z) = 0.31142 0.20315
#
# Static dielectric constant tensor:
#      x y z
#    x 1.948570 0.017150 -0.021460 
#    y 0.017150 1.956290 -0.030480 
#    z -0.021460 -0.030480 1.979800 
# 
# From -- ./inp_files/271198.got.cif
#   From: 2010.05.17/outbox.cif.g08.bks.cpg/sg2_136_cif.got.tgz:271198.got - 2010.06.03 11:33:40.
