data_PCOD9074146
_publ_section_title
;
Structure prediction by ZEFSAII (Michael W. Deem and Ramdas Pophale) SiO2 
 PCOD9074146
Probable space group: P -1
;
_chemical_formula_sum "Si O2"
_cell_formula_units_Z 16
_cell_length_a 15.000000
_cell_length_b 9.000000
_cell_length_c 12.000000
_cell_angle_alpha 120.000000
_cell_angle_beta 70.000000
_cell_angle_gamma 60.000000
_cell_volume 745.925389
_symmetry_space_group_name_H-M "P -1"
_symmetry_group_IT_number 2
_symmetry_cell_setting 'triclinic'
loop_
_space_group_symop_operation_xyz
x,y,z
-x,-y,-z
loop_
_atom_site_type_symbol
_atom_site_label
_atom_site_fract_x
_atom_site_fract_y
_atom_site_fract_z
Si Si1 0.226564 0.207279 0.610414
Si Si2 0.916212 0.079350 0.750122
Si Si3 0.980752 0.179300 0.162047
Si Si4 0.355109 0.740275 0.817615
Si Si5 0.413694 0.889413 0.632742
Si Si6 0.907159 0.918032 0.479227
Si Si7 0.467609 0.416531 0.087061
Si Si8 0.550880 0.772385 0.175010
O O1 0.161902 0.485392 0.698943
O O2 0.263187 0.131952 0.697373
O O3 0.097875 0.260175 0.638717
O O4 0.401075 0.912965 0.362215
O O5 0.930301 0.893191 0.593201
O O6 0.727739 0.413830 0.991522
O O7 0.035869 0.873933 0.727124
O O8 0.967506 0.155132 0.673369
O O9 0.000000 0.000000 0.000000
O O10 0.158954 0.008374 0.022947
O O11 0.377692 0.836437 0.740152
O O12 0.443790 0.431998 0.617022
O O13 0.429288 0.700889 0.888491
O O14 0.448410 0.031708 0.711736
O O15 0.724195 0.275824 0.678252
O O16 0.500000 0.500000 0.000000
O O17 0.484656 0.211336 0.934935
#
# Coordination Sequence:
#
# PCOD9074146 Si02
#       8
#     2   2   2   2   2   2   2   2
#     4  12  24  41  72  96 135 172 228 270 337 391
#     4  10  24  44  69  96 139 169 226 269 339 391
#     4  12  27  42  65  98 137 175 220 278 336 390
#     4  11  25  44  68  96 136 178 222 274 332 400
#     4  11  24  43  67  98 131 176 224 272 329 399
#     4  10  22  42  71 100 128 182 213 280 327 397
#     4  11  20  42  72  97 130 175 222 270 333 394
#     4  11  23  42  72  98 130 177 221 277 327 401
#
# _framework density 21.449866
#
# number of rings (size 3 to 8) (size 9 to 14) (size 15 to 20)
#    0.000    1.000    2.500    4.125    3.500    2.500 
#    0.000    0.000    0.000    0.000    0.000    0.000 
#    0.000    0.000    0.000    0.000    0.000    0.000 
#
# Total GULP energy -89328.814128 kJ/mol
# GULP energy per Si atom -5583.050883 kJ/mol
# Density = 2.140105 g / cm^3
# Si number density = 21.449866 Si / 1000 Ang^3
#
#
#
# Elastic Constant Matrix: (Units=GPa)
#
#
# Indices 1 2 3 4 5 6 
#
# 1 103.5909 37.0839 21.3107 -3.5389 42.9697 -17.2080
# 2 37.0839 130.6862 41.9429 -5.0276 24.6037 -28.9536
# 3 21.3107 41.9429 64.7090 -2.8679 10.5555 -9.3104
# 4 -3.5389 -5.0276 -2.8679 27.3198 -5.7687 9.0149
# 5 42.9697 24.6037 10.5555 -5.7687 46.1324 -6.9868
# 6 -17.2080 -28.9536 -9.3104 9.0149 -6.9868 34.0041
#
#
#
# Elastic Compliance Matrix: (Units=1/GPa)
#
#
# Indices 1 2 3 4 5 6 
#
# 1 0.017254 -0.000152 -0.002465 -0.003080 -0.014952 0.005672
# 2 -0.000152 0.012156 -0.006076 -0.002001 -0.003940 0.008331
# 3 -0.002465 -0.006076 0.019945 0.001217 0.000961 -0.001086
# 4 -0.003080 -0.002001 0.001217 0.041564 0.006960 -0.012519
# 5 -0.014952 -0.003940 0.000961 0.006960 0.037633 -0.004771
# 6 0.005672 0.008331 -0.001086 -0.012519 -0.004771 0.041413
#
#
# Mechanical properties :
#
#
# Convention : Reuss Voigt Hill
#
# Bulk Modulus (GPa) = 31.28139 55.51789 43.39964
# Shear Modulus (GPa) = 25.25143 34.73450 29.99297
#
# Velocity S-wave (km/s) = 3.43480 4.02846 3.74342
# Velocity P-wave (km/s) = 5.50869 6.89759 6.24189
#
# Compressibility (1/GPa) = 0.03196788
#
# Stress axis : x y z
#
# Youngs Moduli (GPa) = 57.95749 82.26673 50.13721
#
# Poissons Ratio (x) = 0.01248 0.12361
# Poissons Ratio (y) = 0.00879 0.30465
# Poissons Ratio (z) = 0.14289 0.49989
#
# Static dielectric constant tensor:
#      x y z
#    x 1.905420 0.017790 -0.013890 
#    y 0.017790 1.795100 0.004300 
#    z -0.013890 0.004300 1.779020 
# 
# From -- ./inp_files/448046.got.cif
#   From: 2010.05.17/outbox.ucp.g08.bks.cvg/sg2_225_cif.got.tgz:448046.got - 2010.06.11 11:32:03.
