data_PCOD9074272
_publ_section_title
;
Structure prediction by ZEFSAII (Michael W. Deem and Ramdas Pophale) SiO2 
 PCOD9074272
Probable space group: P -1
;
_chemical_formula_sum "Si O2"
_cell_formula_units_Z 14
_cell_length_a 15.000000
_cell_length_b 9.000000
_cell_length_c 6.000000
_cell_angle_alpha 90.000000
_cell_angle_beta 60.000000
_cell_angle_gamma 110.000000
_cell_volume 644.457818
_symmetry_space_group_name_H-M "P -1"
_symmetry_group_IT_number 2
_symmetry_cell_setting 'triclinic'
loop_
_space_group_symop_operation_xyz
x,y,z
-x,-y,-z
loop_
_atom_site_type_symbol
_atom_site_label
_atom_site_fract_x
_atom_site_fract_y
_atom_site_fract_z
Si Si1 0.966611 0.621956 0.709651
Si Si2 0.783359 0.699309 0.662752
Si Si3 0.106154 0.968804 0.756255
Si Si4 0.528391 0.129161 0.164096
Si Si5 0.224414 0.550881 0.713998
Si Si6 0.589454 0.485947 0.202799
Si Si7 0.693238 0.088287 0.302753
O O1 0.880977 0.687907 0.697069
O O2 0.000000 0.500000 0.500000
O O3 0.059930 0.792458 0.688344
O O4 0.894449 0.514093 0.007048
O O5 0.775891 0.563701 0.488726
O O6 0.827802 0.876725 0.489613
O O7 0.663463 0.636144 0.946516
O O8 0.199973 0.961903 0.817073
O O9 0.000000 0.000000 0.000000
O O10 0.543423 0.316760 0.118531
O O11 0.641909 0.126957 0.137366
O O12 0.417394 0.051279 0.457181
O O13 0.500000 0.000000 0.000000
O O14 0.315034 0.533511 0.766471
O O15 0.267474 0.741758 0.610624
O O16 0.500000 0.500000 0.500000
#
# Coordination Sequence:
#
# PCOD9074272 Si02
#       7
#     2   2   2   2   2   2   2
#     4  11  25  44  70 102 140 190 242 287 352 422
#     4  11  24  45  71 100 144 187 237 292 357 428
#     4  12  26  46  69 106 149 190 235 292 356 425
#     4  10  22  48  74 101 134 185 242 294 355 421
#     4  10  22  45  69 101 138 186 239 289 353 433
#     4  10  24  44  72 103 137 177 238 303 364 416
#     4  10  24  43  70 104 140 184 237 296 349 426
#
# _framework density 21.723687000000002
#
# number of rings (size 3 to 8) (size 9 to 14) (size 15 to 20)
#    0.000    1.429    1.429    2.143    4.000    4.000 
#   12.857    0.000    0.000    0.000    0.000    0.000 
#    0.000    0.000    0.000    0.000    0.000    0.000 
#
# Total GULP energy -78131.538700 kJ/mol
# GULP energy per Si atom -5580.824193 kJ/mol
# Density = 2.167424 g / cm^3
# Si number density = 21.723687 Si / 1000 Ang^3
#
#
#
# Elastic Constant Matrix: (Units=GPa)
#
#
# Indices 1 2 3 4 5 6 
#
# 1 137.6373 35.5820 22.8463 4.8550 -16.8209 0.2351
# 2 35.5820 141.7350 39.4750 -11.8292 -13.2089 14.1546
# 3 22.8463 39.4750 118.8111 -4.4917 -33.1714 -0.2197
# 4 4.8550 -11.8292 -4.4917 53.8208 1.8141 2.2077
# 5 -16.8209 -13.2089 -33.1714 1.8141 32.7036 8.9523
# 6 0.2351 14.1546 -0.2197 2.2077 8.9523 38.0637
#
#
#
# Elastic Compliance Matrix: (Units=1/GPa)
#
#
# Indices 1 2 3 4 5 6 
#
# 1 0.008221 -0.001813 -0.000027 -0.001257 0.003578 -0.000145
# 2 -0.001813 0.008764 -0.002113 0.002019 0.001365 -0.003698
# 3 -0.000027 -0.002113 0.012616 0.000256 0.012488 -0.002093
# 4 -0.001257 0.002019 0.000256 0.019238 -0.000139 -0.001825
# 5 0.003578 0.001365 0.012488 -0.000139 0.048916 -0.011954
# 6 -0.000145 -0.003698 -0.002093 -0.001825 -0.011954 0.030553
#
#
# Mechanical properties :
#
#
# Convention : Reuss Voigt Hill
#
# Bulk Modulus (GPa) = 46.09402 65.99889 56.04645
# Shear Modulus (GPa) = 34.85633 44.93631 39.89632
#
# Velocity S-wave (km/s) = 4.01001 4.55305 4.29013
# Velocity P-wave (km/s) = 6.53487 7.62151 7.09901
#
# Compressibility (1/GPa) = 0.02169479
#
# Stress axis : x y z
#
# Youngs Moduli (GPa) = 121.64633 114.10288 79.26191
#
# Poissons Ratio (x) = 0.20688 0.00216
# Poissons Ratio (y) = 0.22056 0.16746
# Poissons Ratio (z) = 0.00331 0.24107
#
# Static dielectric constant tensor:
#      x y z
#    x 1.835160 0.027480 0.034910 
#    y 0.027480 1.793180 -0.007620 
#    z 0.034910 -0.007620 1.836280 
# 
# From -- ./inp_files/90287.got.cif
#   From: 2010.05.17/outbox.ucp.g08.bks.cvg/sg2_46_cif.got.tgz:90287.got - 2010.06.11 11:32:03.
