data_PCOD9074201
_publ_section_title
;
Structure prediction by ZEFSAII (Michael W. Deem and Ramdas Pophale) SiO2 
 PCOD9074201
Probable space group: P -1
;
_chemical_formula_sum "Si O2"
_cell_formula_units_Z 12
_cell_length_a 9.000000
_cell_length_b 15.000000
_cell_length_c 9.000000
_cell_angle_alpha 50.000000
_cell_angle_beta 90.000000
_cell_angle_gamma 50.000000
_cell_volume 506.304040
_symmetry_space_group_name_H-M "P -1"
_symmetry_group_IT_number 2
_symmetry_cell_setting 'triclinic'
loop_
_space_group_symop_operation_xyz
x,y,z
-x,-y,-z
loop_
_atom_site_type_symbol
_atom_site_label
_atom_site_fract_x
_atom_site_fract_y
_atom_site_fract_z
Si Si1 0.943534 0.657588 0.178450
Si Si2 0.862794 0.938416 0.689038
Si Si3 0.264451 0.315296 0.301969
Si Si4 0.942723 0.787153 0.547614
Si Si5 0.729413 0.556134 0.304752
Si Si6 0.859449 0.073041 0.075749
O O1 0.723966 0.699021 0.138505
O O2 0.189483 0.433760 0.325326
O O3 0.042018 0.618242 0.385992
O O4 0.861079 0.828408 0.914984
O O5 0.010373 0.801380 0.687603
O O6 0.005071 0.945785 0.770796
O O7 0.551117 0.171588 0.396520
O O8 0.284583 0.163028 0.486148
O O9 0.000000 0.500000 0.000000
O O10 0.191558 0.551253 0.734949
O O11 0.869106 0.933940 0.274621
O O12 0.447867 0.687304 0.208958
O O13 0.000000 0.000000 0.000000
#
# Coordination Sequence:
#
# PCOD9074201 Si02
#       6
#     2   2   2   2   2   2
#     4  10  22  43  70 101 126 175 220 272 322 390
#     4  12  25  41  70 100 134 169 220 272 332 389
#     4  11  23  42  72 100 129 168 219 277 329 383
#     4  11  25  43  68  98 132 174 217 275 323 389
#     4  10  24  44  69  96 135 174 221 266 329 388
#     4  12  27  45  65  95 139 179 217 267 327 396
#
# _framework density 23.701174000000002
#
# number of rings (size 3 to 8) (size 9 to 14) (size 15 to 20)
#    0.000    1.000    1.667    4.000    4.667    4.667 
#    0.000    6.667    0.000    0.000    0.000    0.000 
#    0.000    0.000    0.000    0.000    0.000    0.000 
#
# Total GULP energy -67039.841921 kJ/mol
# GULP energy per Si atom -5586.653493 kJ/mol
# Density = 2.364723 g / cm^3
# Si number density = 23.701174 Si / 1000 Ang^3
#
#
#
# Elastic Constant Matrix: (Units=GPa)
#
#
# Indices 1 2 3 4 5 6 
#
# 1 91.0866 79.9999 61.6334 -7.1384 16.3562 10.2768
# 2 79.9999 78.9375 9.6786 -20.1717 23.9741 4.1082
# 3 61.6334 9.6786 74.0782 -14.2319 -20.4192 -6.2538
# 4 -7.1384 -20.1717 -14.2319 -15.5654 -23.6012 -9.0255
# 5 16.3562 23.9741 -20.4192 -23.6012 26.4698 -1.3943
# 6 10.2768 4.1082 -6.2538 -9.0255 -1.3943 29.4208
#
#
#
# Elastic Compliance Matrix: (Units=1/GPa)
#
#
# Indices 1 2 3 4 5 6 
#
# 1 -0.092573 0.083162 0.045828 -0.059641 -0.035391 0.010492
# 2 0.083162 -0.053961 -0.047569 0.060741 0.014300 -0.012314
# 3 0.045828 -0.047569 -0.009215 0.017305 0.022827 -0.004934
# 4 -0.059641 0.060741 0.017305 -0.052109 -0.051400 -0.002392
# 5 -0.035391 0.014300 0.022827 -0.051400 0.018492 0.000326
# 6 0.010492 -0.012314 -0.004934 -0.002392 0.000326 0.030277
#
#
# Mechanical properties :
#
#
# Convention : Reuss Voigt Hill
#
# Bulk Modulus (GPa) = 140.97971 60.74733 100.86352
# Shear Modulus (GPa) = -15.64617 14.25107 -0.69755
#
# Velocity S-wave (km/s) = -2.57211 2.45476 -0.54309
# Velocity P-wave (km/s) = 7.12673 5.80695 6.50042
#
# Compressibility (1/GPa) = 0.00709322
#
# Stress axis : x y z
#
# Youngs Moduli (GPa) = -10.80225 -18.53202 -108.51969
#
# Poissons Ratio (x) = 1.54116 4.97326
# Poissons Ratio (y) = 0.89833 -5.16216
# Poissons Ratio (z) = 0.49505 -0.88155
#
# Static dielectric constant tensor:
#      x y z
#    x 1.905300 -0.060020 -0.045030 
#    y -0.060020 1.946930 -0.001930 
#    z -0.045030 -0.001930 1.926870 
# 
# From -- ./inp_files/40302.got.cif
#   From: 2010.05.17/outbox.ucp.g08.bks.cvg/sg2_21_cif.got.tgz:40302.got - 2010.06.11 11:32:03.
