data_PCOD9074589
_publ_section_title
;
Structure prediction by ZEFSAII (Michael W. Deem and Ramdas Pophale) SiO2 
 PCOD9074589
Probable space group: P -1
;
_chemical_formula_sum "Si O2"
_cell_formula_units_Z 16
_cell_length_a 9.000000
_cell_length_b 12.000000
_cell_length_c 18.000000
_cell_angle_alpha 140.000000
_cell_angle_beta 50.000000
_cell_angle_gamma 100.000000
_cell_volume 729.599496
_symmetry_space_group_name_H-M "P -1"
_symmetry_group_IT_number 2
_symmetry_cell_setting 'triclinic'
loop_
_space_group_symop_operation_xyz
x,y,z
-x,-y,-z
loop_
_atom_site_type_symbol
_atom_site_label
_atom_site_fract_x
_atom_site_fract_y
_atom_site_fract_z
Si Si1 0.729304 0.449525 0.629313
Si Si2 0.711077 0.098903 0.546335
Si Si3 0.776333 0.005574 0.797744
Si Si4 0.820189 0.141011 0.999548
Si Si5 0.218103 0.230248 0.131373
Si Si6 0.067318 0.333787 0.068205
Si Si7 0.422544 0.747092 0.166478
Si Si8 0.831722 0.698268 0.218264
O O1 0.695923 0.296955 0.613791
O O2 0.799335 0.587401 0.719753
O O3 0.975814 0.254135 0.404018
O O4 0.461539 0.637708 0.770614
O O5 0.725007 0.132829 0.647517
O O6 0.444144 0.152543 0.652649
O O7 0.882517 0.860485 0.321240
O O8 0.798082 0.153253 0.923187
O O9 0.736640 0.089451 0.768969
O O10 0.521066 0.049917 0.924140
O O11 0.858781 0.916995 0.892629
O O12 0.030186 0.153987 0.966778
O O13 0.071789 0.349994 0.163079
O O14 0.842726 0.565815 0.218334
O O15 0.320874 0.284923 0.933299
O O16 0.500000 0.500000 0.000000
O O17 0.000000 0.500000 0.000000
#
# Coordination Sequence:
#
# PCOD9074589 Si02
#       8
#     2   2   2   2   2   2   2   2
#     4  11  23  40  67  96 128 170 220 262 323 397
#     4  11  24  39  65  99 132 175 216 259 330 394
#     4  10  24  40  66  93 133 168 216 265 326 386
#     4  11  23  44  68  92 128 171 221 276 327 383
#     4  10  24  44  65  95 128 171 219 273 334 380
#     4  11  23  42  69  92 133 166 219 272 322 386
#     4  11  24  42  66  98 141 176 216 264 329 397
#     4  11  24  40  66  95 133 173 215 269 327 389
#
# _framework density 21.929839999999999
#
# number of rings (size 3 to 8) (size 9 to 14) (size 15 to 20)
#    0.000    1.250    2.500    4.125    5.250    2.500 
#    0.000    0.000    0.000    3.750    0.000    0.000 
#    0.000    0.000    0.000    0.000    0.000    0.000 
#
# Total GULP energy -89278.726214 kJ/mol
# GULP energy per Si atom -5579.920388 kJ/mol
# Density = 2.187993 g / cm^3
# Si number density = 21.929840 Si / 1000 Ang^3
#
#
#
# Elastic Constant Matrix: (Units=GPa)
#
#
# Indices 1 2 3 4 5 6 
#
# 1 121.7135 28.6546 34.9623 -5.4300 12.8051 25.7092
# 2 28.6546 90.9417 21.5517 9.4699 19.6767 21.1344
# 3 34.9623 21.5517 114.8483 8.8228 14.5768 8.6755
# 4 -5.4300 9.4699 8.8228 23.4979 5.9838 8.2455
# 5 12.8051 19.6767 14.5768 5.9838 28.1297 8.8028
# 6 25.7092 21.1344 8.6755 8.2455 8.8028 51.2765
#
#
#
# Elastic Compliance Matrix: (Units=1/GPa)
#
#
# Indices 1 2 3 4 5 6 
#
# 1 0.011061 -0.001886 -0.002885 0.006683 -0.002078 -0.004998
# 2 -0.001886 0.014362 -0.000741 -0.003018 -0.007182 -0.003130
# 3 -0.002885 -0.000741 0.010323 -0.003871 -0.003055 0.001152
# 4 0.006683 -0.003018 -0.003871 0.051600 -0.007240 -0.008506
# 5 -0.002078 -0.007182 -0.003055 -0.007240 0.045297 -0.002093
# 6 -0.004998 -0.003130 0.001152 -0.008506 -0.002093 0.024831
#
#
# Mechanical properties :
#
#
# Convention : Reuss Voigt Hill
#
# Bulk Modulus (GPa) = 40.45245 55.31561 47.88403
# Shear Modulus (GPa) = 28.29039 36.73646 32.51343
#
# Velocity S-wave (km/s) = 3.59561 4.09734 3.85465
# Velocity P-wave (km/s) = 5.97698 6.90383 6.45706
#
# Compressibility (1/GPa) = 0.02472038
#
# Stress axis : x y z
#
# Youngs Moduli (GPa) = 90.40376 69.63028 96.87515
#
# Poissons Ratio (x) = 0.13134 0.27953
# Poissons Ratio (y) = 0.17052 0.07178
# Poissons Ratio (z) = 0.26086 0.05159
#
# Static dielectric constant tensor:
#      x y z
#    x 1.835420 -0.014790 -0.038590 
#    y -0.014790 1.824660 -0.038190 
#    z -0.038590 -0.038190 1.873590 
# 
# From -- ./inp_files/560014.got.cif
#   From: 2010.05.17/outbox.ucp.g08.bks.cvg/sg2_281_cif.got.tgz:560014.got - 2010.06.11 11:32:03.
