data_PCOD9074534
_publ_section_title
;
Structure prediction by ZEFSAII (Michael W. Deem and Ramdas Pophale) SiO2 
 PCOD9074534
Probable space group: P -1
;
_chemical_formula_sum "Si O2"
_cell_formula_units_Z 16
_cell_length_a 12.000000
_cell_length_b 9.000000
_cell_length_c 9.000000
_cell_angle_alpha 80.000000
_cell_angle_beta 80.000000
_cell_angle_gamma 50.000000
_cell_volume 730.800219
_symmetry_space_group_name_H-M "P -1"
_symmetry_group_IT_number 2
_symmetry_cell_setting 'triclinic'
loop_
_space_group_symop_operation_xyz
x,y,z
-x,-y,-z
loop_
_atom_site_type_symbol
_atom_site_label
_atom_site_fract_x
_atom_site_fract_y
_atom_site_fract_z
Si Si1 0.672589 0.320021 0.980919
Si Si2 0.407500 0.946993 0.948591
Si Si3 0.947465 0.660298 0.712783
Si Si4 0.807985 0.309507 0.264177
Si Si5 0.767169 0.042281 0.478802
Si Si6 0.696623 0.603722 0.763094
Si Si7 0.419184 0.311858 0.556686
Si Si8 0.772226 0.781712 0.292094
O O1 0.663616 0.151659 0.957135
O O2 0.753608 0.278109 0.128210
O O3 0.500000 0.500000 0.000000
O O4 0.737622 0.403398 0.853181
O O5 0.536670 0.782241 0.835550
O O6 0.265040 0.152918 0.880977
O O7 0.500000 0.000000 0.000000
O O8 0.817659 0.635992 0.765782
O O9 0.053524 0.689966 0.781183
O O10 0.084345 0.438159 0.667277
O O11 0.859183 0.859222 0.602159
O O12 0.829485 0.155256 0.405326
O O13 0.668722 0.518982 0.327611
O O14 0.592817 0.197478 0.532655
O O15 0.778640 0.934984 0.344824
O O16 0.662064 0.602697 0.597717
O O17 0.375918 0.176789 0.628294
#
# Coordination Sequence:
#
# PCOD9074534 Si02
#       8
#     2   2   2   2   2   2   2   2
#     4  10  23  45  69  94 135 171 219 277 335 392
#     4  11  24  45  73 100 125 176 225 281 333 394
#     4  11  26  40  65  97 138 185 215 274 333 404
#     4  11  25  43  68  99 138 178 220 275 341 395
#     4  12  20  42  65 100 135 173 227 279 333 388
#     4  11  23  46  66 101 137 173 225 273 334 395
#     4  11  23  40  73 102 130 173 227 288 324 391
#     4  11  22  41  68  95 135 174 223 271 338 391
#
# _framework density 21.893808
#
# number of rings (size 3 to 8) (size 9 to 14) (size 15 to 20)
#    0.000    1.000    3.750    3.000    8.750    0.500 
#    2.250    0.625    0.000    0.000    0.000    0.000 
#    0.000    0.000    0.000    0.000    0.000    0.000 
#
# Total GULP energy -89077.428573 kJ/mol
# GULP energy per Si atom -5567.339286 kJ/mol
# Density = 2.184398 g / cm^3
# Si number density = 21.893808 Si / 1000 Ang^3
#
#
#
# Elastic Constant Matrix: (Units=GPa)
#
#
# Indices 1 2 3 4 5 6 
#
# 1 156.8537 27.6592 23.7298 -22.5981 -4.1510 15.8380
# 2 27.6592 80.9683 28.9453 -23.6619 0.6089 5.1586
# 3 23.7298 28.9453 46.7940 -29.3782 0.8706 14.4821
# 4 -22.5981 -23.6619 -29.3782 33.8357 6.0331 -0.1241
# 5 -4.1510 0.6089 0.8706 6.0331 42.2617 -5.4566
# 6 15.8380 5.1586 14.4821 -0.1241 -5.4566 51.0466
#
#
#
# Elastic Compliance Matrix: (Units=1/GPa)
#
#
# Indices 1 2 3 4 5 6 
#
# 1 0.007404 -0.001253 0.000764 0.004769 -0.000262 -0.002403
# 2 -0.001253 0.016617 -0.006320 0.005469 -0.000960 0.000413
# 3 0.000764 -0.006320 0.065701 0.055126 -0.011554 -0.019339
# 4 0.004769 0.005469 0.055126 0.087150 -0.015658 -0.019134
# 5 -0.000262 -0.000960 -0.011554 -0.015658 0.026937 0.006297
# 6 -0.002403 0.000413 -0.019339 -0.019134 0.006297 0.026407
#
#
# Mechanical properties :
#
#
# Convention : Reuss Voigt Hill
#
# Bulk Modulus (GPa) = 13.14002 49.47605 31.30804
# Shear Modulus (GPa) = 18.57346 39.04758 28.81052
#
# Velocity S-wave (km/s) = 2.91579 4.22773 3.63150
# Velocity P-wave (km/s) = 4.16540 6.81754 5.64931
#
# Compressibility (1/GPa) = 0.07610337
#
# Stress axis : x y z
#
# Youngs Moduli (GPa) = 135.06739 60.17935 15.22044
#
# Poissons Ratio (x) = 0.07542 -0.01162
# Poissons Ratio (y) = 0.16928 0.09619
# Poissons Ratio (z) = -0.10315 0.38031
#
# Static dielectric constant tensor:
#      x y z
#    x 1.795460 0.037650 -0.001210 
#    y 0.037650 1.813620 -0.024510 
#    z -0.001210 -0.024510 1.943500 
# 
# From -- ./inp_files/243502.got.cif
#   From: 2010.05.17/outbox.ucp.g08.bks.cvg/sg2_122_cif.got.tgz:243502.got - 2010.06.11 11:32:03.
