data_PCOD9074126
_publ_section_title
;
Structure prediction by ZEFSAII (Michael W. Deem and Ramdas Pophale) SiO2 
 PCOD9074126
Probable space group: P -1
;
_chemical_formula_sum "Si O2"
_cell_formula_units_Z 14
_cell_length_a 9.000000
_cell_length_b 9.000000
_cell_length_c 12.000000
_cell_angle_alpha 70.000000
_cell_angle_beta 120.000000
_cell_angle_gamma 70.000000
_cell_volume 614.029152
_symmetry_space_group_name_H-M "P -1"
_symmetry_group_IT_number 2
_symmetry_cell_setting 'triclinic'
loop_
_space_group_symop_operation_xyz
x,y,z
-x,-y,-z
loop_
_atom_site_type_symbol
_atom_site_label
_atom_site_fract_x
_atom_site_fract_y
_atom_site_fract_z
Si Si1 0.883533 0.948354 0.378190
Si Si2 0.863202 0.575356 0.164594
Si Si3 0.636470 0.769618 0.572536
Si Si4 0.892590 0.927357 0.127221
Si Si5 0.358835 0.790313 0.255823
Si Si6 0.680379 0.459713 0.300146
Si Si7 0.560860 0.708504 0.804791
O O1 0.848711 0.010586 0.217478
O O2 0.074037 0.706750 0.515558
O O3 0.639386 0.052396 0.305831
O O4 0.000000 0.000000 0.500000
O O5 0.895399 0.736980 0.170578
O O6 0.699731 0.591422 0.187809
O O7 0.103772 0.353769 0.319496
O O8 0.754952 0.619492 0.989773
O O9 0.502160 0.782481 0.412148
O O10 0.636370 0.670901 0.714566
O O11 0.500000 0.000000 0.500000
O O12 0.134996 0.852299 0.208075
O O13 0.729778 0.068455 0.926538
O O14 0.524486 0.571042 0.318637
O O15 0.571367 0.379561 0.209973
#
# Coordination Sequence:
#
# PCOD9074126 Si02
#       7
#     2   2   2   2   2   2   2
#     4  10  22  42  68  97 128 170 217 266 323 386
#     4  12  26  43  68 100 132 173 221 271 325 387
#     4  12  26  44  69  98 133 172 219 273 326 388
#     4  11  25  44  69  97 132 173 220 270 325 391
#     4  11  25  46  68  96 132 176 219 268 330 390
#     4  11  24  42  68  96 133 174 218 269 328 389
#     4  11  24  44  68  97 135 175 218 270 327 388
#
# _framework density 22.800219999999999
#
# number of rings (size 3 to 8) (size 9 to 14) (size 15 to 20)
#    0.000    0.857    0.000    6.857    0.000   12.000 
#    0.000    0.000    0.000    0.000    0.000    0.000 
#    0.000    0.000    0.000    0.000    0.000    0.000 
#
# Total GULP energy -78165.546875 kJ/mol
# GULP energy per Si atom -5583.253348 kJ/mol
# Density = 2.274833 g / cm^3
# Si number density = 22.800220 Si / 1000 Ang^3
#
#
#
# Elastic Constant Matrix: (Units=GPa)
#
#
# Indices 1 2 3 4 5 6 
#
# 1 78.0962 29.3986 33.6251 11.4351 -1.2373 -22.0562
# 2 29.3986 97.8718 50.1853 31.6625 8.7147 -12.3990
# 3 33.6251 50.1853 172.8555 49.8830 22.0371 -4.2484
# 4 11.4351 31.6625 49.8830 48.5139 -12.0809 -1.0903
# 5 -1.2373 8.7147 22.0371 -12.0809 45.0072 1.3350
# 6 -22.0562 -12.3990 -4.2484 -1.0903 1.3350 38.7150
#
#
#
# Elastic Compliance Matrix: (Units=1/GPa)
#
#
# Indices 1 2 3 4 5 6 
#
# 1 0.017699 -0.003689 -0.003375 0.002727 0.003333 0.008493
# 2 -0.003689 0.015745 0.000259 -0.011193 -0.006367 0.002874
# 3 -0.003375 0.000259 0.011424 -0.013457 -0.009329 -0.000644
# 4 0.002727 -0.011193 -0.013457 0.046366 0.021364 -0.002939
# 5 0.003333 -0.006367 -0.009329 0.021364 0.033897 -0.001731
# 6 0.008493 0.002874 -0.000644 -0.002939 -0.001731 0.031495
#
#
# Mechanical properties :
#
#
# Convention : Reuss Voigt Hill
#
# Bulk Modulus (GPa) = 31.99279 63.91573 47.95426
# Shear Modulus (GPa) = 27.67716 42.15485 34.91601
#
# Velocity S-wave (km/s) = 3.48789 4.30452 3.91754
# Velocity P-wave (km/s) = 5.50297 7.26629 6.44522
#
# Compressibility (1/GPa) = 0.03125704
#
# Stress axis : x y z
#
# Youngs Moduli (GPa) = 56.50135 63.51286 87.53791
#
# Poissons Ratio (x) = 0.23428 0.29545
# Poissons Ratio (y) = 0.20842 -0.02266
# Poissons Ratio (z) = 0.19070 -0.01644
#
# Static dielectric constant tensor:
#      x y z
#    x 1.855240 0.038980 -0.045000 
#    y 0.038980 1.952770 -0.061690 
#    z -0.045000 -0.061690 1.866190 
# 
# From -- ./inp_files/157242.got.cif
#   From: 2010.05.17/outbox.ucp.g08.bks.cvg/sg2_79_cif.got.tgz:157242.got - 2010.06.11 11:32:03.
