data_PCOD9074245
_publ_section_title
;
Structure prediction by ZEFSAII (Michael W. Deem and Ramdas Pophale) SiO2 
 PCOD9074245
Probable space group: P -1
;
_chemical_formula_sum "Si O2"
_cell_formula_units_Z 14
_cell_length_a 24.000000
_cell_length_b 9.000000
_cell_length_c 12.000000
_cell_angle_alpha 40.000000
_cell_angle_beta 30.000000
_cell_angle_gamma 30.000000
_cell_volume 646.664136
_symmetry_space_group_name_H-M "P -1"
_symmetry_group_IT_number 2
_symmetry_cell_setting 'triclinic'
loop_
_space_group_symop_operation_xyz
x,y,z
-x,-y,-z
loop_
_atom_site_type_symbol
_atom_site_label
_atom_site_fract_x
_atom_site_fract_y
_atom_site_fract_z
Si Si1 0.349902 0.595744 0.435957
Si Si2 0.773947 0.745442 0.155777
Si Si3 0.897790 0.331142 0.550084
Si Si4 0.742293 0.392283 0.154393
Si Si5 0.812758 0.842554 0.782086
Si Si6 0.109860 0.223440 0.848852
Si Si7 0.596476 0.631611 0.039563
O O1 0.327395 0.347295 0.588342
O O2 0.304242 0.623633 0.630574
O O3 0.262991 0.876894 0.335266
O O4 0.500392 0.543285 0.208726
O O5 0.790798 0.895928 0.144478
O O6 0.755619 0.906568 0.975941
O O7 0.939204 0.436888 0.043690
O O8 0.858203 0.578981 0.385062
O O9 0.750126 0.463731 0.799819
O O10 0.020483 0.299463 0.428338
O O11 0.000000 0.000000 0.500000
O O12 0.856984 0.049182 0.119890
O O13 0.796040 0.588438 0.935879
O O14 0.626222 0.534792 0.173767
O O15 0.500000 0.000000 0.000000
#
# Coordination Sequence:
#
# PCOD9074245 Si02
#       7
#     2   2   2   2   2   2   2
#     4  11  23  46  70 104 145 186 239 302 364 432
#     4   9  22  42  69 100 145 183 239 297 365 425
#     4  11  26  46  77 108 147 197 244 297 363 436
#     4  11  25  43  75 104 142 191 246 298 362 431
#     4  10  23  44  73 106 145 183 250 298 362 421
#     4  10  22  44  70 106 143 186 246 301 353 427
#     4  12  26  46  73 108 149 193 240 299 373 436
#
# _framework density 21.649569
#
# number of rings (size 3 to 8) (size 9 to 14) (size 15 to 20)
#    0.000    1.429    1.429    2.143    8.000    6.857 
#    0.000    3.571    0.000    0.000    0.000    0.000 
#    0.000    0.000    0.000    0.000    0.000    0.000 
#
# Total GULP energy -78014.681119 kJ/mol
# GULP energy per Si atom -5572.477223 kJ/mol
# Density = 2.160029 g / cm^3
# Si number density = 21.649569 Si / 1000 Ang^3
#
#
#
# Elastic Constant Matrix: (Units=GPa)
#
#
# Indices 1 2 3 4 5 6 
#
# 1 118.6246 25.0460 47.2396 -1.0236 1.2844 -18.9346
# 2 25.0460 91.6247 40.6364 -11.0042 12.5366 -10.1427
# 3 47.2396 40.6364 177.8955 -12.4555 -14.2260 -11.0078
# 4 -1.0236 -11.0042 -12.4555 39.9465 -11.4344 6.1648
# 5 1.2844 12.5366 -14.2260 -11.4344 52.9732 -10.4149
# 6 -18.9346 -10.1427 -11.0078 6.1648 -10.4149 41.0225
#
#
#
# Elastic Compliance Matrix: (Units=1/GPa)
#
#
# Indices 1 2 3 4 5 6 
#
# 1 0.010268 -0.001552 -0.002231 -0.001479 -0.000019 0.003974
# 2 -0.001552 0.013288 -0.002724 0.001706 -0.003326 0.000737
# 3 -0.002231 -0.002724 0.007308 0.002301 0.003306 0.000751
# 4 -0.001479 0.001706 0.002301 0.028234 0.005874 -0.002395
# 5 -0.000019 -0.003326 0.003306 0.005874 0.022796 0.004961
# 6 0.003974 0.000737 0.000751 -0.002395 0.004961 0.028215
#
#
# Mechanical properties :
#
#
# Convention : Reuss Voigt Hill
#
# Bulk Modulus (GPa) = 56.02572 68.22098 62.12335
# Shear Modulus (GPa) = 38.73766 45.13664 41.93715
#
# Velocity S-wave (km/s) = 4.23461 4.57100 4.40601
# Velocity P-wave (km/s) = 7.06001 7.70964 7.39197
#
# Compressibility (1/GPa) = 0.01784895
#
# Stress axis : x y z
#
# Youngs Moduli (GPa) = 97.38949 75.25554 136.83700
#
# Poissons Ratio (x) = 0.11683 0.30530
# Poissons Ratio (y) = 0.15119 0.37275
# Poissons Ratio (z) = 0.21729 0.20500
#
# Static dielectric constant tensor:
#      x y z
#    x 1.899630 0.038700 -0.005100 
#    y 0.038700 1.854680 0.014010 
#    z -0.005100 0.014010 1.769960 
# 
# From -- ./inp_files/474383.got.cif
#   From: 2010.05.17/outbox.ucp.g08.bks.cvg/sg2_238_cif.got.tgz:474383.got - 2010.06.11 11:32:03.
