data_PCOD9074909
_publ_section_title
;
Structure prediction by ZEFSAII (Michael W. Deem and Ramdas Pophale) SiO2 
 PCOD9074909
Probable space group: P -1
;
_chemical_formula_sum "Si O2"
_cell_formula_units_Z 14
_cell_length_a 12.000000
_cell_length_b 30.000000
_cell_length_c 30.000000
_cell_angle_alpha 10.000000
_cell_angle_beta 20.000000
_cell_angle_gamma 20.000000
_cell_volume 622.618477
_symmetry_space_group_name_H-M "P -1"
_symmetry_group_IT_number 2
_symmetry_cell_setting 'triclinic'
loop_
_space_group_symop_operation_xyz
x,y,z
-x,-y,-z
loop_
_atom_site_type_symbol
_atom_site_label
_atom_site_fract_x
_atom_site_fract_y
_atom_site_fract_z
Si Si1 0.244195 0.922290 0.215315
Si Si2 0.188074 0.451943 0.583888
Si Si3 0.878300 0.844434 0.657310
Si Si4 0.037248 0.698587 0.888044
Si Si5 0.107910 0.962284 0.855729
Si Si6 0.713184 0.650801 0.145620
Si Si7 0.665813 0.757447 0.644352
O O1 0.514910 0.647792 0.393141
O O2 0.329199 0.123060 0.022936
O O3 0.159800 0.033245 0.088236
O O4 0.886829 0.867842 0.416852
O O5 0.409997 0.504458 0.407097
O O6 0.951833 0.734238 0.406328
O O7 0.978078 0.229856 0.884571
O O8 0.951981 0.027100 0.409619
O O9 0.486277 0.864052 0.794118
O O10 0.011574 0.535238 0.896761
O O11 0.000000 0.000000 0.500000
O O12 0.400184 0.627614 0.846705
O O13 0.763634 0.746804 0.982742
O O14 0.062044 0.450430 0.225072
O O15 0.500000 0.000000 0.500000
#
# Coordination Sequence:
#
# PCOD9074909 Si02
#       7
#     2   2   2   2   2   2   2
#     4  11  22  36  60  98 140 176 215 248 316 410
#     4  11  25  39  61  96 138 177 217 247 318 407
#     4  12  28  48  72  97 122 170 234 290 337 377
#     4  12  24  44  69  95 135 172 218 278 339 381
#     4  12  24  41  64  91 135 177 216 269 322 380
#     4  11  24  37  64  99 141 175 213 257 320 412
#     4  11  21  35  58 101 143 179 208 254 324 412
#
# _framework density 22.485679999999999
#
# number of rings (size 3 to 8) (size 9 to 14) (size 15 to 20)
#    0.000    0.571    4.286    4.286    6.000    0.000 
#    0.000    0.000    0.000    5.143    0.000    0.000 
#    0.000    0.000    0.000    0.000    0.000    0.000 
#
# Total GULP energy -78217.177963 kJ/mol
# GULP energy per Si atom -5586.941283 kJ/mol
# Density = 2.243450 g / cm^3
# Si number density = 22.485680 Si / 1000 Ang^3
#
#
#
# Elastic Constant Matrix: (Units=GPa)
#
#
# Indices 1 2 3 4 5 6 
#
# 1 29.4123 -8.3913 3.8416 6.7588 -7.0580 10.5462
# 2 -8.3913 21.4660 18.9385 -6.8191 17.7036 12.5654
# 3 3.8416 18.9385 138.3985 9.4775 10.3797 14.8876
# 4 6.7588 -6.8191 9.4775 43.3112 21.2442 -2.5401
# 5 -7.0580 17.7036 10.3797 21.2442 40.8556 5.5097
# 6 10.5462 12.5654 14.8876 -2.5401 5.5097 16.8121
#
#
#
# Elastic Compliance Matrix: (Units=1/GPa)
#
#
# Indices 1 2 3 4 5 6 
#
# 1 -0.073240 -0.318057 0.019833 -0.102859 0.146291 0.202614
# 2 -0.318057 -0.666154 0.030657 -0.135038 0.218146 0.578360
# 3 0.019833 0.030657 0.007129 0.001358 -0.007098 -0.039136
# 4 -0.102859 -0.135038 0.001358 0.024869 0.005035 0.166356
# 5 0.146291 0.218146 -0.007098 0.005035 -0.012744 -0.243588
# 6 0.202614 0.578360 -0.039136 0.166356 -0.243588 -0.360267
#
#
# Mechanical properties :
#
#
# Convention : Reuss Voigt Hill
#
# Bulk Modulus (GPa) = -0.78902 24.22828 11.71963
# Shear Modulus (GPa) = -5.16667 31.85498 13.34415
#
# Velocity S-wave (km/s) = -1.51748 3.76796 2.43873
# Velocity P-wave (km/s) = 1.84986 5.45238 3.62674
#
# Compressibility (1/GPa) = -1.26739835
#
# Stress axis : x y z
#
# Youngs Moduli (GPa) = -13.65366 -1.50115 140.27066
#
# Poissons Ratio (x) = -0.47745 -2.78196
# Poissons Ratio (y) = -4.34264 -4.30033
# Poissons Ratio (z) = 0.27079 0.04602
#
# Static dielectric constant tensor:
#      x y z
#    x 1.865080 0.043540 0.055310 
#    y 0.043540 1.889000 0.039090 
#    z 0.055310 0.039090 1.873290 
# 
# From -- ./inp_files/75535.got.cif
#   From: 2010.05.17/outbox.ucp.g08.bks.cvg/sg2_38_cif.got.tgz:75535.got - 2010.06.11 11:32:03.
