data_PCOD9074120
_publ_section_title
;
Structure prediction by ZEFSAII (Michael W. Deem and Ramdas Pophale) SiO2 
 PCOD9074120
Probable space group: P -1
;
_chemical_formula_sum "Si O2"
_cell_formula_units_Z 16
_cell_length_a 15.000000
_cell_length_b 9.000000
_cell_length_c 9.000000
_cell_angle_alpha 100.000000
_cell_angle_beta 140.000000
_cell_angle_gamma 70.000000
_cell_volume 725.993766
_symmetry_space_group_name_H-M "P -1"
_symmetry_group_IT_number 2
_symmetry_cell_setting 'triclinic'
loop_
_space_group_symop_operation_xyz
x,y,z
-x,-y,-z
loop_
_atom_site_type_symbol
_atom_site_label
_atom_site_fract_x
_atom_site_fract_y
_atom_site_fract_z
Si Si1 0.158921 0.182786 0.839548
Si Si2 0.432665 0.277544 0.307615
Si Si3 0.610647 0.054899 0.261597
Si Si4 0.473190 0.596972 0.270635
Si Si5 0.821992 0.185299 0.174375
Si Si6 0.677791 0.369355 0.304119
Si Si7 0.073960 0.550814 0.244873
Si Si8 0.892951 0.748960 0.547779
O O1 0.135869 0.270577 0.666328
O O2 0.032209 0.280984 0.802427
O O3 0.161174 0.998792 0.793246
O O4 0.298052 0.217295 0.090198
O O5 0.558456 0.127539 0.370422
O O6 0.440446 0.439072 0.262789
O O7 0.435399 0.330570 0.489312
O O8 0.634928 0.210178 0.244414
O O9 0.754666 0.902547 0.440207
O O10 0.500000 0.000000 0.000000
O O11 0.544848 0.537063 0.191068
O O12 0.323251 0.742767 0.094059
O O13 0.782226 0.314237 0.283281
O O14 0.960040 0.201818 0.264036
O O15 0.777468 0.404797 0.570633
O O16 0.095544 0.405981 0.366195
O O17 0.000000 0.500000 0.000000
#
# Coordination Sequence:
#
# PCOD9074120 Si02
#       8
#     2   2   2   2   2   2   2   2
#     4  12  23  44  72  98 137 180 228 287 334 408
#     4  10  22  42  67  96 141 181 231 273 344 402
#     4  11  22  42  71 102 136 177 227 287 335 404
#     4  10  24  41  64 100 138 185 222 282 340 410
#     4  12  24  42  71 102 134 179 232 283 342 405
#     4  11  23  42  67  98 141 174 232 281 336 405
#     4  12  28  45  68 102 141 181 230 284 345 415
#     4  12  25  44  72 100 133 181 228 280 348 398
#
# _framework density 22.038757
#
# number of rings (size 3 to 8) (size 9 to 14) (size 15 to 20)
#    0.000    0.750    3.750    3.375    1.750    5.500 
#    0.000    1.875    0.000    0.000    0.000    0.000 
#    0.000    0.000    0.000    0.000    0.000    0.000 
#
# Total GULP energy -89170.797979 kJ/mol
# GULP energy per Si atom -5573.174874 kJ/mol
# Density = 2.198860 g / cm^3
# Si number density = 22.038757 Si / 1000 Ang^3
#
#
#
# Elastic Constant Matrix: (Units=GPa)
#
#
# Indices 1 2 3 4 5 6 
#
# 1 33.0991 25.8370 17.1147 19.9311 -3.4604 -27.4202
# 2 25.8370 121.4441 36.4732 16.8536 -7.0761 -11.2329
# 3 17.1147 36.4732 66.4724 31.6717 -10.0136 -4.2030
# 4 19.9311 16.8536 31.6717 32.5785 0.0376 9.5706
# 5 -3.4604 -7.0761 -10.0136 0.0376 24.5192 6.0403
# 6 -27.4202 -11.2329 -4.2030 9.5706 6.0403 50.8584
#
#
#
# Elastic Compliance Matrix: (Units=1/GPa)
#
#
# Indices 1 2 3 4 5 6 
#
# 1 -0.131482 0.013023 -0.057846 0.159687 -0.013734 -0.101211
# 2 0.013023 0.008745 0.000960 -0.016954 0.001822 0.012006
# 3 -0.057846 0.000960 0.011363 0.034792 0.005885 -0.037283
# 4 0.159687 -0.016954 0.034792 -0.123745 0.005471 0.107862
# 5 -0.013734 0.001822 0.005885 0.005471 0.044941 -0.012883
# 6 -0.101211 0.012006 -0.037283 0.107862 -0.012883 -0.054102
#
#
# Mechanical properties :
#
#
# Convention : Reuss Voigt Hill
#
# Bulk Modulus (GPa) = -5.02258 42.20726 18.59234
# Shear Modulus (GPa) = -22.42929 31.03060 4.30066
#
# Velocity S-wave (km/s) = -3.19363 3.75641 1.39844
# Velocity P-wave (km/s) = 3.98535 6.16499 3.32596
#
# Compressibility (1/GPa) = -0.19910082
#
# Stress axis : x y z
#
# Youngs Moduli (GPa) = -7.60560 114.35541 88.00878
#
# Poissons Ratio (x) = -1.48925 5.09098
# Poissons Ratio (y) = 0.09905 -0.08451
# Poissons Ratio (z) = -0.43996 -0.10982
#
# Static dielectric constant tensor:
#      x y z
#    x 1.974910 -0.056840 0.109960 
#    y -0.056840 1.723450 -0.056410 
#    z 0.109960 -0.056410 2.034520 
# 
# From -- ./inp_files/299008.got.cif
#   From: 2010.05.17/outbox.ucp.g08.bks.cvg/sg2_150_cif.got.tgz:299008.got - 2010.06.11 11:32:03.
