data_PCOD9074354
_publ_section_title
;
Structure prediction by ZEFSAII (Michael W. Deem and Ramdas Pophale) SiO2 
 PCOD9074354
Probable space group: P -1
;
_chemical_formula_sum "Si O2"
_cell_formula_units_Z 16
_cell_length_a 12.000000
_cell_length_b 9.000000
_cell_length_c 15.000000
_cell_angle_alpha 110.000000
_cell_angle_beta 150.000000
_cell_angle_gamma 70.000000
_cell_volume 757.522634
_symmetry_space_group_name_H-M "P -1"
_symmetry_group_IT_number 2
_symmetry_cell_setting 'triclinic'
loop_
_space_group_symop_operation_xyz
x,y,z
-x,-y,-z
loop_
_atom_site_type_symbol
_atom_site_label
_atom_site_fract_x
_atom_site_fract_y
_atom_site_fract_z
Si Si1 0.013333 0.115883 0.664317
Si Si2 0.666585 0.111285 0.042366
Si Si3 0.419458 0.282677 0.664852
Si Si4 0.264479 0.329541 0.770311
Si Si5 0.015523 0.648217 0.741165
Si Si6 0.522827 0.054930 0.287805
Si Si7 0.063182 0.579366 0.198448
Si Si8 0.644643 0.569128 0.777467
O O1 0.081377 0.209167 0.642698
O O2 0.789641 0.035658 0.475856
O O3 0.952936 0.257485 0.723574
O O4 0.206534 0.987983 0.810902
O O5 0.841165 0.202880 0.124892
O O6 0.471751 0.252094 0.959158
O O7 0.560279 0.993158 0.876760
O O8 0.346282 0.324271 0.724545
O O9 0.202680 0.288963 0.452791
O O10 0.531839 0.436729 0.733363
O O11 0.535853 0.096467 0.718396
O O12 0.161614 0.504432 0.761418
O O13 0.962775 0.565180 0.780453
O O14 0.458223 0.250159 0.286683
O O15 0.281756 0.528906 0.280941
O O16 0.860540 0.598939 0.991952
#
# Coordination Sequence:
#
# PCOD9074354 Si02
#       8
#     2   2   2   2   2   2   2   2
#     4  11  22  44  65  98 134 173 221 270 333 392
#     4  11  22  41  63  99 134 173 223 269 328 395
#     4  11  24  43  66 101 137 173 223 273 328 398
#     4  10  23  40  66  96 131 181 216 272 330 389
#     4  11  22  43  66  96 136 173 224 272 329 399
#     4  11  24  43  69  98 136 174 222 275 328 392
#     4  10  23  43  71  96 130 175 222 274 334 396
#     4  11  23  46  69  98 134 174 220 280 332 389
#
# _framework density 21.121480999999999
#
# number of rings (size 3 to 8) (size 9 to 14) (size 15 to 20)
#    0.000    1.250    2.500    4.125    0.000    5.000 
#    9.000    3.125    0.000    0.000    0.000    0.000 
#    0.000    0.000    0.000    0.000    0.000    0.000 
#
# Total GULP energy -89199.168239 kJ/mol
# GULP energy per Si atom -5574.948015 kJ/mol
# Density = 2.107341 g / cm^3
# Si number density = 21.121481 Si / 1000 Ang^3
#
#
#
# Elastic Constant Matrix: (Units=GPa)
#
#
# Indices 1 2 3 4 5 6 
#
# 1 81.6256 16.7595 -22.2315 -2.2544 -8.3988 9.3492
# 2 16.7595 119.0219 3.0603 -21.6473 1.7322 19.8064
# 3 -22.2315 3.0603 76.0062 -13.8424 -2.2129 -1.7792
# 4 -2.2544 -21.6473 -13.8424 46.6509 10.7394 -2.1707
# 5 -8.3988 1.7322 -2.2129 10.7394 12.9741 0.0824
# 6 9.3492 19.8064 -1.7792 -2.1707 0.0824 32.4883
#
#
#
# Elastic Compliance Matrix: (Units=1/GPa)
#
#
# Indices 1 2 3 4 5 6 
#
# 1 0.015608 -0.002400 0.004584 -0.002126 0.012984 -0.002952
# 2 -0.002400 0.010997 -0.000323 0.006587 -0.008494 -0.005569
# 3 0.004584 -0.000323 0.015323 0.004105 0.002226 -0.000015
# 4 -0.002126 0.006587 0.004105 0.032021 -0.028055 -0.000969
# 5 0.012984 -0.008494 0.002226 -0.028055 0.110222 -0.000590
# 6 -0.002952 -0.005569 -0.000015 -0.000969 -0.000590 0.034961
#
#
# Mechanical properties :
#
#
# Convention : Reuss Voigt Hill
#
# Bulk Modulus (GPa) = 21.90643 30.20338 26.05490
# Shear Modulus (GPa) = 21.68020 37.02702 29.35361
#
# Velocity S-wave (km/s) = 3.20731 4.19149 3.73198
# Velocity P-wave (km/s) = 4.91018 6.14456 5.56172
#
# Compressibility (1/GPa) = 0.04564870
#
# Stress axis : x y z
#
# Youngs Moduli (GPa) = 64.07133 90.93791 65.26307
#
# Poissons Ratio (x) = 0.21824 -0.29914
# Poissons Ratio (y) = 0.15376 0.02106
# Poissons Ratio (z) = -0.29367 0.02935
#
# Static dielectric constant tensor:
#      x y z
#    x 1.783150 0.004320 0.052380 
#    y 0.004320 1.790650 0.020380 
#    z 0.052380 0.020380 1.802980 
# 
# From -- ./inp_files/306008.got.cif
#   From: 2010.05.17/outbox.ucp.g08.bks.cvg/sg2_154_cif.got.tgz:306008.got - 2010.06.11 11:32:03.
