data_PCOD9074348
_publ_section_title
;
Structure prediction by ZEFSAII (Michael W. Deem and Ramdas Pophale) SiO2 
 PCOD9074348
Probable space group: P -1
;
_chemical_formula_sum "Si O2"
_cell_formula_units_Z 14
_cell_length_a 12.608960
_cell_length_b 14.975204
_cell_length_c 19.760153
_cell_angle_alpha 36.456280
_cell_angle_beta 33.940608
_cell_angle_gamma 19.673907
_cell_volume 696.024454
_symmetry_space_group_name_H-M "P -1"
_symmetry_group_IT_number 2
_symmetry_cell_setting 'triclinic'
loop_
_space_group_symop_operation_xyz
x,y,z
-x,-y,-z
loop_
_atom_site_type_symbol
_atom_site_label
_atom_site_fract_x
_atom_site_fract_y
_atom_site_fract_z
Si Si1 0.489851 0.609423 0.870661
Si Si2 0.387932 0.109399 0.171341
Si Si3 0.839906 0.948946 0.144640
Si Si4 0.891852 0.204174 0.173363
Si Si5 0.540604 0.380472 0.739586
Si Si6 0.785207 0.288562 0.421692
Si Si7 0.812383 0.689631 0.080090
O O1 0.206140 0.748913 0.882018
O O2 0.855249 0.344412 0.807137
O O3 0.426388 0.818967 0.801386
O O4 0.500000 0.500000 0.000000
O O5 0.077642 0.222672 0.300322
O O6 0.197831 0.385846 0.079285
O O7 0.665680 0.973806 0.161478
O O8 0.572681 0.889696 0.149200
O O9 0.000000 0.000000 0.000000
O O10 0.571420 0.460806 0.230610
O O11 0.081935 0.931752 0.265465
O O12 0.140996 0.184623 0.060289
O O13 0.422770 0.562636 0.629106
O O14 0.325952 0.366438 0.850719
O O15 0.500000 0.500000 0.500000
O O16 0.000000 0.000000 0.500000
#
# Coordination Sequence:
#
# PCOD9074348 Si02
#       7
#     2   2   2   2   2   2   2
#     4  10  20  32  50  76 112 155 192 219 257 322
#     4  11  21  35  59  87 116 155 192 234 290 340
#     4  10  18  32  50  80 115 147 185 228 269 331
#     4  12  21  35  54  83 123 162 185 225 282 350
#     4  11  23  36  55  84 113 152 197 233 291 354
#     4  11  23  42  62  84 111 146 198 256 292 334
#     4  11  20  34  52  82 123 157 183 219 276 365
#
# _framework density 20.114235000000001
#
# number of rings (size 3 to 8) (size 9 to 14) (size 15 to 20)
#    0.000    1.143    0.000   11.143    0.000    0.000 
#    0.000    0.000    0.000    0.000    0.000   20.000 
#    0.000    0.000    0.000    0.000    0.000    0.000 
#
# Total GULP energy -78096.780477 kJ/mol
# GULP energy per Si atom -5578.341463 kJ/mol
# Density = 2.006845 g / cm^3
# Si number density = 20.114235 Si / 1000 Ang^3
#
#
#
# Elastic Constant Matrix: (Units=GPa)
#
#
# Indices 1 2 3 4 5 6 
#
# 1 102.3089 33.6042 12.3087 -3.7634 18.6024 6.3445
# 2 33.6042 155.4407 22.7369 -21.1034 5.9204 26.6019
# 3 12.3087 22.7369 53.9410 -13.5969 11.5732 7.5962
# 4 -3.7634 -21.1034 -13.5969 38.2433 -2.2338 5.5160
# 5 18.6024 5.9204 11.5732 -2.2338 17.4286 1.9649
# 6 6.3445 26.6019 7.5962 5.5160 1.9649 41.1645
#
#
#
# Elastic Compliance Matrix: (Units=1/GPa)
#
#
# Indices 1 2 3 4 5 6 
#
# 1 0.012943 -0.002528 0.000840 -0.000651 -0.013622 0.000221
# 2 -0.002528 0.008794 -0.001472 0.005031 0.001987 -0.005790
# 3 0.000840 -0.001472 0.024807 0.007775 -0.015414 -0.004062
# 4 -0.000651 0.005031 0.007775 0.032859 -0.000958 -0.008943
# 5 -0.013622 0.001987 -0.015414 -0.000958 0.081364 -0.000095
# 6 0.000221 -0.005790 -0.004062 -0.008943 -0.000095 0.029953
#
#
# Mechanical properties :
#
#
# Convention : Reuss Voigt Hill
#
# Bulk Modulus (GPa) = 24.86224 49.88780 37.37502
# Shear Modulus (GPa) = 23.75869 35.56999 29.66434
#
# Velocity S-wave (km/s) = 3.44057 4.20980 3.84447
# Velocity P-wave (km/s) = 5.30761 6.96318 6.19099
#
# Compressibility (1/GPa) = 0.04022163
#
# Stress axis : x y z
#
# Youngs Moduli (GPa) = 77.26281 113.71827 40.31135
#
# Poissons Ratio (x) = 0.28751 -0.03385
# Poissons Ratio (y) = 0.19534 0.05935
# Poissons Ratio (z) = -0.06488 0.16742
#
# Static dielectric constant tensor:
#      x y z
#    x 1.721900 0.005040 0.036370 
#    y 0.005040 1.793420 -0.050760 
#    z 0.036370 -0.050760 1.716240 
# 
# From -- ./inp_files/364242.got.cif
#   From: 2010.05.17/outbox.cif.g08.bks.cpg/sg2_183_cif.got.tgz:364242.got - 2010.06.03 11:33:40.
