data_PCOD9074032
_publ_section_title
;
Structure prediction by ZEFSAII (Michael W. Deem and Ramdas Pophale) SiO2 
 PCOD9074032
Probable space group: P -1
;
_chemical_formula_sum "Si O2"
_cell_formula_units_Z 16
_cell_length_a 9.000000
_cell_length_b 9.000000
_cell_length_c 15.000000
_cell_angle_alpha 100.000000
_cell_angle_beta 40.000000
_cell_angle_gamma 90.000000
_cell_volume 751.948787
_symmetry_space_group_name_H-M "P -1"
_symmetry_group_IT_number 2
_symmetry_cell_setting 'triclinic'
loop_
_space_group_symop_operation_xyz
x,y,z
-x,-y,-z
loop_
_atom_site_type_symbol
_atom_site_label
_atom_site_fract_x
_atom_site_fract_y
_atom_site_fract_z
Si Si1 0.340712 0.494046 0.873089
Si Si2 0.240455 0.471828 0.591073
Si Si3 0.053908 0.046757 0.697364
Si Si4 0.418146 0.765545 0.145803
Si Si5 0.872909 0.692917 0.197845
Si Si6 0.187139 0.244473 0.196251
Si Si7 0.660882 0.688713 0.660337
Si Si8 0.725693 0.009711 0.598863
O O1 0.521903 0.402976 0.853690
O O2 0.277595 0.366931 0.818893
O O3 0.441807 0.613000 0.777789
O O4 0.128019 0.594947 0.038797
O O5 0.500000 0.500000 0.500000
O O6 0.199840 0.357382 0.676556
O O7 0.221152 0.417804 0.490290
O O8 0.033255 0.621515 0.715673
O O9 0.136562 0.125593 0.757191
O O10 0.845347 0.181490 0.766190
O O11 0.245620 0.981977 0.522902
O O12 0.913449 0.912130 0.770409
O O13 0.413617 0.874211 0.248381
O O14 0.604367 0.771077 0.978020
O O15 0.245143 0.285043 0.278011
O O16 0.635601 0.854674 0.644558
O O17 0.000000 0.000000 0.500000
#
# Coordination Sequence:
#
# PCOD9074032 Si02
#       8
#     2   2   2   2   2   2   2   2
#     4  11  26  43  70 101 136 188 233 279 344 403
#     4  12  26  47  68 101 138 181 233 284 341 414
#     4  11  24  43  71 100 142 179 226 283 346 408
#     4  11  24  44  68 102 143 175 230 285 340 410
#     4  11  24  48  65  97 145 184 230 285 337 411
#     4  12  26  44  69 106 135 182 228 284 351 405
#     4  12  24  42  74 103 137 176 230 289 344 406
#     4  10  22  41  65 100 141 174 216 278 348 401
#
# _framework density 21.278044999999999
#
# number of rings (size 3 to 8) (size 9 to 14) (size 15 to 20)
#    0.000    0.750    6.250    1.500    5.250    1.000 
#    2.250    1.875    0.000    0.000    0.000    0.000 
#    0.000    0.000    0.000    0.000    0.000    0.000 
#
# Total GULP energy -89120.339752 kJ/mol
# GULP energy per Si atom -5570.021235 kJ/mol
# Density = 2.122962 g / cm^3
# Si number density = 21.278045 Si / 1000 Ang^3
#
#
#
# Elastic Constant Matrix: (Units=GPa)
#
#
# Indices 1 2 3 4 5 6 
#
# 1 57.7549 21.6211 30.7666 11.5557 20.2587 22.6601
# 2 21.6211 65.7805 30.9068 -9.5041 -1.5918 19.5356
# 3 30.7666 30.9068 163.2322 -8.9385 35.4860 7.3663
# 4 11.5557 -9.5041 -8.9385 37.1354 2.3917 12.0354
# 5 20.2587 -1.5918 35.4860 2.3917 43.3894 10.0543
# 6 22.6601 19.5356 7.3663 12.0354 10.0543 40.2602
#
#
#
# Elastic Compliance Matrix: (Units=1/GPa)
#
#
# Indices 1 2 3 4 5 6 
#
# 1 0.029638 -0.008276 -0.001912 -0.008838 -0.010454 -0.007063
# 2 -0.008276 0.025966 -0.004486 0.011770 0.010935 -0.013370
# 3 -0.001912 -0.004486 0.008833 0.001021 -0.007282 0.003150
# 4 -0.008838 0.011770 0.001021 0.036888 0.004733 -0.013133
# 5 -0.010454 0.010935 -0.007282 0.004733 0.035992 -0.008493
# 6 -0.007063 -0.013370 0.003150 -0.013133 -0.008493 0.040772
#
#
# Mechanical properties :
#
#
# Convention : Reuss Voigt Hill
#
# Bulk Modulus (GPa) = 28.49861 50.37294 39.43578
# Shear Modulus (GPa) = 22.81742 37.72186 30.26964
#
# Velocity S-wave (km/s) = 3.27822 4.21504 3.77580
# Velocity P-wave (km/s) = 5.26797 6.88577 6.13047
#
# Compressibility (1/GPa) = 0.03508943
#
# Stress axis : x y z
#
# Youngs Moduli (GPa) = 33.74090 38.51258 113.21441
#
# Poissons Ratio (x) = 0.31871 0.21645
# Poissons Ratio (y) = 0.27922 0.50786
# Poissons Ratio (z) = 0.06451 0.17276
#
# Static dielectric constant tensor:
#      x y z
#    x 1.816230 0.017100 -0.024130 
#    y 0.017100 1.843210 0.025560 
#    z -0.024130 0.025560 1.760980 
# 
# From -- ./inp_files/495112.got.cif
#   From: 2010.05.17/outbox.ucp.g08.bks.cvg/sg2_248_cif.got.tgz:495112.got - 2010.06.11 11:32:03.
