data_PCOD9074755
_publ_section_title
;
Structure prediction by ZEFSAII (Michael W. Deem and Ramdas Pophale) SiO2 
 PCOD9074755
Probable space group: P -1
;
_chemical_formula_sum "Si O2"
_cell_formula_units_Z 16
_cell_length_a 12.000000
_cell_length_b 15.000000
_cell_length_c 15.000000
_cell_angle_alpha 40.000000
_cell_angle_beta 120.000000
_cell_angle_gamma 150.000000
_cell_volume 747.221570
_symmetry_space_group_name_H-M "P -1"
_symmetry_group_IT_number 2
_symmetry_cell_setting 'triclinic'
loop_
_space_group_symop_operation_xyz
x,y,z
-x,-y,-z
loop_
_atom_site_type_symbol
_atom_site_label
_atom_site_fract_x
_atom_site_fract_y
_atom_site_fract_z
Si Si1 0.254566 0.734263 0.671973
Si Si2 0.447823 0.451320 0.879473
Si Si3 0.802109 0.729111 0.524705
Si Si4 0.179457 0.353317 0.000587
Si Si5 0.363401 0.871235 0.141345
Si Si6 0.533288 0.320256 0.584848
Si Si7 0.635309 0.818543 0.106746
Si Si8 0.344570 0.119109 0.477816
O O1 0.280190 0.605168 0.826621
O O2 0.266571 0.885487 0.620033
O O3 0.951575 0.445788 0.738306
O O4 0.500000 0.000000 0.500000
O O5 0.268832 0.317683 0.993715
O O6 0.316038 0.245498 0.903610
O O7 0.528660 0.682346 0.705940
O O8 0.693532 0.587209 0.903884
O O9 0.768312 0.612389 0.507927
O O10 0.706154 0.794743 0.413717
O O11 0.595934 0.463250 0.712000
O O12 0.080579 0.961474 0.500242
O O13 0.872429 0.067407 0.079191
O O14 0.488259 0.856195 0.252679
O O15 0.500000 0.000000 0.000000
O O16 0.417071 0.078799 0.035688
O O17 0.548190 0.325344 0.480908
#
# Coordination Sequence:
#
# PCOD9074755 Si02
#       8
#     2   2   2   2   2   2   2   2
#     4  11  23  45  68  95 135 177 217 277 331 391
#     4  11  24  42  65  94 127 168 224 264 326 388
#     4  11  24  42  64  98 131 168 215 272 326 391
#     4  10  25  43  64  91 128 175 211 274 325 385
#     4  11  23  45  66  98 137 176 217 273 334 397
#     4  11  24  40  66  97 131 176 213 272 331 389
#     4  11  23  42  65  92 131 167 216 265 325 389
#     4  12  24  41  68  97 132 167 223 268 330 398
#
# _framework density 21.412658
#
# number of rings (size 3 to 8) (size 9 to 14) (size 15 to 20)
#    0.000    1.000    5.000    0.750    5.250    0.000 
#    0.000    1.875    0.000    0.000    0.000    0.000 
#    0.000    0.000    0.000    0.000    0.000    0.000 
#
# Total GULP energy -89200.202486 kJ/mol
# GULP energy per Si atom -5575.012655 kJ/mol
# Density = 2.136392 g / cm^3
# Si number density = 21.412658 Si / 1000 Ang^3
#
#
#
# Elastic Constant Matrix: (Units=GPa)
#
#
# Indices 1 2 3 4 5 6 
#
# 1 74.9718 8.2813 18.7222 4.1530 27.2007 1.4778
# 2 8.2813 77.9389 27.7532 18.6706 3.4591 3.3438
# 3 18.7222 27.7532 91.5993 13.1526 18.8001 7.3342
# 4 4.1530 18.6706 13.1526 33.9284 13.3331 9.8434
# 5 27.2007 3.4591 18.8001 13.3331 48.4820 -1.3621
# 6 1.4778 3.3438 7.3342 9.8434 -1.3621 31.7556
#
#
#
# Elastic Compliance Matrix: (Units=1/GPa)
#
#
# Indices 1 2 3 4 5 6 
#
# 1 0.017415 -0.001794 -0.001318 0.003986 -0.010284 -0.001994
# 2 -0.001794 0.016572 -0.004342 -0.009599 0.004218 0.002498
# 3 -0.001318 -0.004342 0.013630 -0.000278 -0.004236 -0.002725
# 4 0.003986 -0.009599 -0.000278 0.043645 -0.013819 -0.013232
# 5 -0.010284 0.004218 -0.004236 -0.013819 0.031725 0.006657
# 6 -0.001994 0.002498 -0.002725 -0.013232 0.006657 0.036337
#
#
# Mechanical properties :
#
#
# Convention : Reuss Voigt Hill
#
# Bulk Modulus (GPa) = 30.57228 39.33591 34.95410
# Shear Modulus (GPa) = 27.00725 35.48343 31.24534
#
# Velocity S-wave (km/s) = 3.55530 4.07519 3.82409
# Velocity P-wave (km/s) = 5.58231 6.36814 5.98813
#
# Compressibility (1/GPa) = 0.03270937
#
# Stress axis : x y z
#
# Youngs Moduli (GPa) = 57.42076 60.34118 73.37026
#
# Poissons Ratio (x) = 0.10826 0.09670
# Poissons Ratio (y) = 0.10302 0.31856
# Poissons Ratio (z) = 0.07568 0.26199
#
# Static dielectric constant tensor:
#      x y z
#    x 1.852340 -0.014130 -0.038790 
#    y -0.014130 1.796360 0.016960 
#    z -0.038790 0.016960 1.776740 
# 
# From -- ./inp_files/522283.got.cif
#   From: 2010.05.17/outbox.ucp.g08.bks.cvg/sg2_262_cif.got.tgz:522283.got - 2010.06.11 11:32:03.
