data_PCOD9074024
_publ_section_title
;
Structure prediction by ZEFSAII (Michael W. Deem and Ramdas Pophale) SiO2 
 PCOD9074024
Probable space group: P -1
;
_chemical_formula_sum "Si O2"
_cell_formula_units_Z 14
_cell_length_a 12.000000
_cell_length_b 15.000000
_cell_length_c 15.000000
_cell_angle_alpha 160.000000
_cell_angle_beta 50.000000
_cell_angle_gamma 130.000000
_cell_volume 699.621350
_symmetry_space_group_name_H-M "P -1"
_symmetry_group_IT_number 2
_symmetry_cell_setting 'triclinic'
loop_
_space_group_symop_operation_xyz
x,y,z
-x,-y,-z
loop_
_atom_site_type_symbol
_atom_site_label
_atom_site_fract_x
_atom_site_fract_y
_atom_site_fract_z
Si Si1 0.704741 0.589298 0.745114
Si Si2 0.574272 0.780843 0.502872
Si Si3 0.896021 0.309336 0.078501
Si Si4 0.711639 0.151798 0.195426
Si Si5 0.351695 0.011646 0.533797
Si Si6 0.207069 0.435348 0.115816
Si Si7 0.890244 0.867783 0.511356
O O1 0.527835 0.489312 0.731397
O O2 0.770411 0.369927 0.445658
O O3 0.744678 0.590382 0.830072
O O4 0.752184 0.870233 0.938491
O O5 0.464183 0.878357 0.723764
O O6 0.607548 0.951676 0.556518
O O7 0.730618 0.782182 0.468612
O O8 0.761522 0.246036 0.159130
O O9 0.919313 0.593658 0.284169
O O10 0.037547 0.321119 0.080649
O O11 0.889222 0.084914 0.794692
O O12 0.500000 0.000000 0.500000
O O13 0.244507 0.741236 0.355393
O O14 0.289456 0.262276 0.842725
O O15 0.000000 0.000000 0.500000
#
# Coordination Sequence:
#
# PCOD9074024 Si02
#       7
#     2   2   2   2   2   2   2
#     4  10  22  41  64 101 127 170 216 272 331 374
#     4  10  25  41  69  94 135 167 224 273 322 382
#     4  12  27  46  67  97 133 177 218 263 325 396
#     4  10  24  43  65 100 127 173 222 264 332 379
#     4  12  23  40  68 102 133 167 218 270 331 386
#     4  12  24  41  67  99 136 171 217 271 329 389
#     4  12  27  47  68  96 132 173 219 268 329 387
#
# _framework density 20.010824
#
# number of rings (size 3 to 8) (size 9 to 14) (size 15 to 20)
#    0.857    0.000    1.429    6.000    4.000    2.286 
#    0.000    0.000    0.000    0.000    0.000    0.000 
#    0.000    0.000    0.000    0.000    0.000    0.000 
#
# Total GULP energy -78128.803435 kJ/mol
# GULP energy per Si atom -5580.628817 kJ/mol
# Density = 1.996528 g / cm^3
# Si number density = 20.010824 Si / 1000 Ang^3
#
#
#
# Elastic Constant Matrix: (Units=GPa)
#
#
# Indices 1 2 3 4 5 6 
#
# 1 120.4552 28.2273 25.0994 -2.2876 20.5860 6.2847
# 2 28.2273 138.2080 48.6400 -6.0420 10.2348 -31.3086
# 3 25.0994 48.6400 127.4115 12.4275 15.7940 -10.7632
# 4 -2.2876 -6.0420 12.4275 40.4028 -6.1186 -2.2165
# 5 20.5860 10.2348 15.7940 -6.1186 19.3797 1.2074
# 6 6.2847 -31.3086 -10.7632 -2.2165 1.2074 18.9723
#
#
#
# Elastic Compliance Matrix: (Units=1/GPa)
#
#
# Indices 1 2 3 4 5 6 
#
# 1 0.011413 -0.003831 -0.000197 -0.001908 -0.009931 -0.009805
# 2 -0.003831 0.015054 -0.003084 0.004105 -0.001626 0.024945
# 3 -0.000197 -0.003084 0.010692 -0.004996 -0.008515 0.001000
# 4 -0.001908 0.004105 -0.004996 0.029106 0.012673 0.007166
# 5 -0.009931 -0.001626 -0.008515 0.012673 0.074415 -0.007479
# 6 -0.009805 0.024945 0.001000 0.007166 -0.007479 0.099002
#
#
# Mechanical properties :
#
#
# Convention : Reuss Voigt Hill
#
# Bulk Modulus (GPa) = 43.60008 65.55646 54.57827
# Shear Modulus (GPa) = 19.11677 34.69149 26.90413
#
# Velocity S-wave (km/s) = 3.09418 4.16821 3.67069
# Velocity P-wave (km/s) = 5.88225 7.48311 6.73044
#
# Compressibility (1/GPa) = 0.02293574
#
# Stress axis : x y z
#
# Youngs Moduli (GPa) = 87.61767 66.42817 93.52778
#
# Poissons Ratio (x) = 0.25447 0.01843
# Poissons Ratio (y) = 0.33564 0.28843
# Poissons Ratio (z) = 0.01726 0.20486
#
# Static dielectric constant tensor:
#      x y z
#    x 1.722720 0.030850 -0.044040 
#    y 0.030850 1.720770 -0.020270 
#    z -0.044040 -0.020270 1.732470 
# 
# From -- ./inp_files/91944.got.cif
#   From: 2010.05.17/outbox.ucp.g08.bks.cvg/sg2_46_cif.got.tgz:91944.got - 2010.06.11 11:32:03.
