data_PCOD9074313
_publ_section_title
;
Structure prediction by ZEFSAII (Michael W. Deem and Ramdas Pophale) SiO2 
 PCOD9074313
Probable space group: P -1
;
_chemical_formula_sum "Si O2"
_cell_formula_units_Z 14
_cell_length_a 15.000000
_cell_length_b 9.000000
_cell_length_c 15.000000
_cell_angle_alpha 130.000000
_cell_angle_beta 30.000000
_cell_angle_gamma 110.000000
_cell_volume 642.379314
_symmetry_space_group_name_H-M "P -1"
_symmetry_group_IT_number 2
_symmetry_cell_setting 'triclinic'
loop_
_space_group_symop_operation_xyz
x,y,z
-x,-y,-z
loop_
_atom_site_type_symbol
_atom_site_label
_atom_site_fract_x
_atom_site_fract_y
_atom_site_fract_z
Si Si1 0.999716 0.378334 0.361460
Si Si2 0.019046 0.046333 0.853601
Si Si3 0.323259 0.600244 0.908321
Si Si4 0.610963 0.795109 0.748392
Si Si5 0.358733 0.834744 0.643124
Si Si6 0.835040 0.874682 0.414561
Si Si7 0.416972 0.224207 0.828298
O O1 0.000000 0.500000 0.500000
O O2 0.986186 0.150334 0.277188
O O3 0.802273 0.571429 0.547693
O O4 0.216519 0.312457 0.099752
O O5 0.202771 0.931854 0.727676
O O6 0.074960 0.191463 0.794356
O O7 0.791735 0.174916 0.154170
O O8 0.433294 0.741776 0.859395
O O9 0.426285 0.414570 0.665029
O O10 0.390273 0.424019 0.865138
O O11 0.068339 0.783485 0.215293
O O12 0.720174 0.810310 0.566966
O O13 0.500000 0.000000 0.000000
O O14 0.420501 0.016306 0.690130
O O15 0.628745 0.128926 0.667100
#
# Coordination Sequence:
#
# PCOD9074313 Si02
#       7
#     2   2   2   2   2   2   2
#     4  11  23  46  78 103 144 198 242 304 372 427
#     4  10  23  44  74 106 147 192 245 295 366 435
#     4  12  26  48  73 104 149 192 240 297 367 428
#     4  12  28  49  71 109 151 187 250 309 355 436
#     4  10  22  46  75 104 148 195 238 299 358 442
#     4  12  27  45  74 110 143 190 247 296 365 432
#     4  11  24  48  73 107 146 193 243 295 368 438
#
# _framework density 21.793977000000002
#
# number of rings (size 3 to 8) (size 9 to 14) (size 15 to 20)
#    0.000    0.857    4.286    1.286    6.000    2.857 
#    0.000    2.857    0.000    0.000    0.000    0.000 
#    0.000    0.000    0.000    0.000    0.000    0.000 
#
# Total GULP energy -77980.965179 kJ/mol
# GULP energy per Si atom -5570.068941 kJ/mol
# Density = 2.174437 g / cm^3
# Si number density = 21.793977 Si / 1000 Ang^3
#
#
#
# Elastic Constant Matrix: (Units=GPa)
#
#
# Indices 1 2 3 4 5 6 
#
# 1 84.2287 55.9436 44.0440 -1.7233 6.0367 -9.9494
# 2 55.9436 132.2955 63.6773 -39.8496 6.8726 -8.4473
# 3 44.0440 63.6773 158.2873 -31.4488 -16.7240 9.7766
# 4 -1.7233 -39.8496 -31.4488 47.6462 0.2325 2.2832
# 5 6.0367 6.8726 -16.7240 0.2325 58.3743 4.8257
# 6 -9.9494 -8.4473 9.7766 2.2832 4.8257 32.1881
#
#
#
# Elastic Compliance Matrix: (Units=1/GPa)
#
#
# Indices 1 2 3 4 5 6 
#
# 1 0.021541 -0.009217 -0.005174 -0.010667 -0.003165 0.007042
# 2 -0.009217 0.016057 -0.001789 0.011861 -0.001605 0.001307
# 3 -0.005174 -0.001789 0.010392 0.005455 0.004217 -0.006244
# 4 -0.010667 0.011861 0.005455 0.034331 0.001505 -0.004502
# 5 -0.003165 -0.001605 0.004217 0.001505 0.019319 -0.005683
# 6 0.007042 0.001307 -0.006244 -0.004502 -0.005683 0.036655
#
#
# Mechanical properties :
#
#
# Convention : Reuss Voigt Hill
#
# Bulk Modulus (GPa) = 63.98444 78.01570 71.00007
# Shear Modulus (GPa) = 28.43080 41.71816 35.07448
#
# Velocity S-wave (km/s) = 3.61574 4.37991 4.01604
# Velocity P-wave (km/s) = 6.84499 7.83918 7.35890
#
# Compressibility (1/GPa) = 0.01562880
#
# Stress axis : x y z
#
# Youngs Moduli (GPa) = 46.42376 62.27806 96.22780
#
# Poissons Ratio (x) = 0.57405 0.49792
# Poissons Ratio (y) = 0.42791 0.17211
# Poissons Ratio (z) = 0.24022 0.11139
#
# Static dielectric constant tensor:
#      x y z
#    x 1.845050 -0.018250 -0.011520 
#    y -0.018250 1.814010 0.001120 
#    z -0.011520 0.001120 1.846050 
# 
# From -- ./inp_files/530091.got.cif
#   From: 2010.05.17/outbox.ucp.g08.bks.cvg/sg2_266_cif.got.tgz:530091.got - 2010.06.11 11:32:03.
