data_PCOD9074838
_publ_section_title
;
Structure prediction by ZEFSAII (Michael W. Deem and Ramdas Pophale) SiO2 
 PCOD9074838
Probable space group: P -1
;
_chemical_formula_sum "Si O2"
_cell_formula_units_Z 16
_cell_length_a 8.885723
_cell_length_b 18.846995
_cell_length_c 6.783809
_cell_angle_alpha 70.646166
_cell_angle_beta 81.166301
_cell_angle_gamma 41.390518
_cell_volume 700.437178
_symmetry_space_group_name_H-M "P -1"
_symmetry_group_IT_number 2
_symmetry_cell_setting 'triclinic'
loop_
_space_group_symop_operation_xyz
x,y,z
-x,-y,-z
loop_
_atom_site_type_symbol
_atom_site_label
_atom_site_fract_x
_atom_site_fract_y
_atom_site_fract_z
Si Si1 0.274230 0.468209 0.911354
Si Si2 0.068877 0.210814 0.919124
Si Si3 0.163519 0.010518 0.989521
Si Si4 0.270637 0.418277 0.508479
Si Si5 0.409076 0.526188 0.267398
Si Si6 0.604134 0.789253 0.272576
Si Si7 0.560107 0.905959 0.702819
Si Si8 0.269090 0.307901 0.118010
O O1 0.315924 0.429421 0.710659
O O2 0.397200 0.502483 0.870139
O O3 0.005095 0.581936 0.903118
O O4 0.357441 0.359188 0.092794
O O5 0.036738 0.135439 0.943613
O O6 0.219179 0.206710 0.741285
O O7 0.824328 0.341532 0.848510
O O8 0.330172 0.969513 0.811317
O O9 0.771753 0.847531 0.862577
O O10 0.349471 0.917939 0.203296
O O11 0.000000 0.000000 0.000000
O O12 0.343028 0.462634 0.320229
O O13 0.380939 0.297040 0.548581
O O14 0.000000 0.500000 0.500000
O O15 0.500000 0.500000 0.500000
O O16 0.669802 0.737629 0.079131
O O17 0.637416 0.798958 0.684442
O O18 0.500000 0.000000 0.500000
#
# Coordination Sequence:
#
# PCOD9074838 Si02
#       8
#     2   2   2   2   2   2   2   2
#     4   9  18  33  55  79 109 151 189 230 287 355
#     4  10  20  38  61  85 117 160 201 240 301 358
#     4  10  22  37  65  89 114 155 202 255 300 348
#     4  10  18  32  52  83 117 143 185 239 293 338
#     4  10  21  31  56  89 116 148 188 248 289 346
#     4   9  18  36  56  78 113 151 190 237 287 350
#     4  10  22  41  61  84 118 161 201 248 295 357
#     4   8  17  35  58  73 107 152 194 223 292 346
#
# _framework density 22.842873999999998
#
# number of rings (size 3 to 8) (size 9 to 14) (size 15 to 20)
#    0.000    2.750    1.250    1.500    7.000    2.000 
#    2.250    3.125    0.000    0.000    0.000    0.000 
#    0.000    0.000    0.000    0.000    0.000    0.000 
#
# Total GULP energy -89242.402805 kJ/mol
# GULP energy per Si atom -5577.650175 kJ/mol
# Density = 2.279088 g / cm^3
# Si number density = 22.842874 Si / 1000 Ang^3
#
#
#
# Elastic Constant Matrix: (Units=GPa)
#
#
# Indices 1 2 3 4 5 6 
#
# 1 137.5988 37.8872 52.6692 -12.3904 -42.1594 16.2176
# 2 37.8872 82.8025 57.1923 -36.3626 -15.6112 14.7399
# 3 52.6692 57.1923 172.8730 -36.2694 -43.6635 5.0070
# 4 -12.3904 -36.3626 -36.2694 40.5481 13.8372 -10.6840
# 5 -42.1594 -15.6112 -43.6635 13.8372 44.4655 -8.3862
# 6 16.2176 14.7399 5.0070 -10.6840 -8.3862 48.6673
#
#
#
# Elastic Compliance Matrix: (Units=1/GPa)
#
#
# Indices 1 2 3 4 5 6 
#
# 1 0.011705 -0.005268 -0.000298 -0.005375 0.010313 -0.001677
# 2 -0.005268 0.024694 -0.004362 0.018303 -0.006761 -0.002422
# 3 -0.000298 -0.004362 0.009663 0.002770 0.007243 0.002283
# 4 -0.005375 0.018303 0.002770 0.046346 -0.009524 0.004496
# 5 0.010313 -0.006761 0.007243 -0.009524 0.040489 0.002752
# 6 -0.001677 -0.002422 0.002283 0.004496 0.002752 0.023067
#
#
# Mechanical properties :
#
#
# Convention : Reuss Voigt Hill
#
# Bulk Modulus (GPa) = 38.15732 76.53018 57.34375
# Shear Modulus (GPa) = 27.09214 43.10456 35.09835
#
# Velocity S-wave (km/s) = 3.44760 4.34868 3.92409
# Velocity P-wave (km/s) = 5.70863 7.66748 6.75939
#
# Compressibility (1/GPa) = 0.02620729
#
# Stress axis : x y z
#
# Youngs Moduli (GPa) = 85.43082 40.49509 103.48657
#
# Poissons Ratio (x) = 0.21331 0.03083
# Poissons Ratio (y) = 0.45001 0.45144
# Poissons Ratio (z) = 0.02545 0.17665
#
# Static dielectric constant tensor:
#      x y z
#    x 1.875960 0.055560 0.064240 
#    y 0.055560 1.840560 0.024570 
#    z 0.064240 0.024570 2.034120 
# 
# From -- ./inp_files/403791.got.cif
#   From: 2010.05.17/outbox.cif.g08.bks.cpg/sg2_202_cif.got.tgz:403791.got - 2010.06.03 11:33:40.
