data_PCOD9074173
_publ_section_title
;
Structure prediction by ZEFSAII (Michael W. Deem and Ramdas Pophale) SiO2 
 PCOD9074173
Probable space group: P -1
;
_chemical_formula_sum "Si O2"
_cell_formula_units_Z 14
_cell_length_a 10.076400
_cell_length_b 15.692554
_cell_length_c 9.598320
_cell_angle_alpha 66.730870
_cell_angle_beta 130.221524
_cell_angle_gamma 150.061860
_cell_volume 521.663934
_symmetry_space_group_name_H-M "P -1"
_symmetry_group_IT_number 2
_symmetry_cell_setting 'triclinic'
loop_
_space_group_symop_operation_xyz
x,y,z
-x,-y,-z
loop_
_atom_site_type_symbol
_atom_site_label
_atom_site_fract_x
_atom_site_fract_y
_atom_site_fract_z
Si Si1 0.290547 0.540742 0.917893
Si Si2 0.271179 0.058785 0.566243
Si Si3 0.534589 0.561182 0.795717
Si Si4 0.912697 0.959376 0.129256
Si Si5 0.907584 0.547344 0.643916
Si Si6 0.195357 0.839981 0.503648
Si Si7 0.594250 0.149970 0.992908
O O1 0.477518 0.605862 0.853530
O O2 0.980412 0.472682 0.724649
O O3 0.191644 0.393607 0.011845
O O4 0.578237 0.734376 0.074120
O O5 0.560809 0.188101 0.800380
O O6 0.186548 0.910677 0.574940
O O7 0.000000 0.000000 0.500000
O O8 0.237036 0.080218 0.370438
O O9 0.800390 0.263429 0.374580
O O10 0.179471 0.332713 0.714468
O O11 0.741929 0.975000 0.057655
O O12 0.000000 0.000000 0.000000
O O13 0.541988 0.420717 0.414481
O O14 0.033722 0.646093 0.814659
O O15 0.500000 0.000000 0.500000
O O16 0.500000 0.000000 0.000000
#
# Coordination Sequence:
#
# PCOD9074173 Si02
#       7
#     2   2   2   2   2   2   2
#     4  10  18  32  51  78 110 145 179 220 287 319
#     4  10  20  34  49  77 115 144 177 218 279 334
#     4   9  19  32  50  78 112 142 178 230 270 331
#     4  10  21  32  53  82 108 131 179 232 269 311
#     4   9  19  31  52  76 110 136 186 222 269 320
#     4  10  20  33  53  82 114 137 176 237 276 309
#     4  10  18  32  49  74 107 145 173 210 272 329
#
# _framework density 26.837199999999999
#
# number of rings (size 3 to 8) (size 9 to 14) (size 15 to 20)
#    0.857    1.429    2.857    0.429    4.000    0.000 
#    0.000    0.000    0.000    0.000    0.000   31.000 
#    0.000    0.000    0.000    0.000    0.000    0.000 
#
# Total GULP energy -78039.445029 kJ/mol
# GULP energy per Si atom -5574.246074 kJ/mol
# Density = 2.677612 g / cm^3
# Si number density = 26.837200 Si / 1000 Ang^3
#
#
#
# Elastic Constant Matrix: (Units=GPa)
#
#
# Indices 1 2 3 4 5 6 
#
# 1 171.5485 41.1659 52.2939 -23.7910 -0.9765 -41.8130
# 2 41.1659 55.2389 5.3563 -28.8592 -2.8536 -18.0512
# 3 52.2939 5.3563 206.8975 -27.8725 -9.5836 -13.3627
# 4 -23.7910 -28.8592 -27.8725 41.2257 -14.4182 3.0333
# 5 -0.9765 -2.8536 -9.5836 -14.4182 46.8362 -5.7444
# 6 -41.8130 -18.0512 -13.3627 3.0333 -5.7444 47.9460
#
#
#
# Elastic Compliance Matrix: (Units=1/GPa)
#
#
# Indices 1 2 3 4 5 6 
#
# 1 0.008815 -0.003934 -0.001578 0.001072 0.000660 0.005778
# 2 -0.003934 0.049306 0.007516 0.042998 0.019766 0.016875
# 3 -0.001578 0.007516 0.006964 0.010761 0.005577 0.003382
# 4 0.001072 0.042998 0.010761 0.071003 0.029045 0.019110
# 5 0.000660 0.019766 0.005577 0.029045 0.034101 0.011820
# 6 0.005778 0.016875 0.003382 0.019110 0.011820 0.033398
#
#
# Mechanical properties :
#
#
# Convention : Reuss Voigt Hill
#
# Bulk Modulus (GPa) = 14.47341 70.14632 42.30987
# Shear Modulus (GPa) = 22.46076 49.52617 35.99347
#
# Velocity S-wave (km/s) = 2.89611 4.30051 3.66618
# Velocity P-wave (km/s) = 4.07284 7.13117 5.80696
#
# Compressibility (1/GPa) = 0.06909222
#
# Stress axis : x y z
#
# Youngs Moduli (GPa) = 113.44295 20.28158 143.59529
#
# Poissons Ratio (x) = 0.07979 0.22660
# Poissons Ratio (y) = 0.44630 -1.07925
# Poissons Ratio (z) = 0.17902 -0.15243
#
# Static dielectric constant tensor:
#      x y z
#    x 2.086860 -0.033750 0.005390 
#    y -0.033750 2.276660 -0.043650 
#    z 0.005390 -0.043650 2.108480 
# 
# From -- ./inp_files/202201.got.cif
#   From: 2010.05.17/outbox.cif.g08.bks.cpg/sg2_102_cif.got.tgz:202201.got - 2010.06.03 11:33:40.
