data_PCOD9074426
_publ_section_title
;
Structure prediction by ZEFSAII (Michael W. Deem and Ramdas Pophale) SiO2 
 PCOD9074426
Probable space group: P -1
;
_chemical_formula_sum "Si O2"
_cell_formula_units_Z 16
_cell_length_a 18.000000
_cell_length_b 12.000000
_cell_length_c 21.000000
_cell_angle_alpha 150.000000
_cell_angle_beta 160.000000
_cell_angle_gamma 30.000000
_cell_volume 738.640068
_symmetry_space_group_name_H-M "P -1"
_symmetry_group_IT_number 2
_symmetry_cell_setting 'triclinic'
loop_
_space_group_symop_operation_xyz
x,y,z
-x,-y,-z
loop_
_atom_site_type_symbol
_atom_site_label
_atom_site_fract_x
_atom_site_fract_y
_atom_site_fract_z
Si Si1 0.784934 0.099686 0.734099
Si Si2 0.393852 0.943809 0.720025
Si Si3 0.946437 0.304711 0.507171
Si Si4 0.732614 0.147341 0.856981
Si Si5 0.367172 0.476180 0.519925
Si Si6 0.274285 0.157529 0.184441
Si Si7 0.089292 0.616615 0.687853
Si Si8 0.561674 0.333826 0.103624
O O1 0.677943 0.091059 0.713439
O O2 0.589793 0.274628 0.622613
O O3 0.890990 0.848433 0.662979
O O4 0.014976 0.177772 0.965937
O O5 0.437551 0.700921 0.670078
O O6 0.551557 0.897288 0.760973
O O7 0.124451 0.053635 0.541785
O O8 0.461126 0.121493 0.909603
O O9 0.818111 0.446352 0.534742
O O10 0.753263 0.299429 0.296682
O O11 0.110485 0.443722 0.678172
O O12 0.637529 0.425894 0.924337
O O13 0.642865 0.048848 0.798195
O O14 0.000000 0.000000 0.000000
O O15 0.272515 0.385096 0.335834
O O16 0.313100 0.657547 0.859136
O O17 0.000000 0.500000 0.500000
#
# Coordination Sequence:
#
# PCOD9074426 Si02
#       8
#     2   2   2   2   2   2   2   2
#     4  11  24  46  70 104 140 184 228 291 358 404
#     4  12  28  46  69 101 143 193 236 276 340 424
#     4  11  26  44  70 103 139 181 233 294 342 411
#     4  10  23  42  70 105 135 174 230 289 355 408
#     4  12  28  46  69 101 143 193 236 276 340 424
#     4  11  26  44  70 103 139 181 233 294 342 411
#     4  10  23  42  70 105 135 174 230 289 355 408
#     4  11  24  46  70 104 140 184 228 291 358 404
#
# _framework density 21.661429999999999
#
# number of rings (size 3 to 8) (size 9 to 14) (size 15 to 20)
#    0.000    1.000    2.500    2.250   14.000    4.000 
#    0.000    0.000    0.000    0.000    0.000    0.000 
#    0.000    0.000    0.000    0.000    0.000    0.000 
#
# Total GULP energy -89450.438938 kJ/mol
# GULP energy per Si atom -5590.652434 kJ/mol
# Density = 2.161213 g / cm^3
# Si number density = 21.661430 Si / 1000 Ang^3
#
#
#
# Elastic Constant Matrix: (Units=GPa)
#
#
# Indices 1 2 3 4 5 6 
#
# 1 66.1120 34.1860 13.5035 7.2563 -12.0336 -39.6069
# 2 34.1860 -109.8700 -78.7011 0.6508 -19.1608 59.8630
# 3 13.5035 -78.7011 39.8576 6.1430 -21.4319 31.2222
# 4 7.2563 0.6508 6.1430 37.5734 -3.5371 -2.4851
# 5 -12.0336 -19.1608 -21.4319 -3.5371 14.5502 8.2767
# 6 -39.6069 59.8630 31.2222 -2.4851 8.2767 10.1564
#
#
#
# Elastic Compliance Matrix: (Units=1/GPa)
#
#
# Indices 1 2 3 4 5 6 
#
# 1 0.026052 0.006150 0.007566 -0.002384 0.030944 0.016287
# 2 0.006150 0.005062 -0.005375 0.000145 -0.004144 0.014087
# 3 0.007566 -0.005375 0.013448 -0.001718 0.014019 0.008000
# 4 -0.002384 0.000145 -0.001718 0.027577 0.002472 -0.000139
# 5 0.030944 -0.004144 0.014019 0.002472 0.096460 0.024001
# 6 0.016287 0.014087 0.008000 -0.000139 0.024001 0.034756
#
#
# Mechanical properties :
#
#
# Convention : Reuss Voigt Hill
#
# Bulk Modulus (GPa) = 16.32850 -7.32486 4.50182
# Shear Modulus (GPa) = 24.14434 14.26343 19.20388
#
# Velocity S-wave (km/s) = 3.34222 2.56885 2.98072
# Velocity P-wave (km/s) = 4.73797 2.32590 3.73217
#
# Compressibility (1/GPa) = 0.06124263
#
# Stress axis : x y z
#
# Youngs Moduli (GPa) = 38.38479 197.56889 74.35849
#
# Poissons Ratio (x) = -1.21506 -0.56257
# Poissons Ratio (y) = -0.23607 0.39970
# Poissons Ratio (z) = -0.29041 1.06200
#
# Static dielectric constant tensor:
#      x y z
#    x 1.789540 0.048640 -0.015660 
#    y 0.048640 1.970610 -0.159100 
#    z -0.015660 -0.159100 2.003840 
# 
# From -- ./inp_files/307070.got.cif
#   From: 2010.05.17/outbox.ucp.g08.bks.cvg/sg2_154_cif.got.tgz:307070.got - 2010.06.11 11:32:03.
