data_PCOD9074990
_publ_section_title
;
Structure prediction by ZEFSAII (Michael W. Deem and Ramdas Pophale) SiO2 
 PCOD9074990
Probable space group: P -1
;
_chemical_formula_sum "Si O2"
_cell_formula_units_Z 14
_cell_length_a 15.000000
_cell_length_b 15.000000
_cell_length_c 27.000000
_cell_angle_alpha 20.000000
_cell_angle_beta 160.000000
_cell_angle_gamma 150.000000
_cell_volume 703.098487
_symmetry_space_group_name_H-M "P -1"
_symmetry_group_IT_number 2
_symmetry_cell_setting 'triclinic'
loop_
_space_group_symop_operation_xyz
x,y,z
-x,-y,-z
loop_
_atom_site_type_symbol
_atom_site_label
_atom_site_fract_x
_atom_site_fract_y
_atom_site_fract_z
Si Si1 0.854918 0.028292 0.133072
Si Si2 0.314675 0.367871 0.678806
Si Si3 0.039841 0.901477 0.959362
Si Si4 0.961240 0.513160 0.323165
Si Si5 0.494177 0.451422 0.464296
Si Si6 0.668584 0.833725 0.632854
Si Si7 0.441172 0.910735 0.665581
O O1 0.994681 0.036277 0.149343
O O2 0.027811 0.183292 0.180177
O O3 0.832915 0.746852 0.292542
O O4 0.547713 0.135024 0.906635
O O5 0.504628 0.588554 0.671065
O O6 0.097471 0.438907 0.486242
O O7 0.759612 0.830554 0.869494
O O8 0.126623 0.169197 0.887795
O O9 0.267243 0.660053 0.212607
O O10 0.738876 0.322249 0.296042
O O11 0.219583 0.492302 0.434229
O O12 0.500000 0.500000 0.500000
O O13 0.429712 0.161395 0.566106
O O14 0.500000 0.000000 0.500000
O O15 0.652335 0.970425 0.499177
#
# Coordination Sequence:
#
# PCOD9074990 Si02
#       7
#     2   2   2   2   2   2   2
#     4  11  22  35  61  91 134 179 215 249 317 381
#     4  11  22  37  56  94 133 178 216 257 303 389
#     4  11  23  43  67  98 130 176 216 265 331 390
#     4  11  23  42  67  99 134 165 221 272 320 394
#     4  11  26  50  72  91 127 171 220 282 337 382
#     4  12  21  35  57  91 132 172 208 251 311 376
#     4  11  24  42  66 102 135 167 218 271 318 398
#
# _framework density 19.911861999999999
#
# number of rings (size 3 to 8) (size 9 to 14) (size 15 to 20)
#    0.000    0.857    7.143    0.429    2.000    5.143 
#    0.000    1.429    0.000    0.000    0.000    0.000 
#    0.000    0.000    0.000    0.000    0.000    0.000 
#
# Total GULP energy -78038.584227 kJ/mol
# GULP energy per Si atom -5574.184588 kJ/mol
# Density = 1.986654 g / cm^3
# Si number density = 19.911862 Si / 1000 Ang^3
#
#
#
# Elastic Constant Matrix: (Units=GPa)
#
#
# Indices 1 2 3 4 5 6 
#
# 1 59.0544 15.5721 -24.5562 -3.6755 2.5392 -3.0222
# 2 15.5721 161.1685 -19.7035 -2.4701 12.9395 32.0215
# 3 -24.5562 -19.7035 -29.0655 -6.8967 20.5633 10.3734
# 4 -3.6755 -2.4701 -6.8967 25.5832 -0.0303 -0.5641
# 5 2.5392 12.9395 20.5633 -0.0303 17.4905 1.9697
# 6 -3.0222 32.0215 10.3734 -0.5641 1.9697 34.2008
#
#
#
# Elastic Compliance Matrix: (Units=1/GPa)
#
#
# Indices 1 2 3 4 5 6 
#
# 1 0.016007 -0.003816 -0.004939 0.000743 0.005612 0.006175
# 2 -0.003816 0.007322 -0.003630 -0.000955 0.000091 -0.006113
# 3 -0.004939 -0.003630 -0.012440 -0.004268 0.017382 0.005664
# 4 0.000743 -0.000955 -0.004268 0.038015 0.005393 0.002570
# 5 0.005612 0.000091 0.017382 0.005393 0.036640 -0.006883
# 6 0.006175 -0.006113 0.005664 0.002570 -0.006883 0.034229
#
#
# Mechanical properties :
#
#
# Convention : Reuss Voigt Hill
#
# Bulk Modulus (GPa) = -72.04278 14.86469 -28.58904
# Shear Modulus (GPa) = 35.73553 30.11123 32.92338
#
# Velocity S-wave (km/s) = 4.24097 3.89295 4.07068
# Velocity P-wave (km/s) = 3.50404 5.26196 2.77578
#
# Compressibility (1/GPa) = -0.01388064
#
# Stress axis : x y z
#
# Youngs Moduli (GPa) = 62.47215 136.57063 -80.38695
#
# Poissons Ratio (x) = 0.52121 -0.39701
# Poissons Ratio (y) = 0.23842 -0.29180
# Poissons Ratio (z) = 0.30854 0.49574
#
# Static dielectric constant tensor:
#      x y z
#    x 1.770380 -0.051480 0.097770 
#    y -0.051480 1.739070 -0.142200 
#    z 0.097770 -0.142200 1.953120 
# 
# From -- ./inp_files/281533.got.cif
#   From: 2010.05.17/outbox.ucp.g08.bks.cvg/sg2_141_cif.got.tgz:281533.got - 2010.06.11 11:32:03.
