data_PCOD9074819
_publ_section_title
;
Structure prediction by ZEFSAII (Michael W. Deem and Ramdas Pophale) SiO2 
 PCOD9074819
Probable space group: P -1
;
_chemical_formula_sum "Si O2"
_cell_formula_units_Z 16
_cell_length_a 9.000000
_cell_length_b 18.000000
_cell_length_c 12.000000
_cell_angle_alpha 130.000000
_cell_angle_beta 130.000000
_cell_angle_gamma 30.000000
_cell_volume 725.531033
_symmetry_space_group_name_H-M "P -1"
_symmetry_group_IT_number 2
_symmetry_cell_setting 'triclinic'
loop_
_space_group_symop_operation_xyz
x,y,z
-x,-y,-z
loop_
_atom_site_type_symbol
_atom_site_label
_atom_site_fract_x
_atom_site_fract_y
_atom_site_fract_z
Si Si1 0.136905 0.139084 0.436199
Si Si2 0.638704 0.214782 0.373946
Si Si3 0.076061 0.573192 0.377789
Si Si4 0.070647 0.360425 0.882557
Si Si5 0.208370 0.047688 0.922664
Si Si6 0.698916 0.371467 0.877885
Si Si7 0.325658 0.361659 0.580936
Si Si8 0.756797 0.013274 0.880102
O O1 0.944981 0.160904 0.462128
O O2 0.954278 0.306634 0.473615
O O3 0.500000 0.000000 0.500000
O O4 0.143680 0.072893 0.267277
O O5 0.360968 0.391931 0.366211
O O6 0.539490 0.225015 0.462243
O O7 0.704097 0.094333 0.214615
O O8 0.056104 0.605441 0.269406
O O9 0.765954 0.645376 0.349234
O O10 0.418338 0.188621 0.884444
O O11 0.906155 0.367070 0.908252
O O12 0.000000 0.500000 0.000000
O O13 0.915050 0.203513 0.869211
O O14 0.500000 0.000000 0.000000
O O15 0.177440 0.075078 0.065584
O O16 0.477349 0.406300 0.716697
O O17 0.500000 0.500000 0.000000
O O18 0.000000 0.500000 0.500000
O O19 0.000000 0.000000 0.000000
#
# Coordination Sequence:
#
# PCOD9074819 Si02
#       8
#     2   2   2   2   2   2   2   2
#     4  12  26  45  75 109 150 191 247 301 367 440
#     4  11  26  49  73 106 151 193 246 306 375 436
#     4  11  25  46  77 106 147 192 247 301 369 439
#     4  12  26  47  76 107 149 192 250 306 368 443
#     4  12  28  47  75 108 151 196 249 307 375 444
#     4  12  29  47  77 109 150 197 250 307 378 445
#     4  10  26  47  74 106 147 193 248 304 375 439
#     4  12  27  49  73 109 150 198 245 305 370 435
#
# _framework density 22.052813
#
# number of rings (size 3 to 8) (size 9 to 14) (size 15 to 20)
#    0.000    0.500    3.750    2.625   10.500    2.500 
#    0.000    0.000    0.000    0.000    0.000    0.000 
#    0.000    0.000    0.000    0.000    0.000    0.000 
#
# Total GULP energy -89227.336612 kJ/mol
# GULP energy per Si atom -5576.708538 kJ/mol
# Density = 2.200262 g / cm^3
# Si number density = 22.052813 Si / 1000 Ang^3
#
#
#
# Elastic Constant Matrix: (Units=GPa)
#
#
# Indices 1 2 3 4 5 6 
#
# 1 60.9809 41.3868 -19.2536 7.9451 -14.9229 -25.0570
# 2 41.3868 142.9889 49.9076 16.2947 5.3656 -5.3493
# 3 -19.2536 49.9076 88.7034 17.2249 -3.8834 -11.2735
# 4 7.9451 16.2947 17.2249 32.5414 -0.7008 -4.4621
# 5 -14.9229 5.3656 -3.8834 -0.7008 38.7567 3.7107
# 6 -25.0570 -5.3493 -11.2735 -4.4621 3.7107 34.3620
#
#
#
# Elastic Compliance Matrix: (Units=1/GPa)
#
#
# Indices 1 2 3 4 5 6 
#
# 1 1.746437 -0.832414 1.134888 -0.404466 0.761827 1.381471
# 2 -0.832414 0.405693 -0.545666 0.190746 -0.364839 -0.658700
# 3 1.134888 -0.545666 0.752974 -0.268147 0.496839 0.901184
# 4 -0.404466 0.190746 -0.268147 0.128574 -0.176290 -0.317485
# 5 0.761827 -0.364839 0.496839 -0.176290 0.358786 0.600099
# 6 1.381471 -0.658700 0.901184 -0.317485 0.600099 1.123567
#
#
# Mechanical properties :
#
#
# Convention : Reuss Voigt Hill
#
# Bulk Modulus (GPa) = 0.41344 48.52831 24.47088
# Shear Modulus (GPa) = 0.86078 35.84084 18.35081
#
# Velocity S-wave (km/s) = 0.62544 4.03578 2.88780
# Velocity P-wave (km/s) = 0.84229 6.61589 4.71590
#
# Compressibility (1/GPa) = 2.41871989
#
# Stress axis : x y z
#
# Youngs Moduli (GPa) = 0.57259 2.46492 1.32807
#
# Poissons Ratio (x) = 2.05183 -1.50721
# Poissons Ratio (y) = 0.47664 0.72468
# Poissons Ratio (z) = -0.64983 1.34502
#
# Static dielectric constant tensor:
#      x y z
#    x 1.813340 -0.010560 -0.009320 
#    y -0.010560 1.610190 -0.093290 
#    z -0.009320 -0.093290 1.793010 
# 
# From -- ./inp_files/403282.got.cif
#   From: 2010.05.17/outbox.ucp.g08.bks.cvg/sg2_202_cif.got.tgz:403282.got - 2010.06.11 11:32:03.
