data_PCOD9074868
_publ_section_title
;
Structure prediction by ZEFSAII (Michael W. Deem and Ramdas Pophale) SiO2 
 PCOD9074868
Probable space group: P -1
;
_chemical_formula_sum "Si O2"
_cell_formula_units_Z 15
_cell_length_a 14.291241
_cell_length_b 11.096820
_cell_length_c 13.381829
_cell_angle_alpha 97.675532
_cell_angle_beta 119.766882
_cell_angle_gamma 28.908822
_cell_volume 620.402311
_symmetry_space_group_name_H-M "P -1"
_symmetry_group_IT_number 2
_symmetry_cell_setting 'triclinic'
loop_
_space_group_symop_operation_xyz
x,y,z
-x,-y,-z
loop_
_atom_site_type_symbol
_atom_site_label
_atom_site_fract_x
_atom_site_fract_y
_atom_site_fract_z
Si Si1 0.070403 0.550514 0.388097
Si Si2 0.056909 0.191391 0.455729
Si Si3 0.000000 0.000000 0.500000
Si Si4 0.872756 0.302692 0.058477
Si Si5 0.943081 0.181193 0.662307
Si Si6 0.429693 0.443670 0.863062
Si Si7 0.836780 0.255689 0.832185
Si Si8 0.803045 0.830728 0.674962
O O1 0.937560 0.711969 0.446335
O O2 0.006183 0.491561 0.294205
O O3 0.961288 0.780551 0.288357
O O4 0.452349 0.160746 0.555791
O O5 0.175496 0.939284 0.539779
O O6 0.703943 0.526585 0.267770
O O7 0.219022 0.064888 0.426169
O O8 0.771686 0.332575 0.484804
O O9 0.671827 0.472949 0.067416
O O10 0.021420 0.273868 0.161515
O O11 0.133012 0.918593 0.147007
O O12 0.704845 0.470587 0.880378
O O13 0.764392 0.344016 0.686758
O O14 0.222028 0.780864 0.748876
O O15 0.796077 0.082374 0.014504
#
# Coordination Sequence:
#
# PCOD9074868 Si02
#       8
#     2   2   1   2   2   2   2   2
#     4  10  20  34  50  71 101 135 170 205 240 286
#     4   9  17  33  54  76 100 128 163 205 250 298
#     4   8  16  30  48  74 102 122 150 202 256 288
#     4   9  18  31  50  75  95 125 169 202 239 299
#     4   9  17  31  48  72 100 126 159 201 246 290
#     4   9  17  32  53  74  99 127 157 202 255 297
#     4  10  18  32  53  73  98 129 158 201 256 298
#     4  10  20  34  52  71  97 137 173 201 241 291
#
# _framework density 24.177861
#
# number of rings (size 3 to 8) (size 9 to 14) (size 15 to 20)
#    0.000    2.667    0.000    3.600    0.000    0.000 
#    0.000   32.000    0.000    7.200    0.000    0.000 
#    0.000    0.000    0.000    0.000    0.000    0.000 
#
# Total GULP energy -83542.365425 kJ/mol
# GULP energy per Si atom -5569.491028 kJ/mol
# Density = 2.412283 g / cm^3
# Si number density = 24.177861 Si / 1000 Ang^3
#
#
#
# Elastic Constant Matrix: (Units=GPa)
#
#
# Indices 1 2 3 4 5 6 
#
# 1 70.4563 34.7479 14.7803 22.6473 1.3720 3.8674
# 2 34.7479 104.8619 46.3250 45.3280 -2.7172 8.4474
# 3 14.7803 46.3250 58.5498 25.8475 15.3417 7.6606
# 4 22.6473 45.3280 25.8475 52.1844 -0.7010 2.9794
# 5 1.3720 -2.7172 15.3417 -0.7010 32.8882 15.3148
# 6 3.8674 8.4474 7.6606 2.9794 15.3148 56.3888
#
#
#
# Elastic Compliance Matrix: (Units=1/GPa)
#
#
# Indices 1 2 3 4 5 6 
#
# 1 0.017637 -0.004812 0.001858 -0.004427 -0.002127 0.000071
# 2 -0.004812 0.022146 -0.014150 -0.009820 0.009932 -0.003244
# 3 0.001858 -0.014150 0.035285 -0.006405 -0.019113 0.002728
# 4 -0.004427 -0.009820 -0.006405 0.032822 0.003018 0.000091
# 5 -0.002127 0.009932 -0.019113 0.003018 0.045546 -0.011275
# 6 0.000071 -0.003244 0.002728 0.000091 -0.011275 0.020902
#
#
# Mechanical properties :
#
#
# Convention : Reuss Voigt Hill
#
# Bulk Modulus (GPa) = 24.47440 47.28604 35.88022
# Shear Modulus (GPa) = 22.50576 37.49327 29.99951
#
# Velocity S-wave (km/s) = 3.05428 3.94220 3.52630
# Velocity P-wave (km/s) = 4.75214 6.34990 5.60821
#
# Compressibility (1/GPa) = 0.04085902
#
# Stress axis : x y z
#
# Youngs Moduli (GPa) = 56.69760 45.15584 28.34096
#
# Poissons Ratio (x) = 0.21730 -0.05265
# Poissons Ratio (y) = 0.27284 0.40102
# Poissons Ratio (z) = -0.10532 0.63894
#
# Static dielectric constant tensor:
#      x y z
#    x 1.897100 0.005910 0.130180 
#    y 0.005910 1.950800 -0.261570 
#    z 0.130180 -0.261570 1.666880 
# 
# From -- ./inp_files/530624.got.cif
#   From: 2010.05.17/outbox.cif.g08.bks.cpg/sg2_266_cif.got.tgz:530624.got - 2010.06.03 11:33:40.
