data_PCOD9074902
_publ_section_title
;
Structure prediction by ZEFSAII (Michael W. Deem and Ramdas Pophale) SiO2 
 PCOD9074902
Probable space group: P -1
;
_chemical_formula_sum "Si O2"
_cell_formula_units_Z 14
_cell_length_a 8.247732
_cell_length_b 9.441035
_cell_length_c 14.425848
_cell_angle_alpha 110.572549
_cell_angle_beta 107.714489
_cell_angle_gamma 127.673210
_cell_volume 594.115739
_symmetry_space_group_name_H-M "P -1"
_symmetry_group_IT_number 2
_symmetry_cell_setting 'triclinic'
loop_
_space_group_symop_operation_xyz
x,y,z
-x,-y,-z
loop_
_atom_site_type_symbol
_atom_site_label
_atom_site_fract_x
_atom_site_fract_y
_atom_site_fract_z
Si Si1 0.522725 0.619764 0.121197
Si Si2 0.234946 0.667072 0.995993
Si Si3 0.629836 0.886941 0.432248
Si Si4 0.747946 0.797967 0.716608
Si Si5 0.854884 0.733930 0.519840
Si Si6 0.029834 0.789515 0.266652
Si Si7 0.908995 0.672413 0.860931
O O1 0.257665 0.405694 0.092640
O O2 0.794448 0.744295 0.250367
O O3 0.500000 0.500000 0.000000
O O4 0.508363 0.781795 0.117767
O O5 0.129824 0.472786 0.855354
O O6 0.208654 0.810743 0.975092
O O7 0.000000 0.500000 0.000000
O O8 0.724882 0.052137 0.576979
O O9 0.835840 0.084296 0.428126
O O10 0.736266 0.797937 0.462708
O O11 0.303138 0.611828 0.284379
O O12 0.821585 0.748668 0.626470
O O13 0.405502 0.566311 0.616748
O O14 0.900178 0.813672 0.828015
O O15 0.849854 0.037752 0.762829
#
# Coordination Sequence:
#
# PCOD9074902 Si02
#       7
#     2   2   2   2   2   2   2
#     4   9  18  34  53  69  91 135 179 201 225 290
#     4   9  20  36  51  69  97 136 170 202 242 293
#     4   9  16  27  51  78  98 131 163 197 244 300
#     4   9  16  26  48  78 103 127 156 206 251 286
#     4   8  14  26  43  74 110 129 156 192 243 301
#     4  10  18  32  55  77  98 125 171 208 240 293
#     4  10  18  32  53  76 105 128 160 205 254 293
#
# _framework density 23.564432
#
# number of rings (size 3 to 8) (size 9 to 14) (size 15 to 20)
#    0.000    2.857    0.000    4.286    0.000    0.571 
#    0.000    7.143    0.000   15.429    0.000    0.000 
#    0.000    0.000    0.000    0.000    0.000    0.000 
#
# Total GULP energy -77981.983135 kJ/mol
# GULP energy per Si atom -5570.141653 kJ/mol
# Density = 2.351080 g / cm^3
# Si number density = 23.564432 Si / 1000 Ang^3
#
#
#
# Elastic Constant Matrix: (Units=GPa)
#
#
# Indices 1 2 3 4 5 6 
#
# 1 55.4849 11.5684 29.1990 -14.3480 28.0995 -7.9521
# 2 11.5684 69.5631 10.5280 -19.3985 8.5003 8.3078
# 3 29.1990 10.5280 91.2554 -26.3664 1.4815 0.6837
# 4 -14.3480 -19.3985 -26.3664 40.1368 -2.2426 6.2591
# 5 28.0995 8.5003 1.4815 -2.2426 39.7698 -7.8169
# 6 -7.9521 8.3078 0.6837 6.2591 -7.8169 16.6573
#
#
#
# Elastic Compliance Matrix: (Units=1/GPa)
#
#
# Indices 1 2 3 4 5 6 
#
# 1 0.038527 -0.001505 -0.010768 0.003559 -0.025019 0.006507
# 2 -0.001505 0.021397 0.002337 0.014070 -0.006720 -0.019927
# 3 -0.010768 0.002337 0.017009 0.010040 0.005423 -0.008232
# 4 0.003559 0.014070 0.010040 0.043153 -0.008566 -0.025966
# 5 -0.025019 -0.006720 0.005423 -0.008566 0.046789 0.016361
# 6 0.006507 -0.019927 -0.008232 -0.025966 0.016361 0.090851
#
#
# Mechanical properties :
#
#
# Convention : Reuss Voigt Hill
#
# Bulk Modulus (GPa) = 17.52563 35.43268 26.47916
# Shear Modulus (GPa) = 16.85673 30.31332 23.58502
#
# Velocity S-wave (km/s) = 2.67750 3.59053 3.16709
# Velocity P-wave (km/s) = 4.12458 5.67965 4.96339
#
# Compressibility (1/GPa) = 0.05705928
#
# Stress axis : x y z
#
# Youngs Moduli (GPa) = 25.95610 46.73617 58.79378
#
# Poissons Ratio (x) = 0.07033 0.63310
# Poissons Ratio (y) = 0.03906 -0.13739
# Poissons Ratio (z) = 0.27950 -0.10921
#
# Static dielectric constant tensor:
#      x y z
#    x 1.940530 0.028870 0.043320 
#    y 0.028870 1.925320 0.046190 
#    z 0.043320 0.046190 2.039280 
# 
# From -- ./inp_files/178391.got.cif
#   From: 2010.05.17/outbox.cif.g08.bks.cpg/sg2_90_cif.got.tgz:178391.got - 2010.06.03 11:33:40.
