data_PCOD9074204
_publ_section_title
;
Structure prediction by ZEFSAII (Michael W. Deem and Ramdas Pophale) SiO2 
 PCOD9074204
Probable space group: P -1
;
_chemical_formula_sum "Si O2"
_cell_formula_units_Z 14
_cell_length_a 12.000000
_cell_length_b 18.000000
_cell_length_c 18.000000
_cell_angle_alpha 150.000000
_cell_angle_beta 160.000000
_cell_angle_gamma 30.000000
_cell_volume 633.120058
_symmetry_space_group_name_H-M "P -1"
_symmetry_group_IT_number 2
_symmetry_cell_setting 'triclinic'
loop_
_space_group_symop_operation_xyz
x,y,z
-x,-y,-z
loop_
_atom_site_type_symbol
_atom_site_label
_atom_site_fract_x
_atom_site_fract_y
_atom_site_fract_z
Si Si1 0.724728 0.296476 0.412364
Si Si2 0.182061 0.077072 0.619450
Si Si3 0.786808 0.641386 0.737070
Si Si4 0.692456 0.836445 0.437437
Si Si5 0.680314 0.218623 0.996354
Si Si6 0.485403 0.406734 0.784623
Si Si7 0.410709 0.223235 0.436462
O O1 0.738830 0.469603 0.554154
O O2 0.366116 0.296329 0.222264
O O3 0.934886 0.233472 0.565139
O O4 0.926422 0.186960 0.377682
O O5 0.276868 0.933981 0.497504
O O6 0.520961 0.133860 0.887463
O O7 0.000000 0.000000 0.500000
O O8 0.650729 0.723092 0.642864
O O9 0.174675 0.635753 0.988284
O O10 0.729462 0.688224 0.386933
O O11 0.500000 0.000000 0.500000
O O12 0.478901 0.815658 0.211746
O O13 0.606336 0.406420 0.116915
O O14 0.086735 0.167691 0.207443
O O15 0.475334 0.346178 0.641365
#
# Coordination Sequence:
#
# PCOD9074204 Si02
#       7
#     2   2   2   2   2   2   2
#     4  10  22  43  70  98 143 190 227 293 357 410
#     4  11  22  43  67 102 142 183 232 295 353 415
#     4  11  22  45  74 100 140 188 233 291 350 417
#     4  11  22  41  71 102 142 185 235 290 354 421
#     4  11  23  44  68 100 145 188 231 298 354 411
#     4  12  23  44  73 107 141 184 244 289 346 428
#     4  12  25  42  72 108 140 184 237 289 356 426
#
# _framework density 22.11271
#
# number of rings (size 3 to 8) (size 9 to 14) (size 15 to 20)
#    0.000    0.857    5.714    3.857    0.000    0.000 
#    0.000   12.143    0.000    0.000    0.000    0.000 
#    0.000    0.000    0.000    0.000    0.000    0.000 
#
# Total GULP energy -77941.963091 kJ/mol
# GULP energy per Si atom -5567.283078 kJ/mol
# Density = 2.206238 g / cm^3
# Si number density = 22.112710 Si / 1000 Ang^3
#
#
#
# Elastic Constant Matrix: (Units=GPa)
#
#
# Indices 1 2 3 4 5 6 
#
# 1 135.6648 42.5812 27.8564 20.4386 24.0524 7.1743
# 2 42.5812 91.7810 15.4296 21.6849 8.8567 2.6951
# 3 27.8564 15.4296 40.2747 18.3395 -3.1374 4.3291
# 4 20.4386 21.6849 18.3395 29.0441 6.3769 -4.4735
# 5 24.0524 8.8567 -3.1374 6.3769 44.1231 10.1536
# 6 7.1743 2.6951 4.3291 -4.4735 10.1536 43.2242
#
#
#
# Elastic Compliance Matrix: (Units=1/GPa)
#
#
# Indices 1 2 3 4 5 6 
#
# 1 0.010807 -0.003470 -0.007063 0.000850 -0.005962 0.000619
# 2 -0.003470 0.014535 0.001586 -0.009878 0.000911 -0.001726
# 3 -0.007063 0.001586 0.043960 -0.028226 0.012871 -0.009274
# 4 0.000850 -0.009878 -0.028226 0.063796 -0.012672 0.012881
# 5 -0.005962 0.000911 0.012871 -0.012672 0.030511 -0.008835
# 6 0.000619 -0.001726 -0.009274 0.012881 -0.008835 0.027477
#
#
# Mechanical properties :
#
#
# Convention : Reuss Voigt Hill
#
# Bulk Modulus (GPa) = 19.45270 48.82833 34.14052
# Shear Modulus (GPa) = 22.11251 35.40182 28.75717
#
# Velocity S-wave (km/s) = 3.16569 4.00556 3.61013
# Velocity P-wave (km/s) = 4.70939 6.59713 5.73151
#
# Compressibility (1/GPa) = 0.05140675
#
# Stress axis : x y z
#
# Youngs Moduli (GPa) = 92.53447 68.79805 22.74814
#
# Poissons Ratio (x) = 0.23873 0.16068
# Poissons Ratio (y) = 0.32110 -0.03608
# Poissons Ratio (z) = 0.65360 -0.10910
#
# Static dielectric constant tensor:
#      x y z
#    x 1.931800 -0.099380 0.112680 
#    y -0.099380 1.953240 -0.110490 
#    z 0.112680 -0.110490 1.838160 
# 
# From -- ./inp_files/332071.got.cif
#   From: 2010.05.17/outbox.ucp.g08.bks.cvg/sg2_167_cif.got.tgz:332071.got - 2010.06.11 11:32:03.
