data_PCOD9074570
_publ_section_title
;
Structure prediction by ZEFSAII (Michael W. Deem and Ramdas Pophale) SiO2 
 PCOD9074570
Probable space group: P -1
;
_chemical_formula_sum "Si O2"
_cell_formula_units_Z 16
_cell_length_a 12.000000
_cell_length_b 12.000000
_cell_length_c 12.000000
_cell_angle_alpha 100.000000
_cell_angle_beta 120.000000
_cell_angle_gamma 130.000000
_cell_volume 763.164900
_symmetry_space_group_name_H-M "P -1"
_symmetry_group_IT_number 2
_symmetry_cell_setting 'triclinic'
loop_
_space_group_symop_operation_xyz
x,y,z
-x,-y,-z
loop_
_atom_site_type_symbol
_atom_site_label
_atom_site_fract_x
_atom_site_fract_y
_atom_site_fract_z
Si Si1 0.433745 0.972393 0.141205
Si Si2 0.383231 0.818298 0.327242
Si Si3 0.879293 0.973784 0.267652
Si Si4 0.351850 0.471567 0.504594
Si Si5 0.534475 0.747469 0.838619
Si Si6 0.191794 0.002754 0.512378
Si Si7 0.947959 0.535655 0.726424
Si Si8 0.042277 0.660136 0.466335
O O1 0.369805 0.869829 0.210909
O O2 0.381285 0.066697 0.130812
O O3 0.724067 0.158983 0.300704
O O4 0.240243 0.777874 0.923134
O O5 0.553997 0.835097 0.395563
O O6 0.137860 0.589708 0.224760
O O7 0.500000 0.000000 0.500000
O O8 0.773506 0.929977 0.329567
O O9 0.683595 0.831397 0.042246
O O10 0.115584 0.230629 0.400500
O O11 0.007498 0.948763 0.348539
O O12 0.500000 0.500000 0.500000
O O13 0.537901 0.656218 0.726859
O O14 0.223117 0.483279 0.383164
O O15 0.239594 0.543376 0.673317
O O16 0.071912 0.789107 0.423361
O O17 0.905739 0.415584 0.585947
#
# Coordination Sequence:
#
# PCOD9074570 Si02
#       8
#     2   2   2   2   2   2   2   2
#     4  11  24  41  68 105 137 174 230 279 349 406
#     4  11  21  43  68  99 141 179 222 288 343 403
#     4  11  25  47  71  98 140 181 239 280 341 417
#     4  12  26  47  69 100 143 183 228 278 345 417
#     4  12  25  45  71 103 136 184 228 287 347 405
#     4  10  23  47  70 100 139 183 231 291 333 405
#     4  12  24  43  71 103 137 185 226 282 349 404
#     4  11  24  42  72 100 138 175 232 292 340 401
#
# _framework density 20.965325
#
# number of rings (size 3 to 8) (size 9 to 14) (size 15 to 20)
#    0.000    0.750    6.250    1.500    3.500    1.500 
#    2.250    0.000    0.000    0.000    0.000    0.000 
#    0.000    0.000    0.000    0.000    0.000    0.000 
#
# Total GULP energy -89362.309428 kJ/mol
# GULP energy per Si atom -5585.144339 kJ/mol
# Density = 2.091761 g / cm^3
# Si number density = 20.965325 Si / 1000 Ang^3
#
#
#
# Elastic Constant Matrix: (Units=GPa)
#
#
# Indices 1 2 3 4 5 6 
#
# 1 120.4528 26.5244 47.8968 -11.9187 11.5470 -12.3539
# 2 26.5244 96.7285 52.0722 -10.9359 7.8757 -14.0269
# 3 47.8968 52.0722 154.4595 -19.7647 7.6758 -10.6375
# 4 -11.9187 -10.9359 -19.7647 40.6707 -1.2351 5.1000
# 5 11.5470 7.8757 7.6758 -1.2351 14.5617 0.0845
# 6 -12.3539 -14.0269 -10.6375 5.1000 0.0845 37.3745
#
#
#
# Elastic Compliance Matrix: (Units=1/GPa)
#
#
# Indices 1 2 3 4 5 6 
#
# 1 0.010367 -0.000537 -0.002384 0.001235 -0.006583 0.002393
# 2 -0.000537 0.013571 -0.003778 0.001043 -0.004855 0.003709
# 3 -0.002384 -0.003778 0.008838 0.002570 -0.000507 -0.000040
# 4 0.001235 0.001043 0.002570 0.026726 -0.000619 -0.002114
# 5 -0.006583 -0.004855 -0.000507 -0.000619 0.076759 -0.004232
# 6 0.002393 0.003709 -0.000040 -0.002114 -0.004232 0.029226
#
#
# Mechanical properties :
#
#
# Convention : Reuss Voigt Hill
#
# Bulk Modulus (GPa) = 51.60466 69.40306 60.50386
# Shear Modulus (GPa) = 26.97700 34.86454 30.92077
#
# Velocity S-wave (km/s) = 3.59101 4.08237 3.84455
# Velocity P-wave (km/s) = 6.47005 7.44289 6.97345
#
# Compressibility (1/GPa) = 0.01937810
#
# Stress axis : x y z
#
# Youngs Moduli (GPa) = 96.46191 73.68914 113.14177
#
# Poissons Ratio (x) = 0.03956 0.26969
# Poissons Ratio (y) = 0.05178 0.42749
# Poissons Ratio (z) = 0.22993 0.27842
#
# Static dielectric constant tensor:
#      x y z
#    x 1.752220 0.006180 -0.017720 
#    y 0.006180 1.806360 0.024260 
#    z -0.017720 0.024260 1.751620 
# 
# From -- ./inp_files/428430.got.cif
#   From: 2010.05.17/outbox.ucp.g08.bks.cvg/sg2_215_cif.got.tgz:428430.got - 2010.06.11 11:32:03.
