data_PCOD9074301
_publ_section_title
;
Structure prediction by ZEFSAII (Michael W. Deem and Ramdas Pophale) SiO2 
 PCOD9074301
Probable space group: P -1
;
_chemical_formula_sum "Si O2"
_cell_formula_units_Z 16
_cell_length_a 18.000000
_cell_length_b 21.000000
_cell_length_c 12.000000
_cell_angle_alpha 150.000000
_cell_angle_beta 140.000000
_cell_angle_gamma 20.000000
_cell_volume 744.844803
_symmetry_space_group_name_H-M "P -1"
_symmetry_group_IT_number 2
_symmetry_cell_setting 'triclinic'
loop_
_space_group_symop_operation_xyz
x,y,z
-x,-y,-z
loop_
_atom_site_type_symbol
_atom_site_label
_atom_site_fract_x
_atom_site_fract_y
_atom_site_fract_z
Si Si1 0.883599 0.408430 0.150666
Si Si2 0.926674 0.315451 0.819096
Si Si3 0.439742 0.479914 0.156935
Si Si4 0.343071 0.445122 0.489162
Si Si5 0.807477 0.953433 0.692867
Si Si6 0.317528 0.984252 0.605876
Si Si7 0.643866 0.760013 0.018459
Si Si8 0.754470 0.824642 0.631566
O O1 0.775986 0.651594 0.384501
O O2 0.034859 0.289920 0.252688
O O3 0.019398 0.260473 0.965539
O O4 0.714951 0.445524 0.004582
O O5 0.718242 0.414773 0.758819
O O6 0.822756 0.536389 0.973995
O O7 0.126972 0.093698 0.628379
O O8 0.512374 0.559277 0.362039
O O9 0.679691 0.181780 0.964826
O O10 0.449999 0.268387 0.448381
O O11 0.076172 0.717101 0.622363
O O12 0.366984 0.333901 0.236814
O O13 0.736799 0.894471 0.592017
O O14 0.703875 0.043196 0.586135
O O15 0.294834 0.159548 0.838880
O O16 0.426150 0.980238 0.182110
#
# Coordination Sequence:
#
# PCOD9074301 Si02
#       8
#     2   2   2   2   2   2   2   2
#     4   9  22  40  73 101 133 180 232 287 337 405
#     4  10  22  46  70 101 134 184 228 282 345 409
#     4  10  25  50  67 100 140 189 230 278 346 413
#     4  12  29  46  69 104 142 188 228 283 346 415
#     4  12  26  46  72 104 137 183 234 288 344 409
#     4  12  27  46  71 106 143 178 228 297 348 398
#     4  12  24  45  71 105 141 180 232 289 346 408
#     4  11  22  42  72 105 136 178 239 284 342 412
#
# _framework density 21.480985
#
# number of rings (size 3 to 8) (size 9 to 14) (size 15 to 20)
#    0.750    0.250    2.500    3.375    7.000    3.000 
#    2.250    0.000    0.000    0.000    0.000    0.000 
#    0.000    0.000    0.000    0.000    0.000    0.000 
#
# Total GULP energy -89181.626603 kJ/mol
# GULP energy per Si atom -5573.851663 kJ/mol
# Density = 2.143209 g / cm^3
# Si number density = 21.480985 Si / 1000 Ang^3
#
#
#
# Elastic Constant Matrix: (Units=GPa)
#
#
# Indices 1 2 3 4 5 6 
#
# 1 115.7835 41.3879 46.1745 -0.1334 -19.6873 -17.8250
# 2 41.3879 22.9222 -16.1462 -7.2573 -13.6673 -4.1616
# 3 46.1745 -16.1462 58.6343 -7.5763 -4.4085 -15.7391
# 4 -0.1334 -7.2573 -7.5763 30.3769 -6.4356 -3.0658
# 5 -19.6873 -13.6673 -4.4085 -6.4356 46.2579 -2.1696
# 6 -17.8250 -4.1616 -15.7391 -3.0658 -2.1696 45.4515
#
#
#
# Elastic Compliance Matrix: (Units=1/GPa)
#
#
# Indices 1 2 3 4 5 6 
#
# 1 -0.002730 0.024719 0.013058 0.011836 0.009359 0.006959
# 2 0.024719 -0.036941 -0.034634 -0.019525 -0.006755 -0.007321
# 3 0.013058 -0.034634 -0.004899 -0.010940 -0.006702 -0.000804
# 4 0.011836 -0.019525 -0.010940 0.026072 0.001896 0.000915
# 5 0.009359 -0.006755 -0.006702 0.001896 0.023323 0.001972
# 6 0.006959 -0.007321 -0.000804 0.000915 0.001972 0.023938
#
#
# Mechanical properties :
#
#
# Convention : Reuss Voigt Hill
#
# Bulk Modulus (GPa) = -26.11978 37.79693 5.83858
# Shear Modulus (GPa) = 514.63673 32.81218 273.72445
#
# Velocity S-wave (km/s) = 15.49509 3.91256 11.30058
# Velocity P-wave (km/s) = 17.54835 6.16803 13.15274
#
# Compressibility (1/GPa) = -0.03828516
#
# Stress axis : x y z
#
# Youngs Moduli (GPa) = -366.24525 -27.07037 -204.11378
#
# Poissons Ratio (x) = 0.66915 2.66535
# Poissons Ratio (y) = 9.05319 -7.06937
# Poissons Ratio (z) = 4.78248 -0.93757
#
# Static dielectric constant tensor:
#      x y z
#    x 1.767220 -0.007970 -0.003090 
#    y -0.007970 1.868100 0.062290 
#    z -0.003090 0.062290 1.776360 
# 
# From -- ./inp_files/467189.got.cif
#   From: 2010.05.17/outbox.ucp.g08.bks.cvg/sg2_234_cif.got.tgz:467189.got - 2010.06.11 11:32:03.
