data_PCOD9074634
_publ_section_title
;
Structure prediction by ZEFSAII (Michael W. Deem and Ramdas Pophale) SiO2 
 PCOD9074634
Probable space group: P -1
;
_chemical_formula_sum "Si O2"
_cell_formula_units_Z 14
_cell_length_a 18.000000
_cell_length_b 6.000000
_cell_length_c 6.000000
_cell_angle_alpha 100.000000
_cell_angle_beta 80.000000
_cell_angle_gamma 100.000000
_cell_volume 621.543548
_symmetry_space_group_name_H-M "P -1"
_symmetry_group_IT_number 2
_symmetry_cell_setting 'triclinic'
loop_
_space_group_symop_operation_xyz
x,y,z
-x,-y,-z
loop_
_atom_site_type_symbol
_atom_site_label
_atom_site_fract_x
_atom_site_fract_y
_atom_site_fract_z
Si Si1 0.671268 0.842234 0.998381
Si Si2 0.405751 0.892222 0.269768
Si Si3 0.194486 0.231567 0.785923
Si Si4 0.717094 0.474849 0.579792
Si Si5 0.463777 0.298895 0.643477
Si Si6 0.133272 0.509025 0.225300
Si Si7 0.910946 0.988335 0.580778
O O1 0.681749 0.669520 0.764337
O O2 0.632906 0.042442 0.929607
O O3 0.754278 0.890403 0.085774
O O4 0.613525 0.705949 0.180263
O O5 0.342688 0.751558 0.437661
O O6 0.475129 0.745758 0.205178
O O7 0.441980 0.104882 0.434387
O O8 0.251859 0.406743 0.640329
O O9 0.142739 0.057946 0.618766
O O10 0.143320 0.401467 0.959920
O O11 0.785574 0.416651 0.687227
O O12 0.500000 0.500000 0.500000
O O13 0.106108 0.261439 0.324511
O O14 0.098720 0.751185 0.282648
O O15 0.000000 0.000000 0.500000
#
# Coordination Sequence:
#
# PCOD9074634 Si02
#       7
#     2   2   2   2   2   2   2
#     4  11  23  42  65  94 132 179 237 292 361 424
#     4  11  24  40  65  95 128 180 233 292 356 424
#     4  10  24  46  70 106 143 192 237 300 360 431
#     4  10  24  43  64  97 134 179 237 294 349 430
#     4  11  25  42  63  92 136 179 229 291 364 427
#     4  10  25  43  75 107 147 195 240 298 365 428
#     4  11  25  48  74 112 152 190 243 298 357 440
#
# _framework density 22.524567999999999
#
# number of rings (size 3 to 8) (size 9 to 14) (size 15 to 20)
#    0.000    1.429    0.000    3.429    8.000   10.286 
#    2.571    0.000    0.000    0.000    0.000    0.000 
#    0.000    0.000    0.000    0.000    0.000    0.000 
#
# Total GULP energy -78030.808557 kJ/mol
# GULP energy per Si atom -5573.629183 kJ/mol
# Density = 2.247330 g / cm^3
# Si number density = 22.524568 Si / 1000 Ang^3
#
#
#
# Elastic Constant Matrix: (Units=GPa)
#
#
# Indices 1 2 3 4 5 6 
#
# 1 76.9538 51.3372 27.5312 -14.1990 -24.8803 7.5295
# 2 51.3372 114.0278 47.1384 8.5301 -4.8555 4.6927
# 3 27.5312 47.1384 86.8942 5.1646 1.7211 -5.5658
# 4 -14.1990 8.5301 5.1646 10.3647 -20.5131 2.3316
# 5 -24.8803 -4.8555 1.7211 -20.5131 15.3353 11.2477
# 6 7.5295 4.6927 -5.5658 2.3316 11.2477 40.1512
#
#
#
# Elastic Compliance Matrix: (Units=1/GPa)
#
#
# Indices 1 2 3 4 5 6 
#
# 1 0.007095 -0.003119 0.000897 -0.015780 -0.013517 0.003861
# 2 -0.003119 0.013202 -0.006761 0.003157 0.007080 -0.004062
# 3 0.000897 -0.006761 0.014657 0.004725 0.002826 0.001588
# 4 -0.015780 0.003157 0.004725 0.000599 -0.033587 0.012619
# 5 -0.013517 0.007080 0.002826 -0.033587 -0.003391 0.004999
# 6 0.003861 -0.004062 0.001588 0.012619 0.004999 0.022743
#
#
# Mechanical properties :
#
#
# Convention : Reuss Voigt Hill
#
# Bulk Modulus (GPa) = 58.86998 58.87662 58.87330
# Shear Modulus (GPa) = 63.66645 23.29485 43.48065
#
# Velocity S-wave (km/s) = 5.32228 3.21938 4.39836
# Velocity P-wave (km/s) = 7.99760 6.32573 7.21028
#
# Compressibility (1/GPa) = 0.01698659
#
# Stress axis : x y z
#
# Youngs Moduli (GPa) = 140.94057 75.74766 68.22741
#
# Poissons Ratio (x) = 0.23627 -0.06120
# Poissons Ratio (y) = 0.43962 0.46131
# Poissons Ratio (z) = -0.12643 0.51216
#
# Static dielectric constant tensor:
#      x y z
#    x 1.901810 0.025320 -0.082910 
#    y 0.025320 2.019810 -0.085420 
#    z -0.082910 -0.085420 1.913420 
# 
# From -- ./inp_files/7605.got.cif
#   From: 2010.05.17/outbox.ucp.g08.bks.cvg/sg2_4_cif.got.tgz:7605.got - 2010.06.11 11:32:03.
