data_PCOD9074162
_publ_section_title
;
Structure prediction by ZEFSAII (Michael W. Deem and Ramdas Pophale) SiO2 
 PCOD9074162
Probable space group: P -1
;
_chemical_formula_sum "Si O2"
_cell_formula_units_Z 14
_cell_length_a 15.000000
_cell_length_b 24.000000
_cell_length_c 15.000000
_cell_angle_alpha 160.000000
_cell_angle_beta 30.000000
_cell_angle_gamma 160.000000
_cell_volume 624.976433
_symmetry_space_group_name_H-M "P -1"
_symmetry_group_IT_number 2
_symmetry_cell_setting 'triclinic'
loop_
_space_group_symop_operation_xyz
x,y,z
-x,-y,-z
loop_
_atom_site_type_symbol
_atom_site_label
_atom_site_fract_x
_atom_site_fract_y
_atom_site_fract_z
Si Si1 0.947659 0.379373 0.232171
Si Si2 0.456901 0.781157 0.514425
Si Si3 0.593477 0.837245 0.100549
Si Si4 0.894044 0.341310 0.658769
Si Si5 0.663592 0.264774 0.022691
Si Si6 0.030130 0.052215 0.658194
Si Si7 0.435224 0.403379 0.515027
O O1 0.225041 0.615995 0.394034
O O2 0.954976 0.456822 0.243759
O O3 0.705588 0.296422 0.370759
O O4 0.946603 0.183273 0.942147
O O5 0.661044 0.770070 0.321437
O O6 0.638729 0.060120 0.758805
O O7 0.379293 0.748108 0.224593
O O8 0.836330 0.118025 0.339629
O O9 0.478738 0.808938 0.059941
O O10 0.595371 0.642287 0.795418
O O11 0.046579 0.463210 0.804279
O O12 0.517045 0.271673 0.235659
O O13 0.000000 0.000000 0.500000
O O14 0.851060 0.810671 0.512180
O O15 0.500000 0.500000 0.500000
#
# Coordination Sequence:
#
# PCOD9074162 Si02
#       7
#     2   2   2   2   2   2   2
#     4  11  24  45  66 101 135 175 231 279 339 402
#     4  11  24  42  71  94 138 178 222 285 336 400
#     4  10  22  43  61  98 134 171 227 277 332 406
#     4  11  23  39  70  93 133 176 223 278 335 407
#     4  11  21  41  67  94 131 178 219 277 341 394
#     4  12  25  42  70 102 134 177 230 279 338 411
#     4  10  23  42  66  95 139 173 225 281 332 408
#
# _framework density 22.400845
#
# number of rings (size 3 to 8) (size 9 to 14) (size 15 to 20)
#    0.000    1.143    2.857    3.429    2.000    2.857 
#    0.000    0.000    0.000    0.000    0.000    0.000 
#    0.000    0.000    0.000    0.000    0.000    0.000 
#
# Total GULP energy -78069.289069 kJ/mol
# GULP energy per Si atom -5576.377791 kJ/mol
# Density = 2.234986 g / cm^3
# Si number density = 22.400845 Si / 1000 Ang^3
#
#
#
# Elastic Constant Matrix: (Units=GPa)
#
#
# Indices 1 2 3 4 5 6 
#
# 1 64.3064 42.0002 9.1427 7.5371 14.6106 -8.5927
# 2 42.0002 120.9476 29.7880 -4.9461 -10.6497 0.0436
# 3 9.1427 29.7880 134.0370 15.2729 17.4509 -10.6992
# 4 7.5371 -4.9461 15.2729 38.8311 6.7359 2.8016
# 5 14.6106 -10.6497 17.4509 6.7359 21.0300 2.9190
# 6 -8.5927 0.0436 -10.6992 2.8016 2.9190 23.5533
#
#
#
# Elastic Compliance Matrix: (Units=1/GPa)
#
#
# Indices 1 2 3 4 5 6 
#
# 1 0.052494 -0.028130 0.015183 -0.011080 -0.064685 0.035435
# 2 -0.028130 0.025003 -0.011779 0.007459 0.042620 -0.021829
# 3 0.015183 -0.011779 0.014906 -0.006462 -0.029132 0.016711
# 4 -0.011080 0.007459 -0.006462 0.030746 0.008616 -0.011716
# 5 -0.064685 0.042620 -0.029132 0.008616 0.143218 -0.055685
# 6 0.035435 -0.021829 0.016711 -0.011716 -0.055685 0.071310
#
#
# Mechanical properties :
#
#
# Convention : Reuss Voigt Hill
#
# Bulk Modulus (GPa) = 23.28190 53.46141 38.37166
# Shear Modulus (GPa) = 12.45496 32.57357 22.51427
#
# Velocity S-wave (km/s) = 2.36053 3.81743 3.17371
# Velocity P-wave (km/s) = 4.22438 6.58392 5.53143
#
# Compressibility (1/GPa) = 0.04295182
#
# Stress axis : x y z
#
# Youngs Moduli (GPa) = 19.04964 39.99471 67.08751
#
# Poissons Ratio (x) = 1.12506 -1.01862
# Poissons Ratio (y) = 0.53587 0.79024
# Poissons Ratio (z) = -0.28924 0.47111
#
# Static dielectric constant tensor:
#      x y z
#    x 1.872570 0.050390 -0.019670 
#    y 0.050390 1.916020 0.009700 
#    z -0.019670 0.009700 1.832880 
# 
# From -- ./inp_files/390868.got.cif
#   From: 2010.05.17/outbox.ucp.g08.bks.cvg/sg2_196_cif.got.tgz:390868.got - 2010.06.11 11:32:03.
