data_PCOD9074417
_publ_section_title
;
Structure prediction by ZEFSAII (Michael W. Deem and Ramdas Pophale) SiO2 
 PCOD9074417
Probable space group: P -1
;
_chemical_formula_sum "Si O2"
_cell_formula_units_Z 16
_cell_length_a 12.000000
_cell_length_b 9.000000
_cell_length_c 9.000000
_cell_angle_alpha 80.000000
_cell_angle_beta 120.000000
_cell_angle_gamma 120.000000
_cell_volume 725.212580
_symmetry_space_group_name_H-M "P -1"
_symmetry_group_IT_number 2
_symmetry_cell_setting 'triclinic'
loop_
_space_group_symop_operation_xyz
x,y,z
-x,-y,-z
loop_
_atom_site_type_symbol
_atom_site_label
_atom_site_fract_x
_atom_site_fract_y
_atom_site_fract_z
Si Si1 0.281452 0.877088 0.146778
Si Si2 0.157288 0.020602 0.545682
Si Si3 0.334691 0.568164 0.281305
Si Si4 0.722642 0.225979 0.179382
Si Si5 0.943219 0.087500 0.824373
Si Si6 0.461877 0.267187 0.129051
Si Si7 0.358724 0.407265 0.602619
Si Si8 0.230863 0.411344 0.916469
O O1 0.344928 0.754897 0.271311
O O2 0.134216 0.825551 0.148041
O O3 0.364631 0.086515 0.181446
O O4 0.263053 0.831600 0.967557
O O5 0.266691 0.215627 0.638255
O O6 0.214928 0.883334 0.662057
O O7 0.154417 0.020863 0.362261
O O8 0.000000 0.000000 0.500000
O O9 0.275552 0.447781 0.407412
O O10 0.497521 0.596592 0.361048
O O11 0.250170 0.469813 0.092711
O O12 0.555244 0.201618 0.097749
O O13 0.794289 0.435519 0.200910
O O14 0.086517 0.236857 0.818286
O O15 0.000000 0.000000 0.000000
O O16 0.580937 0.425237 0.280101
O O17 0.360290 0.353332 0.991847
#
# Coordination Sequence:
#
# PCOD9074417 Si02
#       8
#     2   2   2   2   2   2   2   2
#     4  11  24  42  71 103 136 181 228 282 343 406
#     4  12  29  47  69  99 144 184 226 286 346 408
#     4   9  21  41  68 103 136 176 227 291 336 398
#     4  11  26  45  69 106 139 178 231 288 344 407
#     4  12  25  45  74  99 138 184 232 273 342 420
#     4  11  23  42  75 103 139 178 231 288 344 406
#     4  10  23  42  68  99 140 178 228 283 346 397
#     4  10  23  44  71 103 137 184 232 278 343 407
#
# _framework density 22.062495999999999
#
# number of rings (size 3 to 8) (size 9 to 14) (size 15 to 20)
#    0.000    1.250    1.250    3.000    7.000    6.000 
#    0.000    0.000    0.000    0.000    0.000    0.000 
#    0.000    0.000    0.000    0.000    0.000    0.000 
#
# Total GULP energy -89071.246333 kJ/mol
# GULP energy per Si atom -5566.952896 kJ/mol
# Density = 2.201228 g / cm^3
# Si number density = 22.062496 Si / 1000 Ang^3
#
#
#
# Elastic Constant Matrix: (Units=GPa)
#
#
# Indices 1 2 3 4 5 6 
#
# 1 133.3522 20.1089 32.5200 1.1634 -7.5833 -36.7880
# 2 20.1089 150.5371 43.6764 -14.6459 5.1144 -34.7362
# 3 32.5200 43.6764 99.5902 -18.5734 -5.3381 -25.5959
# 4 1.1634 -14.6459 -18.5734 34.8594 -0.3849 15.6109
# 5 -7.5833 5.1144 -5.3381 -0.3849 17.7833 -3.9541
# 6 -36.7880 -34.7362 -25.5959 15.6109 -3.9541 43.9114
#
#
#
# Elastic Compliance Matrix: (Units=1/GPa)
#
#
# Indices 1 2 3 4 5 6 
#
# 1 0.011654 0.000987 -0.001912 -0.006437 0.006712 0.012322
# 2 0.000987 0.008736 -0.002757 -0.000632 -0.001551 0.006216
# 3 -0.001912 -0.002757 0.013826 0.005012 0.004889 0.002935
# 4 -0.006437 -0.000632 0.005012 0.038957 -0.004037 -0.017185
# 5 0.006712 -0.001551 0.004889 -0.004037 0.064135 0.014456
# 6 0.012322 0.006216 0.002935 -0.017185 0.014456 0.047135
#
#
# Mechanical properties :
#
#
# Convention : Reuss Voigt Hill
#
# Bulk Modulus (GPa) = 37.24209 64.01000 50.62605
# Shear Modulus (GPa) = 24.90555 38.45576 31.68066
#
# Velocity S-wave (km/s) = 3.36350 4.17950 3.79351
# Velocity P-wave (km/s) = 5.65695 7.23650 6.49492
#
# Compressibility (1/GPa) = 0.02685134
#
# Stress axis : x y z
#
# Youngs Moduli (GPa) = 85.81053 114.46236 72.32952
#
# Poissons Ratio (x) = -0.11298 0.13829
# Poissons Ratio (y) = -0.08470 0.19943
# Poissons Ratio (z) = 0.16407 0.31561
#
# Static dielectric constant tensor:
#      x y z
#    x 1.891790 0.109670 -0.045890 
#    y 0.109670 1.857790 -0.032760 
#    z -0.045890 -0.032760 1.867880 
# 
# From -- ./inp_files/243651.got.cif
#   From: 2010.05.17/outbox.ucp.g08.bks.cvg/sg2_122_cif.got.tgz:243651.got - 2010.06.11 11:32:03.
