data_PCOD9074143
_publ_section_title
;
Structure prediction by ZEFSAII (Michael W. Deem and Ramdas Pophale) SiO2 
 PCOD9074143
Probable space group: P -1
;
_chemical_formula_sum "Si O2"
_cell_formula_units_Z 15
_cell_length_a 15.000000
_cell_length_b 12.000000
_cell_length_c 24.000000
_cell_angle_alpha 150.000000
_cell_angle_beta 160.000000
_cell_angle_gamma 30.000000
_cell_volume 703.466731
_symmetry_space_group_name_H-M "P -1"
_symmetry_group_IT_number 2
_symmetry_cell_setting 'triclinic'
loop_
_space_group_symop_operation_xyz
x,y,z
-x,-y,-z
loop_
_atom_site_type_symbol
_atom_site_label
_atom_site_fract_x
_atom_site_fract_y
_atom_site_fract_z
Si Si1 0.495958 0.031247 0.640812
Si Si2 0.353271 0.073259 0.697879
Si Si3 0.312004 0.175380 0.920701
Si Si4 0.797041 0.990742 0.694081
Si Si5 0.238751 0.671081 0.272186
Si Si6 0.299098 0.546634 0.774754
Si Si7 0.500000 0.500000 0.000000
Si Si8 0.276972 0.809311 0.644759
O O1 0.528933 0.985975 0.706958
O O2 0.761629 0.005269 0.746545
O O3 0.312544 0.303515 0.647252
O O4 0.357011 0.849908 0.454611
O O5 0.471137 0.237666 0.877123
O O6 0.036631 0.197817 0.546097
O O7 0.339856 0.870671 0.645005
O O8 0.027461 0.324548 0.846727
O O9 0.272326 0.013328 0.775288
O O10 0.479979 0.348040 0.076784
O O11 0.500000 0.000000 0.000000
O O12 0.858538 0.205267 0.791281
O O13 0.500000 0.000000 0.500000
O O14 0.012032 0.748952 0.696527
O O15 0.485412 0.430932 0.305153
O O16 0.396488 0.488887 0.870259
#
# Coordination Sequence:
#
# PCOD9074143 Si02
#       8
#     2   2   2   2   2   2   1   2
#     4  10  24  42  68 100 128 182 229 272 343 404
#     4  10  22  47  70  99 137 182 226 284 347 405
#     4  12  25  46  68  99 140 182 230 278 351 408
#     4  10  24  41  66 102 135 176 228 283 337 406
#     4  11  25  43  68 104 132 182 233 279 341 414
#     4  11  24  46  68  95 142 179 226 287 343 404
#     4  10  22  42  70  96 132 180 222 280 342 400
#     4  11  25  45  71  98 141 180 227 287 341 413
#
# _framework density 21.322970000000002
#
# number of rings (size 3 to 8) (size 9 to 14) (size 15 to 20)
#    0.000    1.333    4.000    0.000    9.333    4.267 
#    2.400    1.333    0.000    0.000    0.000    0.000 
#    0.000    0.000    0.000    0.000    0.000    0.000 
#
# Total GULP energy -83520.085457 kJ/mol
# GULP energy per Si atom -5568.005697 kJ/mol
# Density = 2.127444 g / cm^3
# Si number density = 21.322970 Si / 1000 Ang^3
#
#
#
# Elastic Constant Matrix: (Units=GPa)
#
#
# Indices 1 2 3 4 5 6 
#
# 1 124.9298 9.5510 20.4939 5.6804 14.6628 -4.9229
# 2 9.5510 64.0653 -10.0652 0.3726 23.6039 -8.4263
# 3 20.4939 -10.0652 41.7106 11.7375 4.8269 -8.3508
# 4 5.6804 0.3726 11.7375 26.0689 -2.6518 -0.8276
# 5 14.6628 23.6039 4.8269 -2.6518 31.6534 -1.6378
# 6 -4.9229 -8.4263 -8.3508 -0.8276 -1.6378 33.2959
#
#
#
# Elastic Compliance Matrix: (Units=1/GPa)
#
#
# Indices 1 2 3 4 5 6 
#
# 1 0.009138 -0.001012 -0.004344 -0.000315 -0.002850 -0.000142
# 2 -0.001012 0.027369 0.013829 -0.008381 -0.022289 0.008941
# 3 -0.004344 0.013829 0.038446 -0.017734 -0.015063 0.011318
# 4 -0.000315 -0.008381 -0.017734 0.047688 0.012847 -0.004798
# 5 -0.002850 -0.022289 -0.015063 0.012847 0.052548 -0.006936
# 6 -0.000142 0.008941 0.011318 -0.004798 -0.006936 0.034654
#
#
# Mechanical properties :
#
#
# Convention : Reuss Voigt Hill
#
# Bulk Modulus (GPa) = 10.88131 30.07389 20.47760
# Shear Modulus (GPa) = 22.36862 32.25205 27.31034
#
# Velocity S-wave (km/s) = 3.24240 3.89337 3.58270
# Velocity P-wave (km/s) = 4.37398 5.86052 5.17095
#
# Compressibility (1/GPa) = 0.09190071
#
# Stress axis : x y z
#
# Youngs Moduli (GPa) = 109.43804 36.53722 26.01064
#
# Poissons Ratio (x) = 0.03696 0.11298
# Poissons Ratio (y) = 0.11071 -0.35971
# Poissons Ratio (z) = 0.47537 -0.50528
#
# Static dielectric constant tensor:
#      x y z
#    x 1.875530 0.121710 0.125550 
#    y 0.121710 1.871120 0.121250 
#    z 0.125550 0.121250 1.894800 
# 
# From -- ./inp_files/109675.got.cif
#   From: 2010.05.17/outbox.ucp.g08.bks.cvg/sg2_55_cif.got.tgz:109675.got - 2010.06.11 11:32:03.
