data_PCOD9074151
_publ_section_title
;
Structure prediction by ZEFSAII (Michael W. Deem and Ramdas Pophale) SiO2 
 PCOD9074151
Probable space group: P -1
;
_chemical_formula_sum "Si O2"
_cell_formula_units_Z 16
_cell_length_a 12.000000
_cell_length_b 9.000000
_cell_length_c 27.000000
_cell_angle_alpha 30.000000
_cell_angle_beta 30.000000
_cell_angle_gamma 40.000000
_cell_volume 727.497153
_symmetry_space_group_name_H-M "P -1"
_symmetry_group_IT_number 2
_symmetry_cell_setting 'triclinic'
loop_
_space_group_symop_operation_xyz
x,y,z
-x,-y,-z
loop_
_atom_site_type_symbol
_atom_site_label
_atom_site_fract_x
_atom_site_fract_y
_atom_site_fract_z
Si Si1 0.687437 0.234294 0.001726
Si Si2 0.700939 0.166610 0.224200
Si Si3 0.984399 0.947704 0.267753
Si Si4 0.898158 0.369684 0.269972
Si Si5 0.833048 0.333953 0.498801
Si Si6 0.594238 0.909557 0.233452
Si Si7 0.236987 0.939616 0.492806
Si Si8 0.507685 0.840117 0.096543
O O1 0.674369 0.065995 0.107993
O O2 0.621628 0.030248 0.040277
O O3 0.500000 0.500000 0.000000
O O4 0.917117 0.391941 0.860813
O O5 0.913511 0.069575 0.204890
O O6 0.640647 0.518639 0.139521
O O7 0.697496 0.038417 0.206634
O O8 0.486936 0.038249 0.371182
O O9 0.943763 0.210583 0.246577
O O10 0.833981 0.673026 0.417392
O O11 0.241676 0.830414 0.210475
O O12 0.667622 0.563637 0.301374
O O13 0.875338 0.141330 0.389357
O O14 0.671270 0.105017 0.652756
O O15 0.770574 0.330945 0.465446
O O16 0.082614 0.196222 0.451419
O O17 0.500000 0.000000 0.000000
#
# Coordination Sequence:
#
# PCOD9074151 Si02
#       8
#     2   2   2   2   2   2   2   2
#     4  12  25  47  68  97 140 182 232 279 347 414
#     4  11  25  47  74 104 139 179 235 287 341 409
#     4  12  26  45  70 107 139 181 231 285 350 404
#     4  12  26  43  67 101 140 185 225 284 347 408
#     4  10  22  42  72 102 134 180 233 282 341 408
#     4  11  25  45  71 103 138 184 228 284 345 411
#     4  10  22  43  71 101 137 181 228 283 345 406
#     4  12  28  47  72 103 139 183 233 287 341 410
#
# _framework density 21.993213000000001
#
# number of rings (size 3 to 8) (size 9 to 14) (size 15 to 20)
#    0.000    0.750    2.500    4.125    3.500    6.000 
#    0.000    0.000    0.000    0.000    0.000    0.000 
#    0.000    0.000    0.000    0.000    0.000    0.000 
#
# Total GULP energy -89441.833018 kJ/mol
# GULP energy per Si atom -5590.114564 kJ/mol
# Density = 2.194316 g / cm^3
# Si number density = 21.993213 Si / 1000 Ang^3
#
#
#
# Elastic Constant Matrix: (Units=GPa)
#
#
# Indices 1 2 3 4 5 6 
#
# 1 98.7850 -0.3925 58.0596 -12.2579 9.8330 14.3247
# 2 -0.3925 65.5811 15.3601 -19.6311 -4.6661 6.3257
# 3 58.0596 15.3601 80.3347 -8.9959 -5.2279 31.5389
# 4 -12.2579 -19.6311 -8.9959 31.9172 -0.9513 -1.2690
# 5 9.8330 -4.6661 -5.2279 -0.9513 33.4779 4.0195
# 6 14.3247 6.3257 31.5389 -1.2690 4.0195 32.8121
#
#
#
# Elastic Compliance Matrix: (Units=1/GPa)
#
#
# Indices 1 2 3 4 5 6 
#
# 1 0.023850 0.005408 -0.023208 0.006106 -0.011198 0.012460
# 2 0.005408 0.020711 -0.006495 0.013016 0.000616 0.000318
# 3 -0.023208 -0.006495 0.044635 -0.001161 0.016887 -0.033633
# 4 0.006106 0.013016 -0.001161 0.041290 0.001328 -0.002625
# 5 -0.011198 0.000616 0.016887 0.001328 0.037847 -0.016046
# 6 0.012460 0.000318 -0.033633 -0.002625 -0.016046 0.059168
#
#
# Mechanical properties :
#
#
# Convention : Reuss Voigt Hill
#
# Bulk Modulus (GPa) = 24.62684 43.41723 34.02204
# Shear Modulus (GPa) = 17.26361 31.08637 24.17499
#
# Velocity S-wave (km/s) = 2.80474 3.76367 3.31902
# Velocity P-wave (km/s) = 4.65946 6.21860 5.49461
#
# Compressibility (1/GPa) = 0.04060611
#
# Stress axis : x y z
#
# Youngs Moduli (GPa) = 41.92895 48.28278 22.40373
#
# Poissons Ratio (x) = -0.26109 0.51994
# Poissons Ratio (y) = -0.22673 0.14552
# Poissons Ratio (z) = 0.97307 0.31361
#
# Static dielectric constant tensor:
#      x y z
#    x 1.668850 -0.068190 -0.153350 
#    y -0.068190 1.839470 0.017600 
#    z -0.153350 0.017600 1.763640 
# 
# From -- ./inp_files/355317.got.cif
#   From: 2010.05.17/outbox.ucp.g08.bks.cvg/sg2_178_cif.got.tgz:355317.got - 2010.06.11 11:32:03.
