data_PCOD9074764
_publ_section_title
;
Structure prediction by ZEFSAII (Michael W. Deem and Ramdas Pophale) SiO2 
 PCOD9074764
Probable space group: P -1
;
_chemical_formula_sum "Si O2"
_cell_formula_units_Z 12
_cell_length_a 6.000000
_cell_length_b 9.000000
_cell_length_c 12.000000
_cell_angle_alpha 60.000000
_cell_angle_beta 80.000000
_cell_angle_gamma 100.000000
_cell_volume 526.253775
_symmetry_space_group_name_H-M "P -1"
_symmetry_group_IT_number 2
_symmetry_cell_setting 'triclinic'
loop_
_space_group_symop_operation_xyz
x,y,z
-x,-y,-z
loop_
_atom_site_type_symbol
_atom_site_label
_atom_site_fract_x
_atom_site_fract_y
_atom_site_fract_z
Si Si1 0.118500 0.408339 0.114724
Si Si2 0.553341 0.761220 0.990253
Si Si3 0.802596 0.508652 0.602194
Si Si4 0.568081 0.870313 0.183373
Si Si5 0.636749 0.822165 0.441884
Si Si6 0.150585 0.823046 0.596082
O O1 0.267830 0.285443 0.094824
O O2 0.883292 0.277700 0.244503
O O3 0.324807 0.579509 0.087131
O O4 0.000000 0.500000 0.000000
O O5 0.477986 0.937103 0.896844
O O6 0.676068 0.818915 0.079134
O O7 0.670257 0.302448 0.721783
O O8 0.623730 0.615410 0.536557
O O9 0.000000 0.500000 0.500000
O O10 0.941170 0.661657 0.620014
O O11 0.695413 0.868601 0.290351
O O12 0.382106 0.838993 0.495167
O O13 0.823357 0.971124 0.446690
#
# Coordination Sequence:
#
# PCOD9074764 Si02
#       6
#     2   2   2   2   2   2
#     4  11  24  43  70  98 131 181 221 267 330 399
#     4  10  25  45  67  97 137 172 223 276 322 396
#     4  12  25  42  70 100 134 175 219 277 339 386
#     4  11  23  47  67  97 136 173 216 283 331 380
#     4  11  26  44  69 100 134 174 225 273 329 402
#     4  11  25  44  67  99 134 175 222 272 335 390
#
# _framework density 22.802686999999999
#
# number of rings (size 3 to 8) (size 9 to 14) (size 15 to 20)
#    0.000    1.000    3.333    2.000    4.667    2.667 
#    0.000    2.500    0.000    0.000    0.000    0.000 
#    0.000    0.000    0.000    0.000    0.000    0.000 
#
# Total GULP energy -66839.267175 kJ/mol
# GULP energy per Si atom -5569.938931 kJ/mol
# Density = 2.275079 g / cm^3
# Si number density = 22.802687 Si / 1000 Ang^3
#
#
#
# Elastic Constant Matrix: (Units=GPa)
#
#
# Indices 1 2 3 4 5 6 
#
# 1 -2.5330 21.0710 -25.4474 5.0910 14.0145 16.1818
# 2 21.0710 176.4164 26.7677 -15.3740 12.1165 8.9190
# 3 -25.4474 26.7677 45.0066 -11.1870 -12.9819 -1.5908
# 4 5.0910 -15.3740 -11.1870 41.9609 12.5061 4.4861
# 5 14.0145 12.1165 -12.9819 12.5061 -23.1395 -4.4024
# 6 16.1818 8.9190 -1.5908 4.4861 -4.4024 43.6662
#
#
#
# Elastic Compliance Matrix: (Units=1/GPa)
#
#
# Indices 1 2 3 4 5 6 
#
# 1 -0.035055 0.007883 -0.025277 0.000667 -0.004453 0.009942
# 2 0.007883 0.003970 0.003610 0.000151 0.005492 -0.003063
# 3 -0.025277 0.003610 0.004537 0.008633 -0.012562 0.006642
# 4 0.000667 0.000151 0.008633 0.023670 0.008721 -0.001516
# 5 -0.004453 0.005492 -0.012562 0.008721 -0.030534 -0.003904
# 6 0.009942 -0.003063 0.006642 -0.001516 -0.003904 0.019846
#
#
# Mechanical properties :
#
#
# Convention : Reuss Voigt Hill
#
# Bulk Modulus (GPa) = -18.47945 29.29695 5.40875
# Shear Modulus (GPa) = -1238.84499 25.59744 -606.62377
#
# Velocity S-wave (km/s) = -23.33385 3.35410 -16.32817
# Velocity P-wave (km/s) = 27.09390 5.27976 18.79100
#
# Compressibility (1/GPa) = -0.05411416
#
# Stress axis : x y z
#
# Youngs Moduli (GPa) = -28.52670 251.89930 220.39479
#
# Poissons Ratio (x) = -1.98584 5.57083
# Poissons Ratio (y) = 0.22489 -0.79560
# Poissons Ratio (z) = -0.72106 -0.90933
#
# Static dielectric constant tensor:
#      x y z
#    x 1.852370 0.086980 0.102640 
#    y 0.086980 1.870580 0.191710 
#    z 0.102640 0.191710 2.392580 
# 
# From -- ./inp_files/22193.got.cif
#   From: 2010.05.17/outbox.ucp.g08.bks.cvg/sg2_12_cif.got.tgz:22193.got - 2010.06.11 11:32:03.
