data_PCOD9074286
_publ_section_title
;
Structure prediction by ZEFSAII (Michael W. Deem and Ramdas Pophale) SiO2 
 PCOD9074286
Probable space group: P -1
;
_chemical_formula_sum "Si O2"
_cell_formula_units_Z 16
_cell_length_a 15.000000
_cell_length_b 18.000000
_cell_length_c 9.000000
_cell_angle_alpha 40.000000
_cell_angle_beta 30.000000
_cell_angle_gamma 40.000000
_cell_volume 740.097418
_symmetry_space_group_name_H-M "P -1"
_symmetry_group_IT_number 2
_symmetry_cell_setting 'triclinic'
loop_
_space_group_symop_operation_xyz
x,y,z
-x,-y,-z
loop_
_atom_site_type_symbol
_atom_site_label
_atom_site_fract_x
_atom_site_fract_y
_atom_site_fract_z
Si Si1 0.653645 0.259028 0.304843
Si Si2 0.044937 0.906703 0.218964
Si Si3 0.049315 0.289632 0.786825
Si Si4 0.724136 0.374064 0.760199
Si Si5 0.614510 0.998541 0.694937
Si Si6 0.407020 0.447738 0.582384
Si Si7 0.324203 0.018216 0.833578
Si Si8 0.055518 0.465374 0.250040
O O1 0.634255 0.135223 0.453729
O O2 0.528277 0.318033 0.537165
O O3 0.596729 0.357809 0.104214
O O4 0.868197 0.252685 0.047400
O O5 0.158981 0.766164 0.236103
O O6 0.828347 0.911895 0.549310
O O7 0.173030 0.955532 0.078204
O O8 0.000000 0.000000 0.000000
O O9 0.203786 0.162101 0.805114
O O10 0.121543 0.360808 0.442846
O O11 0.981626 0.398106 0.840179
O O12 0.615806 0.448675 0.665952
O O13 0.865284 0.445450 0.499273
O O14 0.463433 0.969588 0.846152
O O15 0.500000 0.000000 0.000000
O O16 0.500000 0.500000 0.500000
O O17 0.208299 0.442721 0.935522
O O18 0.500000 0.000000 0.500000
#
# Coordination Sequence:
#
# PCOD9074286 Si02
#       8
#     2   2   2   2   2   2   2   2
#     4  11  23  48  69  98 149 187 235 303 356 434
#     4  12  23  51  74 105 145 183 253 301 353 441
#     4  10  22  45  73 100 143 187 235 293 358 428
#     4  11  25  44  73  95 142 197 228 294 363 424
#     4  12  29  45  72 111 144 192 240 309 367 428
#     4  12  26  42  66 107 141 178 245 294 355 421
#     4  12  25  44  79 105 135 195 248 290 363 434
#     4  10  23  43  69 103 138 186 233 291 355 429
#
# _framework density 21.618776
#
# number of rings (size 3 to 8) (size 9 to 14) (size 15 to 20)
#    0.000    0.750    5.000    1.500    3.500    4.500 
#    0.000    0.000    0.000    0.000    0.000    0.000 
#    0.000    0.000    0.000    0.000    0.000    0.000 
#
# Total GULP energy -89139.926769 kJ/mol
# GULP energy per Si atom -5571.245423 kJ/mol
# Density = 2.156957 g / cm^3
# Si number density = 21.618776 Si / 1000 Ang^3
#
#
#
# Elastic Constant Matrix: (Units=GPa)
#
#
# Indices 1 2 3 4 5 6 
#
# 1 118.2380 -1.6201 12.3754 5.2131 -20.2289 5.9466
# 2 -1.6201 75.4856 -0.3090 10.9495 -7.9111 -0.3253
# 3 12.3754 -0.3090 64.8882 13.1764 0.1637 -7.6662
# 4 5.2131 10.9495 13.1764 33.3061 15.4108 -7.6636
# 5 -20.2289 -7.9111 0.1637 15.4108 36.8997 1.9166
# 6 5.9466 -0.3253 -7.6662 -7.6636 1.9166 20.0349
#
#
#
# Elastic Compliance Matrix: (Units=1/GPa)
#
#
# Indices 1 2 3 4 5 6 
#
# 1 0.011361 0.002704 -0.001303 -0.009227 0.011105 -0.008418
# 2 0.002704 0.016188 0.001382 -0.012456 0.010449 -0.005775
# 3 -0.001303 0.001382 0.017645 -0.007384 0.002374 0.004109
# 4 -0.009227 -0.012456 -0.007384 0.060327 -0.034245 0.026063
# 5 0.011105 0.010449 0.002374 -0.034245 0.050768 -0.020174
# 6 -0.008418 -0.005775 0.004109 0.026063 -0.020174 0.065789
#
#
# Mechanical properties :
#
#
# Convention : Reuss Voigt Hill
#
# Bulk Modulus (GPa) = 19.69994 31.05604 25.37799
# Shear Modulus (GPa) = 21.41953 34.59251 28.00602
#
# Velocity S-wave (km/s) = 3.15109 4.00448 3.60314
# Velocity P-wave (km/s) = 4.72983 5.98144 5.39208
#
# Compressibility (1/GPa) = 0.05076158
#
# Stress axis : x y z
#
# Youngs Moduli (GPa) = 88.02020 61.77333 56.67289
#
# Poissons Ratio (x) = -0.16707 0.07383
# Poissons Ratio (y) = -0.23805 -0.07832
# Poissons Ratio (z) = 0.11467 -0.08537
#
# Static dielectric constant tensor:
#      x y z
#    x 1.744620 -0.013170 0.072400 
#    y -0.013170 1.732640 0.068410 
#    z 0.072400 0.068410 1.833380 
# 
# From -- ./inp_files/317936.got.cif
#   From: 2010.05.17/outbox.ucp.g08.bks.cvg/sg2_159_cif.got.tgz:317936.got - 2010.06.11 11:32:03.
