data_PCOD9074768
_publ_section_title
;
Structure prediction by ZEFSAII (Michael W. Deem and Ramdas Pophale) SiO2 
 PCOD9074768
Probable space group: P -1
;
_chemical_formula_sum "Si O2"
_cell_formula_units_Z 16
_cell_length_a 16.256078
_cell_length_b 9.985260
_cell_length_c 9.176556
_cell_angle_alpha 62.463984
_cell_angle_beta 113.282977
_cell_angle_gamma 149.158246
_cell_volume 677.135345
_symmetry_space_group_name_H-M "P -1"
_symmetry_group_IT_number 2
_symmetry_cell_setting 'triclinic'
loop_
_space_group_symop_operation_xyz
x,y,z
-x,-y,-z
loop_
_atom_site_type_symbol
_atom_site_label
_atom_site_fract_x
_atom_site_fract_y
_atom_site_fract_z
Si Si1 0.922384 0.053153 0.872119
Si Si2 0.021258 0.258472 0.518362
Si Si3 0.524414 0.762221 0.387768
Si Si4 0.597831 0.158092 0.139828
Si Si5 0.777169 0.722946 0.425763
Si Si6 0.434305 0.558879 0.092179
Si Si7 0.796244 0.000732 0.077338
Si Si8 0.857094 0.282006 0.257070
O O1 0.731167 0.761752 0.861789
O O2 0.001887 0.223903 0.694772
O O3 0.910769 0.161384 0.938073
O O4 0.000000 0.000000 0.000000
O O5 0.008181 0.410460 0.371379
O O6 0.177482 0.387551 0.507680
O O7 0.883666 0.954087 0.507570
O O8 0.409101 0.520772 0.541233
O O9 0.511411 0.926194 0.309420
O O10 0.602839 0.340912 0.075314
O O11 0.713906 0.000140 0.397524
O O12 0.773639 0.329132 0.164959
O O13 0.532180 0.355923 0.756721
O O14 0.500000 0.000000 0.000000
O O15 0.822558 0.876268 0.235480
O O16 0.604049 0.740725 0.055899
O O17 0.843155 0.192966 0.130432
#
# Coordination Sequence:
#
# PCOD9074768 Si02
#       8
#     2   2   2   2   2   2   2   2
#     4  12  23  36  49  78 114 151 167 209 269 324
#     4  10  20  32  51  75 112 141 175 214 264 312
#     4   8  16  30  57  80 102 126 174 222 265 298
#     4   8  15  33  56  84 104 128 174 231 264 293
#     4  10  18  32  52  79 108 135 174 223 262 313
#     4  10  19  33  56  78 110 136 174 218 264 312
#     4  10  20  32  53  83 108 134 173 215 271 319
#     4   8  18  32  58  83 101 132 176 227 260 311
#
# _framework density 23.628955999999999
#
# number of rings (size 3 to 8) (size 9 to 14) (size 15 to 20)
#    0.750    1.750    3.750    0.375    1.750    1.500 
#    0.000    0.000    2.750    6.000    0.000    0.000 
#    0.000    0.000    0.000    0.000    0.000    0.000 
#
# Total GULP energy -89183.352066 kJ/mol
# GULP energy per Si atom -5573.959504 kJ/mol
# Density = 2.357518 g / cm^3
# Si number density = 23.628956 Si / 1000 Ang^3
#
#
#
# Elastic Constant Matrix: (Units=GPa)
#
#
# Indices 1 2 3 4 5 6 
#
# 1 99.5383 0.0381 49.7504 14.5808 7.9150 25.8638
# 2 0.0381 45.5790 -7.1618 5.3113 -5.0036 17.3884
# 3 49.7504 -7.1618 71.3255 6.1109 5.6475 5.7138
# 4 14.5808 5.3113 6.1109 20.4036 9.8481 1.0565
# 5 7.9150 -5.0036 5.6475 9.8481 40.7968 -3.1554
# 6 25.8638 17.3884 5.7138 1.0565 -3.1554 26.8077
#
#
#
# Elastic Compliance Matrix: (Units=1/GPa)
#
#
# Indices 1 2 3 4 5 6 
#
# 1 0.027281 0.011037 -0.014094 -0.016442 -0.000329 -0.029866
# 2 0.011037 0.037283 -0.000061 -0.017833 0.004144 -0.033627
# 3 -0.014094 -0.000061 0.022940 0.003022 -0.000516 0.008568
# 4 -0.016442 -0.017833 0.003022 0.070437 -0.014695 0.022281
# 5 -0.000329 0.004144 -0.000516 -0.014695 0.028835 0.001713
# 6 -0.029866 -0.033627 0.008568 0.022281 0.001713 0.085427
#
#
# Mechanical properties :
#
#
# Convention : Reuss Voigt Hill
#
# Bulk Modulus (GPa) = 12.30488 33.52180 22.91334
# Shear Modulus (GPa) = 16.36504 29.18935 22.77719
#
# Velocity S-wave (km/s) = 2.63455 3.51853 3.10813
# Velocity P-wave (km/s) = 3.80439 5.54295 4.75382
#
# Compressibility (1/GPa) = 0.08126859
#
# Stress axis : x y z
#
# Youngs Moduli (GPa) = 36.65491 26.82191 43.59177
#
# Poissons Ratio (x) = -0.29602 0.61437
# Poissons Ratio (y) = -0.40455 0.00266
# Poissons Ratio (z) = 0.51660 0.00164
#
# Static dielectric constant tensor:
#      x y z
#    x 1.924360 -0.077040 0.019320 
#    y -0.077040 1.978070 0.024880 
#    z 0.019320 0.024880 1.873360 
# 
# From -- ./inp_files/305020.got.cif
#   From: 2010.05.17/outbox.cif.g08.bks.cpg/sg2_153_cif.got.tgz:305020.got - 2010.06.03 11:33:40.
