data_PCOD9074865
_publ_section_title
;
Structure prediction by ZEFSAII (Michael W. Deem and Ramdas Pophale) SiO2 
 PCOD9074865
Probable space group: P -1
;
_chemical_formula_sum "Si O2"
_cell_formula_units_Z 16
_cell_length_a 12.000000
_cell_length_b 12.000000
_cell_length_c 15.000000
_cell_angle_alpha 100.000000
_cell_angle_beta 150.000000
_cell_angle_gamma 60.000000
_cell_volume 748.962810
_symmetry_space_group_name_H-M "P -1"
_symmetry_group_IT_number 2
_symmetry_cell_setting 'triclinic'
loop_
_space_group_symop_operation_xyz
x,y,z
-x,-y,-z
loop_
_atom_site_type_symbol
_atom_site_label
_atom_site_fract_x
_atom_site_fract_y
_atom_site_fract_z
Si Si1 0.824331 0.803556 0.028528
Si Si2 0.110866 0.838741 0.594150
Si Si3 0.587151 0.966711 0.374339
Si Si4 0.788823 0.561172 0.982142
Si Si5 0.043333 0.769550 0.349732
Si Si6 0.499760 0.227302 0.441107
Si Si7 0.421229 0.571789 0.302949
Si Si8 0.671397 0.153733 0.750107
O O1 0.768062 0.854228 0.098928
O O2 0.193965 0.672957 0.243202
O O3 0.745775 0.703270 0.933785
O O4 0.638950 0.953627 0.857453
O O5 0.478508 0.678455 0.845930
O O6 0.998336 0.803076 0.427536
O O7 0.922395 0.884141 0.559054
O O8 0.000000 0.000000 0.500000
O O9 0.583927 0.847302 0.400243
O O10 0.447496 0.117834 0.357530
O O11 0.708897 0.488983 0.849049
O O12 0.154081 0.409591 0.239465
O O13 0.277780 0.783426 0.475453
O O14 0.231878 0.584087 0.447820
O O15 0.676082 0.151696 0.646499
O O16 0.408933 0.690311 0.254965
O O17 0.000000 0.000000 0.000000
#
# Coordination Sequence:
#
# PCOD9074865 Si02
#       8
#     2   2   2   2   2   2   2   2
#     4  12  19  35  62  93 125 148 203 261 309 350
#     4  11  23  41  60  92 132 162 198 252 308 370
#     4  12  24  41  61  91 128 168 202 244 310 372
#     4  11  22  37  64  93 120 161 206 257 310 354
#     4  11  22  35  63  96 124 155 204 259 314 350
#     4  12  21  39  67  92 120 159 209 259 305 356
#     4  11  20  36  58  93 125 153 199 260 308 349
#     4  12  24  40  62  94 126 158 205 259 304 363
#
# _framework density 21.362876
#
# number of rings (size 3 to 8) (size 9 to 14) (size 15 to 20)
#    0.000    0.500    7.500    2.625    0.000    0.500 
#    0.000    3.125    0.000    0.000    0.000    0.000 
#    0.000    0.000    0.000    0.000    0.000    0.000 
#
# Total GULP energy -89135.079409 kJ/mol
# GULP energy per Si atom -5570.942463 kJ/mol
# Density = 2.131425 g / cm^3
# Si number density = 21.362876 Si / 1000 Ang^3
#
#
#
# Elastic Constant Matrix: (Units=GPa)
#
#
# Indices 1 2 3 4 5 6 
#
# 1 57.9330 44.1740 14.3510 -8.2458 5.2577 14.9721
# 2 44.1740 87.8113 13.8459 10.1773 4.9767 15.7469
# 3 14.3510 13.8459 52.6663 -6.2550 -15.2771 -8.8055
# 4 -8.2458 10.1773 -6.2550 27.5590 -3.6007 8.0280
# 5 5.2577 4.9767 -15.2771 -3.6007 28.2286 -5.8032
# 6 14.9721 15.7469 -8.8055 8.0280 -5.8032 32.7127
#
#
#
# Elastic Compliance Matrix: (Units=1/GPa)
#
#
# Indices 1 2 3 4 5 6 
#
# 1 0.044398 -0.018007 -0.012590 0.021935 -0.013813 -0.022875
# 2 -0.018007 0.023761 -0.005260 -0.015606 -0.006054 -0.001856
# 3 -0.012590 -0.005260 0.035936 0.003538 0.027697 0.022012
# 4 0.021935 -0.015606 0.003538 0.054105 0.004596 -0.014037
# 5 -0.013813 -0.006054 0.027697 0.004596 0.060029 0.026213
# 6 -0.022875 -0.001856 0.022012 -0.014037 0.026213 0.055952
#
#
# Mechanical properties :
#
#
# Convention : Reuss Voigt Hill
#
# Bulk Modulus (GPa) = 30.88286 38.12805 34.50545
# Shear Modulus (GPa) = 14.01791 26.10269 20.06030
#
# Velocity S-wave (km/s) = 2.56438 3.49932 3.06768
# Velocity P-wave (km/s) = 4.82242 5.84923 5.36047
#
# Compressibility (1/GPa) = 0.03238042
#
# Stress axis : x y z
#
# Youngs Moduli (GPa) = 22.52373 42.08662 27.82761
#
# Poissons Ratio (x) = 0.75784 0.35035
# Poissons Ratio (y) = 0.40558 0.14637
# Poissons Ratio (z) = 0.28357 0.22137
#
# Static dielectric constant tensor:
#      x y z
#    x 1.823470 -0.009170 0.061050 
#    y -0.009170 1.832680 0.052720 
#    z 0.061050 0.052720 1.865110 
# 
# From -- ./inp_files/397352.got.cif
#   From: 2010.05.17/outbox.ucp.g08.bks.cvg/sg2_199_cif.got.tgz:397352.got - 2010.06.11 11:32:03.
