data_PCOD9074017
_publ_section_title
;
Structure prediction by ZEFSAII (Michael W. Deem and Ramdas Pophale) SiO2 
 PCOD9074017
Probable space group: P -1
;
_chemical_formula_sum "Si O2"
_cell_formula_units_Z 16
_cell_length_a 6.000000
_cell_length_b 18.000000
_cell_length_c 9.000000
_cell_angle_alpha 70.000000
_cell_angle_beta 60.000000
_cell_angle_gamma 60.000000
_cell_volume 723.492119
_symmetry_space_group_name_H-M "P -1"
_symmetry_group_IT_number 2
_symmetry_cell_setting 'triclinic'
loop_
_space_group_symop_operation_xyz
x,y,z
-x,-y,-z
loop_
_atom_site_type_symbol
_atom_site_label
_atom_site_fract_x
_atom_site_fract_y
_atom_site_fract_z
Si Si1 0.715420 0.907413 0.442069
Si Si2 0.811723 0.402892 0.191690
Si Si3 0.282375 0.263006 0.325931
Si Si4 0.733520 0.257767 0.965783
Si Si5 0.814543 0.080594 0.901287
Si Si6 0.379990 0.174868 0.771267
Si Si7 0.253056 0.407506 0.828805
Si Si8 0.397849 0.330896 0.520607
O O1 0.728801 0.830361 0.599090
O O2 0.629910 0.879105 0.332662
O O3 0.998179 0.919633 0.303610
O O4 0.500000 0.000000 0.500000
O O5 0.749845 0.498722 0.203817
O O6 0.558378 0.375649 0.335308
O O7 0.061657 0.327725 0.245117
O O8 0.959140 0.403994 0.983951
O O9 0.209173 0.306868 0.482101
O O10 0.583239 0.258747 0.172553
O O11 0.756518 0.168050 0.949076
O O12 0.518972 0.336360 0.881068
O O13 0.061167 0.241619 0.873936
O O14 0.511362 0.105844 0.907543
O O15 0.000000 0.000000 0.000000
O O16 0.536869 0.237321 0.625351
O O17 0.274101 0.392981 0.656786
#
# Coordination Sequence:
#
# PCOD9074017 Si02
#       8
#     2   2   2   2   2   2   2   2
#     4  10  22  41  62  93 131 164 211 270 319 386
#     4  10  23  43  62  95 133 167 220 265 324 377
#     4  10  23  40  64  97 123 172 219 263 321 384
#     4  10  22  41  63  91 131 166 215 264 323 381
#     4  11  22  40  65  91 123 166 212 262 329 382
#     4  10  23  40  66  94 125 169 214 260 321 389
#     4  10  22  43  65  92 132 175 209 271 321 378
#     4  11  22  39  65  93 125 171 214 262 321 377
#
# _framework density 22.114961000000001
#
# number of rings (size 3 to 8) (size 9 to 14) (size 15 to 20)
#    0.000    1.750    1.250    1.875    5.250    3.000 
#    2.250    5.625    0.000    0.000    0.000    0.000 
#    0.000    0.000    0.000    0.000    0.000    0.000 
#
# Total GULP energy -89131.371175 kJ/mol
# GULP energy per Si atom -5570.710698 kJ/mol
# Density = 2.206463 g / cm^3
# Si number density = 22.114961 Si / 1000 Ang^3
#
#
#
# Elastic Constant Matrix: (Units=GPa)
#
#
# Indices 1 2 3 4 5 6 
#
# 1 -30.8496 -29.8144 -3.0553 10.7782 -20.7700 29.4079
# 2 -29.8144 102.9237 18.0004 5.3514 -15.0551 35.0136
# 3 -3.0553 18.0004 75.0517 -1.0710 -23.7176 4.6735
# 4 10.7782 5.3514 -1.0710 47.3951 7.1349 0.2358
# 5 -20.7700 -15.0551 -23.7176 7.1349 20.8290 4.6568
# 6 29.4079 35.0136 4.6735 0.2358 4.6568 -5.3178
#
#
#
# Elastic Compliance Matrix: (Units=1/GPa)
#
#
# Indices 1 2 3 4 5 6 
#
# 1 0.020566 -0.010518 0.001805 -0.004485 0.005221 0.050434
# 2 -0.010518 0.009153 -0.004557 0.002497 -0.007958 -0.008763
# 3 0.001805 -0.004557 0.019490 -0.002311 0.018532 0.013235
# 4 -0.004485 0.002497 -0.002311 0.023280 -0.009350 -0.017550
# 5 0.005221 -0.007958 0.018532 -0.009350 0.061449 0.046162
# 6 0.050434 -0.008763 0.013235 -0.017550 0.046162 0.084432
#
#
# Mechanical properties :
#
#
# Convention : Reuss Voigt Hill
#
# Bulk Modulus (GPa) = 44.11339 13.04302 28.57821
# Shear Modulus (GPa) = 19.80459 23.38092 21.59275
#
# Velocity S-wave (km/s) = 2.99579 3.25506 3.12811
# Velocity P-wave (km/s) = 5.65305 4.47636 5.09876
#
# Compressibility (1/GPa) = 0.02266885
#
# Stress axis : x y z
#
# Youngs Moduli (GPa) = 48.62476 109.24997 51.30846
#
# Poissons Ratio (x) = 1.14914 -0.09263
# Poissons Ratio (y) = 0.51146 0.23381
# Poissons Ratio (z) = -0.08779 0.49785
#
# Static dielectric constant tensor:
#      x y z
#    x 1.933150 0.008100 -0.048190 
#    y 0.008100 1.839680 0.039520 
#    z -0.048190 0.039520 1.900260 
# 
# From -- ./inp_files/138848.got.cif
#   From: 2010.05.17/outbox.ucp.g08.bks.cvg/sg2_70_cif.got.tgz:138848.got - 2010.06.11 11:32:03.
