data_PCOD9074180
_publ_section_title
;
Structure prediction by ZEFSAII (Michael W. Deem and Ramdas Pophale) SiO2 
 PCOD9074180
Probable space group: P -1
;
_chemical_formula_sum "Si O2"
_cell_formula_units_Z 16
_cell_length_a 9.000000
_cell_length_b 15.000000
_cell_length_c 9.000000
_cell_angle_alpha 100.000000
_cell_angle_beta 120.000000
_cell_angle_gamma 120.000000
_cell_volume 751.948787
_symmetry_space_group_name_H-M "P -1"
_symmetry_group_IT_number 2
_symmetry_cell_setting 'triclinic'
loop_
_space_group_symop_operation_xyz
x,y,z
-x,-y,-z
loop_
_atom_site_type_symbol
_atom_site_label
_atom_site_fract_x
_atom_site_fract_y
_atom_site_fract_z
Si Si1 0.592876 0.482630 0.295864
Si Si2 0.499588 0.283285 0.011249
Si Si3 0.139828 0.851598 0.828858
Si Si4 0.044790 0.493167 0.305926
Si Si5 0.819482 0.751710 0.380864
Si Si6 0.095810 0.358921 0.107222
Si Si7 0.516807 0.880815 0.818559
Si Si8 0.139004 0.733261 0.354740
O O1 0.792528 0.494472 0.482178
O O2 0.675333 0.611366 0.325412
O O3 0.354311 0.409293 0.245747
O O4 0.504022 0.390332 0.088237
O O5 0.329712 0.224031 0.766913
O O6 0.430761 0.193606 0.088550
O O7 0.773577 0.364124 0.141389
O O8 0.323471 0.862836 0.820105
O O9 0.960510 0.833927 0.620375
O O10 0.021897 0.735964 0.842795
O O11 0.263459 0.972611 0.024057
O O12 0.135195 0.479223 0.196811
O O13 0.052496 0.604290 0.338702
O O14 0.004302 0.770957 0.366500
O O15 0.932600 0.291985 0.860709
O O16 0.402901 0.830575 0.583821
#
# Coordination Sequence:
#
# PCOD9074180 Si02
#       8
#     2   2   2   2   2   2   2   2
#     4  12  22  39  63  93 129 162 195 252 315 366
#     4  12  21  39  67  91 120 164 212 244 297 376
#     4  10  23  43  64  88 122 160 213 255 302 352
#     4  12  22  38  63  95 126 161 202 245 307 377
#     4  11  22  39  64  92 125 167 197 249 306 371
#     4  12  24  40  60  97 130 156 195 260 316 354
#     4  10  22  43  67  87 114 169 215 250 291 369
#     4  11  22  39  64  92 126 161 202 248 310 365
#
# _framework density 21.278044999999999
#
# number of rings (size 3 to 8) (size 9 to 14) (size 15 to 20)
#    0.000    0.750    6.250    3.000    0.000    1.000 
#    0.000    0.625    0.000    0.000    0.000    0.000 
#    0.000    0.000    0.000    0.000    0.000    0.000 
#
# Total GULP energy -89252.396130 kJ/mol
# GULP energy per Si atom -5578.274758 kJ/mol
# Density = 2.122962 g / cm^3
# Si number density = 21.278045 Si / 1000 Ang^3
#
#
#
# Elastic Constant Matrix: (Units=GPa)
#
#
# Indices 1 2 3 4 5 6 
#
# 1 39.3291 -1.0095 2.4843 -2.3783 10.6951 -2.8882
# 2 -1.0095 -1.2201 12.1525 -15.6100 17.8919 -7.2641
# 3 2.4843 12.1525 129.6871 -31.9389 2.4093 -10.4077
# 4 -2.3783 -15.6100 -31.9389 33.0415 -5.6524 1.1116
# 5 10.6951 17.8919 2.4093 -5.6524 26.5654 -9.7289
# 6 -2.8882 -7.2641 -10.4077 1.1116 -9.7289 14.8920
#
#
#
# Elastic Compliance Matrix: (Units=1/GPa)
#
#
# Indices 1 2 3 4 5 6 
#
# 1 0.025939 -0.011803 -0.000971 -0.005382 -0.005151 -0.004368
# 2 -0.011803 -0.050819 -0.000893 -0.019897 0.033158 -0.004555
# 3 -0.000971 -0.000893 0.011273 0.011107 0.006161 0.010450
# 4 -0.005382 -0.019897 0.011107 0.035326 0.026312 0.011566
# 5 -0.005151 0.033158 0.006161 0.026312 0.037909 0.042282
# 6 -0.004368 -0.004555 0.010450 0.011566 0.042282 0.098143
#
#
# Mechanical properties :
#
#
# Convention : Reuss Voigt Hill
#
# Bulk Modulus (GPa) = -24.42460 21.67230 -1.37615
# Shear Modulus (GPa) = 29.16163 25.17771 27.16967
#
# Velocity S-wave (km/s) = 3.70605 3.44360 3.57723
# Velocity P-wave (km/s) = 2.60947 5.10084 4.05142
#
# Compressibility (1/GPa) = -0.04094233
#
# Stress axis : x y z
#
# Youngs Moduli (GPa) = 38.55162 -19.67752 88.70976
#
# Poissons Ratio (x) = -0.23225 0.08616
# Poissons Ratio (y) = 0.45502 0.07926
# Poissons Ratio (z) = 0.03744 -0.01758
#
# Static dielectric constant tensor:
#      x y z
#    x 1.877590 0.033190 -0.007580 
#    y 0.033190 1.731240 0.025770 
#    z -0.007580 0.025770 1.816570 
# 
# From -- ./inp_files/179420.got.cif
#   From: 2010.05.17/outbox.ucp.g08.bks.cvg/sg2_90_cif.got.tgz:179420.got - 2010.06.11 11:32:03.
