data_PCOD9074090
_publ_section_title
;
Structure prediction by ZEFSAII (Michael W. Deem and Ramdas Pophale) SiO2 
 PCOD9074090
Probable space group: P -1
;
_chemical_formula_sum "Si O2"
_cell_formula_units_Z 12
_cell_length_a 15.000000
_cell_length_b 9.000000
_cell_length_c 9.000000
_cell_angle_alpha 50.000000
_cell_angle_beta 130.000000
_cell_angle_gamma 140.000000
_cell_volume 569.686422
_symmetry_space_group_name_H-M "P -1"
_symmetry_group_IT_number 2
_symmetry_cell_setting 'triclinic'
loop_
_space_group_symop_operation_xyz
x,y,z
-x,-y,-z
loop_
_atom_site_type_symbol
_atom_site_label
_atom_site_fract_x
_atom_site_fract_y
_atom_site_fract_z
Si Si1 0.282324 0.748324 0.846106
Si Si2 0.360314 0.233600 0.976394
Si Si3 0.432073 0.874088 0.243534
Si Si4 0.963803 0.196351 0.484540
Si Si5 0.128559 0.234037 0.903619
Si Si6 0.237062 0.323700 0.504745
O O1 0.133742 0.719314 0.714793
O O2 0.243622 0.485406 0.947081
O O3 0.393475 0.948286 0.713407
O O4 0.361507 0.831934 0.033778
O O5 0.220375 0.164343 0.961105
O O6 0.317510 0.254945 0.748359
O O7 0.500000 0.500000 0.000000
O O8 0.393690 0.042415 0.168763
O O9 0.353720 0.604842 0.400318
O O10 0.047517 0.296653 0.663226
O O11 0.096979 0.285876 0.456916
O O12 0.848296 0.900526 0.558587
O O13 0.000000 0.000000 0.000000
#
# Coordination Sequence:
#
# PCOD9074090 Si02
#       6
#     2   2   2   2   2   2
#     4  11  23  42  62  96 127 159 215 257 302 376
#     4  11  23  45  63  92 131 159 211 259 302 382
#     4  11  24  42  68  91 124 170 206 255 315 365
#     4  10  22  42  62  92 130 158 212 259 299 381
#     4  11  24  40  63  95 127 165 205 258 316 361
#     4  10  23  42  66  93 121 169 209 252 315 365
#
# _framework density 21.064219999999999
#
# number of rings (size 3 to 8) (size 9 to 14) (size 15 to 20)
#    0.000    1.333    3.333    1.500    2.333    3.333 
#    0.000    0.000    0.000    0.000    0.000    0.000 
#    0.000    0.000    0.000    0.000    0.000    0.000 
#
# Total GULP energy -66933.516182 kJ/mol
# GULP energy per Si atom -5577.793015 kJ/mol
# Density = 2.101628 g / cm^3
# Si number density = 21.064220 Si / 1000 Ang^3
#
#
#
# Elastic Constant Matrix: (Units=GPa)
#
#
# Indices 1 2 3 4 5 6 
#
# 1 21.5259 16.1340 20.1914 -4.9284 -4.4300 12.4894
# 2 16.1340 93.6102 -24.2298 -16.3348 -15.8407 7.1588
# 3 20.1914 -24.2298 8.1070 -2.3456 12.0147 2.8185
# 4 -4.9284 -16.3348 -2.3456 48.9350 10.0343 -0.0617
# 5 -4.4300 -15.8407 12.0147 10.0343 17.0749 -4.5706
# 6 12.4894 7.1588 2.8185 -0.0617 -4.5706 37.8301
#
#
#
# Elastic Compliance Matrix: (Units=1/GPa)
#
#
# Indices 1 2 3 4 5 6 
#
# 1 0.010627 0.005772 0.036759 0.010192 -0.026562 -0.010532
# 2 0.005772 0.010185 -0.009845 -0.000118 0.017686 -0.000963
# 3 0.036759 -0.009845 -0.024511 -0.004600 0.018695 -0.006195
# 4 0.010192 -0.000118 -0.004600 0.023007 -0.008827 -0.004029
# 5 -0.026562 0.017686 0.018695 -0.008827 0.063234 0.011655
# 6 -0.010532 -0.000963 -0.006195 -0.004029 0.011655 0.031956
#
#
# Mechanical properties :
#
#
# Convention : Reuss Voigt Hill
#
# Bulk Modulus (GPa) = 16.21437 16.38159 16.29798
# Shear Modulus (GPa) = 71.75144 28.17783 49.96464
#
# Velocity S-wave (km/s) = 5.84270 3.66144 4.87562
# Velocity P-wave (km/s) = 7.29592 5.06643 6.28089
#
# Compressibility (1/GPa) = 0.06167369
#
# Stress axis : x y z
#
# Youngs Moduli (GPa) = 94.09763 98.18102 -40.79866
#
# Poissons Ratio (x) = -0.56671 1.49972
# Poissons Ratio (y) = -0.54314 -0.40167
# Poissons Ratio (z) = -3.45893 0.96660
#
# Static dielectric constant tensor:
#      x y z
#    x 1.790490 -0.033570 -0.035490 
#    y -0.033570 1.753110 0.024120 
#    z -0.035490 0.024120 1.752140 
# 
# From -- ./inp_files/27451.got.cif
#   From: 2010.05.17/outbox.ucp.g08.bks.cvg/sg2_14_cif.got.tgz:27451.got - 2010.06.11 11:32:03.
