data_PCOD9074615
_publ_section_title
;
Structure prediction by ZEFSAII (Michael W. Deem and Ramdas Pophale) SiO2 
 PCOD9074615
Probable space group: P -1
;
_chemical_formula_sum "Si O2"
_cell_formula_units_Z 14
_cell_length_a 24.000000
_cell_length_b 15.000000
_cell_length_c 15.000000
_cell_angle_alpha 150.000000
_cell_angle_beta 160.000000
_cell_angle_gamma 20.000000
_cell_volume 624.976433
_symmetry_space_group_name_H-M "P -1"
_symmetry_group_IT_number 2
_symmetry_cell_setting 'triclinic'
loop_
_space_group_symop_operation_xyz
x,y,z
-x,-y,-z
loop_
_atom_site_type_symbol
_atom_site_label
_atom_site_fract_x
_atom_site_fract_y
_atom_site_fract_z
Si Si1 0.597243 0.284063 0.307376
Si Si2 0.681661 0.956644 0.628718
Si Si3 0.095725 0.215375 0.787508
Si Si4 0.676346 0.535161 0.290927
Si Si5 0.747928 0.543959 0.698508
Si Si6 0.045903 0.653433 0.750478
Si Si7 0.019533 0.922857 0.777916
O O1 0.621494 0.474407 0.489229
O O2 0.712321 0.075937 0.217926
O O3 0.770750 0.121610 0.516264
O O4 0.314695 0.458166 0.029189
O O5 0.624770 0.794719 0.436276
O O6 0.856335 0.798168 0.670313
O O7 0.429868 0.234008 0.452145
O O8 0.828831 0.008037 0.943443
O O9 0.866832 0.368256 0.512787
O O10 0.993603 0.277953 0.788871
O O11 0.191571 0.342949 0.044781
O O12 0.819025 0.366463 0.270716
O O13 0.500000 0.500000 0.000000
O O14 0.000000 0.500000 0.500000
O O15 0.992101 0.867341 0.789212
#
# Coordination Sequence:
#
# PCOD9074615 Si02
#       7
#     2   2   2   2   2   2   2
#     4  11  25  45  70 102 141 184 232 287 346 413
#     4  12  25  45  71 103 143 184 234 287 348 418
#     4  10  24  42  66 101 138 182 236 282 350 411
#     4  11  25  44  69 102 140 185 232 291 351 411
#     4  11  23  42  71 101 140 186 228 290 349 408
#     4  12  25  47  72 102 145 185 234 285 348 416
#     4  11  25  46  70 106 138 186 235 283 351 411
#
# _framework density 22.400845
#
# number of rings (size 3 to 8) (size 9 to 14) (size 15 to 20)
#    0.000    0.857    2.857    3.429    0.000    8.000 
#    2.571    0.000    0.000    0.000    0.000    0.000 
#    0.000    0.000    0.000    0.000    0.000    0.000 
#
# Total GULP energy -78085.774967 kJ/mol
# GULP energy per Si atom -5577.555355 kJ/mol
# Density = 2.234986 g / cm^3
# Si number density = 22.400845 Si / 1000 Ang^3
#
#
#
# Elastic Constant Matrix: (Units=GPa)
#
#
# Indices 1 2 3 4 5 6 
#
# 1 41.3402 28.3779 30.7419 3.3239 6.3456 4.1186
# 2 28.3779 80.4141 20.1742 10.9954 6.2810 -1.0819
# 3 30.7419 20.1742 173.2180 20.0107 6.9834 2.9658
# 4 3.3239 10.9954 20.0107 56.3645 1.0943 -1.7630
# 5 6.3456 6.2810 6.9834 1.0943 39.9683 10.8119
# 6 4.1186 -1.0819 2.9658 -1.7630 10.8119 50.6412
#
#
#
# Elastic Compliance Matrix: (Units=1/GPa)
#
#
# Indices 1 2 3 4 5 6 
#
# 1 0.036546 -0.011694 -0.005210 0.001951 -0.002480 -0.002320
# 2 -0.011694 0.016935 0.000439 -0.002701 -0.001199 0.001449
# 3 -0.005210 0.000439 0.006919 -0.002226 -0.000399 0.000036
# 4 0.001951 -0.002701 -0.002226 0.018966 -0.000181 0.000613
# 5 -0.002480 -0.001199 -0.000399 -0.000181 0.027195 -0.005613
# 6 -0.002320 0.001449 0.000036 0.000613 -0.005613 0.021184
#
#
# Mechanical properties :
#
#
# Convention : Reuss Voigt Hill
#
# Bulk Modulus (GPa) = 36.40395 50.39560 43.39977
# Shear Modulus (GPa) = 29.44065 43.77335 36.60700
#
# Velocity S-wave (km/s) = 3.62921 4.42531 4.04688
# Velocity P-wave (km/s) = 5.81790 6.97547 6.42282
#
# Compressibility (1/GPa) = 0.02746954
#
# Stress axis : x y z
#
# Youngs Moduli (GPa) = 27.36276 59.04939 144.52487
#
# Poissons Ratio (x) = 0.69054 0.75293
# Poissons Ratio (y) = 0.31999 -0.06340
# Poissons Ratio (z) = 0.14255 -0.02590
#
# Static dielectric constant tensor:
#      x y z
#    x 1.896470 -0.048040 0.000000 
#    y -0.048040 1.879390 0.006590 
#    z 0.000000 0.006590 1.821430 
# 
# From -- ./inp_files/337783.got.cif
#   From: 2010.05.17/outbox.ucp.g08.bks.cvg/sg2_169_cif.got.tgz:337783.got - 2010.06.11 11:32:03.
