data_PCOD9074611
_publ_section_title
;
Structure prediction by ZEFSAII (Michael W. Deem and Ramdas Pophale) SiO2 
 PCOD9074611
Probable space group: P -1
;
_chemical_formula_sum "Si O2"
_cell_formula_units_Z 14
_cell_length_a 7.031042
_cell_length_b 6.317516
_cell_length_c 17.574134
_cell_angle_alpha 69.601374
_cell_angle_beta 86.795085
_cell_angle_gamma 43.917202
_cell_volume 484.090170
_symmetry_space_group_name_H-M "P -1"
_symmetry_group_IT_number 2
_symmetry_cell_setting 'triclinic'
loop_
_space_group_symop_operation_xyz
x,y,z
-x,-y,-z
loop_
_atom_site_type_symbol
_atom_site_label
_atom_site_fract_x
_atom_site_fract_y
_atom_site_fract_z
Si Si1 0.788526 0.750863 0.204483
Si Si2 0.511977 0.461526 0.095350
Si Si3 0.184122 0.378859 0.937695
Si Si4 0.336432 0.821140 0.371924
Si Si5 0.375546 0.685792 0.226440
Si Si6 0.294239 0.962439 0.514598
Si Si7 0.257261 0.096780 0.657702
O O1 0.947281 0.605914 0.138394
O O2 0.603064 0.690182 0.222272
O O3 0.932242 0.684736 0.290020
O O4 0.574590 0.148111 0.147321
O O5 0.776112 0.395831 0.111375
O O6 0.291177 0.740727 0.131186
O O7 0.500000 0.500000 0.000000
O O8 0.000000 0.500000 0.000000
O O9 0.500000 0.000000 0.000000
O O10 0.200176 0.899305 0.281677
O O11 0.154499 0.039296 0.425262
O O12 0.519416 0.430266 0.428853
O O13 0.543178 0.857543 0.358019
O O14 0.546364 0.298678 0.283793
O O15 0.500000 0.000000 0.500000
O O16 0.115370 0.173086 0.569274
#
# Coordination Sequence:
#
# PCOD9074611 Si02
#       7
#     2   2   2   2   2   2   2
#     4   9  17  31  48  70 100 134 179 226 279 331
#     4  10  18  32  52  74 101 140 185 229 282 336
#     4  11  23  39  58  83 112 147 190 236 288 343
#     4   8  12  19  29  50  84 126 173 223 276 331
#     4   8  15  23  39  61  91 130 175 225 277 333
#     4   8  12  17  29  49  81 125 175 222 275 331
#     4   8  13  22  36  58  86 129 175 221 276 331
#
# _framework density 28.920234000000001
#
# number of rings (size 3 to 8) (size 9 to 14) (size 15 to 20)
#    0.000    3.143    1.429    0.000    0.000    0.571 
#    0.000    0.000    0.000    0.000    0.000    0.000 
#    0.000    0.000    0.000   64.286   22.000  923.571 
#
# Total GULP energy -78207.149963 kJ/mol
# GULP energy per Si atom -5586.224997 kJ/mol
# Density = 2.885441 g / cm^3
# Si number density = 28.920234 Si / 1000 Ang^3
#
#
#
# Elastic Constant Matrix: (Units=GPa)
#
#
# Indices 1 2 3 4 5 6 
#
# 1 136.5113 70.4478 30.5402 -4.6636 -17.4222 39.3025
# 2 70.4478 167.0523 120.4480 28.1372 3.4951 23.2793
# 3 30.5402 120.4480 234.4383 85.0399 20.0735 10.6844
# 4 -4.6636 28.1372 85.0399 131.2249 34.7263 -3.3870
# 5 -17.4222 3.4951 20.0735 34.7263 28.0826 1.6870
# 6 39.3025 23.2793 10.6844 -3.3870 1.6870 61.5926
#
#
#
# Elastic Compliance Matrix: (Units=1/GPa)
#
#
# Indices 1 2 3 4 5 6 
#
# 1 0.013177 -0.005281 0.001205 -0.002354 0.011306 -0.007060
# 2 -0.005281 0.012364 -0.006091 0.001824 -0.002713 -0.000072
# 3 0.001205 -0.006091 0.008856 -0.004645 0.000937 -0.000284
# 4 -0.002354 0.001824 -0.004645 0.014632 -0.016634 0.002879
# 5 0.011306 -0.002713 0.000937 -0.016634 0.063401 -0.009003
# 6 -0.007060 -0.000072 -0.000284 0.002879 -0.009003 0.021222
#
#
# Mechanical properties :
#
#
# Convention : Reuss Voigt Hill
#
# Bulk Modulus (GPa) = 71.11645 108.98599 90.05122
# Shear Modulus (GPa) = 31.51120 65.28442 48.39781
#
# Velocity S-wave (km/s) = 3.30448 4.75636 4.09527
# Velocity P-wave (km/s) = 6.26126 8.24201 7.31895
#
# Compressibility (1/GPa) = 0.01406145
#
# Stress axis : x y z
#
# Youngs Moduli (GPa) = 75.89248 80.87785 112.92378
#
# Poissons Ratio (x) = 0.42715 -0.13602
# Poissons Ratio (y) = 0.40082 0.68777
# Poissons Ratio (z) = -0.09141 0.49259
#
# Static dielectric constant tensor:
#      x y z
#    x 2.535840 -0.372110 0.141550 
#    y -0.372110 2.558000 -0.074060 
#    z 0.141550 -0.074060 2.463060 
# 
# From -- ./inp_files/114638.got.cif
#   From: 2010.05.17/outbox.cif.g08.bks.cpg/sg2_58_cif.got.tgz:114638.got - 2010.06.03 11:33:40.
