data_PCOD9074040
_publ_section_title
;
Structure prediction by ZEFSAII (Michael W. Deem and Ramdas Pophale) SiO2 
 PCOD9074040
Probable space group: P -1
;
_chemical_formula_sum "Si O2"
_cell_formula_units_Z 16
_cell_length_a 21.000000
_cell_length_b 9.000000
_cell_length_c 9.000000
_cell_angle_alpha 60.000000
_cell_angle_beta 60.000000
_cell_angle_gamma 30.000000
_cell_volume 727.687525
_symmetry_space_group_name_H-M "P -1"
_symmetry_group_IT_number 2
_symmetry_cell_setting 'triclinic'
loop_
_space_group_symop_operation_xyz
x,y,z
-x,-y,-z
loop_
_atom_site_type_symbol
_atom_site_label
_atom_site_fract_x
_atom_site_fract_y
_atom_site_fract_z
Si Si1 0.810078 0.391138 0.881243
Si Si2 0.684476 0.672607 0.350310
Si Si3 0.356456 0.621683 0.013032
Si Si4 0.411741 0.027176 0.012745
Si Si5 0.625066 0.397184 0.647642
Si Si6 0.914732 0.097789 0.231238
Si Si7 0.658332 0.062412 0.352133
Si Si8 0.849451 0.836577 0.485070
O O1 0.735799 0.364954 0.922702
O O2 0.711639 0.733633 0.856178
O O3 0.873087 0.241675 0.044830
O O4 0.937990 0.189784 0.744290
O O5 0.623618 0.844368 0.176866
O O6 0.643634 0.561829 0.500549
O O7 0.836774 0.367391 0.298470
O O8 0.655980 0.869074 0.406266
O O9 0.380423 0.594748 0.172212
O O10 0.496951 0.309251 0.937917
O O11 0.305987 0.887885 0.857450
O O12 0.500000 0.000000 0.000000
O O13 0.492678 0.604768 0.611965
O O14 0.751762 0.045969 0.632470
O O15 0.859767 0.012753 0.331567
O O16 0.765224 0.894959 0.434068
O O17 0.000000 0.500000 0.500000
#
# Coordination Sequence:
#
# PCOD9074040 Si02
#       8
#     2   2   2   2   2   2   2   2
#     4   9  18  37  64  92 123 171 209 261 314 382
#     4  10  22  41  65  94 130 170 216 265 316 390
#     4  11  22  39  65 102 130 161 216 276 321 379
#     4   9  19  35  63  98 131 162 215 262 316 384
#     4  11  25  44  68  94 134 171 216 262 333 391
#     4   9  19  41  64  88 124 170 218 253 313 389
#     4  12  24  44  67  97 134 170 214 275 325 379
#     4  11  26  47  63  94 131 174 216 273 325 387
#
# _framework density 21.987459999999999
#
# number of rings (size 3 to 8) (size 9 to 14) (size 15 to 20)
#    0.000    1.750    2.500    1.125    1.750    3.000 
#    6.750    3.750    0.000    0.000    0.000    0.000 
#    0.000    0.000    0.000    0.000    0.000    0.000 
#
# Total GULP energy -89176.383372 kJ/mol
# GULP energy per Si atom -5573.523961 kJ/mol
# Density = 2.193742 g / cm^3
# Si number density = 21.987460 Si / 1000 Ang^3
#
#
#
# Elastic Constant Matrix: (Units=GPa)
#
#
# Indices 1 2 3 4 5 6 
#
# 1 106.0984 82.1402 25.0369 7.8028 -5.3327 -17.7209
# 2 82.1402 153.7569 36.1992 15.7663 18.3361 -13.4789
# 3 25.0369 36.1992 31.2567 -10.3802 -3.0236 7.5145
# 4 7.8028 15.7663 -10.3802 23.2522 5.6744 -8.4333
# 5 -5.3327 18.3361 -3.0236 5.6744 23.2766 -5.6657
# 6 -17.7209 -13.4789 7.5145 -8.4333 -5.6657 32.3465
#
#
#
# Elastic Compliance Matrix: (Units=1/GPa)
#
#
# Indices 1 2 3 4 5 6 
#
# 1 0.022786 -0.010744 -0.008324 -0.003792 0.016405 0.011825
# 2 -0.010744 0.022434 -0.025473 -0.017886 -0.018733 0.001436
# 3 -0.008324 -0.025473 0.091052 0.049975 0.012673 -0.021079
# 4 -0.003792 -0.017886 0.049975 0.078379 0.000452 -0.000626
# 5 0.016405 -0.018733 0.012673 0.000452 0.065401 0.009810
# 6 0.011825 0.001436 -0.021079 -0.000626 0.009810 0.044444
#
#
# Mechanical properties :
#
#
# Convention : Reuss Voigt Hill
#
# Bulk Modulus (GPa) = 21.19095 64.20719 42.69907
# Shear Modulus (GPa) = 11.64667 25.62410 18.63539
#
# Velocity S-wave (km/s) = 2.30401 3.41749 2.91442
# Velocity P-wave (km/s) = 4.09104 6.69608 5.54861
#
# Compressibility (1/GPa) = 0.04718996
#
# Stress axis : x y z
#
# Youngs Moduli (GPa) = 43.88751 44.57461 10.98271
#
# Poissons Ratio (x) = 0.47889 0.09142
# Poissons Ratio (y) = 0.47151 0.27976
# Poissons Ratio (z) = 0.36533 1.13546
#
# Static dielectric constant tensor:
#      x y z
#    x 1.809220 -0.041010 -0.113300 
#    y -0.041010 1.948690 0.135070 
#    z -0.113300 0.135070 1.940880 
# 
# From -- ./inp_files/343425.got.cif
#   From: 2010.05.17/outbox.ucp.g08.bks.cvg/sg2_172_cif.got.tgz:343425.got - 2010.06.11 11:32:03.
