data_PCOD9074100
_publ_section_title
;
Structure prediction by ZEFSAII (Michael W. Deem and Ramdas Pophale) SiO2 
 PCOD9074100
Probable space group: P -1
;
_chemical_formula_sum "Si O2"
_cell_formula_units_Z 12
_cell_length_a 12.398887
_cell_length_b 12.678795
_cell_length_c 5.385326
_cell_angle_alpha 58.201208
_cell_angle_beta 110.198491
_cell_angle_gamma 131.644728
_cell_volume 537.666194
_symmetry_space_group_name_H-M "P -1"
_symmetry_group_IT_number 2
_symmetry_cell_setting 'triclinic'
loop_
_space_group_symop_operation_xyz
x,y,z
-x,-y,-z
loop_
_atom_site_type_symbol
_atom_site_label
_atom_site_fract_x
_atom_site_fract_y
_atom_site_fract_z
Si Si1 0.977367 0.835810 0.227360
Si Si2 0.430143 0.767486 0.609796
Si Si3 0.506179 0.586074 0.146205
Si Si4 0.638583 0.833166 0.298679
Si Si5 0.873956 0.815721 0.669305
Si Si6 0.715047 0.076306 0.704124
O O1 0.131636 0.870972 0.337005
O O2 0.881372 0.747484 0.501647
O O3 0.901994 0.752969 0.010547
O O4 0.000000 0.000000 0.000000
O O5 0.484203 0.753162 0.402466
O O6 0.308511 0.791991 0.470763
O O7 0.576759 0.932300 0.621570
O O8 0.398950 0.629530 0.933151
O O9 0.500000 0.500000 0.500000
O O10 0.640193 0.758493 0.131878
O O11 0.500000 0.500000 0.000000
O O12 0.733002 0.808937 0.581808
O O13 0.702046 0.006840 0.055422
O O14 0.000000 0.000000 0.500000
#
# Coordination Sequence:
#
# PCOD9074100 Si02
#       6
#     2   2   2   2   2   2
#     4  10  18  32  48  76 118 150 180 212 259 346
#     4  10  21  35  55  86 117 153 182 231 293 340
#     4  11  23  41  58  80 109 150 203 239 272 326
#     4  11  20  34  60  83 122 146 184 235 287 334
#     4  10  19  30  52  78 115 144 183 216 272 336
#     4  10  20  32  53  88 125 151 176 224 289 360
#
# _framework density 22.318681999999999
#
# number of rings (size 3 to 8) (size 9 to 14) (size 15 to 20)
#    0.000    1.667    5.000    2.500    2.333    0.000 
#    0.000    0.000    0.000    0.000    0.000    7.000 
#    0.000    0.000    0.000    0.000    0.000    0.000 
#
# Total GULP energy -66805.436777 kJ/mol
# GULP energy per Si atom -5567.119731 kJ/mol
# Density = 2.226788 g / cm^3
# Si number density = 22.318682 Si / 1000 Ang^3
#
#
#
# Elastic Constant Matrix: (Units=GPa)
#
#
# Indices 1 2 3 4 5 6 
#
# 1 141.2432 22.7622 68.7570 1.0293 36.6463 -24.5521
# 2 22.7622 46.8453 36.4353 9.4536 7.8618 -16.5743
# 3 68.7570 36.4353 161.5246 9.9269 5.4881 -33.3321
# 4 1.0293 9.4536 9.9269 37.0542 -11.9259 -1.0101
# 5 36.6463 7.8618 5.4881 -11.9259 45.5906 2.9436
# 6 -24.5521 -16.5743 -33.3321 -1.0101 2.9436 24.0279
#
#
#
# Elastic Compliance Matrix: (Units=1/GPa)
#
#
# Indices 1 2 3 4 5 6 
#
# 1 0.014030 0.003835 -0.003203 -0.004518 -0.013641 0.014019
# 2 0.003835 0.035621 -0.003292 -0.012002 -0.013588 0.025083
# 3 -0.003203 -0.003292 0.010018 -0.001178 0.001101 0.008168
# 4 -0.004518 -0.012002 -0.001178 0.035241 0.016031 -0.015012
# 5 -0.013641 -0.013588 0.001101 0.016031 0.040990 -0.026131
# 6 0.014019 0.025083 0.008168 -0.015012 -0.026131 0.087147
#
#
# Mechanical properties :
#
#
# Convention : Reuss Voigt Hill
#
# Bulk Modulus (GPa) = 18.39968 67.28024 42.83996
# Shear Modulus (GPa) = 20.28524 36.11177 28.19850
#
# Velocity S-wave (km/s) = 3.01805 4.02681 3.55836
# Velocity P-wave (km/s) = 4.51739 7.19937 6.00990
#
# Compressibility (1/GPa) = 0.05434878
#
# Stress axis : x y z
#
# Youngs Moduli (GPa) = 71.27440 28.07319 99.82222
#
# Poissons Ratio (x) = -0.10767 0.31976
# Poissons Ratio (y) = -0.27336 0.32864
# Poissons Ratio (z) = 0.22832 0.09242
#
# Static dielectric constant tensor:
#      x y z
#    x 1.994770 -0.064660 -0.190310 
#    y -0.064660 2.005450 0.107810 
#    z -0.190310 0.107810 2.084740 
# 
# From -- ./inp_files/62148.got.cif
#   From: 2010.05.17/outbox.cif.g08.bks.cpg/sg2_32_cif.got.tgz:62148.got - 2010.06.03 11:33:40.
