data_PCOD9074853
_publ_section_title
;
Structure prediction by ZEFSAII (Michael W. Deem and Ramdas Pophale) SiO2 
 PCOD9074853
Probable space group: P -1
;
_chemical_formula_sum "Si O2"
_cell_formula_units_Z 16
_cell_length_a 9.000000
_cell_length_b 15.000000
_cell_length_c 12.000000
_cell_angle_alpha 150.000000
_cell_angle_beta 110.000000
_cell_angle_gamma 70.000000
_cell_volume 757.522634
_symmetry_space_group_name_H-M "P -1"
_symmetry_group_IT_number 2
_symmetry_cell_setting 'triclinic'
loop_
_space_group_symop_operation_xyz
x,y,z
-x,-y,-z
loop_
_atom_site_type_symbol
_atom_site_label
_atom_site_fract_x
_atom_site_fract_y
_atom_site_fract_z
Si Si1 0.154541 0.969101 0.730072
Si Si2 0.668337 0.393904 0.227444
Si Si3 0.591970 0.860834 0.153473
Si Si4 0.820092 0.078243 0.059553
Si Si5 0.716585 0.836732 0.390044
Si Si6 0.822926 0.186759 0.839750
Si Si7 0.053853 0.699692 0.242597
Si Si8 0.364695 0.207855 0.435703
O O1 0.218550 0.930605 0.828867
O O2 0.155721 0.782619 0.457808
O O3 0.247766 0.115376 0.847239
O O4 0.975907 0.067962 0.801422
O O5 0.782795 0.283742 0.228869
O O6 0.629710 0.609319 0.436989
O O7 0.513305 0.284804 0.083879
O O8 0.754824 0.333220 0.068059
O O9 0.613952 0.790093 0.208695
O O10 0.518359 0.070032 0.356308
O O11 0.728678 0.934750 0.811170
O O12 0.000000 0.000000 0.000000
O O13 0.706951 0.742950 0.405666
O O14 0.888526 0.812634 0.350207
O O15 0.693285 0.046744 0.637933
O O16 0.868740 0.257827 0.808656
O O17 0.000000 0.500000 0.000000
#
# Coordination Sequence:
#
# PCOD9074853 Si02
#       8
#     2   2   2   2   2   2   2   2
#     4  11  22  42  68  90 125 173 210 258 319 380
#     4  11  25  42  65  95 131 165 216 267 311 377
#     4  11  23  42  65  91 134 171 209 255 329 380
#     4  11  22  45  69  91 124 170 216 262 319 370
#     4  11  19  40  64  92 129 171 208 259 322 381
#     4  11  19  41  65  92 125 167 207 268 322 365
#     4  11  22  36  63 100 133 155 212 273 319 372
#     4  11  25  41  63  96 131 167 214 264 313 378
#
# _framework density 21.121480999999999
#
# number of rings (size 3 to 8) (size 9 to 14) (size 15 to 20)
#    0.000    1.000    6.250    2.625    0.000    4.000 
#    2.250    1.250    0.000    0.000    0.000    0.000 
#    0.000    0.000    0.000    0.000    0.000    0.000 
#
# Total GULP energy -89080.141560 kJ/mol
# GULP energy per Si atom -5567.508847 kJ/mol
# Density = 2.107341 g / cm^3
# Si number density = 21.121481 Si / 1000 Ang^3
#
#
#
# Elastic Constant Matrix: (Units=GPa)
#
#
# Indices 1 2 3 4 5 6 
#
# 1 41.7360 -17.8689 -7.5496 -11.4877 13.0203 10.1030
# 2 -17.8689 91.7072 19.5451 -9.6325 17.7210 25.8298
# 3 -7.5496 19.5451 58.0386 7.3998 7.8662 8.8624
# 4 -11.4877 -9.6325 7.3998 45.6042 11.0107 4.3585
# 5 13.0203 17.7210 7.8662 11.0107 20.9804 1.3419
# 6 10.1030 25.8298 8.8624 4.3585 1.3419 25.8900
#
#
#
# Elastic Compliance Matrix: (Units=1/GPa)
#
#
# Indices 1 2 3 4 5 6 
#
# 1 -0.025085 -0.029944 -0.003417 -0.029435 0.054841 0.042946
# 2 -0.029944 -0.010489 -0.007022 -0.020569 0.039209 0.025984
# 3 -0.003417 -0.007022 0.019009 -0.006723 0.004277 0.002742
# 4 -0.029435 -0.020569 -0.006723 -0.000642 0.036417 0.032529
# 5 0.054841 0.039209 0.004277 0.036417 -0.035967 -0.066249
# 6 0.042946 0.025984 0.002742 0.032529 -0.066249 -0.007039
#
#
# Mechanical properties :
#
#
# Convention : Reuss Voigt Hill
#
# Bulk Modulus (GPa) = -10.27419 19.97057 4.84819
# Shear Modulus (GPa) = -420.53955 31.65193 -194.44381
#
# Velocity S-wave (km/s) = -14.12577 3.87533 -9.60519
# Velocity P-wave (km/s) = 16.45979 5.43138 10.98692
#
# Compressibility (1/GPa) = -0.09733130
#
# Stress axis : x y z
#
# Youngs Moduli (GPa) = -39.86500 -95.33624 52.60684
#
# Poissons Ratio (x) = -2.85478 0.17974
# Poissons Ratio (y) = -1.19373 0.36941
# Poissons Ratio (z) = -0.13621 -0.66946
#
# Static dielectric constant tensor:
#      x y z
#    x 1.858200 -0.056950 -0.020440 
#    y -0.056950 1.835250 -0.020910 
#    z -0.020440 -0.020910 1.850180 
# 
# From -- ./inp_files/273028.got.cif
#   From: 2010.05.17/outbox.ucp.g08.bks.cvg/sg2_137_cif.got.tgz:273028.got - 2010.06.11 11:32:03.
