data_PCOD9074214
_publ_section_title
;
Structure prediction by ZEFSAII (Michael W. Deem and Ramdas Pophale) SiO2 
 PCOD9074214
Probable space group: P -1
;
_chemical_formula_sum "Si O2"
_cell_formula_units_Z 12
_cell_length_a 12.000000
_cell_length_b 9.000000
_cell_length_c 12.000000
_cell_angle_alpha 40.000000
_cell_angle_beta 60.000000
_cell_angle_gamma 40.000000
_cell_volume 523.519695
_symmetry_space_group_name_H-M "P -1"
_symmetry_group_IT_number 2
_symmetry_cell_setting 'triclinic'
loop_
_space_group_symop_operation_xyz
x,y,z
-x,-y,-z
loop_
_atom_site_type_symbol
_atom_site_label
_atom_site_fract_x
_atom_site_fract_y
_atom_site_fract_z
Si Si1 0.445415 0.244625 0.134742
Si Si2 0.043542 0.173934 0.174747
Si Si3 0.171719 0.231842 0.674796
Si Si4 0.714021 0.285773 0.255031
Si Si5 0.333104 0.863263 0.398941
Si Si6 0.839247 0.371438 0.740096
O O1 0.321403 0.462161 0.182725
O O2 0.653215 0.985417 0.212162
O O3 0.379004 0.072410 0.235702
O O4 0.420857 0.425123 0.929996
O O5 0.852965 0.298425 0.224113
O O6 0.176638 0.983553 0.322903
O O7 0.110846 0.942425 0.162961
O O8 0.000000 0.500000 0.000000
O O9 0.187243 0.441234 0.468064
O O10 0.981471 0.369503 0.736973
O O11 0.190025 0.001977 0.711555
O O12 0.677667 0.167810 0.445561
O O13 0.500000 0.500000 0.500000
#
# Coordination Sequence:
#
# PCOD9074214 Si02
#       6
#     2   2   2   2   2   2
#     4  12  24  47  76 109 150 187 247 311 358 440
#     4  11  24  49  73 106 149 193 242 302 362 443
#     4  10  22  43  73 114 143 185 246 308 359 431
#     4  11  25  47  71 107 145 188 248 295 364 436
#     4  12  27  48  73 106 148 197 240 301 374 435
#     4  10  23  44  79 109 140 199 245 297 374 427
#
# _framework density 22.921773999999999
#
# number of rings (size 3 to 8) (size 9 to 14) (size 15 to 20)
#    0.000    1.000    3.333    2.500    2.333    3.333 
#    6.000    0.000    0.000    0.000    0.000    0.000 
#    0.000    0.000    0.000    0.000    0.000    0.000 
#
# Total GULP energy -66846.946111 kJ/mol
# GULP energy per Si atom -5570.578843 kJ/mol
# Density = 2.286960 g / cm^3
# Si number density = 22.921774 Si / 1000 Ang^3
#
#
#
# Elastic Constant Matrix: (Units=GPa)
#
#
# Indices 1 2 3 4 5 6 
#
# 1 124.4161 25.9989 50.5511 -4.5364 16.8347 -14.3725
# 2 25.9989 -9.2803 -5.8769 -26.6268 23.7499 -10.2565
# 3 50.5511 -5.8769 128.3333 -22.4954 31.8623 -8.4119
# 4 -4.5364 -26.6268 -22.4954 25.3554 8.7825 -5.4966
# 5 16.8347 23.7499 31.8623 8.7825 59.2053 -16.5684
# 6 -14.3725 -10.2565 -8.4119 -5.4966 -16.5684 36.6973
#
#
#
# Elastic Compliance Matrix: (Units=1/GPa)
#
#
# Indices 1 2 3 4 5 6 
#
# 1 0.009074 0.002865 -0.001775 0.004681 -0.002481 0.003529
# 2 0.002865 -0.009731 -0.007659 -0.020285 0.009651 -0.002035
# 3 -0.001775 -0.007659 0.008093 -0.001168 -0.001062 -0.001636
# 4 0.004681 -0.020285 -0.001168 0.016282 0.005212 0.000688
# 5 -0.002481 0.009651 -0.001062 0.005212 0.016204 0.009578
# 6 0.003529 -0.002035 -0.001636 0.000688 0.009578 0.032116
#
#
# Mechanical properties :
#
#
# Convention : Reuss Voigt Hill
#
# Bulk Modulus (GPa) = -175.34191 42.75728 -66.29232
# Shear Modulus (GPa) = 60.04102 35.77133 47.90617
#
# Velocity S-wave (km/s) = 5.12355 3.95471 4.57660
# Velocity P-wave (km/s) = 6.45452 6.28864 1.02807
#
# Compressibility (1/GPa) = -0.00570314
#
# Stress axis : x y z
#
# Youngs Moduli (GPa) = 110.20249 -102.76670 123.56899
#
# Poissons Ratio (x) = 0.29442 0.21937
# Poissons Ratio (y) = -0.31573 0.94645
# Poissons Ratio (z) = 0.19564 -0.78712
#
# Static dielectric constant tensor:
#      x y z
#    x 1.884070 -0.088040 0.028460 
#    y -0.088040 2.013870 -0.034100 
#    z 0.028460 -0.034100 1.953290 
# 
# From -- ./inp_files/234829.got.cif
#   From: 2010.05.17/outbox.ucp.g08.bks.cvg/sg2_118_cif.got.tgz:234829.got - 2010.06.11 11:32:03.
