data_PCOD9074746
_publ_section_title
;
Structure prediction by ZEFSAII (Michael W. Deem and Ramdas Pophale) SiO2 
 PCOD9074746
Probable space group: P -1
;
_chemical_formula_sum "Si O2"
_cell_formula_units_Z 14
_cell_length_a 11.643771
_cell_length_b 10.447587
_cell_length_c 9.418644
_cell_angle_alpha 108.813057
_cell_angle_beta 39.176651
_cell_angle_gamma 120.299464
_cell_volume 619.962516
_symmetry_space_group_name_H-M "P -1"
_symmetry_group_IT_number 2
_symmetry_cell_setting 'triclinic'
loop_
_space_group_symop_operation_xyz
x,y,z
-x,-y,-z
loop_
_atom_site_type_symbol
_atom_site_label
_atom_site_fract_x
_atom_site_fract_y
_atom_site_fract_z
Si Si1 0.048256 0.449550 0.085091
Si Si2 0.167444 0.756366 0.204710
Si Si3 0.156107 0.150329 0.562268
Si Si4 0.390514 0.348663 0.962355
Si Si5 0.952346 0.339344 0.418279
Si Si6 0.724341 0.940639 0.880274
Si Si7 0.375758 0.352522 0.656601
O O1 0.188160 0.608463 0.083181
O O2 0.887031 0.355882 0.325940
O O3 0.162324 0.351755 0.896452
O O4 0.000000 0.500000 0.000000
O O5 0.944666 0.739570 0.360414
O O6 0.170880 0.770095 0.376683
O O7 0.313988 0.911285 0.046030
O O8 0.247329 0.108279 0.322479
O O9 0.317210 0.215735 0.555545
O O10 0.951009 0.010076 0.754051
O O11 0.157684 0.320767 0.191411
O O12 0.411377 0.207202 0.959716
O O13 0.500000 0.500000 0.000000
O O14 0.459791 0.361284 0.737155
O O15 0.000000 0.500000 0.500000
O O16 0.500000 0.500000 0.500000
#
# Coordination Sequence:
#
# PCOD9074746 Si02
#       7
#     2   2   2   2   2   2   2
#     4  10  18  32  52  78 109 140 177 221 260 306
#     4   9  16  32  55  77 104 134 176 216 258 312
#     4   9  16  31  53  77 105 138 169 216 261 309
#     4  11  21  34  54  79 107 139 179 221 267 319
#     4   9  18  30  52  78 102 133 175 213 257 313
#     4   9  17  32  56  78 102 143 175 219 262 321
#     4  11  23  33  51  81 111 142 176 221 269 308
#
# _framework density 22.582011999999999
#
# number of rings (size 3 to 8) (size 9 to 14) (size 15 to 20)
#    0.857    1.429    2.857    0.857    0.000    0.571 
#    0.000    1.429    0.000   16.286    0.000    0.000 
#    0.000    0.000    0.000    0.000    0.000    0.000 
#
# Total GULP energy -77941.792753 kJ/mol
# GULP energy per Si atom -5567.270911 kJ/mol
# Density = 2.253061 g / cm^3
# Si number density = 22.582012 Si / 1000 Ang^3
#
#
#
# Elastic Constant Matrix: (Units=GPa)
#
#
# Indices 1 2 3 4 5 6 
#
# 1 63.0664 15.4739 40.5144 -13.7573 19.4449 8.6275
# 2 15.4739 98.3740 26.0844 -15.2905 31.7245 5.0151
# 3 40.5144 26.0844 83.6570 -13.7304 43.0913 6.1661
# 4 -13.7573 -15.2905 -13.7304 35.6570 -17.7086 9.7553
# 5 19.4449 31.7245 43.0913 -17.7086 44.2245 7.3250
# 6 8.6275 5.0151 6.1661 9.7553 7.3250 35.7046
#
#
#
# Elastic Compliance Matrix: (Units=1/GPa)
#
#
# Indices 1 2 3 4 5 6 
#
# 1 0.026339 -0.001131 -0.014902 0.011075 0.009614 -0.008631
# 2 -0.001131 0.013404 0.002082 0.000687 -0.010884 0.000076
# 3 -0.014902 0.002082 0.032970 -0.010101 -0.032269 0.006995
# 4 0.011075 0.000687 -0.010101 0.047245 0.026611 -0.019396
# 5 0.009614 -0.010884 -0.032269 0.026611 0.071120 -0.017083
# 6 -0.008631 0.000076 0.006995 -0.019396 -0.017083 0.037678
#
#
# Mechanical properties :
#
#
# Convention : Reuss Voigt Hill
#
# Bulk Modulus (GPa) = 22.31584 45.47143 33.89363
# Shear Modulus (GPa) = 18.40977 33.98553 26.19765
#
# Velocity S-wave (km/s) = 2.85834 3.88362 3.40974
# Velocity P-wave (km/s) = 4.56038 6.34743 5.52661
#
# Compressibility (1/GPa) = 0.04481122
#
# Stress axis : x y z
#
# Youngs Moduli (GPa) = 37.96664 74.60399 30.33098
#
# Poissons Ratio (x) = 0.08437 0.45198
# Poissons Ratio (y) = 0.04294 -0.06314
# Poissons Ratio (z) = 0.56576 -0.15531
#
# Static dielectric constant tensor:
#      x y z
#    x 2.073630 -0.005820 -0.020250 
#    y -0.005820 1.851990 -0.034790 
#    z -0.020250 -0.034790 1.909640 
# 
# From -- ./inp_files/256768.got.cif
#   From: 2010.05.17/outbox.cif.g08.bks.cpg/sg2_129_cif.got.tgz:256768.got - 2010.06.03 11:33:40.
