data_PCOD9074979
_publ_section_title
;
Structure prediction by ZEFSAII (Michael W. Deem and Ramdas Pophale) SiO2 
 PCOD9074979
Probable space group: P -1
;
_chemical_formula_sum "Si O2"
_cell_formula_units_Z 14
_cell_length_a 9.000000
_cell_length_b 18.000000
_cell_length_c 9.000000
_cell_angle_alpha 110.000000
_cell_angle_beta 30.000000
_cell_angle_gamma 120.000000
_cell_volume 617.235917
_symmetry_space_group_name_H-M "P -1"
_symmetry_group_IT_number 2
_symmetry_cell_setting 'triclinic'
loop_
_space_group_symop_operation_xyz
x,y,z
-x,-y,-z
loop_
_atom_site_type_symbol
_atom_site_label
_atom_site_fract_x
_atom_site_fract_y
_atom_site_fract_z
Si Si1 0.231590 0.603947 0.387866
Si Si2 0.801312 0.005963 0.031415
Si Si3 0.586469 0.884499 0.601266
Si Si4 0.282554 0.689727 0.713660
Si Si5 0.114313 0.319885 0.678678
Si Si6 0.221950 0.320698 0.277720
Si Si7 0.413979 0.167070 0.094627
O O1 0.267052 0.628672 0.547636
O O2 0.000000 0.500000 0.500000
O O3 0.109464 0.674841 0.480855
O O4 0.543172 0.627238 0.026621
O O5 0.519451 0.040079 0.309513
O O6 0.655318 0.911136 0.013691
O O7 0.000000 0.000000 0.000000
O O8 0.063287 0.084372 0.758451
O O9 0.314780 0.787339 0.718993
O O10 0.650274 0.879209 0.718531
O O11 0.634883 0.714345 0.498940
O O12 0.010077 0.644588 0.047622
O O13 0.294478 0.372094 0.409638
O O14 0.787130 0.240872 0.844582
O O15 0.235538 0.228117 0.235871
#
# Coordination Sequence:
#
# PCOD9074979 Si02
#       7
#     2   2   2   2   2   2   2
#     4  12  28  48  72 107 143 180 223 290 367 427
#     4  12  28  40  63 104 142 181 234 290 333 400
#     4  11  24  43  66  93 140 186 233 282 344 398
#     4  11  24  44  75  98 138 181 236 282 356 417
#     4  11  21  45  71 105 128 188 235 284 330 421
#     4  12  24  45  76 101 141 182 235 282 354 418
#     4  11  25  43  73  97 141 184 243 278 349 398
#
# _framework density 22.681764999999999
#
# number of rings (size 3 to 8) (size 9 to 14) (size 15 to 20)
#    0.000    0.571    4.286    4.286    6.000    0.000 
#    0.000    4.286    0.000    0.000    0.000    0.000 
#    0.000    0.000    0.000    0.000    0.000    0.000 
#
# Total GULP energy -78055.817985 kJ/mol
# GULP energy per Si atom -5575.415570 kJ/mol
# Density = 2.263014 g / cm^3
# Si number density = 22.681765 Si / 1000 Ang^3
#
#
#
# Elastic Constant Matrix: (Units=GPa)
#
#
# Indices 1 2 3 4 5 6 
#
# 1 97.2656 27.6863 6.9604 19.8645 20.2072 15.6801
# 2 27.6863 60.3210 -3.2892 13.8379 16.6488 28.3167
# 3 6.9604 -3.2892 93.8997 22.0445 32.9241 7.3482
# 4 19.8645 13.8379 22.0445 16.1958 -6.9593 3.0250
# 5 20.2072 16.6488 32.9241 -6.9593 49.0797 15.9699
# 6 15.6801 28.3167 7.3482 3.0250 15.9699 30.6633
#
#
#
# Elastic Compliance Matrix: (Units=1/GPa)
#
#
# Indices 1 2 3 4 5 6 
#
# 1 0.006624 -0.015708 -0.012412 0.027067 0.013303 0.004494
# 2 -0.015708 0.010751 -0.019800 0.052946 0.029358 -0.017665
# 3 -0.012412 -0.019800 -0.013022 0.059684 0.026382 0.008125
# 4 0.027067 0.052946 0.059684 -0.127986 -0.079866 -0.022816
# 5 0.013303 0.029358 0.026382 -0.079866 -0.016321 -0.023857
# 6 0.004494 -0.017665 0.008125 -0.022816 -0.023857 0.059356
#
#
# Mechanical properties :
#
#
# Convention : Reuss Voigt Hill
#
# Bulk Modulus (GPa) = -10.93055 34.91126 11.99035
# Shear Modulus (GPa) = -327.82412 33.86301 -146.98055
#
# Velocity S-wave (km/s) = -12.03519 3.86808 -8.05865
# Velocity P-wave (km/s) = 14.06973 5.94765 9.01617
#
# Compressibility (1/GPa) = -0.09148671
#
# Stress axis : x y z
#
# Youngs Moduli (GPa) = 150.95730 93.01108 -76.79434
#
# Poissons Ratio (x) = 1.46102 -0.95317
# Poissons Ratio (y) = 2.37124 -1.52056
# Poissons Ratio (z) = 1.87367 1.84166
#
# Static dielectric constant tensor:
#      x y z
#    x 1.931840 -0.005410 0.079460 
#    y -0.005410 1.789140 0.019550 
#    z 0.079460 0.019550 1.963200 
# 
# From -- ./inp_files/217955.got.cif
#   From: 2010.05.17/outbox.ucp.g08.bks.cvg/sg2_109_cif.got.tgz:217955.got - 2010.06.11 11:32:03.
