data_PCOD9074319
_publ_section_title
;
Structure prediction by ZEFSAII (Michael W. Deem and Ramdas Pophale) SiO2 
 PCOD9074319
Probable space group: P -1
;
_chemical_formula_sum "Si O2"
_cell_formula_units_Z 16
_cell_length_a 15.644214
_cell_length_b 23.178741
_cell_length_c 15.684036
_cell_angle_alpha 26.490344
_cell_angle_beta 161.452083
_cell_angle_gamma 157.234279
_cell_volume 689.978426
_symmetry_space_group_name_H-M "P -1"
_symmetry_group_IT_number 2
_symmetry_cell_setting 'triclinic'
loop_
_space_group_symop_operation_xyz
x,y,z
-x,-y,-z
loop_
_atom_site_type_symbol
_atom_site_label
_atom_site_fract_x
_atom_site_fract_y
_atom_site_fract_z
Si Si1 0.517317 0.212579 0.353301
Si Si2 0.292148 0.551492 0.907437
Si Si3 0.664976 0.392813 0.414286
Si Si4 0.788677 0.129533 0.277189
Si Si5 0.372116 0.160901 0.578824
Si Si6 0.151534 0.058800 0.849730
Si Si7 0.996360 0.319435 0.071371
Si Si8 0.284092 0.004743 0.213919
O O1 0.535720 0.276353 0.190434
O O2 0.662663 0.358524 0.358808
O O3 0.733764 0.139271 0.661708
O O4 0.169039 0.090228 0.220347
O O5 0.972822 0.471163 0.658436
O O6 0.496786 0.484202 0.155348
O O7 0.181631 0.488788 0.982122
O O8 0.479505 0.225508 0.499905
O O9 0.924024 0.287209 0.145751
O O10 0.805573 0.016220 0.373865
O O11 0.001600 0.138507 0.547146
O O12 0.418917 0.058048 0.044775
O O13 0.199709 0.246749 0.332088
O O14 0.665882 0.220252 0.840821
O O15 0.347100 0.119863 0.042949
O O16 0.500000 0.000000 0.500000
O O17 0.000000 0.000000 0.000000
#
# Coordination Sequence:
#
# PCOD9074319 Si02
#       8
#     2   2   2   2   2   2   2   2
#     4  12  24  39  63  88 126 154 199 245 305 356
#     4  10  24  36  57  86 126 172 205 229 276 344
#     4  10  21  34  55  84 127 165 203 237 275 347
#     4  12  21  35  56  83 118 156 202 247 290 342
#     4  10  18  32  50  76 117 162 208 249 276 319
#     4  12  24  37  62  89 115 148 192 245 316 354
#     4  10  21  35  51  80 117 165 208 240 275 330
#     4  12  25  44  64  91 119 145 191 255 321 378
#
# _framework density 23.189131
#
# number of rings (size 3 to 8) (size 9 to 14) (size 15 to 20)
#    0.000    1.000    3.750    3.000    7.000    0.000 
#    0.000    0.000    0.000    0.000    0.000    5.250 
#    0.000    0.000    0.000    0.000    0.000    0.000 
#
# Total GULP energy -89114.008814 kJ/mol
# GULP energy per Si atom -5569.625551 kJ/mol
# Density = 2.313635 g / cm^3
# Si number density = 23.189131 Si / 1000 Ang^3
#
#
#
# Elastic Constant Matrix: (Units=GPa)
#
#
# Indices 1 2 3 4 5 6 
#
# 1 97.3599 33.4172 52.4919 -10.7481 -26.7930 36.9704
# 2 33.4172 60.3554 26.3236 -9.0363 -14.9384 33.1001
# 3 52.4919 26.3236 206.7212 7.0319 -6.8255 13.7465
# 4 -10.7481 -9.0363 7.0319 24.6484 8.4811 -18.8975
# 5 -26.7930 -14.9384 -6.8255 8.4811 55.8102 -11.6231
# 6 36.9704 33.1001 13.7465 -18.8975 -11.6231 37.4860
#
#
#
# Elastic Compliance Matrix: (Units=1/GPa)
#
#
# Indices 1 2 3 4 5 6 
#
# 1 0.022152 0.005215 -0.003715 -0.012047 0.007394 -0.028870
# 2 0.005215 0.039201 -0.002194 -0.021570 0.006017 -0.047961
# 3 -0.003715 -0.002194 0.005979 -0.002320 -0.000877 0.001967
# 4 -0.012047 -0.021570 -0.002320 0.087197 -0.009962 0.072648
# 5 0.007394 0.006017 -0.000877 -0.009962 0.022322 -0.010385
# 6 -0.028870 -0.047961 0.001967 0.072648 -0.010385 0.130181
#
#
# Mechanical properties :
#
#
# Convention : Reuss Voigt Hill
#
# Bulk Modulus (GPa) = 15.16462 65.43355 40.29908
# Shear Modulus (GPa) = 15.13304 40.40251 27.76777
#
# Velocity S-wave (km/s) = 2.55736 4.17862 3.46417
# Velocity P-wave (km/s) = 3.90818 7.18051 5.78073
#
# Compressibility (1/GPa) = 0.06594297
#
# Stress axis : x y z
#
# Youngs Moduli (GPa) = 45.14222 25.50965 167.24127
#
# Poissons Ratio (x) = -0.13303 0.62135
# Poissons Ratio (y) = -0.23541 0.36697
# Poissons Ratio (z) = 0.16772 0.05598
#
# Static dielectric constant tensor:
#      x y z
#    x 1.975000 0.057420 -0.057960 
#    y 0.057420 1.852640 0.086700 
#    z -0.057960 0.086700 1.862270 
# 
# From -- ./inp_files/535406.got.cif
#   From: 2010.05.17/outbox.cif.g08.bks.cpg/sg2_268_cif.got.tgz:535406.got - 2010.06.03 11:33:40.
