data_PCOD9074483
_publ_section_title
;
Structure prediction by ZEFSAII (Michael W. Deem and Ramdas Pophale) SiO2 
 PCOD9074483
Probable space group: P -1
;
_chemical_formula_sum "Si O2"
_cell_formula_units_Z 16
_cell_length_a 12.000000
_cell_length_b 15.000000
_cell_length_c 12.000000
_cell_angle_alpha 60.000000
_cell_angle_beta 90.000000
_cell_angle_gamma 140.000000
_cell_volume 872.532825
_symmetry_space_group_name_H-M "P -1"
_symmetry_group_IT_number 2
_symmetry_cell_setting 'triclinic'
loop_
_space_group_symop_operation_xyz
x,y,z
-x,-y,-z
loop_
_atom_site_type_symbol
_atom_site_label
_atom_site_fract_x
_atom_site_fract_y
_atom_site_fract_z
Si Si1 0.151532 0.897572 0.322479
Si Si2 0.714064 0.253247 0.802116
Si Si3 0.619210 0.740974 0.745229
Si Si4 0.484587 0.708951 0.105453
Si Si5 0.806088 0.665080 0.838075
Si Si6 0.427883 0.558282 0.428024
Si Si7 0.623385 0.863566 0.437610
Si Si8 0.745917 0.265484 0.531099
O O1 0.221978 0.836015 0.399714
O O2 0.864032 0.668763 0.443163
O O3 0.237595 0.051399 0.318668
O O4 0.299960 0.062300 0.110486
O O5 0.654940 0.309438 0.830427
O O6 0.700050 0.251852 0.669860
O O7 0.004802 0.479098 0.673028
O O8 0.500000 0.000000 0.000000
O O9 0.761727 0.748909 0.752051
O O10 0.585292 0.758535 0.610771
O O11 0.363874 0.505023 0.950862
O O12 0.308739 0.499596 0.156433
O O13 0.540831 0.682883 0.229452
O O14 0.088791 0.880662 0.725960
O O15 0.500000 0.500000 0.500000
O O16 0.528740 0.720443 0.420118
O O17 0.471761 0.847586 0.455785
#
# Coordination Sequence:
#
# PCOD9074483 Si02
#       8
#     2   2   2   2   2   2   2   2
#     4  11  23  43  66  91 124 170 214 249 313 376
#     4  11  21  40  65  89 124 170 205 254 312 374
#     4  10  23  44  65  87 126 171 209 252 304 380
#     4  11  22  41  68  90 121 171 211 255 310 374
#     4  10  23  44  64  89 124 170 212 247 312 374
#     4  12  24  39  64  97 126 159 211 267 314 363
#     4  12  24  38  62  95 127 159 202 266 316 362
#     4  11  23  39  62  96 124 160 208 256 317 374
#
# _framework density 18.337419000000001
#
# number of rings (size 3 to 8) (size 9 to 14) (size 15 to 20)
#    0.000    1.000    3.750    3.375    0.000    3.000 
#    0.000    1.250    0.000    0.000    0.000    0.000 
#    0.000    0.000    0.000    0.000    0.000    0.000 
#
# Total GULP energy -89197.770011 kJ/mol
# GULP energy per Si atom -5574.860626 kJ/mol
# Density = 1.829568 g / cm^3
# Si number density = 18.337419 Si / 1000 Ang^3
#
#
#
# Elastic Constant Matrix: (Units=GPa)
#
#
# Indices 1 2 3 4 5 6 
#
# 1 153.8461 48.0472 48.5614 -21.0819 8.3743 9.5873
# 2 48.0472 103.2174 45.0697 -16.2094 5.8722 -1.5454
# 3 48.5614 45.0697 134.6864 -21.2461 8.9370 13.1585
# 4 -21.0819 -16.2094 -21.2461 34.7214 2.9692 -2.8779
# 5 8.3743 5.8722 8.9370 2.9692 30.8589 -2.5094
# 6 9.5873 -1.5454 13.1585 -2.8779 -2.5094 43.0069
#
#
#
# Elastic Compliance Matrix: (Units=1/GPa)
#
#
# Indices 1 2 3 4 5 6 
#
# 1 0.008391 -0.002758 -0.001371 0.002999 -0.001762 -0.001453
# 2 -0.002758 0.012794 -0.003006 0.002712 -0.000904 0.002123
# 3 -0.001371 -0.003006 0.009969 0.003854 -0.002537 -0.002743
# 4 0.002999 0.002712 0.003854 0.034759 -0.005771 0.000239
# 5 -0.001762 -0.000904 -0.002537 -0.005771 0.034571 0.002768
# 6 -0.001453 0.002123 -0.002743 0.000239 0.002768 0.024669
#
#
# Mechanical properties :
#
#
# Convention : Reuss Voigt Hill
#
# Bulk Modulus (GPa) = 59.22795 75.01183 67.11989
# Shear Modulus (GPa) = 34.47039 38.38887 36.42963
#
# Velocity S-wave (km/s) = 4.34035 4.58041 4.46200
# Velocity P-wave (km/s) = 7.58204 8.30474 7.95161
#
# Compressibility (1/GPa) = 0.01688392
#
# Stress axis : x y z
#
# Youngs Moduli (GPa) = 119.16881 78.16141 100.30943
#
# Poissons Ratio (x) = 0.21559 0.13749
# Poissons Ratio (y) = 0.32869 0.30158
# Poissons Ratio (z) = 0.16334 0.23499
#
# Static dielectric constant tensor:
#      x y z
#    x 1.658520 -0.012230 -0.009950 
#    y -0.012230 1.637420 0.013450 
#    z -0.009950 0.013450 1.658870 
# 
# From -- ./inp_files/433830.got.cif
#   From: 2010.05.17/outbox.ucp.g08.bks.cvg/sg2_217_cif.got.tgz:433830.got - 2010.06.11 11:32:03.
