data_PCOD9074463
_publ_section_title
;
Structure prediction by ZEFSAII (Michael W. Deem and Ramdas Pophale) SiO2 
 PCOD9074463
Probable space group: P -1
;
_chemical_formula_sum "Si O2"
_cell_formula_units_Z 16
_cell_length_a 12.000000
_cell_length_b 12.000000
_cell_length_c 12.000000
_cell_angle_alpha 40.000000
_cell_angle_beta 80.000000
_cell_angle_gamma 110.000000
_cell_volume 722.981415
_symmetry_space_group_name_H-M "P -1"
_symmetry_group_IT_number 2
_symmetry_cell_setting 'triclinic'
loop_
_space_group_symop_operation_xyz
x,y,z
-x,-y,-z
loop_
_atom_site_type_symbol
_atom_site_label
_atom_site_fract_x
_atom_site_fract_y
_atom_site_fract_z
Si Si1 0.580297 0.898851 0.561821
Si Si2 0.782564 0.625161 0.974395
Si Si3 0.844517 0.016408 0.998825
Si Si4 0.722036 0.108393 0.148047
Si Si5 0.825709 0.064861 0.718698
Si Si6 0.215717 0.417909 0.735773
Si Si7 0.542239 0.015120 0.849083
Si Si8 0.029974 0.676002 0.732923
O O1 0.500000 0.000000 0.500000
O O2 0.610881 0.891620 0.431122
O O3 0.768967 0.101902 0.431568
O O4 0.413578 0.604467 0.861018
O O5 0.921282 0.695112 0.811576
O O6 0.817540 0.862449 0.823546
O O7 0.782575 0.539031 0.164958
O O8 0.897529 0.154840 0.763157
O O9 0.019735 0.190503 0.902724
O O10 0.743451 0.015164 0.106509
O O11 0.736571 0.723640 0.201683
O O12 0.620619 0.154499 0.075870
O O13 0.892960 0.359901 0.994928
O O14 0.644635 0.955422 0.850404
O O15 0.945304 0.285192 0.435276
O O16 0.328548 0.685704 0.444865
O O17 0.500000 0.000000 0.000000
#
# Coordination Sequence:
#
# PCOD9074463 Si02
#       8
#     2   2   2   2   2   2   2   2
#     4  12  25  45  71 104 137 186 239 291 343 413
#     4  11  25  49  72 101 142 188 239 286 346 415
#     4  10  23  43  69 101 134 184 227 286 352 417
#     4  12  24  42  71 101 139 182 233 285 353 421
#     4  11  26  46  68 104 144 184 232 293 351 418
#     4  10  23  44  71  98 138 178 234 285 346 423
#     4  12  25  43  68 105 144 180 228 288 358 419
#     4  12  27  44  72 102 143 189 236 287 350 411
#
# _framework density 22.130583000000001
#
# number of rings (size 3 to 8) (size 9 to 14) (size 15 to 20)
#    0.000    0.750    3.750    3.000    3.500    3.000 
#    2.250    0.000    0.000    0.000    0.000    0.000 
#    0.000    0.000    0.000    0.000    0.000    0.000 
#
# Total GULP energy -89208.275012 kJ/mol
# GULP energy per Si atom -5575.517188 kJ/mol
# Density = 2.208021 g / cm^3
# Si number density = 22.130583 Si / 1000 Ang^3
#
#
#
# Elastic Constant Matrix: (Units=GPa)
#
#
# Indices 1 2 3 4 5 6 
#
# 1 92.0374 34.1424 16.4190 1.0911 -27.7924 -14.7433
# 2 34.1424 121.9229 8.1837 19.1873 -16.7045 -23.0679
# 3 16.4190 8.1837 59.2057 17.9417 -19.6500 -6.0549
# 4 1.0911 19.1873 17.9417 45.5531 5.5468 -18.2140
# 5 -27.7924 -16.7045 -19.6500 5.5468 33.0210 3.9761
# 6 -14.7433 -23.0679 -6.0549 -18.2140 3.9761 49.3053
#
#
#
# Elastic Compliance Matrix: (Units=1/GPa)
#
#
# Indices 1 2 3 4 5 6 
#
# 1 0.015682 -0.002312 0.000052 0.000262 0.011682 0.002769
# 2 -0.002312 0.010743 0.003025 -0.005509 0.005951 0.002191
# 3 0.000052 0.003025 0.028123 -0.016057 0.021340 -0.002768
# 4 0.000262 -0.005509 -0.016057 0.037357 -0.019712 0.010919
# 5 0.011682 0.005951 0.021340 -0.019712 0.059520 -0.003184
# 6 0.002769 0.002191 -0.002768 0.010919 -0.003184 0.026085
#
#
# Mechanical properties :
#
#
# Convention : Reuss Voigt Hill
#
# Bulk Modulus (GPa) = 17.83245 43.40624 30.61935
# Shear Modulus (GPa) = 25.68411 39.87062 32.77737
#
# Velocity S-wave (km/s) = 3.41041 4.24914 3.85267
# Velocity P-wave (km/s) = 4.85625 6.61285 5.80142
#
# Compressibility (1/GPa) = 0.05607755
#
# Stress axis : x y z
#
# Youngs Moduli (GPa) = 63.76901 93.08260 35.55783
#
# Poissons Ratio (x) = 0.21517 -0.00184
# Poissons Ratio (y) = 0.14741 -0.10755
# Poissons Ratio (z) = -0.00330 -0.28155
#
# Static dielectric constant tensor:
#      x y z
#    x 1.985540 0.000350 0.081930 
#    y 0.000350 1.795960 -0.011110 
#    z 0.081930 -0.011110 1.891870 
# 
# From -- ./inp_files/427402.got.cif
#   From: 2010.05.17/outbox.ucp.g08.bks.cvg/sg2_214_cif.got.tgz:427402.got - 2010.06.11 11:32:03.
