data_PCOD9074959
_publ_section_title
;
Structure prediction by ZEFSAII (Michael W. Deem and Ramdas Pophale) SiO2 
 PCOD9074959
Probable space group: P -1
;
_chemical_formula_sum "Si O2"
_cell_formula_units_Z 16
_cell_length_a 12.000000
_cell_length_b 9.000000
_cell_length_c 15.000000
_cell_angle_alpha 130.000000
_cell_angle_beta 70.000000
_cell_angle_gamma 70.000000
_cell_volume 728.972637
_symmetry_space_group_name_H-M "P -1"
_symmetry_group_IT_number 2
_symmetry_cell_setting 'triclinic'
loop_
_space_group_symop_operation_xyz
x,y,z
-x,-y,-z
loop_
_atom_site_type_symbol
_atom_site_label
_atom_site_fract_x
_atom_site_fract_y
_atom_site_fract_z
Si Si1 0.059771 0.615150 0.399656
Si Si2 0.567034 0.228887 0.320671
Si Si3 0.518357 0.874421 0.234476
Si Si4 0.240021 0.709489 0.475178
Si Si5 0.241694 0.109835 0.557327
Si Si6 0.872077 0.197744 0.888229
Si Si7 0.754590 0.947617 0.770700
Si Si8 0.003770 0.646042 0.969292
O O1 0.163322 0.688573 0.403842
O O2 0.203150 0.259366 0.243637
O O3 0.934487 0.736485 0.395788
O O4 0.923369 0.770317 0.583992
O O5 0.500000 0.500000 0.500000
O O6 0.423243 0.375555 0.335804
O O7 0.530696 0.084722 0.332367
O O8 0.783251 0.952116 0.123500
O O9 0.411698 0.934830 0.375177
O O10 0.401955 0.942301 0.208307
O O11 0.729778 0.540306 0.022567
O O12 0.298531 0.853034 0.499659
O O13 0.067374 0.929614 0.677772
O O14 0.148811 0.383672 0.754320
O O15 0.745969 0.165947 0.905219
O O16 0.928724 0.222896 0.974527
O O17 0.000000 0.500000 0.000000
#
# Coordination Sequence:
#
# PCOD9074959 Si02
#       8
#     2   2   2   2   2   2   2   2
#     4   9  19  37  65  93 132 165 213 264 324 374
#     4  12  23  42  70  95 126 175 219 255 317 397
#     4  11  23  42  68 100 129 165 217 269 319 374
#     4  11  21  42  68  94 129 175 216 256 323 387
#     4  11  24  41  65  99 133 164 212 274 321 375
#     4  11  22  40  71  89 128 176 216 254 317 396
#     4   9  19  38  65  99 124 168 213 266 318 381
#     4  12  23  45  64  92 128 178 214 254 325 393
#
# _framework density 21.948698
#
# number of rings (size 3 to 8) (size 9 to 14) (size 15 to 20)
#    0.000    1.250    5.000    0.750    1.750    0.500 
#    2.250    1.875    0.000    0.000    0.000    0.000 
#    0.000    0.000    0.000    0.000    0.000    0.000 
#
# Total GULP energy -89091.378582 kJ/mol
# GULP energy per Si atom -5568.211161 kJ/mol
# Density = 2.189874 g / cm^3
# Si number density = 21.948698 Si / 1000 Ang^3
#
#
#
# Elastic Constant Matrix: (Units=GPa)
#
#
# Indices 1 2 3 4 5 6 
#
# 1 113.0571 11.3812 12.0630 13.5634 32.3096 29.5089
# 2 11.3812 6.0753 2.6489 20.5243 9.6371 -7.4675
# 3 12.0630 2.6489 1.1548 24.9566 35.3988 22.7149
# 4 13.5634 20.5243 24.9566 12.2875 -13.8347 7.9648
# 5 32.3096 9.6371 35.3988 -13.8347 11.2633 -21.8726
# 6 29.5089 -7.4675 22.7149 7.9648 -21.8726 -33.6830
#
#
#
# Elastic Compliance Matrix: (Units=1/GPa)
#
#
# Indices 1 2 3 4 5 6 
#
# 1 0.009917 0.004015 -0.009179 -0.003432 -0.002524 0.002436
# 2 0.004015 0.058282 -0.040339 0.015901 0.009349 -0.038918
# 3 -0.009179 -0.040339 0.032175 0.013863 0.011944 0.018122
# 4 -0.003432 0.015901 0.013863 0.006593 -0.013593 0.013202
# 5 -0.002524 0.009349 0.011944 -0.013593 0.015423 -0.009459
# 6 0.002436 -0.038918 0.018122 0.013202 -0.009459 0.002558
#
#
# Mechanical properties :
#
#
# Convention : Reuss Voigt Hill
#
# Bulk Modulus (GPa) = 106.72691 19.16371 62.94531
# Shear Modulus (GPa) = 22.82302 4.25316 13.53809
#
# Velocity S-wave (km/s) = 3.22815 1.39355 2.48625
# Velocity P-wave (km/s) = 7.91364 3.36740 6.08133
#
# Compressibility (1/GPa) = 0.00936971
#
# Stress axis : x y z
#
# Youngs Moduli (GPa) = 100.83189 17.15802 31.07994
#
# Poissons Ratio (x) = -0.06890 0.28527
# Poissons Ratio (y) = -0.40489 1.25374
# Poissons Ratio (z) = 0.92550 0.69214
#
# Static dielectric constant tensor:
#      x y z
#    x 1.893740 -0.060700 0.011130 
#    y -0.060700 2.204850 0.352470 
#    z 0.011130 0.352470 2.002190 
# 
# From -- ./inp_files/223713.got.cif
#   From: 2010.05.17/outbox.ucp.g08.bks.cvg/sg2_112_cif.got.tgz:223713.got - 2010.06.11 11:32:03.
