data_PCOD9074525
_publ_section_title
;
Structure prediction by ZEFSAII (Michael W. Deem and Ramdas Pophale) SiO2 
 PCOD9074525
Probable space group: P -1
;
_chemical_formula_sum "Si O2"
_cell_formula_units_Z 14
_cell_length_a 11.237339
_cell_length_b 9.741328
_cell_length_c 11.603507
_cell_angle_alpha 135.699973
_cell_angle_beta 41.372030
_cell_angle_gamma 135.840021
_cell_volume 539.756885
_symmetry_space_group_name_H-M "P -1"
_symmetry_group_IT_number 2
_symmetry_cell_setting 'triclinic'
loop_
_space_group_symop_operation_xyz
x,y,z
-x,-y,-z
loop_
_atom_site_type_symbol
_atom_site_label
_atom_site_fract_x
_atom_site_fract_y
_atom_site_fract_z
Si Si1 0.837246 0.940842 0.745747
Si Si2 0.201473 0.887924 0.371433
Si Si3 0.072436 0.250174 0.132400
Si Si4 0.674309 0.163470 0.394435
Si Si5 0.441783 0.365983 0.577821
Si Si6 0.427013 0.192819 0.936197
Si Si7 0.921456 0.629062 0.047929
O O1 0.800425 0.056421 0.728989
O O2 0.641416 0.829108 0.894486
O O3 0.976060 0.817650 0.533415
O O4 0.967844 0.125911 0.848479
O O5 0.315179 0.121298 0.486505
O O6 0.342634 0.761256 0.214258
O O7 0.889875 0.238838 0.337688
O O8 0.295030 0.314133 0.051175
O O9 0.054424 0.379443 0.110520
O O10 0.000000 0.000000 0.000000
O O11 0.620190 0.360279 0.518314
O O12 0.500000 0.000000 0.500000
O O13 0.659874 0.031440 0.207175
O O14 0.500000 0.500000 0.500000
O O15 0.304157 0.438143 0.799576
O O16 0.000000 0.500000 0.000000
#
# Coordination Sequence:
#
# PCOD9074525 Si02
#       7
#     2   2   2   2   2   2   2
#     4  10  19  37  54  82 109 150 185 227 269 336
#     4   9  21  34  55  82 112 144 188 226 272 326
#     4  10  18  32  51  80 109 139 183 226 273 324
#     4  10  19  30  51  79 110 142 177 227 276 323
#     4  10  20  33  52  82 109 138 180 226 278 323
#     4  10  19  31  55  78 111 138 185 224 275 316
#     4  11  21  34  54  81 113 143 179 230 279 326
#
# _framework density 25.937601999999998
#
# number of rings (size 3 to 8) (size 9 to 14) (size 15 to 20)
#    0.000    2.000    2.857    3.000    6.000    0.000 
#    0.000    0.000    0.000    0.857    7.429    4.000 
#    0.000    0.000    0.000    0.000    0.000    0.000 
#
# Total GULP energy -78188.803530 kJ/mol
# GULP energy per Si atom -5584.914538 kJ/mol
# Density = 2.587857 g / cm^3
# Si number density = 25.937602 Si / 1000 Ang^3
#
#
#
# Elastic Constant Matrix: (Units=GPa)
#
#
# Indices 1 2 3 4 5 6 
#
# 1 122.9043 37.0486 50.5373 3.5166 -35.7053 -15.5125
# 2 37.0486 81.1152 38.4321 -2.2774 -12.2152 -9.3287
# 3 50.5373 38.4321 156.6593 -18.1509 -44.3858 -13.2754
# 4 3.5166 -2.2774 -18.1509 23.1887 -11.2532 1.3911
# 5 -35.7053 -12.2152 -44.3858 -11.2532 62.8828 7.6307
# 6 -15.5125 -9.3287 -13.2754 1.3911 7.6307 56.7495
#
#
#
# Elastic Compliance Matrix: (Units=1/GPa)
#
#
# Indices 1 2 3 4 5 6 
#
# 1 0.011349 -0.003647 -0.001626 -0.001441 0.004136 0.001602
# 2 -0.003647 0.015299 -0.003088 -0.001212 -0.001622 0.001043
# 3 -0.001626 -0.003088 0.011931 0.013799 0.009338 0.000245
# 4 -0.001441 -0.001212 0.013799 0.063996 0.020341 -0.001669
# 5 0.004136 -0.001622 0.009338 0.020341 0.028320 -0.001258
# 6 0.001602 0.001043 0.000245 -0.001669 -0.001258 0.018498
#
#
# Mechanical properties :
#
#
# Convention : Reuss Voigt Hill
#
# Bulk Modulus (GPa) = 45.75291 68.07943 56.91617
# Shear Modulus (GPa) = 28.83509 44.20826 36.52167
#
# Velocity S-wave (km/s) = 3.33785 4.13293 3.75648
# Velocity P-wave (km/s) = 5.70376 7.00565 6.38796
#
# Compressibility (1/GPa) = 0.02185653
#
# Stress axis : x y z
#
# Youngs Moduli (GPa) = 88.11221 65.36525 83.81847
#
# Poissons Ratio (x) = 0.23837 0.13629
# Poissons Ratio (y) = 0.32132 0.25885
# Poissons Ratio (z) = 0.14327 0.20186
#
# Static dielectric constant tensor:
#      x y z
#    x 1.907450 0.039670 -0.059660 
#    y 0.039670 2.063420 -0.017520 
#    z -0.059660 -0.017520 2.090830 
# 
# From -- ./inp_files/181538.got.cif
#   From: 2010.05.17/outbox.cif.g08.bks.cpg/sg2_91_cif.got.tgz:181538.got - 2010.06.03 11:33:40.
