data_PCOD9074128
_publ_section_title
;
Structure prediction by ZEFSAII (Michael W. Deem and Ramdas Pophale) SiO2 
 PCOD9074128
Probable space group: P -1
;
_chemical_formula_sum "Si O2"
_cell_formula_units_Z 14
_cell_length_a 21.000000
_cell_length_b 9.000000
_cell_length_c 9.000000
_cell_angle_alpha 100.000000
_cell_angle_beta 130.000000
_cell_angle_gamma 40.000000
_cell_volume 638.399559
_symmetry_space_group_name_H-M "P -1"
_symmetry_group_IT_number 2
_symmetry_cell_setting 'triclinic'
loop_
_space_group_symop_operation_xyz
x,y,z
-x,-y,-z
loop_
_atom_site_type_symbol
_atom_site_label
_atom_site_fract_x
_atom_site_fract_y
_atom_site_fract_z
Si Si1 0.379602 0.062839 0.898254
Si Si2 0.037582 0.778338 0.592578
Si Si3 0.605689 0.025821 0.738852
Si Si4 0.145357 0.977323 0.136920
Si Si5 0.582816 0.203194 0.392060
Si Si6 0.232555 0.926662 0.942913
Si Si7 0.831744 0.400119 0.913494
O O1 0.198565 0.428929 0.716096
O O2 0.374521 0.955169 0.726674
O O3 0.447364 0.907530 0.143834
O O4 0.500000 0.000000 0.000000
O O5 0.075089 0.751378 0.815634
O O6 0.000000 0.000000 0.500000
O O7 0.871259 0.943850 0.337639
O O8 0.553718 0.168776 0.509976
O O9 0.744548 0.933858 0.965428
O O10 0.672373 0.755242 0.755500
O O11 0.272453 0.901100 0.377556
O O12 0.134670 0.013157 0.951016
O O13 0.205910 0.710376 0.215642
O O14 0.960371 0.278053 0.975686
O O15 0.412371 0.561908 0.159389
#
# Coordination Sequence:
#
# PCOD9074128 Si02
#       7
#     2   2   2   2   2   2   2
#     4  11  27  47  71 111 138 183 242 288 359 417
#     4  11  23  44  72  98 145 181 226 300 346 421
#     4  10  25  45  73 101 140 187 233 295 349 410
#     4  10  22  42  69 100 141 181 238 278 356 414
#     4  11  26  48  70 103 148 184 233 297 342 426
#     4  11  24  46  67 104 140 187 233 283 362 413
#     4  10  23  41  69 109 132 186 238 287 352 421
#
# _framework density 21.929839999999999
#
# number of rings (size 3 to 8) (size 9 to 14) (size 15 to 20)
#    0.000    1.429    1.429    2.571    8.000    3.429 
#   10.286    0.000    0.000    0.000    0.000    0.000 
#    0.000    0.000    0.000    0.000    0.000    0.000 
#
# Total GULP energy -77958.525406 kJ/mol
# GULP energy per Si atom -5568.466100 kJ/mol
# Density = 2.187993 g / cm^3
# Si number density = 21.929840 Si / 1000 Ang^3
#
#
#
# Elastic Constant Matrix: (Units=GPa)
#
#
# Indices 1 2 3 4 5 6 
#
# 1 108.4862 18.0463 27.2801 5.8041 9.7415 -16.7762
# 2 18.0463 94.6025 32.7759 32.6207 12.4862 -10.0604
# 3 27.2801 32.7759 86.0648 8.4777 1.3359 -0.2187
# 4 5.8041 32.6207 8.4777 27.7192 1.2652 -6.5930
# 5 9.7415 12.4862 1.3359 1.2652 32.6765 5.9065
# 6 -16.7762 -10.0604 -0.2187 -6.5930 5.9065 37.0370
#
#
#
# Elastic Compliance Matrix: (Units=1/GPa)
#
#
# Indices 1 2 3 4 5 6 
#
# 1 0.011400 0.000316 -0.003647 -0.000030 -0.004441 0.005931
# 2 0.000316 0.021858 -0.006047 -0.022807 -0.007903 0.003245
# 3 -0.003647 -0.006047 0.014780 0.002424 0.003296 -0.003301
# 4 -0.000030 -0.022807 0.002424 0.062917 0.005441 0.004138
# 5 -0.004441 -0.007903 0.003296 0.005441 0.036218 -0.008946
# 6 0.005931 0.003245 -0.003301 0.004138 -0.008946 0.032712
#
#
# Mechanical properties :
#
#
# Convention : Reuss Voigt Hill
#
# Bulk Modulus (GPa) = 34.15048 49.48423 41.81736
# Shear Modulus (GPa) = 23.99246 33.55664 28.77455
#
# Velocity S-wave (km/s) = 3.31124 3.91600 3.62625
# Velocity P-wave (km/s) = 5.49777 6.56205 6.05335
#
# Compressibility (1/GPa) = 0.02928217
#
# Stress axis : x y z
#
# Youngs Moduli (GPa) = 87.72134 45.75087 67.66105
#
# Poissons Ratio (x) = -0.01447 0.24675
# Poissons Ratio (y) = -0.02774 0.40913
# Poissons Ratio (z) = 0.31990 0.27664
#
# Static dielectric constant tensor:
#      x y z
#    x 1.851580 -0.003900 -0.004410 
#    y -0.003900 1.835100 -0.011560 
#    z -0.004410 -0.011560 1.891870 
# 
# From -- ./inp_files/244870.got.cif
#   From: 2010.05.17/outbox.ucp.g08.bks.cvg/sg2_123_cif.got.tgz:244870.got - 2010.06.11 11:32:03.
