data_PCOD9074013
_publ_section_title
;
Structure prediction by ZEFSAII (Michael W. Deem and Ramdas Pophale) SiO2 
 PCOD9074013
Probable space group: P -1
;
_chemical_formula_sum "Si O2"
_cell_formula_units_Z 16
_cell_length_a 9.000000
_cell_length_b 21.000000
_cell_length_c 15.000000
_cell_angle_alpha 160.000000
_cell_angle_beta 70.000000
_cell_angle_gamma 120.000000
_cell_volume 757.501203
_symmetry_space_group_name_H-M "P -1"
_symmetry_group_IT_number 2
_symmetry_cell_setting 'triclinic'
loop_
_space_group_symop_operation_xyz
x,y,z
-x,-y,-z
loop_
_atom_site_type_symbol
_atom_site_label
_atom_site_fract_x
_atom_site_fract_y
_atom_site_fract_z
Si Si1 0.817528 0.222397 0.434530
Si Si2 0.848766 0.570953 0.612782
Si Si3 0.455397 0.139427 0.122193
Si Si4 0.986455 0.938090 0.589498
Si Si5 0.763704 0.588024 0.854099
Si Si6 0.584578 0.494638 0.069283
Si Si7 0.201829 0.721791 0.279866
Si Si8 0.093734 0.072431 0.199065
O O1 0.824053 0.419139 0.640621
O O2 0.779477 0.254022 0.585613
O O3 0.001548 0.210816 0.377939
O O4 0.650176 0.002562 0.130690
O O5 0.652257 0.358999 0.338600
O O6 0.774017 0.604421 0.766733
O O7 0.000000 0.500000 0.500000
O O8 0.956094 0.809151 0.853871
O O9 0.301833 0.169321 0.244435
O O10 0.500000 0.000000 0.000000
O O11 0.164813 0.912349 0.513118
O O12 0.794096 0.718839 0.310213
O O13 0.922951 0.944719 0.712790
O O14 0.066028 0.169216 0.827415
O O15 0.560429 0.515671 0.841125
O O16 0.500000 0.500000 0.000000
O O17 0.631299 0.305052 0.824061
O O18 0.000000 0.500000 0.000000
#
# Coordination Sequence:
#
# PCOD9074013 Si02
#       8
#     2   2   2   2   2   2   2   2
#     4  11  22  39  62  91 128 164 209 256 311 371
#     4  11  22  40  63  94 126 163 205 256 304 373
#     4  12  22  37  67  92 125 167 207 251 315 371
#     4   9  22  39  64  87 122 164 203 252 311 364
#     4  11  22  38  64  92 121 159 213 242 308 373
#     4  11  21  38  64  89 124 156 207 263 307 363
#     4   9  20  42  62  87 123 165 201 262 314 356
#     4  10  22  41  61  90 129 163 205 256 307 368
#
# _framework density 21.122078999999999
#
# number of rings (size 3 to 8) (size 9 to 14) (size 15 to 20)
#    0.000    1.500    3.750    1.125    0.000    1.500 
#    0.000    1.250    2.750    0.000    0.000    0.000 
#    0.000    0.000    0.000    0.000    0.000    0.000 
#
# Total GULP energy -89189.175512 kJ/mol
# GULP energy per Si atom -5574.323470 kJ/mol
# Density = 2.107400 g / cm^3
# Si number density = 21.122079 Si / 1000 Ang^3
#
#
#
# Elastic Constant Matrix: (Units=GPa)
#
#
# Indices 1 2 3 4 5 6 
#
# 1 71.7643 40.7653 27.7617 -4.9940 14.2805 34.1633
# 2 40.7653 38.5148 8.3597 -9.5210 -4.1359 27.5999
# 3 27.7617 8.3597 67.0376 1.0500 5.4950 16.4819
# 4 -4.9940 -9.5210 1.0500 29.5967 2.9039 7.6909
# 5 14.2805 -4.1359 5.4950 2.9039 26.7872 -12.3730
# 6 34.1633 27.5999 16.4819 7.6909 -12.3730 32.1410
#
#
#
# Elastic Compliance Matrix: (Units=1/GPa)
#
#
# Indices 1 2 3 4 5 6 
#
# 1 0.022547 -0.105023 -0.023601 -0.059404 0.031366 0.104611
# 2 -0.105023 0.132025 0.015743 0.011532 0.080379 0.018369
# 3 -0.023601 0.015743 0.019541 -0.003206 0.015106 0.008129
# 4 -0.059404 0.011532 -0.003206 -0.001135 0.072619 0.083110
# 5 0.031366 0.080379 0.015106 0.072619 -0.044803 -0.144732
# 6 0.104611 0.018369 0.008129 0.083110 -0.144732 -0.175625
#
#
# Mechanical properties :
#
#
# Convention : Reuss Voigt Hill
#
# Bulk Modulus (GPa) = -19.36153 36.78779 8.71313
# Shear Modulus (GPa) = 31.03730 24.40032 27.71881
#
# Velocity S-wave (km/s) = 3.83747 3.40252 3.62652
# Velocity P-wave (km/s) = 3.23241 5.73504 4.65506
#
# Compressibility (1/GPa) = -0.05164882
#
# Stress axis : x y z
#
# Youngs Moduli (GPa) = 44.35148 7.57430 51.17493
#
# Poissons Ratio (x) = 0.79548 1.20777
# Poissons Ratio (y) = 4.65794 -0.80565
# Poissons Ratio (z) = 1.04673 -0.11924
#
# Static dielectric constant tensor:
#      x y z
#    x 1.719020 -0.113570 0.043630 
#    y -0.113570 1.627680 0.052720 
#    z 0.043630 0.052720 1.887860 
# 
# From -- ./inp_files/227688.got.cif
#   From: 2010.05.17/outbox.ucp.g08.bks.cvg/sg2_114_cif.got.tgz:227688.got - 2010.06.11 11:32:03.
