data_PCOD9074954
_publ_section_title
;
Structure prediction by ZEFSAII (Michael W. Deem and Ramdas Pophale) SiO2 
 PCOD9074954
Probable space group: P -1
;
_chemical_formula_sum "Si O2"
_cell_formula_units_Z 16
_cell_length_a 9.000000
_cell_length_b 12.000000
_cell_length_c 21.000000
_cell_angle_alpha 140.000000
_cell_angle_beta 40.000000
_cell_angle_gamma 110.000000
_cell_volume 754.890988
_symmetry_space_group_name_H-M "P -1"
_symmetry_group_IT_number 2
_symmetry_cell_setting 'triclinic'
loop_
_space_group_symop_operation_xyz
x,y,z
-x,-y,-z
loop_
_atom_site_type_symbol
_atom_site_label
_atom_site_fract_x
_atom_site_fract_y
_atom_site_fract_z
Si Si1 0.813180 0.949628 0.376433
Si Si2 0.760308 0.819492 0.914932
Si Si3 0.413066 0.758282 0.905554
Si Si4 0.200403 0.573106 0.985445
Si Si5 0.449476 0.032452 0.229300
Si Si6 0.766185 0.179187 0.703414
Si Si7 0.839644 0.336544 0.499661
Si Si8 0.299898 0.469260 0.511309
O O1 0.019365 0.827069 0.317307
O O2 0.500000 0.000000 0.500000
O O3 0.757179 0.179608 0.481973
O O4 0.008288 0.782097 0.183938
O O5 0.501778 0.833709 0.970877
O O6 0.019624 0.592698 0.702084
O O7 0.760128 0.021690 0.981834
O O8 0.709918 0.852249 0.021012
O O9 0.261082 0.656785 0.938706
O O10 0.676600 0.558219 0.691028
O O11 0.503336 0.390434 0.843256
O O12 0.000000 0.500000 0.000000
O O13 0.459592 0.215445 0.338354
O O14 0.177607 0.184583 0.337880
O O15 0.375942 0.916015 0.252585
O O16 0.000000 0.000000 0.500000
O O17 0.775861 0.409534 0.478988
O O18 0.500000 0.500000 0.500000
#
# Coordination Sequence:
#
# PCOD9074954 Si02
#       8
#     2   2   2   2   2   2   2   2
#     4  11  24  44  69 101 137 185 234 289 353 413
#     4  11  23  41  72 101 131 179 233 286 347 417
#     4  11  21  41  75 101 129 179 233 285 347 413
#     4  12  25  45  69 104 140 186 238 291 351 425
#     4  11  23  46  69  98 134 180 234 281 342 419
#     4  11  25  45  71 100 139 186 231 291 348 418
#     4  11  21  44  69  97 134 175 228 283 343 420
#     4  12  26  42  63 101 140 177 223 290 351 410
#
# _framework density 21.195112999999999
#
# number of rings (size 3 to 8) (size 9 to 14) (size 15 to 20)
#    0.000    0.750    2.500    7.500    0.000    3.500 
#    4.500    0.000    0.000    0.000    0.000    0.000 
#    0.000    0.000    0.000    0.000    0.000    0.000 
#
# Total GULP energy -89332.763404 kJ/mol
# GULP energy per Si atom -5583.297713 kJ/mol
# Density = 2.114687 g / cm^3
# Si number density = 21.195113 Si / 1000 Ang^3
#
#
#
# Elastic Constant Matrix: (Units=GPa)
#
#
# Indices 1 2 3 4 5 6 
#
# 1 81.7043 22.0594 17.2213 -8.6294 11.0079 15.7481
# 2 22.0594 101.9225 5.9029 -8.8114 4.6789 8.1253
# 3 17.2213 5.9029 107.8767 -10.4612 33.8366 -5.0225
# 4 -8.6294 -8.8114 -10.4612 34.3169 -1.3883 5.4430
# 5 11.0079 4.6789 33.8366 -1.3883 41.9788 -2.5358
# 6 15.7481 8.1253 -5.0225 5.4430 -2.5358 31.1844
#
#
#
# Elastic Compliance Matrix: (Units=1/GPa)
#
#
# Indices 1 2 3 4 5 6 
#
# 1 0.015611 -0.002112 -0.001391 0.004188 -0.003114 -0.008541
# 2 -0.002112 0.010696 0.000153 0.002580 -0.000810 -0.002212
# 3 -0.001391 0.000153 0.012948 0.003011 -0.009904 0.001417
# 4 0.004188 0.002580 0.003011 0.032962 -0.003225 -0.008318
# 5 -0.003114 -0.000810 -0.009904 -0.003225 0.032811 0.003420
# 6 -0.008541 -0.002212 0.001417 -0.008318 0.003420 0.038915
#
#
# Mechanical properties :
#
#
# Convention : Reuss Voigt Hill
#
# Bulk Modulus (GPa) = 30.71772 42.43009 36.57391
# Shear Modulus (GPa) = 30.96056 37.91736 34.43896
#
# Velocity S-wave (km/s) = 3.82611 4.23421 4.03532
# Velocity P-wave (km/s) = 5.83465 6.63076 6.24540
#
# Compressibility (1/GPa) = 0.03255450
#
# Stress axis : x y z
#
# Youngs Moduli (GPa) = 64.05745 93.49097 77.23268
#
# Poissons Ratio (x) = 0.19747 0.10745
# Poissons Ratio (y) = 0.13530 -0.01183
# Poissons Ratio (z) = 0.08912 -0.01432
#
# Static dielectric constant tensor:
#      x y z
#    x 1.671510 -0.013500 0.167000 
#    y -0.013500 1.772800 0.010330 
#    z 0.167000 0.010330 1.578740 
# 
# From -- ./inp_files/272158.got.cif
#   From: 2010.05.17/outbox.ucp.g08.bks.cvg/sg2_137_cif.got.tgz:272158.got - 2010.06.11 11:32:03.
