data_PCOD9074019
_publ_section_title
;
Structure prediction by ZEFSAII (Michael W. Deem and Ramdas Pophale) SiO2 
 PCOD9074019
Probable space group: P -1
;
_chemical_formula_sum "Si O2"
_cell_formula_units_Z 16
_cell_length_a 15.000000
_cell_length_b 15.000000
_cell_length_c 15.000000
_cell_angle_alpha 140.000000
_cell_angle_beta 140.000000
_cell_angle_gamma 20.000000
_cell_volume 725.414092
_symmetry_space_group_name_H-M "P -1"
_symmetry_group_IT_number 2
_symmetry_cell_setting 'triclinic'
loop_
_space_group_symop_operation_xyz
x,y,z
-x,-y,-z
loop_
_atom_site_type_symbol
_atom_site_label
_atom_site_fract_x
_atom_site_fract_y
_atom_site_fract_z
Si Si1 0.697025 0.533775 0.879387
Si Si2 0.291946 0.877514 0.298945
Si Si3 0.765006 0.764104 0.461936
Si Si4 0.065017 0.091376 0.573148
Si Si5 0.531576 0.709403 0.157020
Si Si6 0.741257 0.904430 0.103683
Si Si7 0.037069 0.818779 0.013105
Si Si8 0.523449 0.578239 0.419290
O O1 0.614176 0.457554 0.711967
O O2 0.958290 0.384820 0.922327
O O3 0.416160 0.854409 0.898756
O O4 0.821573 0.394105 0.964345
O O5 0.416027 0.786106 0.226088
O O6 0.514761 0.632438 0.351210
O O7 0.182182 0.120570 0.432144
O O8 0.070660 0.946624 0.172540
O O9 0.691820 0.719494 0.292612
O O10 0.000000 0.500000 0.500000
O O11 0.500000 0.000000 0.500000
O O12 0.178370 0.095825 0.740136
O O13 0.799324 0.352088 0.511736
O O14 0.310225 0.859215 0.517622
O O15 0.000000 0.000000 0.500000
O O16 0.751335 0.401882 0.071609
O O17 0.268241 0.941363 0.069290
O O18 0.500000 0.000000 0.000000
#
# Coordination Sequence:
#
# PCOD9074019 Si02
#       8
#     2   2   2   2   2   2   2   2
#     4  11  22  43  65  94 134 168 215 271 330 380
#     4  10  24  42  67  97 135 170 225 273 324 382
#     4  10  22  41  63  87 127 173 209 260 328 384
#     4  12  22  42  70  93 130 165 222 261 329 399
#     4  11  22  42  64  95 132 179 215 265 330 389
#     4  12  25  43  67  94 130 173 208 265 336 399
#     4  11  24  40  68  97 129 172 226 273 316 383
#     4  11  23  40  68 102 124 170 219 280 316 379
#
# _framework density 22.056367999999999
#
# number of rings (size 3 to 8) (size 9 to 14) (size 15 to 20)
#    0.000    1.000    2.500    4.500    0.000    8.000 
#    6.750    0.000    0.000    0.000    0.000    0.000 
#    0.000    0.000    0.000    0.000    0.000    0.000 
#
# Total GULP energy -89310.356801 kJ/mol
# GULP energy per Si atom -5581.897300 kJ/mol
# Density = 2.200617 g / cm^3
# Si number density = 22.056368 Si / 1000 Ang^3
#
#
#
# Elastic Constant Matrix: (Units=GPa)
#
#
# Indices 1 2 3 4 5 6 
#
# 1 51.1918 21.4164 31.1766 -12.7826 -4.7472 18.1216
# 2 21.4164 196.6289 51.8779 -44.5896 3.0547 8.6313
# 3 31.1766 51.8779 128.5255 -47.2234 20.4050 17.0947
# 4 -12.7826 -44.5896 -47.2234 46.7124 3.8800 -2.8724
# 5 -4.7472 3.0547 20.4050 3.8800 33.1825 -0.0675
# 6 18.1216 8.6313 17.0947 -2.8724 -0.0675 30.3545
#
#
#
# Elastic Compliance Matrix: (Units=1/GPa)
#
#
# Indices 1 2 3 4 5 6 
#
# 1 0.029381 -0.001322 -0.006761 -0.001604 0.008643 -0.013490
# 2 -0.001322 0.006659 0.000414 0.006519 -0.001820 -0.000724
# 3 -0.006761 0.000414 0.019345 0.019038 -0.015138 -0.005208
# 4 -0.001604 0.006519 0.019038 0.047501 -0.018106 -0.007163
# 5 0.008643 -0.001820 -0.015138 -0.018106 0.042971 0.002265
# 6 -0.013490 -0.000724 -0.005208 -0.007163 0.002265 0.043463
#
#
# Mechanical properties :
#
#
# Convention : Reuss Voigt Hill
#
# Bulk Modulus (GPa) = 24.97127 65.03201 45.00164
# Shear Modulus (GPa) = 22.93500 40.17490 31.55495
#
# Velocity S-wave (km/s) = 3.22815 4.27249 3.78650
# Velocity P-wave (km/s) = 5.02401 7.34080 6.29000
#
# Compressibility (1/GPa) = 0.04004602
#
# Stress axis : x y z
#
# Youngs Moduli (GPa) = 34.03558 150.17034 51.69424
#
# Poissons Ratio (x) = 0.19857 0.34948
# Poissons Ratio (y) = 0.04501 -0.02138
# Poissons Ratio (z) = 0.23010 -0.06211
#
# Static dielectric constant tensor:
#      x y z
#    x 1.940390 0.005520 -0.016620 
#    y 0.005520 1.756510 0.054390 
#    z -0.016620 0.054390 1.897640 
# 
# From -- ./inp_files/534448.got.cif
#   From: 2010.05.17/outbox.ucp.g08.bks.cvg/sg2_268_cif.got.tgz:534448.got - 2010.06.11 11:32:03.
