data_PCOD9074981
_publ_section_title
;
Structure prediction by ZEFSAII (Michael W. Deem and Ramdas Pophale) SiO2 
 PCOD9074981
Probable space group: P -1
;
_chemical_formula_sum "Si O2"
_cell_formula_units_Z 16
_cell_length_a 9.000000
_cell_length_b 12.000000
_cell_length_c 9.000000
_cell_angle_alpha 60.000000
_cell_angle_beta 110.000000
_cell_angle_gamma 120.000000
_cell_volume 723.492119
_symmetry_space_group_name_H-M "P -1"
_symmetry_group_IT_number 2
_symmetry_cell_setting 'triclinic'
loop_
_space_group_symop_operation_xyz
x,y,z
-x,-y,-z
loop_
_atom_site_type_symbol
_atom_site_label
_atom_site_fract_x
_atom_site_fract_y
_atom_site_fract_z
Si Si1 0.533725 0.301371 0.540942
Si Si2 0.963133 0.046512 0.619441
Si Si3 0.526680 0.289659 0.074942
Si Si4 0.664918 0.146381 0.470119
Si Si5 0.261829 0.250707 0.230359
Si Si6 0.851148 0.547990 0.350708
Si Si7 0.708951 0.780121 0.213789
Si Si8 0.856684 0.534622 0.005259
O O1 0.632837 0.205582 0.578868
O O2 0.364080 0.259264 0.409054
O O3 0.675255 0.449660 0.439687
O O4 0.452713 0.292451 0.680317
O O5 0.853436 0.143911 0.516060
O O6 0.143965 0.095048 0.732608
O O7 0.825694 0.908519 0.742719
O O8 0.000000 0.000000 0.500000
O O9 0.626008 0.229652 0.263629
O O10 0.405847 0.338299 0.103624
O O11 0.672665 0.422101 0.960530
O O12 0.390071 0.188545 0.979340
O O13 0.500000 0.000000 0.500000
O O14 0.121671 0.313923 0.145564
O O15 0.825251 0.693588 0.264328
O O16 0.858678 0.529217 0.188272
O O17 0.000000 0.500000 0.500000
O O18 0.000000 0.500000 0.000000
#
# Coordination Sequence:
#
# PCOD9074981 Si02
#       8
#     2   2   2   2   2   2   2   2
#     4  11  23  43  72  97 138 183 231 282 349 414
#     4  12  25  45  74 101 139 186 235 280 349 424
#     4  11  24  46  71  98 140 181 229 286 349 403
#     4  11  21  45  72  99 133 187 233 278 347 416
#     4  11  22  46  72  94 133 191 229 274 357 412
#     4  12  26  44  67 104 142 183 235 294 345 414
#     4  12  26  44  69 108 140 183 236 289 349 412
#     4  12  27  44  71 103 140 182 231 290 352 412
#
# _framework density 22.114961000000001
#
# number of rings (size 3 to 8) (size 9 to 14) (size 15 to 20)
#    0.000    0.500    7.500    2.250    5.250    0.500 
#    0.000    2.500    0.000    0.000    0.000    0.000 
#    0.000    0.000    0.000    0.000    0.000    0.000 
#
# Total GULP energy -89093.993846 kJ/mol
# GULP energy per Si atom -5568.374615 kJ/mol
# Density = 2.206463 g / cm^3
# Si number density = 22.114961 Si / 1000 Ang^3
#
#
#
# Elastic Constant Matrix: (Units=GPa)
#
#
# Indices 1 2 3 4 5 6 
#
# 1 137.4767 13.6790 59.9968 16.9060 5.2656 -17.6426
# 2 13.6790 50.5370 40.8423 9.4825 8.8980 8.4111
# 3 59.9968 40.8423 20.4397 6.6200 -21.8643 -9.1642
# 4 16.9060 9.4825 6.6200 24.1721 -6.2468 0.8106
# 5 5.2656 8.8980 -21.8643 -6.2468 29.5140 -6.9170
# 6 -17.6426 8.4111 -9.1642 0.8106 -6.9170 32.9963
#
#
#
# Elastic Compliance Matrix: (Units=1/GPa)
#
#
# Indices 1 2 3 4 5 6 
#
# 1 0.007186 -0.007507 0.004418 -0.002083 0.005743 0.008238
# 2 -0.007507 0.008717 0.014202 0.000335 0.009217 -0.000368
# 3 0.004418 0.014202 -0.011379 -0.009780 -0.017403 -0.007826
# 4 -0.002083 0.000335 -0.009780 0.045958 0.001652 -0.004698
# 5 0.005743 0.009217 -0.017403 0.001652 0.017418 -0.000501
# 6 0.008238 -0.000368 -0.007826 -0.004698 -0.000501 0.032642
#
#
# Mechanical properties :
#
#
# Convention : Reuss Voigt Hill
#
# Bulk Modulus (GPa) = 37.38244 48.60996 42.99620
# Shear Modulus (GPa) = 57.31686 23.59883 40.45784
#
# Velocity S-wave (km/s) = 5.09646 3.27019 4.28183
# Velocity P-wave (km/s) = 7.18139 6.02388 6.62795
#
# Compressibility (1/GPa) = 0.02675053
#
# Stress axis : x y z
#
# Youngs Moduli (GPa) = 139.15183 114.71533 -87.88416
#
# Poissons Ratio (x) = 0.86114 0.38823
# Poissons Ratio (y) = 1.04458 1.24813
# Poissons Ratio (z) = -0.61471 -1.62918
#
# Static dielectric constant tensor:
#      x y z
#    x 1.827850 -0.012990 0.040580 
#    y -0.012990 2.004860 -0.074100 
#    z 0.040580 -0.074100 2.011330 
# 
# From -- ./inp_files/185270.got.cif
#   From: 2010.05.17/outbox.ucp.g08.bks.cvg/sg2_93_cif.got.tgz:185270.got - 2010.06.11 11:32:03.
