data_PCOD9074709
_publ_section_title
;
Structure prediction by ZEFSAII (Michael W. Deem and Ramdas Pophale) SiO2 
 PCOD9074709
Probable space group: P -1
;
_chemical_formula_sum "Si O2"
_cell_formula_units_Z 14
_cell_length_a 20.763898
_cell_length_b 11.069064
_cell_length_c 11.616603
_cell_angle_alpha 137.053477
_cell_angle_beta 143.498131
_cell_angle_gamma 22.342818
_cell_volume 602.969630
_symmetry_space_group_name_H-M "P -1"
_symmetry_group_IT_number 2
_symmetry_cell_setting 'triclinic'
loop_
_space_group_symop_operation_xyz
x,y,z
-x,-y,-z
loop_
_atom_site_type_symbol
_atom_site_label
_atom_site_fract_x
_atom_site_fract_y
_atom_site_fract_z
Si Si1 0.688342 0.327670 0.020072
Si Si2 0.888234 0.809323 0.340243
Si Si3 0.514336 0.085608 0.959454
Si Si4 0.720239 0.340689 0.330994
Si Si5 0.183017 0.096831 0.259906
Si Si6 0.265922 0.786188 0.377197
Si Si7 0.601770 0.690532 0.618492
O O1 0.481803 0.502020 0.850665
O O2 0.835136 0.981553 0.940803
O O3 0.652164 0.539067 0.028210
O O4 0.749811 0.326943 0.228995
O O5 0.071141 0.432723 0.342138
O O6 0.878509 0.991892 0.369652
O O7 0.823279 0.966902 0.481195
O O8 0.716143 0.913260 0.129091
O O9 0.525526 0.961695 0.769525
O O10 0.500000 0.000000 0.000000
O O11 0.696766 0.541157 0.523280
O O12 0.151298 0.996649 0.245357
O O13 0.407006 0.843494 0.423531
O O14 0.500000 0.500000 0.500000
O O15 0.261256 0.597582 0.293835
#
# Coordination Sequence:
#
# PCOD9074709 Si02
#       7
#     2   2   2   2   2   2   2
#     4   9  18  33  54  72 101 135 172 204 241 303
#     4  10  20  32  53  77 103 128 166 212 250 293
#     4  11  20  33  51  77 103 132 164 206 255 300
#     4   8  17  35  53  73  95 138 178 201 237 298
#     4  10  18  32  52  77  99 132 169 208 249 291
#     4   9  16  31  50  70  97 134 168 195 236 302
#     4   9  18  32  53  73 101 133 170 206 244 299
#
# _framework density 23.218416999999999
#
# number of rings (size 3 to 8) (size 9 to 14) (size 15 to 20)
#    0.000    2.571    0.000    5.571    0.000    1.143 
#    0.000    5.714    0.000    1.714    0.000    0.000 
#    0.000    0.000    0.000    0.000    0.000    0.000 
#
# Total GULP energy -78045.296709 kJ/mol
# GULP energy per Si atom -5574.664051 kJ/mol
# Density = 2.316557 g / cm^3
# Si number density = 23.218417 Si / 1000 Ang^3
#
#
#
# Elastic Constant Matrix: (Units=GPa)
#
#
# Indices 1 2 3 4 5 6 
#
# 1 44.5444 26.3069 16.1354 -4.0368 -22.2059 6.2771
# 2 26.3069 112.1159 19.3523 24.5743 -26.4737 5.1207
# 3 16.1354 19.3523 64.0466 18.8148 -16.0661 -2.7251
# 4 -4.0368 24.5743 18.8148 37.4649 -7.7375 -2.5758
# 5 -22.2059 -26.4737 -16.0661 -7.7375 33.0510 -3.6558
# 6 6.2771 5.1207 -2.7251 -2.5758 -3.6558 16.7310
#
#
#
# Elastic Compliance Matrix: (Units=1/GPa)
#
#
# Indices 1 2 3 4 5 6 
#
# 1 0.043945 -0.006914 -0.008809 0.017894 0.023007 -0.008024
# 2 -0.006914 0.013517 0.001517 -0.009571 0.004481 -0.001791
# 3 -0.008809 0.001517 0.022052 -0.011850 0.003845 0.005448
# 4 0.017894 -0.009571 -0.011850 0.042893 0.008952 0.002846
# 5 0.023007 0.004481 0.003845 0.008952 0.053680 0.003731
# 6 -0.008024 -0.001791 0.005448 0.002846 0.003731 0.065468
#
#
# Mechanical properties :
#
#
# Convention : Reuss Voigt Hill
#
# Bulk Modulus (GPa) = 19.56838 38.25512 28.91175
# Shear Modulus (GPa) = 17.42150 28.04351 22.73251
#
# Velocity S-wave (km/s) = 2.74219 3.47913 3.13241
# Velocity P-wave (km/s) = 4.29795 5.71411 5.05586
#
# Compressibility (1/GPa) = 0.05110285
#
# Stress axis : x y z
#
# Youngs Moduli (GPa) = 22.75571 73.97855 45.34774
#
# Poissons Ratio (x) = 0.51147 0.39946
# Poissons Ratio (y) = 0.15733 -0.06879
# Poissons Ratio (z) = 0.20045 -0.11221
#
# Static dielectric constant tensor:
#      x y z
#    x 1.421850 0.640020 1.347600 
#    y 0.640020 1.061090 -1.717820 
#    z 1.347600 -1.717820 -1.656380 
# 
# From -- ./inp_files/178230.got.cif
#   From: 2010.05.17/outbox.cif.g08.bks.cpg/sg2_90_cif.got.tgz:178230.got - 2010.06.03 11:33:40.
