data_PCOD9074568
_publ_section_title
;
Structure prediction by ZEFSAII (Michael W. Deem and Ramdas Pophale) SiO2 
 PCOD9074568
Probable space group: P -1
;
_chemical_formula_sum "Si O2"
_cell_formula_units_Z 16
_cell_length_a 9.000000
_cell_length_b 15.000000
_cell_length_c 24.000000
_cell_angle_alpha 30.000000
_cell_angle_beta 130.000000
_cell_angle_gamma 150.000000
_cell_volume 731.734496
_symmetry_space_group_name_H-M "P -1"
_symmetry_group_IT_number 2
_symmetry_cell_setting 'triclinic'
loop_
_space_group_symop_operation_xyz
x,y,z
-x,-y,-z
loop_
_atom_site_type_symbol
_atom_site_label
_atom_site_fract_x
_atom_site_fract_y
_atom_site_fract_z
Si Si1 0.372561 0.452109 0.934068
Si Si2 0.337033 0.642947 0.008722
Si Si3 0.749418 0.280336 0.302158
Si Si4 0.207417 0.331661 0.355072
Si Si5 0.061671 0.655865 0.487037
Si Si6 0.350252 0.307535 0.624613
Si Si7 0.410872 0.141141 0.922629
Si Si8 0.297984 0.770964 0.262863
O O1 0.603607 0.510290 0.916631
O O2 0.378720 0.657028 0.801290
O O3 0.500000 0.500000 0.000000
O O4 0.979928 0.126644 0.018361
O O5 0.433001 0.725569 0.051301
O O6 0.000000 0.500000 0.000000
O O7 0.591351 0.945328 0.868600
O O8 0.924900 0.267373 0.312927
O O9 0.026780 0.542437 0.272032
O O10 0.444373 0.953491 0.433373
O O11 0.412348 0.498727 0.370562
O O12 0.460415 0.595108 0.226435
O O13 0.000000 0.000000 0.500000
O O14 0.000000 0.500000 0.500000
O O15 0.943432 0.773974 0.390289
O O16 0.867105 0.412178 0.620809
O O17 0.500000 0.500000 0.500000
O O18 0.375379 0.112609 0.728160
O O19 0.500000 0.000000 0.000000
#
# Coordination Sequence:
#
# PCOD9074568 Si02
#       8
#     2   2   2   2   2   2   2   2
#     4  12  28  47  74 104 145 194 247 301 362 434
#     4  12  28  46  74 106 138 194 248 300 362 435
#     4  11  24  45  70 101 142 187 237 287 368 428
#     4  11  24  43  71 104 140 182 231 293 360 421
#     4  11  24  39  70 104 137 176 234 296 356 428
#     4   9  21  42  63  93 136 181 222 279 352 420
#     4  12  24  50  75 104 149 192 240 304 364 440
#     4  10  23  47  66  95 144 183 235 288 356 434
#
# _framework density 21.865853999999999
#
# number of rings (size 3 to 8) (size 9 to 14) (size 15 to 20)
#    0.000    1.000    2.500    3.000    5.250    3.000 
#    4.500    0.000    0.000    0.000    0.000    0.000 
#    0.000    0.000    0.000    0.000    0.000    0.000 
#
# Total GULP energy -89143.568136 kJ/mol
# GULP energy per Si atom -5571.473009 kJ/mol
# Density = 2.181609 g / cm^3
# Si number density = 21.865854 Si / 1000 Ang^3
#
#
#
# Elastic Constant Matrix: (Units=GPa)
#
#
# Indices 1 2 3 4 5 6 
#
# 1 80.4846 28.8511 8.2682 6.4325 -18.4698 3.6658
# 2 28.8511 104.4339 16.3117 25.0017 -21.0530 3.1191
# 3 8.2682 16.3117 129.8626 13.6291 -21.4101 -8.4706
# 4 6.4325 25.0017 13.6291 38.3040 5.8361 -14.2134
# 5 -18.4698 -21.0530 -21.4101 5.8361 21.5408 -2.5151
# 6 3.6658 3.1191 -8.4706 -14.2134 -2.5151 30.0601
#
#
#
# Elastic Compliance Matrix: (Units=1/GPa)
#
#
# Indices 1 2 3 4 5 6 
#
# 1 0.017554 0.001622 0.003057 -0.010050 0.021889 -0.004368
# 2 0.001622 0.020686 0.004279 -0.023645 0.031134 -0.009714
# 3 0.003057 0.004279 0.011544 -0.011006 0.021143 -0.000999
# 4 -0.010050 -0.023645 -0.011006 0.065877 -0.057371 0.026926
# 5 0.021889 0.031134 0.021143 -0.057371 0.130291 -0.016168
# 6 -0.004368 -0.009714 -0.000999 0.026926 -0.016168 0.045905
#
#
# Mechanical properties :
#
#
# Convention : Reuss Voigt Hill
#
# Bulk Modulus (GPa) = 14.77074 46.84923 30.80998
# Shear Modulus (GPa) = 16.86298 35.40434 26.13366
#
# Velocity S-wave (km/s) = 2.78006 4.02825 3.46089
# Velocity P-wave (km/s) = 4.13217 6.56566 5.48556
#
# Compressibility (1/GPa) = 0.06770143
#
# Stress axis : x y z
#
# Youngs Moduli (GPa) = 56.96549 48.34164 86.62503
#
# Poissons Ratio (x) = -0.07841 -0.26483
# Poissons Ratio (y) = -0.09239 -0.37070
# Poissons Ratio (z) = -0.17415 -0.20687
#
# Static dielectric constant tensor:
#      x y z
#    x 1.913980 0.062980 -0.002300 
#    y 0.062980 1.830890 -0.092520 
#    z -0.002300 -0.092520 1.829090 
# 
# From -- ./inp_files/543764.got.cif
#   From: 2010.05.17/outbox.ucp.g08.bks.cvg/sg2_272_cif.got.tgz:543764.got - 2010.06.11 11:32:03.
