data_PCOD9074510
_publ_section_title
;
Structure prediction by ZEFSAII (Michael W. Deem and Ramdas Pophale) SiO2 
 PCOD9074510
Probable space group: P -1
;
_chemical_formula_sum "Si O2"
_cell_formula_units_Z 12
_cell_length_a 9.000000
_cell_length_b 9.000000
_cell_length_c 12.000000
_cell_angle_alpha 40.000000
_cell_angle_beta 120.000000
_cell_angle_gamma 100.000000
_cell_volume 501.352703
_symmetry_space_group_name_H-M "P -1"
_symmetry_group_IT_number 2
_symmetry_cell_setting 'triclinic'
loop_
_space_group_symop_operation_xyz
x,y,z
-x,-y,-z
loop_
_atom_site_type_symbol
_atom_site_label
_atom_site_fract_x
_atom_site_fract_y
_atom_site_fract_z
Si Si1 0.198445 0.472634 0.036155
Si Si2 0.685803 0.758792 0.019969
Si Si3 0.258655 0.951824 0.717353
Si Si4 0.750956 0.203165 0.734889
Si Si5 0.081088 0.680936 0.484953
Si Si6 0.337646 0.352099 0.396812
O O1 0.272826 0.274274 0.078842
O O2 0.210123 0.707793 0.838243
O O3 0.327139 0.419144 0.224687
O O4 0.000000 0.500000 0.000000
O O5 0.767525 0.504634 0.267155
O O6 0.464985 0.871710 0.891685
O O7 0.777179 0.963300 0.959992
O O8 0.271181 0.120166 0.520323
O O9 0.089562 0.129870 0.622287
O O10 0.853192 0.184594 0.666394
O O11 0.538736 0.285183 0.565012
O O12 0.780854 0.411727 0.705798
O O13 0.000000 0.500000 0.500000
#
# Coordination Sequence:
#
# PCOD9074510 Si02
#       6
#     2   2   2   2   2   2
#     4  12  26  44  71 104 142 188 232 286 350 419
#     4  11  27  46  71 105 140 187 232 286 354 414
#     4  11  25  46  71 102 141 183 231 290 344 417
#     4  10  23  44  72 102 140 179 233 292 343 416
#     4  12  25  42  70 106 136 180 234 287 348 408
#     4  10  23  44  71 103 137 186 232 283 354 410
#
# _framework density 23.935244999999998
#
# number of rings (size 3 to 8) (size 9 to 14) (size 15 to 20)
#    0.000    1.000    1.667    3.500    2.333    8.000 
#    0.000    0.000    0.000    0.000    0.000    0.000 
#    0.000    0.000    0.000    0.000    0.000    0.000 
#
# Total GULP energy -67035.824316 kJ/mol
# GULP energy per Si atom -5586.318693 kJ/mol
# Density = 2.388077 g / cm^3
# Si number density = 23.935245 Si / 1000 Ang^3
#
#
#
# Elastic Constant Matrix: (Units=GPa)
#
#
# Indices 1 2 3 4 5 6 
#
# 1 82.4160 -44.8773 47.1161 -12.2826 -7.0486 26.8125
# 2 -44.8773 1.5462 50.9325 3.2923 -17.4748 24.3619
# 3 47.1161 50.9325 96.6350 -7.7550 11.8287 -6.5156
# 4 -12.2826 3.2923 -7.7550 36.1327 4.5425 -14.9128
# 5 -7.0486 -17.4748 11.8287 4.5425 35.0810 -9.4322
# 6 26.8125 24.3619 -6.5156 -14.9128 -9.4322 22.1820
#
#
#
# Elastic Compliance Matrix: (Units=1/GPa)
#
#
# Indices 1 2 3 4 5 6 
#
# 1 0.005943 -0.007616 0.002169 0.005239 -0.002906 0.004104
# 2 -0.007616 -0.000710 0.005505 0.004740 -0.000426 0.014608
# 3 0.002169 0.005505 0.005744 -0.002012 -0.000834 -0.008688
# 4 0.005239 0.004740 -0.002012 0.032840 0.002839 0.011156
# 5 -0.002906 -0.000426 -0.000834 0.002839 0.032902 0.019635
# 6 0.004104 0.014608 -0.008688 0.011156 0.019635 0.037375
#
#
# Mechanical properties :
#
#
# Convention : Reuss Voigt Hill
#
# Bulk Modulus (GPa) = 90.14176 31.88218 61.01197
# Shear Modulus (GPa) = 42.48949 27.17422 34.83185
#
# Velocity S-wave (km/s) = 4.21787 3.37311 3.81892
# Velocity P-wave (km/s) = 7.83983 5.34037 6.70755
#
# Compressibility (1/GPa) = 0.01109364
#
# Stress axis : x y z
#
# Youngs Moduli (GPa) = 168.25458 -1408.80402 174.09701
#
# Poissons Ratio (x) = -10.72956 -0.37765
# Poissons Ratio (y) = 1.28144 -0.95840
# Poissons Ratio (z) = -0.36498 7.75540
#
# Static dielectric constant tensor:
#      x y z
#    x 1.850790 0.085120 0.018090 
#    y 0.085120 1.862870 -0.024300 
#    z 0.018090 -0.024300 1.966790 
# 
# From -- ./inp_files/175074.got.cif
#   From: 2010.05.17/outbox.ucp.g08.bks.cvg/sg2_88_cif.got.tgz:175074.got - 2010.06.11 11:32:03.
