data_PCOD9074084
_publ_section_title
;
Structure prediction by ZEFSAII (Michael W. Deem and Ramdas Pophale) SiO2 
 PCOD9074084
Probable space group: P -1
;
_chemical_formula_sum "Si O2"
_cell_formula_units_Z 16
_cell_length_a 9.000000
_cell_length_b 9.000000
_cell_length_c 15.000000
_cell_angle_alpha 40.000000
_cell_angle_beta 90.000000
_cell_angle_gamma 80.000000
_cell_volume 751.948787
_symmetry_space_group_name_H-M "P -1"
_symmetry_group_IT_number 2
_symmetry_cell_setting 'triclinic'
loop_
_space_group_symop_operation_xyz
x,y,z
-x,-y,-z
loop_
_atom_site_type_symbol
_atom_site_label
_atom_site_fract_x
_atom_site_fract_y
_atom_site_fract_z
Si Si1 0.213609 0.291477 0.766950
Si Si2 0.331191 0.974319 0.488460
Si Si3 0.735487 0.424810 0.193514
Si Si4 0.773624 0.471719 0.791804
Si Si5 0.660254 0.383374 0.505645
Si Si6 0.438725 0.808259 0.032525
Si Si7 0.079320 0.771307 0.272249
Si Si8 0.094552 0.684950 0.940633
O O1 0.187581 0.420175 0.806379
O O2 0.324301 0.419603 0.657169
O O3 0.066939 0.337454 0.680688
O O4 0.291087 0.002914 0.901003
O O5 0.286951 0.796615 0.643466
O O6 0.329997 0.851910 0.447374
O O7 0.500000 0.000000 0.500000
O O8 0.230932 0.254128 0.357418
O O9 0.585194 0.634816 0.063118
O O10 0.813129 0.310662 0.153763
O O11 0.613750 0.395941 0.819062
O O12 0.869457 0.290099 0.801998
O O13 0.817998 0.417944 0.920071
O O14 0.500000 0.500000 0.500000
O O15 0.790652 0.330972 0.607027
O O16 0.500000 0.000000 0.000000
O O17 0.016840 0.054241 0.158229
O O18 0.000000 0.500000 0.000000
#
# Coordination Sequence:
#
# PCOD9074084 Si02
#       8
#     2   2   2   2   2   2   2   2
#     4  10  23  45  70 103 140 185 235 288 358 412
#     4  11  23  46  69 104 141 180 231 290 353 411
#     4  10  24  45  72 103 145 183 238 293 348 414
#     4  12  25  45  70 101 140 188 234 288 351 416
#     4  11  26  44  73 105 140 186 233 290 350 424
#     4  10  22  41  72 100 136 182 235 289 353 404
#     4  12  26  45  70 100 143 185 236 286 353 424
#     4  12  27  44  68 104 141 187 234 290 354 420
#
# _framework density 21.278044999999999
#
# number of rings (size 3 to 8) (size 9 to 14) (size 15 to 20)
#    0.000    1.000    2.500    3.000    7.000    4.500 
#    0.000    3.125    0.000    0.000    0.000    0.000 
#    0.000    0.000    0.000    0.000    0.000    0.000 
#
# Total GULP energy -89155.568961 kJ/mol
# GULP energy per Si atom -5572.223060 kJ/mol
# Density = 2.122962 g / cm^3
# Si number density = 21.278045 Si / 1000 Ang^3
#
#
#
# Elastic Constant Matrix: (Units=GPa)
#
#
# Indices 1 2 3 4 5 6 
#
# 1 72.6931 54.2708 35.6172 5.0333 8.8330 10.0029
# 2 54.2708 188.8791 72.3956 -4.0158 -4.7300 -13.4592
# 3 35.6172 72.3956 121.0921 -5.8781 6.7737 -4.3268
# 4 5.0333 -4.0158 -5.8781 48.7278 4.8040 3.7571
# 5 8.8330 -4.7300 6.7737 4.8040 31.0492 -2.0759
# 6 10.0029 -13.4592 -4.3268 3.7571 -2.0759 36.8374
#
#
#
# Elastic Compliance Matrix: (Units=1/GPa)
#
#
# Indices 1 2 3 4 5 6 
#
# 1 0.021744 -0.005985 -0.002831 -0.001746 -0.006787 -0.008628
# 2 -0.005985 0.008819 -0.003569 0.000151 0.004112 0.004644
# 3 -0.002831 -0.003569 0.011457 0.001582 -0.002448 0.000511
# 4 -0.001746 0.000151 0.001582 0.021352 -0.003239 -0.001645
# 5 -0.006787 0.004112 -0.002448 -0.003239 0.036162 0.005426
# 6 -0.008628 0.004644 0.000511 -0.001645 0.005426 0.031720
#
#
# Mechanical properties :
#
#
# Convention : Reuss Voigt Hill
#
# Bulk Modulus (GPa) = 57.96925 78.58129 68.27527
# Shear Modulus (GPa) = 30.90738 38.01492 34.46115
#
# Velocity S-wave (km/s) = 3.81537 4.23138 4.02875
# Velocity P-wave (km/s) = 6.83463 7.80280 7.33471
#
# Compressibility (1/GPa) = 0.01725053
#
# Stress axis : x y z
#
# Youngs Moduli (GPa) = 45.98882 113.39135 87.28498
#
# Poissons Ratio (x) = 0.67859 0.24713
# Poissons Ratio (y) = 0.27522 0.31152
# Poissons Ratio (z) = 0.13021 0.40469
#
# Static dielectric constant tensor:
#      x y z
#    x 1.993960 -0.015500 0.036380 
#    y -0.015500 1.770890 0.055940 
#    z 0.036380 0.055940 1.879230 
# 
# From -- ./inp_files/494273.got.cif
#   From: 2010.05.17/outbox.ucp.g08.bks.cvg/sg2_248_cif.got.tgz:494273.got - 2010.06.11 11:32:03.
