data_PCOD9074658
_publ_section_title
;
Structure prediction by ZEFSAII (Michael W. Deem and Ramdas Pophale) SiO2 
 PCOD9074658
Probable space group: P -1
;
_chemical_formula_sum "Si O2"
_cell_formula_units_Z 16
_cell_length_a 24.000000
_cell_length_b 6.000000
_cell_length_c 15.000000
_cell_angle_alpha 100.000000
_cell_angle_beta 20.000000
_cell_angle_gamma 100.000000
_cell_volume 727.188304
_symmetry_space_group_name_H-M "P -1"
_symmetry_group_IT_number 2
_symmetry_cell_setting 'triclinic'
loop_
_space_group_symop_operation_xyz
x,y,z
-x,-y,-z
loop_
_atom_site_type_symbol
_atom_site_label
_atom_site_fract_x
_atom_site_fract_y
_atom_site_fract_z
Si Si1 0.642400 0.521631 0.996328
Si Si2 0.208027 0.724065 0.082962
Si Si3 0.464406 0.077164 0.456751
Si Si4 0.139334 0.188104 0.449346
Si Si5 0.641358 0.169913 0.827685
Si Si6 0.797299 0.565189 0.109755
Si Si7 0.704254 0.322515 0.410214
Si Si8 0.147856 0.582202 0.611877
O O1 0.763725 0.416640 0.879325
O O2 0.737528 0.700677 0.801522
O O3 0.579512 0.335976 0.006978
O O4 0.480162 0.592489 0.295465
O O5 0.034429 0.835123 0.339438
O O6 0.362657 0.894439 0.850311
O O7 0.210917 0.563444 0.980499
O O8 0.368871 0.304976 0.627103
O O9 0.500000 0.000000 0.500000
O O10 0.339880 0.934343 0.570460
O O11 0.131907 0.345954 0.561736
O O12 0.209092 0.955106 0.360918
O O13 0.705905 0.293193 0.651504
O O14 0.500000 0.000000 0.000000
O O15 0.794780 0.416501 0.192880
O O16 0.973433 0.693511 0.861446
O O17 0.804025 0.393690 0.354524
#
# Coordination Sequence:
#
# PCOD9074658 Si02
#       8
#     2   2   2   2   2   2   2   2
#     4  11  24  42  64  96 126 167 211 257 312 375
#     4  11  23  44  65  93 130 166 208 261 313 372
#     4  12  25  40  65  95 127 171 209 254 316 377
#     4  10  24  44  66  92 128 166 209 263 313 369
#     4  11  24  43  66  95 126 166 213 258 315 372
#     4  11  24  45  64  93 130 165 211 260 312 372
#     4  12  24  42  66  94 129 166 212 257 314 374
#     4  10  25  42  67  94 126 166 209 265 311 368
#
# _framework density 22.002554
#
# number of rings (size 3 to 8) (size 9 to 14) (size 15 to 20)
#    0.000    1.000    2.500    3.375    5.250    4.000 
#    2.250    0.000    0.000    0.000    0.000    0.000 
#    0.000    0.000    0.000    0.000    0.000    0.000 
#
# Total GULP energy -89319.467024 kJ/mol
# GULP energy per Si atom -5582.466689 kJ/mol
# Density = 2.195248 g / cm^3
# Si number density = 22.002554 Si / 1000 Ang^3
#
#
#
# Elastic Constant Matrix: (Units=GPa)
#
#
# Indices 1 2 3 4 5 6 
#
# 1 115.1389 -2.7155 -7.0207 -12.3770 8.7009 3.0455
# 2 -2.7155 15.2870 -3.1449 -4.3706 3.3491 8.2745
# 3 -7.0207 -3.1449 54.2918 1.9820 -7.8829 17.0120
# 4 -12.3770 -4.3706 1.9820 13.7546 0.6187 -8.2716
# 5 8.7009 3.3491 -7.8829 0.6187 38.2567 0.9529
# 6 3.0455 8.2745 17.0120 -8.2716 0.9529 23.2678
#
#
#
# Elastic Compliance Matrix: (Units=1/GPa)
#
#
# Indices 1 2 3 4 5 6 
#
# 1 0.010282 0.005756 0.000811 0.011150 -0.002858 0.000095
# 2 0.005756 0.100474 0.021767 0.003517 -0.004407 -0.050968
# 3 0.000811 0.021767 0.034472 -0.022440 0.006404 -0.041290
# 4 0.011150 0.003517 -0.022440 0.122208 -0.010878 0.057587
# 5 -0.002858 -0.004407 0.006404 -0.010878 0.028865 -0.007790
# 6 0.000095 -0.050968 -0.041290 0.057587 -0.007790 0.112071
#
#
# Mechanical properties :
#
#
# Convention : Reuss Voigt Hill
#
# Bulk Modulus (GPa) = 4.95302 17.66172 11.30737
# Shear Modulus (GPa) = 11.93309 28.22906 20.08108
#
# Velocity S-wave (km/s) = 2.33137 3.58577 3.02432
# Velocity P-wave (km/s) = 3.08270 5.01879 4.16481
#
# Compressibility (1/GPa) = 0.20189706
#
# Stress axis : x y z
#
# Youngs Moduli (GPa) = 97.25277 9.95278 29.00914
#
# Poissons Ratio (x) = -0.05729 -0.02354
# Poissons Ratio (y) = -0.55980 -0.63143
# Poissons Ratio (z) = -0.07890 -0.21664
#
# Static dielectric constant tensor:
#      x y z
#    x 1.782510 0.019100 0.011830 
#    y 0.019100 1.887180 -0.004050 
#    z 0.011830 -0.004050 1.830860 
# 
# From -- ./inp_files/68682.got.cif
#   From: 2010.05.17/outbox.ucp.g08.bks.cvg/sg2_35_cif.got.tgz:68682.got - 2010.06.11 11:32:03.
