data_PCOD9074377
_publ_section_title
;
Structure prediction by ZEFSAII (Michael W. Deem and Ramdas Pophale) SiO2 
 PCOD9074377
Probable space group: P -1
;
_chemical_formula_sum "Si O2"
_cell_formula_units_Z 16
_cell_length_a 18.000000
_cell_length_b 9.000000
_cell_length_c 12.000000
_cell_angle_alpha 130.000000
_cell_angle_beta 40.000000
_cell_angle_gamma 100.000000
_cell_volume 729.599496
_symmetry_space_group_name_H-M "P -1"
_symmetry_group_IT_number 2
_symmetry_cell_setting 'triclinic'
loop_
_space_group_symop_operation_xyz
x,y,z
-x,-y,-z
loop_
_atom_site_type_symbol
_atom_site_label
_atom_site_fract_x
_atom_site_fract_y
_atom_site_fract_z
Si Si1 0.711674 0.178217 0.585989
Si Si2 0.197996 0.940096 0.189796
Si Si3 0.520968 0.150589 0.161435
Si Si4 0.445027 0.299232 0.073526
Si Si5 0.643891 0.989265 0.356083
Si Si6 0.705183 0.295349 0.274464
Si Si7 0.038978 0.688900 0.048958
Si Si8 0.861410 0.401045 0.852632
O O1 0.689324 0.421040 0.682470
O O2 0.661888 0.076240 0.498338
O O3 0.590968 0.272425 0.868134
O O4 0.878773 0.959316 0.333369
O O5 0.225440 0.709626 0.114435
O O6 0.306936 0.986887 0.132425
O O7 0.238836 0.864233 0.978811
O O8 0.025038 0.190587 0.511235
O O9 0.432205 0.257320 0.197459
O O10 0.440930 0.413210 0.442613
O O11 0.522233 0.950772 0.132085
O O12 0.500000 0.000000 0.500000
O O13 0.662362 0.161122 0.339486
O O14 0.780115 0.684270 0.044856
O O15 0.836178 0.315648 0.164502
O O16 0.103541 0.634802 0.073309
O O17 0.000000 0.500000 0.000000
#
# Coordination Sequence:
#
# PCOD9074377 Si02
#       8
#     2   2   2   2   2   2   2   2
#     4  11  23  45  63  99 132 175 218 273 337 391
#     4  10  23  41  66  93 130 174 227 276 321 400
#     4  11  21  42  65  96 133 169 225 275 334 395
#     4  10  24  39  65  96 128 171 222 271 340 391
#     4  12  26  44  69  98 139 177 222 274 331 397
#     4  11  25  41  65 103 130 179 224 272 331 396
#     4  11  22  43  71  95 135 174 221 273 330 405
#     4  10  23  44  66  99 128 180 223 266 340 392
#
# _framework density 21.929839999999999
#
# number of rings (size 3 to 8) (size 9 to 14) (size 15 to 20)
#    0.000    1.250    2.500    2.625    3.500    3.000 
#    4.500    0.000    0.000    0.000    0.000    0.000 
#    0.000    0.000    0.000    0.000    0.000    0.000 
#
# Total GULP energy -89145.765952 kJ/mol
# GULP energy per Si atom -5571.610372 kJ/mol
# Density = 2.187993 g / cm^3
# Si number density = 21.929840 Si / 1000 Ang^3
#
#
#
# Elastic Constant Matrix: (Units=GPa)
#
#
# Indices 1 2 3 4 5 6 
#
# 1 38.7660 28.6057 3.2523 3.8392 -15.0022 22.6247
# 2 28.6057 178.8924 58.4486 33.9425 -17.5471 27.1165
# 3 3.2523 58.4486 78.9844 17.0509 -11.5273 2.3678
# 4 3.8392 33.9425 17.0509 43.5794 1.5203 -3.5949
# 5 -15.0022 -17.5471 -11.5273 1.5203 31.0635 -3.0558
# 6 22.6247 27.1165 2.3678 -3.5949 -3.0558 17.0073
#
#
#
# Elastic Compliance Matrix: (Units=1/GPa)
#
#
# Indices 1 2 3 4 5 6 
#
# 1 -0.631632 -0.137211 -0.003426 0.261678 -0.292129 1.062323
# 2 -0.137211 -0.016714 -0.007245 0.047311 -0.060114 0.209388
# 3 -0.003426 -0.007245 0.018100 -0.000064 0.002350 0.013998
# 4 0.261678 0.047311 -0.000064 -0.075503 0.115583 -0.418723
# 5 -0.292129 -0.060114 0.002350 0.115583 -0.099361 0.490713
# 6 1.062323 0.209388 0.013998 -0.418723 0.490713 -1.690535
#
#
# Mechanical properties :
#
#
# Convention : Reuss Voigt Hill
#
# Bulk Modulus (GPa) = -1.07990 53.02845 25.97427
# Shear Modulus (GPa) = -1.99318 32.08580 15.04631
#
# Velocity S-wave (km/s) = -0.95439 3.82921 2.62221
# Velocity P-wave (km/s) = 1.30690 6.61694 4.58672
#
# Compressibility (1/GPa) = -0.92600972
#
# Stress axis : x y z
#
# Youngs Moduli (GPa) = -1.58320 -59.82956 55.24742
#
# Poissons Ratio (x) = -8.20928 0.18928
# Poissons Ratio (y) = -0.21723 0.40027
# Poissons Ratio (z) = -0.00542 -0.43347
#
# Static dielectric constant tensor:
#      x y z
#    x 1.909680 0.044960 0.081940 
#    y 0.044960 1.822120 0.002590 
#    z 0.081940 0.002590 1.897810 
# 
# From -- ./inp_files/462437.got.cif
#   From: 2010.05.17/outbox.ucp.g08.bks.cvg/sg2_232_cif.got.tgz:462437.got - 2010.06.11 11:32:03.
