data_PCOD9074321
_publ_section_title
;
Structure prediction by ZEFSAII (Michael W. Deem and Ramdas Pophale) SiO2 
 PCOD9074321
Probable space group: P -1
;
_chemical_formula_sum "Si O2"
_cell_formula_units_Z 14
_cell_length_a 9.000000
_cell_length_b 12.000000
_cell_length_c 9.000000
_cell_angle_alpha 70.000000
_cell_angle_beta 50.000000
_cell_angle_gamma 70.000000
_cell_volume 689.539475
_symmetry_space_group_name_H-M "P -1"
_symmetry_group_IT_number 2
_symmetry_cell_setting 'triclinic'
loop_
_space_group_symop_operation_xyz
x,y,z
-x,-y,-z
loop_
_atom_site_type_symbol
_atom_site_label
_atom_site_fract_x
_atom_site_fract_y
_atom_site_fract_z
Si Si1 0.851943 0.718453 0.848592
Si Si2 0.440307 0.891654 0.994093
Si Si3 0.185515 0.314132 0.751530
Si Si4 0.603732 0.495545 0.665598
Si Si5 0.779310 0.467348 0.901584
Si Si6 0.556924 0.929563 0.343706
Si Si7 0.264739 0.773421 0.424453
O O1 0.644290 0.796334 0.890495
O O2 0.866962 0.587639 0.825794
O O3 0.049677 0.769537 0.641827
O O4 0.815821 0.700236 0.058556
O O5 0.382498 0.964623 0.847325
O O6 0.283064 0.834374 0.220745
O O7 0.500000 0.000000 0.000000
O O8 0.308981 0.407730 0.542006
O O9 0.266981 0.181784 0.698827
O O10 0.957578 0.358112 0.844146
O O11 0.707958 0.475457 0.771441
O O12 0.636626 0.367543 0.611398
O O13 0.381358 0.537437 0.858570
O O14 0.391305 0.855238 0.408305
O O15 0.500000 0.000000 0.500000
#
# Coordination Sequence:
#
# PCOD9074321 Si02
#       7
#     2   2   2   2   2   2   2
#     4  12  24  42  72 105 135 184 225 280 341 405
#     4  10  22  48  66  94 140 182 231 272 333 404
#     4  12  25  44  69 104 144 173 230 284 341 406
#     4  11  25  44  71 105 138 181 220 282 356 396
#     4  11  25  42  69 107 140 176 224 282 344 412
#     4  11  27  47  72  98 138 186 225 287 333 404
#     4  11  24  45  73  99 135 183 227 277 345 401
#
# _framework density 20.303405999999999
#
# number of rings (size 3 to 8) (size 9 to 14) (size 15 to 20)
#    0.000    0.857    5.714    0.857    4.000    3.429 
#    0.000    0.714    0.000    0.000    0.000    0.000 
#    0.000    0.000    0.000    0.000    0.000    0.000 
#
# Total GULP energy -78012.097429 kJ/mol
# GULP energy per Si atom -5572.292674 kJ/mol
# Density = 2.025719 g / cm^3
# Si number density = 20.303406 Si / 1000 Ang^3
#
#
#
# Elastic Constant Matrix: (Units=GPa)
#
#
# Indices 1 2 3 4 5 6 
#
# 1 45.3088 50.6587 34.1152 3.5255 -3.5302 0.5987
# 2 50.6587 139.0953 69.5878 12.6387 11.6885 -16.7692
# 3 34.1152 69.5878 198.1669 -17.3673 -6.0969 -1.8054
# 4 3.5255 12.6387 -17.3673 45.6296 1.8693 10.0015
# 5 -3.5302 11.6885 -6.0969 1.8693 42.4129 7.1034
# 6 0.5987 -16.7692 -1.8054 10.0015 7.1034 33.8335
#
#
#
# Elastic Compliance Matrix: (Units=1/GPa)
#
#
# Indices 1 2 3 4 5 6 
#
# 1 0.044098 -0.018793 -0.000415 0.004184 0.010890 -0.013640
# 2 -0.018793 0.019631 -0.004567 -0.008474 -0.009661 0.014352
# 3 -0.000415 -0.004567 0.007187 0.004765 0.002692 -0.003847
# 4 0.004184 -0.008474 0.004765 0.028503 0.004350 -0.013359
# 5 0.010890 -0.009661 0.002692 0.004350 0.029401 -0.012296
# 6 -0.013640 0.014352 -0.003847 -0.013359 -0.012296 0.043236
#
#
# Mechanical properties :
#
#
# Convention : Reuss Voigt Hill
#
# Bulk Modulus (GPa) = 42.79793 76.81047 59.80420
# Shear Modulus (GPa) = 21.98821 39.58915 30.78868
#
# Velocity S-wave (km/s) = 3.29444 4.42053 3.89836
# Velocity P-wave (km/s) = 5.96624 7.99802 7.05565
#
# Compressibility (1/GPa) = 0.02336562
#
# Stress axis : x y z
#
# Youngs Moduli (GPa) = 22.67680 50.94088 139.14075
#
# Poissons Ratio (x) = 0.95731 0.05775
# Poissons Ratio (y) = 0.42615 0.63550
# Poissons Ratio (z) = 0.00941 0.23266
#
# Static dielectric constant tensor:
#      x y z
#    x 1.797710 -0.014490 -0.000540 
#    y -0.014490 1.675680 -0.003170 
#    z -0.000540 -0.003170 1.741870 
# 
# From -- ./inp_files/175742.got.cif
#   From: 2010.05.17/outbox.ucp.g08.bks.cvg/sg2_88_cif.got.tgz:175742.got - 2010.06.11 11:32:03.
