data_PCOD9074831
_publ_section_title
;
Structure prediction by ZEFSAII (Michael W. Deem and Ramdas Pophale) SiO2 
 PCOD9074831
Probable space group: P -1
;
_chemical_formula_sum "Si O2"
_cell_formula_units_Z 14
_cell_length_a 18.815951
_cell_length_b 5.166940
_cell_length_c 23.901888
_cell_angle_alpha 105.522710
_cell_angle_beta 22.167192
_cell_angle_gamma 120.869167
_cell_volume 577.748229
_symmetry_space_group_name_H-M "P -1"
_symmetry_group_IT_number 2
_symmetry_cell_setting 'triclinic'
loop_
_space_group_symop_operation_xyz
x,y,z
-x,-y,-z
loop_
_atom_site_type_symbol
_atom_site_label
_atom_site_fract_x
_atom_site_fract_y
_atom_site_fract_z
Si Si1 0.506141 0.603039 0.938867
Si Si2 0.209163 0.494612 0.624870
Si Si3 0.200593 0.454833 0.365958
Si Si4 0.504870 0.914389 0.283549
Si Si5 0.362766 0.396697 0.740618
Si Si6 0.672938 0.448010 0.340614
Si Si7 0.916192 0.420201 0.738448
O O1 0.616856 0.479923 0.813091
O O2 0.724752 0.079557 0.811570
O O3 0.500000 0.500000 0.000000
O O4 0.214515 0.443449 0.134847
O O5 0.351387 0.381632 0.486990
O O6 0.129552 0.420191 0.743897
O O7 0.955487 0.296326 0.759448
O O8 0.458775 0.976551 0.462911
O O9 0.405947 0.716355 0.283607
O O10 0.000000 0.500000 0.500000
O O11 0.000000 0.000000 0.500000
O O12 0.639122 0.839147 0.224348
O O13 0.216979 0.716880 0.509372
O O14 0.674529 0.366349 0.184639
O O15 0.203946 0.306689 0.792515
O O16 0.500000 0.500000 0.500000
#
# Coordination Sequence:
#
# PCOD9074831 Si02
#       7
#     2   2   2   2   2   2   2
#     4  11  25  39  60  86 122 163 205 253 303 358
#     4   9  18  30  52  81 120 155 191 239 307 354
#     4  12  25  42  62  86 119 159 212 257 300 357
#     4  11  21  35  59  83 112 162 195 243 295 356
#     4  10  18  32  52  82 116 147 196 237 296 350
#     4   9  16  28  50  84 120 148 188 244 301 355
#     4  10  21  37  57  83 120 159 200 242 307 355
#
# _framework density 24.232005000000001
#
# number of rings (size 3 to 8) (size 9 to 14) (size 15 to 20)
#    0.000    1.714    4.286    1.714    8.000    0.000 
#    0.000    0.000    0.000    0.000    0.000    2.000 
#    0.000    0.571    0.000    0.000    0.000    0.000 
#
# Total GULP energy -77973.567441 kJ/mol
# GULP energy per Si atom -5569.540532 kJ/mol
# Density = 2.417685 g / cm^3
# Si number density = 24.232005 Si / 1000 Ang^3
#
#
#
# Elastic Constant Matrix: (Units=GPa)
#
#
# Indices 1 2 3 4 5 6 
#
# 1 163.5731 63.6869 57.4679 38.6407 -7.4552 15.4289
# 2 63.6869 125.3898 26.0631 38.1202 11.0147 7.4596
# 3 57.4679 26.0631 101.7675 21.0746 14.4246 7.0443
# 4 38.6407 38.1202 21.0746 32.1235 6.4933 4.2007
# 5 -7.4552 11.0147 14.4246 6.4933 17.5536 9.4979
# 6 15.4289 7.4596 7.0443 4.2007 9.4979 48.5479
#
#
#
# Elastic Compliance Matrix: (Units=1/GPa)
#
#
# Indices 1 2 3 4 5 6 
#
# 1 0.014830 -0.003949 -0.007714 -0.011899 0.023011 -0.006459
# 2 -0.003949 0.013637 0.002208 -0.011326 -0.008680 0.001517
# 3 -0.007714 0.002208 0.016276 -0.000489 -0.019844 0.003675
# 4 -0.011899 -0.011326 -0.000489 0.063343 -0.023528 0.004715
# 5 0.023011 -0.008680 -0.019844 -0.023528 0.109349 -0.022457
# 6 -0.006459 0.001517 0.003675 0.004715 -0.022457 0.025870
#
#
# Mechanical properties :
#
#
# Convention : Reuss Voigt Hill
#
# Bulk Modulus (GPa) = 38.70759 76.12956 57.41857
# Shear Modulus (GPa) = 18.46207 35.87916 27.17061
#
# Velocity S-wave (km/s) = 2.76323 3.85210 3.35217
# Velocity P-wave (km/s) = 5.11752 7.16031 6.22330
#
# Compressibility (1/GPa) = 0.02583473
#
# Stress axis : x y z
#
# Youngs Moduli (GPa) = 67.43183 73.32966 61.43906
#
# Poissons Ratio (x) = 0.28954 0.47391
# Poissons Ratio (y) = 0.26626 -0.13565
# Poissons Ratio (z) = 0.52014 -0.16190
#
# Static dielectric constant tensor:
#      x y z
#    x 2.051970 -0.108440 -0.034140 
#    y -0.108440 2.312940 -0.097870 
#    z -0.034140 -0.097870 1.982400 
# 
# From -- ./inp_files/115471.got.cif
#   From: 2010.05.17/outbox.cif.g08.bks.cpg/sg2_58_cif.got.tgz:115471.got - 2010.06.03 11:33:40.
