data_PCOD9074698
_publ_section_title
;
Structure prediction by ZEFSAII (Michael W. Deem and Ramdas Pophale) SiO2 
 PCOD9074698
Probable space group: P -1
;
_chemical_formula_sum "Si O2"
_cell_formula_units_Z 8
_cell_length_a 6.000000
_cell_length_b 9.000000
_cell_length_c 9.000000
_cell_angle_alpha 50.000000
_cell_angle_beta 80.000000
_cell_angle_gamma 60.000000
_cell_volume 314.321903
_symmetry_space_group_name_H-M "P -1"
_symmetry_group_IT_number 2
_symmetry_cell_setting 'triclinic'
loop_
_space_group_symop_operation_xyz
x,y,z
-x,-y,-z
loop_
_atom_site_type_symbol
_atom_site_label
_atom_site_fract_x
_atom_site_fract_y
_atom_site_fract_z
Si Si1 0.055449 0.255066 0.415698
Si Si2 0.542095 0.622482 0.051430
Si Si3 0.712707 0.268809 0.702106
Si Si4 0.545961 0.048628 0.658192
O O1 0.204201 0.047511 0.418261
O O2 0.814110 0.462814 0.219319
O O3 0.960262 0.199601 0.615552
O O4 0.307751 0.254457 0.461833
O O5 0.297182 0.708757 0.137375
O O6 0.500000 0.500000 0.000000
O O7 0.532339 0.831094 0.837784
O O8 0.500000 0.500000 0.500000
O O9 0.599723 0.112607 0.770449
#
# Coordination Sequence:
#
# PCOD9074698 Si02
#       4
#     2   2   2   2
#     4  10  25  45  72  97 136 175 227 273 335 399
#     4  11  26  45  68 103 136 175 225 277 333 397
#     4  10  24  45  69 100 135 176 227 272 332 400
#     4  11  24  45  73  97 134 181 220 276 338 388
#
# _framework density 25.451615
#
# number of rings (size 3 to 8) (size 9 to 14) (size 15 to 20)
#    0.000    1.500    0.000    2.250   17.500    5.000 
#    4.500    0.000    0.000    0.000    0.000    0.000 
#    0.000    0.000    0.000    0.000    0.000    0.000 
#
# Total GULP energy -44571.366920 kJ/mol
# GULP energy per Si atom -5571.420865 kJ/mol
# Density = 2.539369 g / cm^3
# Si number density = 25.451615 Si / 1000 Ang^3
#
#
#
# Elastic Constant Matrix: (Units=GPa)
#
#
# Indices 1 2 3 4 5 6 
#
# 1 2.7766 68.1884 60.8176 -8.6851 -44.5024 -61.0500
# 2 68.1884 138.3571 62.5153 46.9042 -16.7013 22.2184
# 3 60.8176 62.5153 140.1723 31.0854 -11.8209 -12.3524
# 4 -8.6851 46.9042 31.0854 57.6910 -4.9222 -1.0313
# 5 -44.5024 -16.7013 -11.8209 -4.9222 19.8783 -47.8851
# 6 -61.0500 22.2184 -12.3524 -1.0313 -47.8851 -6.4136
#
#
#
# Elastic Compliance Matrix: (Units=1/GPa)
#
#
# Indices 1 2 3 4 5 6 
#
# 1 0.017598 -0.006978 -0.010748 0.012003 -0.020354 -0.020951
# 2 -0.006978 0.014710 0.001148 -0.012236 0.014568 0.008377
# 3 -0.010748 0.001148 0.015153 -0.009748 0.009112 0.010632
# 4 0.012003 -0.012236 -0.009748 0.032609 -0.017164 -0.014958
# 5 -0.020354 0.014568 0.009112 -0.017164 0.030066 0.004948
# 6 -0.020951 0.008377 0.010632 -0.014958 0.004948 0.017517
#
#
# Mechanical properties :
#
#
# Convention : Reuss Voigt Hill
#
# Bulk Modulus (GPa) = 69.91423 73.81650 71.86537
# Shear Modulus (GPa) = 30.19740 20.21680 25.20710
#
# Velocity S-wave (km/s) = 3.44824 2.82143 3.15046
# Velocity P-wave (km/s) = 6.58657 6.29917 6.44448
#
# Compressibility (1/GPa) = 0.01430324
#
# Stress axis : x y z
#
# Youngs Moduli (GPa) = 56.82397 67.98261 65.99488
#
# Poissons Ratio (x) = 0.47441 0.70930
# Poissons Ratio (y) = 0.39654 -0.07574
# Poissons Ratio (z) = 0.61073 -0.07802
#
# Static dielectric constant tensor:
#      x y z
#    x 2.900230 0.645580 -0.480650 
#    y 0.645580 2.894560 -0.423550 
#    z -0.480650 -0.423550 2.115340 
# 
# From -- ./inp_files/15260.got.cif
#   From: 2010.05.17/outbox.ucp.g08.bks.cvg/sg2_8_cif.got.tgz:15260.got - 2010.06.11 11:32:03.
