data_PCOD9074144
_publ_section_title
;
Structure prediction by ZEFSAII (Michael W. Deem and Ramdas Pophale) SiO2 
 PCOD9074144
Probable space group: P -1
;
_chemical_formula_sum "Si O2"
_cell_formula_units_Z 16
_cell_length_a 16.971484
_cell_length_b 7.640868
_cell_length_c 6.821326
_cell_angle_alpha 68.282586
_cell_angle_beta 99.538966
_cell_angle_gamma 137.051939
_cell_volume 552.131634
_symmetry_space_group_name_H-M "P -1"
_symmetry_group_IT_number 2
_symmetry_cell_setting 'triclinic'
loop_
_space_group_symop_operation_xyz
x,y,z
-x,-y,-z
loop_
_atom_site_type_symbol
_atom_site_label
_atom_site_fract_x
_atom_site_fract_y
_atom_site_fract_z
Si Si1 0.659608 0.524716 0.158921
Si Si2 0.733792 0.652797 0.695765
Si Si3 0.024489 0.602466 0.240889
Si Si4 0.512455 0.088981 0.741576
Si Si5 0.855016 0.585848 0.296949
Si Si6 0.890401 0.606705 0.763119
Si Si7 0.713826 0.995400 0.917410
Si Si8 0.660423 0.933096 0.492161
O O1 0.786596 0.660379 0.209629
O O2 0.559757 0.196298 0.287399
O O3 0.666604 0.553306 0.914352
O O4 0.650181 0.727549 0.129831
O O5 0.649424 0.371091 0.648337
O O6 0.857087 0.761863 0.746126
O O7 0.722089 0.838341 0.521920
O O8 0.953793 0.675543 0.152734
O O9 0.000000 0.500000 0.500000
O O10 0.008237 0.381303 0.195847
O O11 0.162587 0.876821 0.163909
O O12 0.448090 0.176656 0.631817
O O13 0.500000 0.000000 0.000000
O O14 0.892420 0.644557 0.513026
O O15 0.759137 0.258667 0.364957
O O16 0.771915 0.283760 0.911918
O O17 0.638532 0.907059 0.729732
#
# Coordination Sequence:
#
# PCOD9074144 Si02
#       8
#     2   2   2   2   2   2   2   2
#     4   9  18  31  49  71  94 124 164 192 230 284
#     4  10  18  32  49  70  97 124 157 201 238 268
#     4   8  14  29  53  67  94 125 163 183 235 281
#     4   9  18  31  48  70  94 126 156 193 236 286
#     4   9  16  32  51  69  95 128 160 193 228 286
#     4   8  17  31  49  69  95 127 153 201 236 266
#     4   8  16  30  50  69  95 124 160 188 230 286
#     4   9  16  29  51  69  89 123 164 188 224 285
#
# _framework density 28.978598000000002
#
# number of rings (size 3 to 8) (size 9 to 14) (size 15 to 20)
#    0.750    2.500    1.250    0.375    0.000    0.500 
#    0.000   11.250    0.000    0.000    0.000    0.000 
#    0.000    0.000    0.000    0.000    0.000    0.000 
#
# Total GULP energy -89300.436511 kJ/mol
# GULP energy per Si atom -5581.277282 kJ/mol
# Density = 2.891264 g / cm^3
# Si number density = 28.978598 Si / 1000 Ang^3
#
#
#
# Elastic Constant Matrix: (Units=GPa)
#
#
# Indices 1 2 3 4 5 6 
#
# 1 178.9264 15.4210 31.3980 -12.0773 41.3374 -3.5080
# 2 15.4210 69.6684 20.2087 -24.8392 5.7701 -3.6309
# 3 31.3980 20.2087 100.9052 0.9626 26.5201 -13.0697
# 4 -12.0773 -24.8392 0.9626 43.0637 -5.1776 6.0721
# 5 41.3374 5.7701 26.5201 -5.1776 62.9245 6.0679
# 6 -3.5080 -3.6309 -13.0697 6.0721 6.0679 37.7993
#
#
#
# Elastic Compliance Matrix: (Units=1/GPa)
#
#
# Indices 1 2 3 4 5 6 
#
# 1 0.006805 -0.000511 -0.000861 0.001038 -0.004049 0.000768
# 2 -0.000511 0.019782 -0.004584 0.011830 0.001609 -0.001891
# 3 -0.000861 -0.004584 0.013350 -0.004664 -0.005578 0.005740
# 4 0.001038 0.011830 -0.004664 0.031695 0.003387 -0.006015
# 5 -0.004049 0.001609 -0.005578 0.003387 0.021629 -0.006166
# 6 0.000768 -0.001891 0.005740 -0.006015 -0.006166 0.030286
#
#
# Mechanical properties :
#
#
# Convention : Reuss Voigt Hill
#
# Bulk Modulus (GPa) = 35.68183 53.72837 44.70510
# Shear Modulus (GPa) = 34.53026 47.58898 41.05962
#
# Velocity S-wave (km/s) = 3.45567 4.05682 3.76825
# Velocity P-wave (km/s) = 5.31621 6.36590 5.86459
#
# Compressibility (1/GPa) = 0.02802547
#
# Stress axis : x y z
#
# Youngs Moduli (GPa) = 146.95916 50.55048 74.90511
#
# Poissons Ratio (x) = 0.02583 0.06451
# Poissons Ratio (y) = 0.07509 0.34333
# Poissons Ratio (z) = 0.12657 0.23170
#
# Static dielectric constant tensor:
#      x y z
#    x 2.331050 -0.054880 0.030780 
#    y -0.054880 2.367600 0.063360 
#    z 0.030780 0.063360 2.321280 
# 
# From -- ./inp_files/334965.got.cif
#   From: 2010.05.17/outbox.cif.g08.bks.cpg/sg2_168_cif.got.tgz:334965.got - 2010.06.03 11:33:40.
