data_PCOD9074896
_publ_section_title
;
Structure prediction by ZEFSAII (Michael W. Deem and Ramdas Pophale) SiO2 
 PCOD9074896
Probable space group: P -1
;
_chemical_formula_sum "Si O2"
_cell_formula_units_Z 16
_cell_length_a 12.000000
_cell_length_b 15.000000
_cell_length_c 9.000000
_cell_angle_alpha 110.000000
_cell_angle_beta 110.000000
_cell_angle_gamma 130.000000
_cell_volume 728.972637
_symmetry_space_group_name_H-M "P -1"
_symmetry_group_IT_number 2
_symmetry_cell_setting 'triclinic'
loop_
_space_group_symop_operation_xyz
x,y,z
-x,-y,-z
loop_
_atom_site_type_symbol
_atom_site_label
_atom_site_fract_x
_atom_site_fract_y
_atom_site_fract_z
Si Si1 0.985001 0.308869 0.202099
Si Si2 0.773195 0.032912 0.752659
Si Si3 0.530207 0.276959 0.345572
Si Si4 0.902077 0.906052 0.087344
Si Si5 0.930760 0.786571 0.585978
Si Si6 0.524937 0.610446 0.977176
Si Si7 0.668150 0.915081 0.304894
Si Si8 0.627613 0.181185 0.098551
O O1 0.887176 0.329259 0.261611
O O2 0.250666 0.507403 0.397218
O O3 0.940029 0.186739 0.216514
O O4 0.840297 0.183820 0.918642
O O5 0.543603 0.838668 0.617782
O O6 0.745722 0.994495 0.547408
O O7 0.982575 0.105778 0.937201
O O8 0.592399 0.247457 0.224816
O O9 0.311574 0.190626 0.148644
O O10 0.769961 0.777873 0.099632
O O11 0.095564 0.121327 0.325728
O O12 0.703598 0.565466 0.327724
O O13 0.106435 0.921157 0.605660
O O14 0.500000 0.500000 0.000000
O O15 0.543948 0.726209 0.129253
O O16 0.491662 0.870725 0.137758
O O17 0.500000 0.000000 0.000000
#
# Coordination Sequence:
#
# PCOD9074896 Si02
#       8
#     2   2   2   2   2   2   2   2
#     4  12  25  42  70  97 126 174 227 272 322 384
#     4  12  26  41  62  99 144 172 205 268 343 396
#     4  12  24  45  66  99 130 172 226 268 322 391
#     4  11  22  41  65  98 134 177 215 265 323 400
#     4  11  20  41  68  94 127 174 227 266 316 384
#     4  11  22  39  65  99 133 173 221 267 321 385
#     4  11  24  43  66 100 134 171 219 272 330 391
#     4  12  21  48  75  92 121 174 232 280 316 377
#
# _framework density 21.948698
#
# number of rings (size 3 to 8) (size 9 to 14) (size 15 to 20)
#    0.000    0.500    7.500    2.250    0.000    6.000 
#    0.000    0.625    0.000    0.000    0.000    0.000 
#    0.000    0.000    0.000    0.000    0.000    0.000 
#
# Total GULP energy -89236.075680 kJ/mol
# GULP energy per Si atom -5577.254730 kJ/mol
# Density = 2.189874 g / cm^3
# Si number density = 21.948698 Si / 1000 Ang^3
#
#
#
# Elastic Constant Matrix: (Units=GPa)
#
#
# Indices 1 2 3 4 5 6 
#
# 1 75.9765 37.8331 20.0642 -20.8214 -8.7158 4.1254
# 2 37.8331 70.6896 77.9305 15.0522 -15.1019 -13.9165
# 3 20.0642 77.9305 68.5882 6.5302 -15.8718 6.9564
# 4 -20.8214 15.0522 6.5302 25.9653 -4.1005 -2.0498
# 5 -8.7158 -15.1019 -15.8718 -4.1005 24.0242 -2.1298
# 6 4.1254 -13.9165 6.9564 -2.0498 -2.1298 20.5678
#
#
#
# Elastic Compliance Matrix: (Units=1/GPa)
#
#
# Indices 1 2 3 4 5 6 
#
# 1 0.016854 0.008770 -0.016267 0.013955 0.004137 0.009874
# 2 0.008770 -0.018638 0.020728 0.011936 0.005457 -0.019626
# 3 -0.016267 0.020728 -0.003105 -0.022565 0.002676 0.016366
# 4 0.013955 0.011936 -0.022565 0.051222 0.008072 0.018850
# 5 0.004137 0.005457 0.002676 0.008072 0.050410 0.007982
# 6 0.009874 -0.019626 0.016366 0.018850 0.007982 0.030530
#
#
# Mechanical properties :
#
#
# Convention : Reuss Voigt Hill
#
# Bulk Modulus (GPa) = 46.35688 54.10111 50.22899
# Shear Modulus (GPa) = 46.29554 19.40656 32.85105
#
# Velocity S-wave (km/s) = 4.59765 2.97674 3.87294
# Velocity P-wave (km/s) = 7.02502 6.04293 6.55240
#
# Compressibility (1/GPa) = 0.02157177
#
# Stress axis : x y z
#
# Youngs Moduli (GPa) = 59.33392 -53.65415 -322.05310
#
# Poissons Ratio (x) = 0.47054 -5.23893
# Poissons Ratio (y) = -0.52035 6.67551
# Poissons Ratio (z) = 0.96520 1.11214
#
# Static dielectric constant tensor:
#      x y z
#    x 1.810270 0.007520 0.054420 
#    y 0.007520 1.810180 -0.096630 
#    z 0.054420 -0.096630 1.918860 
# 
# From -- ./inp_files/272628.got.cif
#   From: 2010.05.17/outbox.ucp.g08.bks.cvg/sg2_137_cif.got.tgz:272628.got - 2010.06.11 11:32:03.
