data_PCOD9074872
_publ_section_title
;
Structure prediction by ZEFSAII (Michael W. Deem and Ramdas Pophale) SiO2 
 PCOD9074872
Probable space group: P -1
;
_chemical_formula_sum "Si O2"
_cell_formula_units_Z 16
_cell_length_a 27.000000
_cell_length_b 12.000000
_cell_length_c 27.000000
_cell_angle_alpha 150.000000
_cell_angle_beta 170.000000
_cell_angle_gamma 30.000000
_cell_volume 750.765935
_symmetry_space_group_name_H-M "P -1"
_symmetry_group_IT_number 2
_symmetry_cell_setting 'triclinic'
loop_
_space_group_symop_operation_xyz
x,y,z
-x,-y,-z
loop_
_atom_site_type_symbol
_atom_site_label
_atom_site_fract_x
_atom_site_fract_y
_atom_site_fract_z
Si Si1 0.775719 0.590888 0.959650
Si Si2 0.379312 0.392457 0.888890
Si Si3 0.240231 0.776545 0.982296
Si Si4 0.055473 0.934848 0.662930
Si Si5 0.688774 0.483524 0.603641
Si Si6 0.673152 0.120313 0.535236
Si Si7 0.805839 0.171768 0.409990
Si Si8 0.241142 0.480560 0.967698
O O1 0.755273 0.490209 0.956813
O O2 0.018725 0.462583 0.112754
O O3 0.484070 0.590601 0.642190
O O4 0.848848 0.846928 0.132510
O O5 0.240372 0.578367 0.864470
O O6 0.646931 0.234289 0.118564
O O7 0.500000 0.500000 0.000000
O O8 0.154253 0.231047 0.586121
O O9 0.481823 0.925055 0.260202
O O10 0.287113 0.660722 0.039097
O O11 0.958405 0.968126 0.778809
O O12 0.869764 0.052416 0.479563
O O13 0.737299 0.278333 0.612611
O O14 0.506826 0.699140 0.534867
O O15 0.931254 0.407662 0.624317
O O16 0.473857 0.252736 0.101887
O O17 0.000000 0.000000 0.500000
#
# Coordination Sequence:
#
# PCOD9074872 Si02
#       8
#     2   2   2   2   2   2   2   2
#     4  11  23  41  72  96 134 170 217 286 320 376
#     4  12  26  40  60  95 136 178 222 254 318 396
#     4  12  25  45  66  94 143 172 214 267 338 394
#     4  11  23  40  60  95 128 173 218 260 315 378
#     4  11  24  46  71  99 126 160 237 274 329 388
#     4  11  26  45  71  97 124 178 215 279 333 392
#     4  11  20  37  63  87 125 174 227 267 308 360
#     4  11  23  40  61 100 129 174 215 266 332 392
#
# _framework density 21.311568999999999
#
# number of rings (size 3 to 8) (size 9 to 14) (size 15 to 20)
#    0.000    0.750    0.000    9.000    5.250    2.000 
#    0.000    3.750    0.000    0.000    0.000    0.000 
#    0.000    0.000    0.000    0.000    0.000    0.000 
#
# Total GULP energy -89342.780032 kJ/mol
# GULP energy per Si atom -5583.923752 kJ/mol
# Density = 2.126306 g / cm^3
# Si number density = 21.311569 Si / 1000 Ang^3
#
#
#
# Elastic Constant Matrix: (Units=GPa)
#
#
# Indices 1 2 3 4 5 6 
#
# 1 112.9239 37.4478 -13.0986 -12.9199 7.5042 4.5146
# 2 37.4478 108.6352 9.7625 -26.2289 -3.0304 10.3115
# 3 -13.0986 9.7625 66.0384 -12.7776 2.2109 4.3705
# 4 -12.9199 -26.2289 -12.7776 46.1178 -2.9430 0.8894
# 5 7.5042 -3.0304 2.2109 -2.9430 30.3905 -2.1533
# 6 4.5146 10.3115 4.3705 0.8894 -2.1533 31.4390
#
#
#
# Elastic Compliance Matrix: (Units=1/GPa)
#
#
# Indices 1 2 3 4 5 6 
#
# 1 0.010874 -0.003612 0.003198 0.001695 -0.003191 -0.001088
# 2 -0.003612 0.012380 -0.001267 0.005905 0.002553 -0.003358
# 3 0.003198 -0.001267 0.017145 0.004857 -0.001884 -0.002693
# 4 0.001695 0.005905 0.004857 0.027070 0.002192 -0.003471
# 5 -0.003191 0.002553 -0.001884 0.002192 0.034451 0.002180
# 6 -0.001088 -0.003358 -0.002693 -0.003471 0.002180 0.033687
#
#
# Mechanical properties :
#
#
# Convention : Reuss Voigt Hill
#
# Bulk Modulus (GPa) = 27.00102 39.53565 33.26833
# Shear Modulus (GPa) = 33.04347 38.48851 35.76599
#
# Velocity S-wave (km/s) = 3.94190 4.25431 4.10108
# Velocity P-wave (km/s) = 5.78060 6.53634 6.17005
#
# Compressibility (1/GPa) = 0.03703564
#
# Stress axis : x y z
#
# Youngs Moduli (GPa) = 91.96449 80.77634 58.32465
#
# Poissons Ratio (x) = 0.29177 -0.18650
# Poissons Ratio (y) = 0.33219 0.07391
# Poissons Ratio (z) = -0.29407 0.10236
#
# Static dielectric constant tensor:
#      x y z
#    x 1.808640 -0.037470 0.014150 
#    y -0.037470 1.745830 0.010310 
#    z 0.014150 0.010310 1.863960 
# 
# From -- ./inp_files/621268.got.cif
#   From: 2010.05.17/outbox.ucp.g08.bks.cvg/sg2_311_cif.got.tgz:621268.got - 2010.06.11 11:32:03.
