data_PCOD9074125
_publ_section_title
;
Structure prediction by ZEFSAII (Michael W. Deem and Ramdas Pophale) SiO2 
 PCOD9074125
Probable space group: P -1
;
_chemical_formula_sum "Si O2"
_cell_formula_units_Z 16
_cell_length_a 15.000000
_cell_length_b 12.000000
_cell_length_c 18.000000
_cell_angle_alpha 50.000000
_cell_angle_beta 150.000000
_cell_angle_gamma 150.000000
_cell_volume 731.734496
_symmetry_space_group_name_H-M "P -1"
_symmetry_group_IT_number 2
_symmetry_cell_setting 'triclinic'
loop_
_space_group_symop_operation_xyz
x,y,z
-x,-y,-z
loop_
_atom_site_type_symbol
_atom_site_label
_atom_site_fract_x
_atom_site_fract_y
_atom_site_fract_z
Si Si1 0.321294 0.536833 0.546450
Si Si2 0.763826 0.075056 0.569884
Si Si3 0.304912 0.303212 0.511379
Si Si4 0.768792 0.425195 0.040910
Si Si5 0.598571 0.026937 0.786907
Si Si6 0.355472 0.730802 0.146214
Si Si7 0.210427 0.228997 0.709578
Si Si8 0.858931 0.451427 0.266805
O O1 0.208752 0.374339 0.462640
O O2 0.398486 0.462303 0.692698
O O3 0.057802 0.445599 0.438798
O O4 0.565156 0.816131 0.575763
O O5 0.012351 0.170475 0.654755
O O6 0.942475 0.283552 0.672544
O O7 0.560581 0.031067 0.381407
O O8 0.500000 0.500000 0.500000
O O9 0.503448 0.326741 0.696559
O O10 0.022491 0.023966 0.397599
O O11 0.872715 0.440281 0.191556
O O12 0.047026 0.706251 0.089215
O O13 0.639715 0.251289 0.948744
O O14 0.466654 0.305060 0.899856
O O15 0.527697 0.078290 0.788344
O O16 0.461979 0.783081 0.822166
O O17 0.000000 0.500000 0.000000
#
# Coordination Sequence:
#
# PCOD9074125 Si02
#       8
#     2   2   2   2   2   2   2   2
#     4  12  24  43  74 102 136 187 234 291 348 414
#     4  12  25  47  74 102 137 182 254 288 335 419
#     4  12  23  43  73 108 144 179 232 291 350 422
#     4  11  27  44  67 104 150 178 228 289 358 422
#     4  11  23  46  70 103 140 183 234 296 342 410
#     4  10  22  42  68 103 144 176 224 285 353 415
#     4  12  26  44  71 107 139 185 229 290 358 416
#     4  12  27  44  75 102 134 194 242 283 348 421
#
# _framework density 21.865853999999999
#
# number of rings (size 3 to 8) (size 9 to 14) (size 15 to 20)
#    0.000    0.500    6.250    1.125    3.500    4.000 
#    0.000    1.250    0.000    0.000    0.000    0.000 
#    0.000    0.000    0.000    0.000    0.000    0.000 
#
# Total GULP energy -89128.443373 kJ/mol
# GULP energy per Si atom -5570.527711 kJ/mol
# Density = 2.181609 g / cm^3
# Si number density = 21.865854 Si / 1000 Ang^3
#
#
#
# Elastic Constant Matrix: (Units=GPa)
#
#
# Indices 1 2 3 4 5 6 
#
# 1 50.3027 40.0663 21.6183 5.7069 -2.3655 9.9019
# 2 40.0663 121.1205 28.4664 6.5468 -19.5295 7.8091
# 3 21.6183 28.4664 86.6927 10.9950 -3.4367 -8.0829
# 4 5.7069 6.5468 10.9950 10.7086 6.0761 0.2108
# 5 -2.3655 -19.5295 -3.4367 6.0761 39.1201 -0.4231
# 6 9.9019 7.8091 -8.0829 0.2108 -0.4231 41.5888
#
#
#
# Elastic Compliance Matrix: (Units=1/GPa)
#
#
# Indices 1 2 3 4 5 6 
#
# 1 0.030603 -0.008662 -0.004918 -0.004546 -0.002271 -0.006616
# 2 -0.008662 0.012798 -0.001073 -0.005889 0.006681 -0.000452
# 3 -0.004918 -0.001073 0.015449 -0.014255 0.002787 0.004476
# 4 -0.004546 -0.005889 -0.014255 0.127885 -0.024346 -0.001478
# 5 -0.002271 0.006681 0.002787 -0.024346 0.032789 0.000285
# 6 -0.006616 -0.000452 0.004476 -0.001478 0.000285 0.026585
#
#
# Mechanical properties :
#
#
# Convention : Reuss Voigt Hill
#
# Bulk Modulus (GPa) = 33.84493 48.71308 41.27900
# Shear Modulus (GPa) = 17.52764 29.48116 23.50440
#
# Velocity S-wave (km/s) = 2.83432 3.67587 3.28218
# Velocity P-wave (km/s) = 5.12086 6.35158 5.76913
#
# Compressibility (1/GPa) = 0.02954652
#
# Stress axis : x y z
#
# Youngs Moduli (GPa) = 32.67616 78.13548 64.72792
#
# Poissons Ratio (x) = 0.67678 0.31831
# Poissons Ratio (y) = 0.28303 0.06945
# Poissons Ratio (z) = 0.16069 0.08384
#
# Static dielectric constant tensor:
#      x y z
#    x 1.828260 -0.051690 0.024590 
#    y -0.051690 1.796580 0.043430 
#    z 0.024590 0.043430 1.710090 
# 
# From -- ./inp_files/573599.got.cif
#   From: 2010.05.17/outbox.ucp.g08.bks.cvg/sg2_287_cif.got.tgz:573599.got - 2010.06.11 11:32:03.
