data_PCOD9074199
_publ_section_title
;
Structure prediction by ZEFSAII (Michael W. Deem and Ramdas Pophale) SiO2 
 PCOD9074199
Probable space group: P -1
;
_chemical_formula_sum "Si O2"
_cell_formula_units_Z 16
_cell_length_a 9.000000
_cell_length_b 12.000000
_cell_length_c 27.000000
_cell_angle_alpha 150.000000
_cell_angle_beta 150.000000
_cell_angle_gamma 40.000000
_cell_volume 727.497153
_symmetry_space_group_name_H-M "P -1"
_symmetry_group_IT_number 2
_symmetry_cell_setting 'triclinic'
loop_
_space_group_symop_operation_xyz
x,y,z
-x,-y,-z
loop_
_atom_site_type_symbol
_atom_site_label
_atom_site_fract_x
_atom_site_fract_y
_atom_site_fract_z
Si Si1 0.913698 0.888643 0.252509
Si Si2 0.727063 0.679585 0.500224
Si Si3 0.160295 0.677201 0.146208
Si Si4 0.144975 0.028419 0.197573
Si Si5 0.151416 0.486508 0.727774
Si Si6 0.899963 0.469293 0.758751
Si Si7 0.689363 0.253919 0.959329
Si Si8 0.603843 0.271628 0.469177
O O1 0.552694 0.910690 0.151530
O O2 0.040572 0.710797 0.179714
O O3 0.956901 0.765416 0.269718
O O4 0.125190 0.094131 0.387604
O O5 0.447928 0.570076 0.351470
O O6 0.574635 0.724807 0.528396
O O7 0.000000 0.500000 0.500000
O O8 0.064617 0.904881 0.177007
O O9 0.507837 0.595640 0.212941
O O10 0.000000 0.500000 0.000000
O O11 0.179901 0.858113 0.096422
O O12 0.483267 0.085332 0.328237
O O13 0.945111 0.262086 0.223432
O O14 0.027172 0.500269 0.752828
O O15 0.955975 0.286413 0.575291
O O16 0.019153 0.682620 0.902663
O O17 0.500000 0.500000 0.000000
O O18 0.500000 0.500000 0.500000
#
# Coordination Sequence:
#
# PCOD9074199 Si02
#       8
#     2   2   2   2   2   2   2   2
#     4  11  23  42  67 100 135 176 217 281 354 379
#     4  11  24  42  65 101 138 171 218 284 336 394
#     4  12  24  44  66  98 142 171 223 286 334 401
#     4  11  23  45  71  96 133 178 231 271 333 404
#     4  10  24  44  69  99 128 179 228 273 330 407
#     4  10  22  45  63  97 133 171 233 263 329 414
#     4  10  22  43  69  96 132 181 224 270 329 407
#     4   9  21  43  66  98 131 172 229 269 331 409
#
# _framework density 21.993213000000001
#
# number of rings (size 3 to 8) (size 9 to 14) (size 15 to 20)
#    0.000    1.500    1.250    4.125    5.250    3.500 
#    6.750    0.000    0.000    0.000    0.000    0.000 
#    0.000    0.000    0.000    0.000    0.000    0.000 
#
# Total GULP energy -89109.281138 kJ/mol
# GULP energy per Si atom -5569.330071 kJ/mol
# Density = 2.194316 g / cm^3
# Si number density = 21.993213 Si / 1000 Ang^3
#
#
#
# Elastic Constant Matrix: (Units=GPa)
#
#
# Indices 1 2 3 4 5 6 
#
# 1 23.3361 27.1265 -0.1604 -10.5908 30.0232 -0.9352
# 2 27.1265 77.3117 11.9573 -0.8795 16.3528 8.1316
# 3 -0.1604 11.9573 126.6975 -27.9677 18.9700 -0.9917
# 4 -10.5908 -0.8795 -27.9677 25.2099 -6.7200 11.9381
# 5 30.0232 16.3528 18.9700 -6.7200 34.9007 4.5178
# 6 -0.9352 8.1316 -0.9917 11.9381 4.5178 34.8723
#
#
#
# Elastic Compliance Matrix: (Units=1/GPa)
#
#
# Indices 1 2 3 4 5 6 
#
# 1 -0.085998 0.018560 -0.020821 -0.038608 0.069557 -0.003021
# 2 0.018560 0.010606 0.003882 0.007579 -0.021367 -0.001691
# 3 -0.020821 0.003882 0.006307 0.004312 0.014089 -0.004585
# 4 -0.038608 0.007579 0.004312 0.051379 0.040514 -0.025517
# 5 0.069557 -0.021367 0.014089 0.040514 -0.020516 -0.003963
# 6 -0.003021 -0.001691 -0.004585 -0.025517 -0.003963 0.038108
#
#
# Mechanical properties :
#
#
# Convention : Reuss Voigt Hill
#
# Bulk Modulus (GPa) = -15.18736 33.91023 9.36143
# Shear Modulus (GPa) = -197.59566 31.55804 -83.01881
#
# Velocity S-wave (km/s) = -9.48889 3.79212 -6.15056
# Velocity P-wave (km/s) = 11.26820 5.88434 6.79511
#
# Compressibility (1/GPa) = -0.06584421
#
# Stress axis : x y z
#
# Youngs Moduli (GPa) = -11.62819 94.28895 158.56447
#
# Poissons Ratio (x) = -1.75004 3.30151
# Poissons Ratio (y) = 0.21582 -0.61547
# Poissons Ratio (z) = -0.24211 -0.36598
#
# Static dielectric constant tensor:
#      x y z
#    x 1.763990 -0.011720 0.000430 
#    y -0.011720 -0.242680 -0.270090 
#    z 0.000430 -0.270090 1.969630 
# 
# From -- ./inp_files/617077.got.cif
#   From: 2010.05.17/outbox.ucp.g08.bks.cvg/sg2_309_cif.got.tgz:617077.got - 2010.06.11 11:32:03.
