data_PCOD9074970
_publ_section_title
;
Structure prediction by ZEFSAII (Michael W. Deem and Ramdas Pophale) SiO2 
 PCOD9074970
Probable space group: P -1
;
_chemical_formula_sum "Si O2"
_cell_formula_units_Z 16
_cell_length_a 12.000000
_cell_length_b 18.000000
_cell_length_c 21.000000
_cell_angle_alpha 150.000000
_cell_angle_beta 20.000000
_cell_angle_gamma 150.000000
_cell_volume 738.640068
_symmetry_space_group_name_H-M "P -1"
_symmetry_group_IT_number 2
_symmetry_cell_setting 'triclinic'
loop_
_space_group_symop_operation_xyz
x,y,z
-x,-y,-z
loop_
_atom_site_type_symbol
_atom_site_label
_atom_site_fract_x
_atom_site_fract_y
_atom_site_fract_z
Si Si1 0.561512 0.000550 0.123014
Si Si2 0.516728 0.231991 0.418270
Si Si3 0.309239 0.410356 0.432154
Si Si4 0.133815 0.750164 0.960222
Si Si5 0.090563 0.233005 0.765259
Si Si6 0.325278 0.447289 0.306357
Si Si7 0.765230 0.436526 0.848972
Si Si8 0.259724 0.231036 0.060819
O O1 0.396480 0.110063 0.335131
O O2 0.796869 0.111984 0.026340
O O3 0.277782 0.856354 0.134541
O O4 0.770875 0.934338 0.013485
O O5 0.484912 0.401571 0.540731
O O6 0.335095 0.176899 0.542859
O O7 0.918194 0.254188 0.231213
O O8 0.510953 0.287236 0.246297
O O9 0.215471 0.377405 0.383574
O O10 0.026880 0.401552 0.631585
O O11 0.924587 0.582594 0.918870
O O12 0.972974 0.791893 0.143063
O O13 0.308491 0.417817 0.783343
O O14 0.358632 0.342235 0.151734
O O15 0.000000 0.500000 0.500000
O O16 0.500000 0.500000 0.000000
O O17 0.561670 0.287004 0.888769
#
# Coordination Sequence:
#
# PCOD9074970 Si02
#       8
#     2   2   2   2   2   2   2   2
#     4  12  27  45  65 100 148 183 223 279 349 417
#     4  11  24  45  69 103 137 181 230 287 343 405
#     4  11  24  41  72 101 139 173 233 285 341 392
#     4  12  26  46  67 101 144 179 228 287 338 408
#     4  11  25  43  72  98 136 183 230 279 344 408
#     4  11  21  43  73 103 134 173 234 292 337 399
#     4  12  23  42  71 105 130 179 231 283 339 401
#     4  12  24  44  74 103 137 179 231 287 344 405
#
# _framework density 21.661429999999999
#
# number of rings (size 3 to 8) (size 9 to 14) (size 15 to 20)
#    0.000    0.500    6.250    2.250    3.500    3.500 
#    0.000    0.625    0.000    0.000    0.000    0.000 
#    0.000    0.000    0.000    0.000    0.000    0.000 
#
# Total GULP energy -89260.591493 kJ/mol
# GULP energy per Si atom -5578.786968 kJ/mol
# Density = 2.161213 g / cm^3
# Si number density = 21.661430 Si / 1000 Ang^3
#
#
#
# Elastic Constant Matrix: (Units=GPa)
#
#
# Indices 1 2 3 4 5 6 
#
# 1 119.3672 34.5472 37.8501 -14.1448 32.8772 -18.7137
# 2 34.5472 70.3268 27.8617 -11.9153 2.4364 -20.7684
# 3 37.8501 27.8617 65.9598 -23.4331 37.9229 -28.9287
# 4 -14.1448 -11.9153 -23.4331 30.8793 -8.0088 5.8452
# 5 32.8772 2.4364 37.9229 -8.0088 52.5478 -1.2677
# 6 -18.7137 -20.7684 -28.9287 5.8452 -1.2677 51.9232
#
#
#
# Elastic Compliance Matrix: (Units=1/GPa)
#
#
# Indices 1 2 3 4 5 6 
#
# 1 0.012396 -0.005445 0.002818 0.002741 -0.009039 0.003331
# 2 -0.005445 0.021454 -0.013358 -0.001201 0.011859 -0.000399
# 3 0.002818 -0.013358 0.070355 0.031798 -0.046344 0.030159
# 4 0.002741 -0.001201 0.031798 0.050712 -0.016586 0.012109
# 5 -0.009039 0.011859 -0.046344 -0.016586 0.054544 -0.021136
# 6 0.003331 -0.000399 0.030159 0.012109 -0.021136 0.035224
#
#
# Mechanical properties :
#
#
# Convention : Reuss Voigt Hill
#
# Bulk Modulus (GPa) = 13.84354 50.68576 32.26465
# Shear Modulus (GPa) = 16.62602 37.42971 27.02787
#
# Velocity S-wave (km/s) = 2.77346 4.16136 3.53617
# Velocity P-wave (km/s) = 4.08177 6.82196 5.62139
#
# Compressibility (1/GPa) = 0.07223587
#
# Stress axis : x y z
#
# Youngs Moduli (GPa) = 80.66856 46.61148 14.21366
#
# Poissons Ratio (x) = 0.25379 -0.04005
# Poissons Ratio (y) = 0.43922 0.18986
# Poissons Ratio (z) = -0.22731 0.62262
#
# Static dielectric constant tensor:
#      x y z
#    x 1.886650 0.090220 -0.039760 
#    y 0.090220 1.878800 -0.002480 
#    z -0.039760 -0.002480 1.803520 
# 
# From -- ./inp_files/596003.got.cif
#   From: 2010.05.17/outbox.ucp.g08.bks.cvg/sg2_299_cif.got.tgz:596003.got - 2010.06.11 11:32:03.
