data_PCOD9074923
_publ_section_title
;
Structure prediction by ZEFSAII (Michael W. Deem and Ramdas Pophale) SiO2 
 PCOD9074923
Probable space group: P -1
;
_chemical_formula_sum "Si O2"
_cell_formula_units_Z 16
_cell_length_a 9.000000
_cell_length_b 15.000000
_cell_length_c 27.000000
_cell_angle_alpha 20.000000
_cell_angle_beta 40.000000
_cell_angle_gamma 50.000000
_cell_volume 750.501489
_symmetry_space_group_name_H-M "P -1"
_symmetry_group_IT_number 2
_symmetry_cell_setting 'triclinic'
loop_
_space_group_symop_operation_xyz
x,y,z
-x,-y,-z
loop_
_atom_site_type_symbol
_atom_site_label
_atom_site_fract_x
_atom_site_fract_y
_atom_site_fract_z
Si Si1 0.442167 0.568992 0.061697
Si Si2 0.461312 0.747362 0.439302
Si Si3 0.419443 0.705664 0.581566
Si Si4 0.952125 0.190351 0.955757
Si Si5 0.604551 0.336211 0.793415
Si Si6 0.792363 0.853906 0.744067
Si Si7 0.100424 0.285271 0.716344
Si Si8 0.342616 0.220775 0.371754
O O1 0.320281 0.799063 0.985764
O O2 0.289091 0.393894 0.145692
O O3 0.380974 0.359633 0.234055
O O4 0.717253 0.719690 0.888557
O O5 0.513630 0.828911 0.439777
O O6 0.225243 0.470270 0.635359
O O7 0.687831 0.678860 0.395625
O O8 0.393491 0.978305 0.305859
O O9 0.540368 0.485969 0.684321
O O10 0.137170 0.506935 0.747474
O O11 0.445937 0.966181 0.474144
O O12 0.989533 0.034393 0.077175
O O13 0.000000 0.000000 0.000000
O O14 0.538337 0.509621 0.764449
O O15 0.893644 0.392090 0.693486
O O16 0.500000 0.000000 0.000000
O O17 0.065269 0.059888 0.549487
#
# Coordination Sequence:
#
# PCOD9074923 Si02
#       8
#     2   2   2   2   2   2   2   2
#     4  11  23  37  69 105 135 172 222 283 349 398
#     4  11  22  41  68  99 133 168 223 284 344 397
#     4  12  25  42  69  96 133 185 222 273 343 400
#     4  12  21  36  64 100 133 169 222 281 335 397
#     4  12  27  46  67  96 135 186 232 275 341 413
#     4  11  21  39  68 104 135 169 220 286 341 402
#     4  11  23  41  65  97 136 170 219 284 335 402
#     4  12  24  45  68  96 141 179 229 283 337 408
#
# _framework density 21.319078000000001
#
# number of rings (size 3 to 8) (size 9 to 14) (size 15 to 20)
#    0.000    0.500    7.500    2.250    0.000    0.500 
#    0.000    1.250    0.000    2.250    0.000    0.000 
#    0.000    0.000    0.000    0.000    0.000    0.000 
#
# Total GULP energy -89170.485008 kJ/mol
# GULP energy per Si atom -5573.155313 kJ/mol
# Density = 2.127056 g / cm^3
# Si number density = 21.319078 Si / 1000 Ang^3
#
#
#
# Elastic Constant Matrix: (Units=GPa)
#
#
# Indices 1 2 3 4 5 6 
#
# 1 43.2247 21.6686 17.9746 7.6397 11.0763 -3.7286
# 2 21.6686 89.4873 34.4219 -21.2141 -5.6366 -5.7402
# 3 17.9746 34.4219 100.2513 -3.8918 18.5098 6.9576
# 4 7.6397 -21.2141 -3.8918 41.6490 5.7582 2.4984
# 5 11.0763 -5.6366 18.5098 5.7582 22.3791 -12.9738
# 6 -3.7286 -5.7402 6.9576 2.4984 -12.9738 30.3942
#
#
#
# Elastic Compliance Matrix: (Units=1/GPa)
#
#
# Indices 1 2 3 4 5 6 
#
# 1 0.037914 -0.016226 0.005130 -0.009602 -0.031796 -0.012370
# 2 -0.016226 0.025974 -0.013623 0.008812 0.035415 0.020426
# 3 0.005130 -0.013623 0.022532 0.000975 -0.038563 -0.023642
# 4 -0.009602 0.008812 0.000975 0.031184 -0.004241 -0.004111
# 5 -0.031796 0.035415 -0.038563 -0.004241 0.145193 0.073940
# 6 -0.012370 0.020426 -0.023642 -0.004111 0.073940 0.072552
#
#
# Mechanical properties :
#
#
# Convention : Reuss Voigt Hill
#
# Bulk Modulus (GPa) = 27.04188 42.34372 34.69280
# Shear Modulus (GPa) = 12.59083 29.47768 21.03426
#
# Velocity S-wave (km/s) = 2.43284 3.72249 3.14449
# Velocity P-wave (km/s) = 4.53911 6.19523 5.43067
#
# Compressibility (1/GPa) = 0.03697968
#
# Stress axis : x y z
#
# Youngs Moduli (GPa) = 26.37577 38.49989 44.38226
#
# Poissons Ratio (x) = 0.62471 -0.22768
# Poissons Ratio (y) = 0.42798 0.60464
# Poissons Ratio (z) = -0.13531 0.52450
#
# Static dielectric constant tensor:
#      x y z
#    x 1.809100 0.021810 -0.006410 
#    y 0.021810 1.811830 0.041850 
#    z -0.006410 0.041850 1.924260 
# 
# From -- ./inp_files/403120.got.cif
#   From: 2010.05.17/outbox.ucp.g08.bks.cvg/sg2_202_cif.got.tgz:403120.got - 2010.06.11 11:32:03.
