data_PCOD9074111
_publ_section_title
;
Structure prediction by ZEFSAII (Michael W. Deem and Ramdas Pophale) SiO2 
 PCOD9074111
Probable space group: P -1
;
_chemical_formula_sum "Si O2"
_cell_formula_units_Z 14
_cell_length_a 12.000000
_cell_length_b 6.000000
_cell_length_c 12.000000
_cell_angle_alpha 70.000000
_cell_angle_beta 130.000000
_cell_angle_gamma 100.000000
_cell_volume 620.665057
_symmetry_space_group_name_H-M "P -1"
_symmetry_group_IT_number 2
_symmetry_cell_setting 'triclinic'
loop_
_space_group_symop_operation_xyz
x,y,z
-x,-y,-z
loop_
_atom_site_type_symbol
_atom_site_label
_atom_site_fract_x
_atom_site_fract_y
_atom_site_fract_z
Si Si1 0.319368 0.776727 0.388443
Si Si2 0.968820 0.483428 0.788030
Si Si3 0.849539 0.740987 0.875207
Si Si4 0.139553 0.505114 0.674584
Si Si5 0.621373 0.333905 0.797064
Si Si6 0.615706 0.885291 0.003399
Si Si7 0.411191 0.686351 0.708204
O O1 0.410751 0.697319 0.349707
O O2 0.393875 0.808387 0.552221
O O3 0.186815 0.598541 0.341964
O O4 0.242223 0.021169 0.253546
O O5 0.063769 0.569716 0.732784
O O6 0.943995 0.675050 0.837366
O O7 0.054399 0.269228 0.949143
O O8 0.736947 0.533489 0.848511
O O9 0.252241 0.678957 0.662325
O O10 0.000000 0.500000 0.500000
O O11 0.255099 0.279911 0.824736
O O12 0.476793 0.428949 0.753077
O O13 0.680803 0.098241 0.938866
O O14 0.520849 0.763774 0.863910
O O15 0.500000 0.000000 0.000000
#
# Coordination Sequence:
#
# PCOD9074111 Si02
#       7
#     2   2   2   2   2   2   2
#     4  11  23  43  70 108 140 187 240 295 357 422
#     4  10  22  42  67 101 146 187 234 291 364 423
#     4  10  23  42  71 101 144 185 237 300 353 419
#     4  12  25  48  74 105 146 187 235 300 356 428
#     4  11  24  45  74 104 139 189 241 294 350 425
#     4  12  28  48  76 103 143 192 244 287 362 428
#     4  12  26  46  72 106 147 189 237 297 357 424
#
# _framework density 22.556449000000001
#
# number of rings (size 3 to 8) (size 9 to 14) (size 15 to 20)
#    0.000    0.857    2.857    3.857    2.000    8.000 
#    0.000    1.429    0.000    0.000    0.000    0.000 
#    0.000    0.000    0.000    0.000    0.000    0.000 
#
# Total GULP energy -78192.234657 kJ/mol
# GULP energy per Si atom -5585.159618 kJ/mol
# Density = 2.250511 g / cm^3
# Si number density = 22.556449 Si / 1000 Ang^3
#
#
#
# Elastic Constant Matrix: (Units=GPa)
#
#
# Indices 1 2 3 4 5 6 
#
# 1 152.9126 26.3471 20.6726 15.9704 -25.5077 -16.7902
# 2 26.3471 46.2721 24.9706 6.4217 -5.2725 -4.6672
# 3 20.6726 24.9706 169.6473 13.2835 -12.2108 -14.5379
# 4 15.9704 6.4217 13.2835 34.4067 -0.1156 -0.8178
# 5 -25.5077 -5.2725 -12.2108 -0.1156 48.1998 6.4414
# 6 -16.7902 -4.6672 -14.5379 -0.8178 6.4414 30.4337
#
#
#
# Elastic Compliance Matrix: (Units=1/GPa)
#
#
# Indices 1 2 3 4 5 6 
#
# 1 0.008477 -0.003793 0.000337 -0.003264 0.003696 0.003386
# 2 -0.003793 0.025757 -0.003163 -0.001818 -0.000036 0.000305
# 3 0.000337 -0.003163 0.006798 -0.002124 0.001197 0.002638
# 4 -0.003264 -0.001818 -0.002124 0.031689 -0.002149 -0.001788
# 5 0.003696 -0.000036 0.001197 -0.002149 0.023316 -0.002387
# 6 0.003386 0.000305 0.002638 -0.001788 -0.002387 0.036490
#
#
# Mechanical properties :
#
#
# Convention : Reuss Voigt Hill
#
# Bulk Modulus (GPa) = 35.97957 56.97920 46.47938
# Shear Modulus (GPa) = 32.25203 42.39750 37.32476
#
# Velocity S-wave (km/s) = 3.78542 4.34016 4.07225
# Velocity P-wave (km/s) = 5.92380 7.10152 6.53922
#
# Compressibility (1/GPa) = 0.02779355
#
# Stress axis : x y z
#
# Youngs Moduli (GPa) = 117.96755 38.82450 147.11174
#
# Poissons Ratio (x) = 0.14726 -0.04959
# Poissons Ratio (y) = 0.44745 0.46533
# Poissons Ratio (z) = -0.03977 0.12280
#
# Static dielectric constant tensor:
#      x y z
#    x 1.874750 -0.012060 0.033380 
#    y -0.012060 1.887840 -0.028890 
#    z 0.033380 -0.028890 1.846340 
# 
# From -- ./inp_files/363628.got.cif
#   From: 2010.05.17/outbox.ucp.g08.bks.cvg/sg2_182_cif.got.tgz:363628.got - 2010.06.11 11:32:03.
