data_PCOD9074045
_publ_section_title
;
Structure prediction by ZEFSAII (Michael W. Deem and Ramdas Pophale) SiO2 
 PCOD9074045
Probable space group: P -1
;
_chemical_formula_sum "Si O2"
_cell_formula_units_Z 16
_cell_length_a 9.000000
_cell_length_b 24.000000
_cell_length_c 21.000000
_cell_angle_alpha 170.000000
_cell_angle_beta 110.000000
_cell_angle_gamma 70.000000
_cell_volume 739.790576
_symmetry_space_group_name_H-M "P -1"
_symmetry_group_IT_number 2
_symmetry_cell_setting 'triclinic'
loop_
_space_group_symop_operation_xyz
x,y,z
-x,-y,-z
loop_
_atom_site_type_symbol
_atom_site_label
_atom_site_fract_x
_atom_site_fract_y
_atom_site_fract_z
Si Si1 0.825975 0.883883 0.583087
Si Si2 0.630819 0.781248 0.081159
Si Si3 0.031194 0.364059 0.084705
Si Si4 0.246236 0.018359 0.068410
Si Si5 0.547742 0.081794 0.268956
Si Si6 0.477929 0.127172 0.566443
Si Si7 0.880121 0.261255 0.143087
Si Si8 0.812638 0.065527 0.180760
O O1 0.685857 0.909843 0.540057
O O2 0.884370 0.525212 0.206020
O O3 0.801287 0.057937 0.844707
O O4 0.974016 0.055428 0.765809
O O5 0.583231 0.920192 0.160503
O O6 0.598374 0.981018 0.365732
O O7 0.817859 0.703343 0.013464
O O8 0.533386 0.457130 0.706690
O O9 0.084211 0.627550 0.440751
O O10 0.401755 0.960896 0.070312
O O11 0.204048 0.394971 0.483602
O O12 0.122954 0.872640 0.935655
O O13 0.253887 0.911254 0.875029
O O14 0.686224 0.050762 0.201971
O O15 0.500000 0.000000 0.500000
O O16 0.500000 0.500000 0.000000
O O17 0.067970 0.238290 0.133852
#
# Coordination Sequence:
#
# PCOD9074045 Si02
#       8
#     2   2   2   2   2   2   2   2
#     4  11  22  43  65  91 122 161 208 244 298 375
#     4  11  23  44  65  91 123 161 207 244 299 375
#     4  10  22  41  66  88 119 168 208 249 293 355
#     4  12  23  37  56  89 125 164 210 262 306 347
#     4  11  23  40  63  87 122 170 207 250 302 358
#     4  12  26  44  68  99 128 154 188 249 312 366
#     4  11  23  38  60  85 120 167 206 252 306 358
#     4  10  23  39  59  90 124 161 213 262 301 342
#
# _framework density 21.627742000000001
#
# number of rings (size 3 to 8) (size 9 to 14) (size 15 to 20)
#    0.000    1.000    0.000    8.625    0.000    5.000 
#    0.000    8.125    0.000    0.000    0.000    0.000 
#    0.000    0.000    0.000    0.000    0.000    0.000 
#
# Total GULP energy -89348.916701 kJ/mol
# GULP energy per Si atom -5584.307294 kJ/mol
# Density = 2.157852 g / cm^3
# Si number density = 21.627742 Si / 1000 Ang^3
#
#
#
# Elastic Constant Matrix: (Units=GPa)
#
#
# Indices 1 2 3 4 5 6 
#
# 1 57.0925 30.0312 24.7779 -16.1482 -16.8429 6.5297
# 2 30.0312 196.8282 45.5068 -9.9560 -18.4670 14.0248
# 3 24.7779 45.5068 71.1550 -8.1321 -8.9806 8.1507
# 4 -16.1482 -9.9560 -8.1321 49.3998 8.8502 1.5382
# 5 -16.8429 -18.4670 -8.9806 8.8502 24.5098 -5.6146
# 6 6.5297 14.0248 8.1507 1.5382 -5.6146 31.2248
#
#
#
# Elastic Compliance Matrix: (Units=1/GPa)
#
#
# Indices 1 2 3 4 5 6 
#
# 1 0.026038 -0.001019 -0.006071 0.005063 0.012762 -0.001357
# 2 -0.001019 0.006313 -0.003207 -0.000010 0.002583 -0.001321
# 3 -0.006071 -0.003207 0.018473 0.000577 -0.000540 -0.002238
# 4 0.005063 -0.000010 0.000577 0.023062 -0.005403 -0.003312
# 5 0.012762 0.002583 -0.000540 -0.005403 0.054740 0.006421
# 6 -0.001357 -0.001321 -0.002238 -0.003312 0.006421 0.034805
#
#
# Mechanical properties :
#
#
# Convention : Reuss Voigt Hill
#
# Bulk Modulus (GPa) = 33.07815 58.41195 45.74505
# Shear Modulus (GPa) = 25.75978 36.01087 30.88532
#
# Velocity S-wave (km/s) = 3.45491 4.08491 3.78304
# Velocity P-wave (km/s) = 5.58952 7.02247 6.34657
#
# Compressibility (1/GPa) = 0.03023144
#
# Stress axis : x y z
#
# Youngs Moduli (GPa) = 38.40505 158.39428 54.13407
#
# Poissons Ratio (x) = 0.16142 0.32863
# Poissons Ratio (y) = 0.03914 0.17359
# Poissons Ratio (z) = 0.23314 0.50793
#
# Static dielectric constant tensor:
#      x y z
#    x 1.896040 -0.026640 0.019510 
#    y -0.026640 1.770760 0.033370 
#    z 0.019510 0.033370 1.823510 
# 
# From -- ./inp_files/288470.got.cif
#   From: 2010.05.17/outbox.ucp.g08.bks.cvg/sg2_145_cif.got.tgz:288470.got - 2010.06.11 11:32:03.
