data_PCOD9074843
_publ_section_title
;
Structure prediction by ZEFSAII (Michael W. Deem and Ramdas Pophale) SiO2 
 PCOD9074843
Probable space group: P -1
;
_chemical_formula_sum "Si O2"
_cell_formula_units_Z 16
_cell_length_a 12.000000
_cell_length_b 27.000000
_cell_length_c 9.000000
_cell_angle_alpha 150.000000
_cell_angle_beta 140.000000
_cell_angle_gamma 30.000000
_cell_volume 727.497153
_symmetry_space_group_name_H-M "P -1"
_symmetry_group_IT_number 2
_symmetry_cell_setting 'triclinic'
loop_
_space_group_symop_operation_xyz
x,y,z
-x,-y,-z
loop_
_atom_site_type_symbol
_atom_site_label
_atom_site_fract_x
_atom_site_fract_y
_atom_site_fract_z
Si Si1 0.963063 0.393944 0.839111
Si Si2 0.142170 0.148441 0.837653
Si Si3 0.067670 0.165332 0.149314
Si Si4 0.545698 0.477197 0.768351
Si Si5 0.442804 0.880528 0.838313
Si Si6 0.660507 0.613837 0.869813
Si Si7 0.647379 0.302963 0.669874
Si Si8 0.691018 0.129996 0.661038
O O1 0.804906 0.409742 0.846000
O O2 0.804359 0.524779 0.924109
O O3 0.014854 0.280473 0.492394
O O4 0.175022 0.385558 0.070458
O O5 0.905369 0.234785 0.743371
O O6 0.225093 0.005211 0.543104
O O7 0.120248 0.179217 0.071286
O O8 0.314888 0.165603 0.999053
O O9 0.885189 0.142974 0.886510
O O10 0.276820 0.031812 0.085343
O O11 0.458768 0.442670 0.454953
O O12 0.504693 0.415970 0.701297
O O13 0.421843 0.625066 0.055018
O O14 0.386466 0.800218 0.654946
O O15 0.405721 0.862023 0.579511
O O16 0.488980 0.756603 0.122344
#
# Coordination Sequence:
#
# PCOD9074843 Si02
#       8
#     2   2   2   2   2   2   2   2
#     4  11  23  39  62  91 119 151 190 238 297 348
#     4  11  21  37  61  90 121 152 192 241 289 341
#     4  11  19  36  63  91 121 150 190 243 294 342
#     4  11  25  41  61  82 120 154 196 243 282 345
#     4  11  21  37  61  90 121 152 192 241 289 341
#     4  11  23  39  62  91 119 151 190 238 297 348
#     4  11  24  42  59  85 112 160 202 233 287 344
#     4  11  19  36  63  91 121 150 190 243 294 342
#
# _framework density 21.993213000000001
#
# number of rings (size 3 to 8) (size 9 to 14) (size 15 to 20)
#    0.000    1.000    3.750    5.625    0.000    4.000 
#    0.000    5.000    0.000    3.000    0.000    0.000 
#    0.000    0.000    0.000    0.000    0.000    0.000 
#
# Total GULP energy -89297.200157 kJ/mol
# GULP energy per Si atom -5581.075010 kJ/mol
# Density = 2.194316 g / cm^3
# Si number density = 21.993213 Si / 1000 Ang^3
#
#
#
# Elastic Constant Matrix: (Units=GPa)
#
#
# Indices 1 2 3 4 5 6 
#
# 1 52.1578 32.0580 2.1303 -23.2294 26.2914 -24.2319
# 2 32.0580 53.7281 32.8160 17.9267 9.8729 -15.1198
# 3 2.1303 32.8160 22.6488 -33.5991 15.7636 -20.6048
# 4 -23.2294 17.9267 -33.5991 -31.5869 -13.3133 2.5282
# 5 26.2914 9.8729 15.7636 -13.3133 25.3286 -7.1990
# 6 -24.2319 -15.1198 -20.6048 2.5282 -7.1990 29.9947
#
#
#
# Elastic Compliance Matrix: (Units=1/GPa)
#
#
# Indices 1 2 3 4 5 6 
#
# 1 0.871397 -0.184669 0.743142 -0.837775 -1.498846 0.832269
# 2 -0.184669 0.056764 -0.161138 0.190296 0.321515 -0.170142
# 3 0.743142 -0.161138 0.681956 -0.749073 -1.317997 0.734414
# 4 -0.837775 0.190296 -0.749073 0.810335 1.456133 -0.814283
# 5 -1.498846 0.321515 -1.317997 1.456133 2.645799 -1.441924
# 6 0.832269 -0.170142 0.734414 -0.814283 -1.441924 0.847006
#
#
# Mechanical properties :
#
#
# Convention : Reuss Voigt Hill
#
# Bulk Modulus (GPa) = 0.41584 29.17147 14.79365
# Shear Modulus (GPa) = 0.84457 8.84932 4.84694
#
# Velocity S-wave (km/s) = 0.62036 2.00808 1.48614
# Velocity P-wave (km/s) = 0.83822 4.32078 3.11222
#
# Compressibility (1/GPa) = 2.40478666
#
# Stress axis : x y z
#
# Youngs Moduli (GPa) = 1.14758 17.61670 1.46637
#
# Poissons Ratio (x) = 3.25326 -1.08972
# Poissons Ratio (y) = 0.21192 0.23629
# Poissons Ratio (z) = -0.85282 2.83872
#
# Static dielectric constant tensor:
#      x y z
#    x 1.915940 -0.040930 -0.004430 
#    y -0.040930 1.820590 -0.029120 
#    z -0.004430 -0.029120 1.802460 
# 
# From -- ./inp_files/285888.got.cif
#   From: 2010.05.17/outbox.ucp.g08.bks.cvg/sg2_143_cif.got.tgz:285888.got - 2010.06.11 11:32:03.
