data_PCOD9074828
_publ_section_title
;
Structure prediction by ZEFSAII (Michael W. Deem and Ramdas Pophale) SiO2 
 PCOD9074828
Probable space group: P -1
;
_chemical_formula_sum "Si O2"
_cell_formula_units_Z 15
_cell_length_a 18.000000
_cell_length_b 9.000000
_cell_length_c 6.000000
_cell_angle_alpha 120.000000
_cell_angle_beta 60.000000
_cell_angle_gamma 130.000000
_cell_volume 621.029576
_symmetry_space_group_name_H-M "P -1"
_symmetry_group_IT_number 2
_symmetry_cell_setting 'triclinic'
loop_
_space_group_symop_operation_xyz
x,y,z
-x,-y,-z
loop_
_atom_site_type_symbol
_atom_site_label
_atom_site_fract_x
_atom_site_fract_y
_atom_site_fract_z
Si Si1 0.705269 0.385326 0.619652
Si Si2 0.820142 0.834425 0.261327
Si Si3 0.146708 0.522193 0.168794
Si Si4 0.000000 0.500000 0.000000
Si Si5 0.515582 0.261122 0.114074
Si Si6 0.319399 0.909284 0.949737
Si Si7 0.152809 0.984241 0.148842
Si Si8 0.617188 0.556870 0.558051
O O1 0.817033 0.469855 0.620562
O O2 0.677891 0.203190 0.358989
O O3 0.689627 0.542359 0.618343
O O4 0.617517 0.316346 0.879300
O O5 0.698233 0.724277 0.389222
O O6 0.865661 0.952492 0.521747
O O7 0.843671 0.657008 0.084474
O O8 0.850156 0.931752 0.036087
O O9 0.047921 0.497410 0.182718
O O10 0.238023 0.736060 0.103921
O O11 0.925420 0.254953 0.933118
O O12 0.551529 0.340576 0.370610
O O13 0.464558 0.388229 0.208266
O O14 0.424768 0.040279 0.016962
O O15 0.266262 0.029598 0.043256
#
# Coordination Sequence:
#
# PCOD9074828 Si02
#       8
#     2   2   2   1   2   2   2   2
#     4  12  23  42  68 106 148 211 246 322 368 449
#     4  12  24  50  79 111 151 206 253 303 389 450
#     4  11  26  48  77 102 158 192 253 321 380 459
#     4  10  28  58  74 124 142 192 248 320 404 454
#     4  11  24  41  68 104 155 206 262 303 374 440
#     4  11  25  42  67 110 153 206 250 313 378 440
#     4  11  28  49  83 111 153 199 249 322 379 467
#     4  11  24  42  68 107 155 201 261 309 366 454
#
# _framework density 24.153438999999999
#
# number of rings (size 3 to 8) (size 9 to 14) (size 15 to 20)
#    0.000    0.800    4.000    1.600    3.733    6.933 
#    2.400    0.000    0.000    0.000    0.000    0.000 
#    0.000    0.000    0.000    0.000    0.000    0.000 
#
# Total GULP energy -83509.010495 kJ/mol
# GULP energy per Si atom -5567.267366 kJ/mol
# Density = 2.409846 g / cm^3
# Si number density = 24.153439 Si / 1000 Ang^3
#
#
#
# Elastic Constant Matrix: (Units=GPa)
#
#
# Indices 1 2 3 4 5 6 
#
# 1 142.6602 26.4778 8.0784 9.1747 52.9610 -1.1467
# 2 26.4778 84.2727 0.1013 16.1551 22.9411 9.1767
# 3 8.0784 0.1013 51.0572 22.5680 28.8645 -6.9450
# 4 9.1747 16.1551 22.5680 31.7192 -0.6469 18.5630
# 5 52.9610 22.9411 28.8645 -0.6469 42.4787 14.4044
# 6 -1.1467 9.1767 -6.9450 18.5630 14.4044 52.1683
#
#
#
# Elastic Compliance Matrix: (Units=1/GPa)
#
#
# Indices 1 2 3 4 5 6 
#
# 1 0.005339 -0.005187 -0.011254 0.013306 0.006354 -0.006958
# 2 -0.005187 0.010848 -0.007723 0.006067 0.008511 -0.007559
# 3 -0.011254 -0.007723 -0.009455 0.024797 0.030944 -0.017515
# 4 0.013306 0.006067 0.024797 -0.002718 -0.041861 0.015052
# 5 0.006354 0.008511 0.030944 -0.041861 -0.018346 0.022723
# 6 -0.006958 -0.007559 -0.017515 0.015052 0.022723 0.006384
#
#
# Mechanical properties :
#
#
# Convention : Reuss Voigt Hill
#
# Bulk Modulus (GPa) = -24.04134 38.58946 7.27406
# Shear Modulus (GPa) = 188.57433 41.49542 115.03487
#
# Velocity S-wave (km/s) = 8.84551 4.14936 6.90870
# Velocity P-wave (km/s) = 9.71333 6.24242 8.16445
#
# Compressibility (1/GPa) = -0.04159502
#
# Stress axis : x y z
#
# Youngs Moduli (GPa) = 187.29431 92.18049 -105.76525
#
# Poissons Ratio (x) = 0.47812 -1.19032
# Poissons Ratio (y) = 0.97146 -0.81678
# Poissons Ratio (z) = 2.10788 0.71187
#
# Static dielectric constant tensor:
#      x y z
#    x 1.903530 -0.079390 -0.018150 
#    y -0.079390 1.984170 -0.001910 
#    z -0.018150 -0.001910 1.961310 
# 
# From -- ./inp_files/107524.got.cif
#   From: 2010.05.17/outbox.ucp.g08.bks.cvg/sg2_54_cif.got.tgz:107524.got - 2010.06.11 11:32:03.
