data_PCOD9074827
_publ_section_title
;
Structure prediction by ZEFSAII (Michael W. Deem and Ramdas Pophale) SiO2 
 PCOD9074827
Probable space group: P -1
;
_chemical_formula_sum "Si O2"
_cell_formula_units_Z 16
_cell_length_a 9.000000
_cell_length_b 12.000000
_cell_length_c 9.000000
_cell_angle_alpha 60.000000
_cell_angle_beta 60.000000
_cell_angle_gamma 80.000000
_cell_volume 725.212580
_symmetry_space_group_name_H-M "P -1"
_symmetry_group_IT_number 2
_symmetry_cell_setting 'triclinic'
loop_
_space_group_symop_operation_xyz
x,y,z
-x,-y,-z
loop_
_atom_site_type_symbol
_atom_site_label
_atom_site_fract_x
_atom_site_fract_y
_atom_site_fract_z
Si Si1 0.173925 0.292896 0.558232
Si Si2 0.037075 0.852543 0.718517
Si Si3 0.204298 0.689195 0.370874
Si Si4 0.749780 0.880581 0.631545
Si Si5 0.520561 0.495637 0.670652
Si Si6 0.850318 0.906840 0.065801
Si Si7 0.584551 0.078867 0.042110
Si Si8 0.164759 0.596987 0.802028
O O1 0.233925 0.180277 0.498056
O O2 0.334950 0.398278 0.411042
O O3 0.153071 0.235368 0.771779
O O4 0.991590 0.342119 0.569816
O O5 0.137242 0.733869 0.802045
O O6 0.897907 0.809949 0.689478
O O7 0.173453 0.968691 0.516311
O O8 0.907484 0.901870 0.871036
O O9 0.379082 0.629532 0.268378
O O10 0.260146 0.830430 0.177206
O O11 0.187126 0.645472 0.583666
O O12 0.564619 0.868375 0.815816
O O13 0.500000 0.500000 0.500000
O O14 0.334415 0.525943 0.803113
O O15 0.677791 0.969037 0.152646
O O16 0.000000 0.000000 0.000000
O O17 0.500000 0.000000 0.000000
O O18 0.000000 0.500000 0.000000
#
# Coordination Sequence:
#
# PCOD9074827 Si02
#       8
#     2   2   2   2   2   2   2   2
#     4  12  25  48  73 104 147 183 239 299 351 427
#     4  11  23  44  70 100 146 182 235 281 362 418
#     4  11  24  48  71 101 143 189 238 286 359 415
#     4  11  24  42  74 105 137 189 230 292 350 428
#     4  10  27  46  70 100 135 188 240 289 349 419
#     4  12  25  43  68 110 143 182 232 288 360 424
#     4  12  25  41  74 107 145 188 232 287 355 433
#     4  11  26  45  74 102 140 186 244 293 347 418
#
# _framework density 22.062495999999999
#
# number of rings (size 3 to 8) (size 9 to 14) (size 15 to 20)
#    0.000    0.750    5.000    1.125   10.500    1.500 
#    0.000    1.250    0.000    0.000    0.000    0.000 
#    0.000    0.000    0.000    0.000    0.000    0.000 
#
# Total GULP energy -89111.566900 kJ/mol
# GULP energy per Si atom -5569.472931 kJ/mol
# Density = 2.201228 g / cm^3
# Si number density = 22.062496 Si / 1000 Ang^3
#
#
#
# Elastic Constant Matrix: (Units=GPa)
#
#
# Indices 1 2 3 4 5 6 
#
# 1 104.3393 25.5260 1.5222 13.4579 -10.4999 -26.0523
# 2 25.5260 60.7984 1.9731 10.5781 -4.1344 -33.8565
# 3 1.5222 1.9731 83.4227 14.2317 -7.0406 -5.3801
# 4 13.4579 10.5781 14.2317 17.2723 -14.9117 -6.1786
# 5 -10.4999 -4.1344 -7.0406 -14.9117 27.6936 5.4238
# 6 -26.0523 -33.8565 -5.3801 -6.1786 5.4238 35.9834
#
#
#
# Elastic Compliance Matrix: (Units=1/GPa)
#
#
# Indices 1 2 3 4 5 6 
#
# 1 0.012742 0.001708 0.002070 -0.011271 -0.002328 0.009557
# 2 0.001708 0.040724 0.005379 -0.031124 -0.015994 0.037424
# 3 0.002070 0.005379 0.015298 -0.021688 -0.007424 0.006242
# 4 -0.011271 -0.031124 -0.021688 0.161656 0.077429 -0.024601
# 5 -0.002328 -0.015994 -0.007424 0.077429 0.075771 -0.015970
# 6 0.009557 0.037424 0.006242 -0.024601 -0.015970 0.069039
#
#
# Mechanical properties :
#
#
# Convention : Reuss Voigt Hill
#
# Bulk Modulus (GPa) = 11.48398 34.06700 22.77549
# Shear Modulus (GPa) = 12.95530 30.82580 21.89055
#
# Velocity S-wave (km/s) = 2.42587 3.74197 3.15335
# Velocity P-wave (km/s) = 3.61427 5.84333 4.85837
#
# Compressibility (1/GPa) = 0.08707786
#
# Stress axis : x y z
#
# Youngs Moduli (GPa) = 78.48160 24.55550 65.36736
#
# Poissons Ratio (x) = -0.04194 -0.13529
# Poissons Ratio (y) = -0.13405 -0.35162
# Poissons Ratio (z) = -0.16244 -0.13209
#
# Static dielectric constant tensor:
#      x y z
#    x 1.922630 -0.011190 0.131970 
#    y -0.011190 2.159760 -0.009850 
#    z 0.131970 -0.009850 1.886360 
# 
# From -- ./inp_files/184858.got.cif
#   From: 2010.05.17/outbox.ucp.g08.bks.cvg/sg2_93_cif.got.tgz:184858.got - 2010.06.11 11:32:03.
