data_PCOD9074638
_publ_section_title
;
Structure prediction by ZEFSAII (Michael W. Deem and Ramdas Pophale) SiO2 
 PCOD9074638
Probable space group: P -1
;
_chemical_formula_sum "Si O2"
_cell_formula_units_Z 16
_cell_length_a 18.000000
_cell_length_b 12.000000
_cell_length_c 9.000000
_cell_angle_alpha 50.000000
_cell_angle_beta 80.000000
_cell_angle_gamma 40.000000
_cell_volume 729.599496
_symmetry_space_group_name_H-M "P -1"
_symmetry_group_IT_number 2
_symmetry_cell_setting 'triclinic'
loop_
_space_group_symop_operation_xyz
x,y,z
-x,-y,-z
loop_
_atom_site_type_symbol
_atom_site_label
_atom_site_fract_x
_atom_site_fract_y
_atom_site_fract_z
Si Si1 0.318880 0.299704 0.831759
Si Si2 0.046418 0.856517 0.270005
Si Si3 0.646725 0.057991 0.723688
Si Si4 0.759504 0.436794 0.047827
Si Si5 0.504773 0.346113 0.032992
Si Si6 0.360242 0.706194 0.233550
Si Si7 0.742842 0.765336 0.631005
Si Si8 0.973129 0.703582 0.272212
O O1 0.221048 0.549740 0.526536
O O2 0.262528 0.469844 0.857289
O O3 0.500000 0.000000 0.000000
O O4 0.300012 0.158301 0.996547
O O5 0.012835 0.743588 0.357688
O O6 0.930297 0.117739 0.206668
O O7 0.000000 0.000000 0.000000
O O8 0.465124 0.386625 0.476498
O O9 0.675524 0.163058 0.705786
O O10 0.722751 0.892589 0.680846
O O11 0.652849 0.474270 0.044388
O O12 0.700308 0.670299 0.767107
O O13 0.634531 0.020943 0.327919
O O14 0.500000 0.500000 0.000000
O O15 0.547281 0.330014 0.867212
O O16 0.196692 0.967390 0.993314
O O17 0.911419 0.475541 0.752803
O O18 0.000000 0.500000 0.500000
#
# Coordination Sequence:
#
# PCOD9074638 Si02
#       8
#     2   2   2   2   2   2   2   2
#     4  11  26  46  72 102 145 190 240 287 362 427
#     4  12  27  47  71 106 143 187 242 295 356 428
#     4  10  24  43  66  99 142 183 243 290 348 434
#     4  11  26  45  72 100 146 189 232 300 354 430
#     4  12  23  43  71 106 142 181 243 289 357 425
#     4  11  23  43  68 101 141 190 236 292 360 420
#     4  11  24  43  66 106 141 186 239 293 358 422
#     4  12  25  43  72 102 147 182 236 301 357 414
#
# _framework density 21.929839999999999
#
# number of rings (size 3 to 8) (size 9 to 14) (size 15 to 20)
#    0.000    0.750    3.750    3.000    3.500    1.500 
#    0.000    0.000    0.000    0.000    0.000    0.000 
#    0.000    0.000    0.000    0.000    0.000    0.000 
#
# Total GULP energy -89326.993517 kJ/mol
# GULP energy per Si atom -5582.937095 kJ/mol
# Density = 2.187993 g / cm^3
# Si number density = 21.929840 Si / 1000 Ang^3
#
#
#
# Elastic Constant Matrix: (Units=GPa)
#
#
# Indices 1 2 3 4 5 6 
#
# 1 68.2967 19.5464 23.6036 -6.8386 -12.5561 1.6757
# 2 19.5464 125.2350 27.8741 -26.1732 6.6256 8.4450
# 3 23.6036 27.8741 155.6142 -15.2238 -1.5794 -11.1876
# 4 -6.8386 -26.1732 -15.2238 36.7475 -1.1479 -4.1293
# 5 -12.5561 6.6256 -1.5794 -1.1479 29.4382 -10.9145
# 6 1.6757 8.4450 -11.1876 -4.1293 -10.9145 37.9402
#
#
#
# Elastic Compliance Matrix: (Units=1/GPa)
#
#
# Indices 1 2 3 4 5 6 
#
# 1 0.017756 -0.002728 -0.001870 0.001080 0.008846 0.001934
# 2 -0.002728 0.010347 -0.001137 0.005895 -0.004499 -0.003171
# 3 -0.001870 -0.001137 0.007367 0.002273 0.001079 0.003066
# 4 0.001080 0.005895 0.002273 0.032995 0.001812 0.003423
# 5 0.008846 -0.004499 0.001079 0.001812 0.043993 0.013782
# 6 0.001934 -0.003171 0.003066 0.003423 0.013782 0.032219
#
#
# Mechanical properties :
#
#
# Convention : Reuss Voigt Hill
#
# Bulk Modulus (GPa) = 41.66394 54.57713 48.12053
# Shear Modulus (GPa) = 30.46048 39.36663 34.91356
#
# Velocity S-wave (km/s) = 3.73097 4.24148 3.99439
# Velocity P-wave (km/s) = 6.13190 6.99486 6.57754
#
# Compressibility (1/GPa) = 0.02400157
#
# Stress axis : x y z
#
# Youngs Moduli (GPa) = 56.31887 96.64206 135.73884
#
# Poissons Ratio (x) = 0.26361 0.25385
# Poissons Ratio (y) = 0.15362 0.15429
# Poissons Ratio (z) = 0.10532 0.10985
#
# Static dielectric constant tensor:
#      x y z
#    x 1.874400 -0.004790 0.046370 
#    y -0.004790 1.791110 0.033250 
#    z 0.046370 0.033250 1.859290 
# 
# From -- ./inp_files/332889.got.cif
#   From: 2010.05.17/outbox.ucp.g08.bks.cvg/sg2_167_cif.got.tgz:332889.got - 2010.06.11 11:32:03.
