data_PCOD9074011
_publ_section_title
;
Structure prediction by ZEFSAII (Michael W. Deem and Ramdas Pophale) SiO2 
 PCOD9074011
Probable space group: P -1
;
_chemical_formula_sum "Si O2"
_cell_formula_units_Z 14
_cell_length_a 18.000000
_cell_length_b 12.000000
_cell_length_c 9.000000
_cell_angle_alpha 110.000000
_cell_angle_beta 110.000000
_cell_angle_gamma 20.000000
_cell_volume 623.501542
_symmetry_space_group_name_H-M "P -1"
_symmetry_group_IT_number 2
_symmetry_cell_setting 'triclinic'
loop_
_space_group_symop_operation_xyz
x,y,z
-x,-y,-z
loop_
_atom_site_type_symbol
_atom_site_label
_atom_site_fract_x
_atom_site_fract_y
_atom_site_fract_z
Si Si1 0.452993 0.126957 0.298587
Si Si2 0.973583 0.829397 0.912602
Si Si3 0.826548 0.837596 0.594023
Si Si4 0.427475 0.272578 0.647168
Si Si5 0.027602 0.596765 0.113896
Si Si6 0.324236 0.526225 0.997400
Si Si7 0.332572 0.951838 0.721943
O O1 0.349189 0.357777 0.462314
O O2 0.611751 0.987755 0.247257
O O3 0.268050 0.312387 0.171237
O O4 0.584624 0.840741 0.341913
O O5 0.937629 0.790348 0.733771
O O6 0.205795 0.568250 0.977635
O O7 0.919390 0.831032 0.023032
O O8 0.820545 0.155843 0.933730
O O9 0.000000 0.500000 0.500000
O O10 0.673209 0.975407 0.659920
O O11 0.666196 0.102453 0.469950
O O12 0.344326 0.479377 0.810814
O O13 0.899982 0.771416 0.259650
O O14 0.000000 0.500000 0.000000
O O15 0.519589 0.273622 0.132915
#
# Coordination Sequence:
#
# PCOD9074011 Si02
#       7
#     2   2   2   2   2   2   2
#     4  10  22  41  61 102 137 165 223 284 326 405
#     4  11  26  45  68  94 144 175 229 278 330 410
#     4  11  24  43  67 106 132 173 225 286 336 397
#     4  10  23  39  69  94 134 183 215 272 348 393
#     4  12  24  40  67 101 131 175 222 282 341 391
#     4  11  25  46  66  98 133 193 219 271 341 399
#     4  11  24  40  69  97 131 178 224 273 343 393
#
# _framework density 22.453834000000001
#
# number of rings (size 3 to 8) (size 9 to 14) (size 15 to 20)
#    0.000    1.143    1.429    4.286   10.000    4.000 
#    0.000    2.143    0.000    0.000    0.000    0.000 
#    0.000    0.000    0.000    0.000    0.000    0.000 
#
# Total GULP energy -77986.339077 kJ/mol
# GULP energy per Si atom -5570.452791 kJ/mol
# Density = 2.240273 g / cm^3
# Si number density = 22.453834 Si / 1000 Ang^3
#
#
#
# Elastic Constant Matrix: (Units=GPa)
#
#
# Indices 1 2 3 4 5 6 
#
# 1 128.7429 28.6399 32.4733 5.2605 5.8767 -18.9889
# 2 28.6399 29.9422 23.9119 -1.8458 10.4469 -12.1186
# 3 32.4733 23.9119 110.6046 -3.4605 23.4058 5.3244
# 4 5.2605 -1.8458 -3.4605 32.5489 -5.9326 2.6390
# 5 5.8767 10.4469 23.4058 -5.9326 41.4327 -1.3461
# 6 -18.9889 -12.1186 5.3244 2.6390 -1.3461 23.6880
#
#
#
# Elastic Compliance Matrix: (Units=1/GPa)
#
#
# Indices 1 2 3 4 5 6 
#
# 1 0.010789 -0.006464 -0.002428 -0.002639 0.001297 0.006256
# 2 -0.006464 0.063448 -0.011643 -0.000372 -0.007598 0.029505
# 3 -0.002428 -0.011643 0.013865 0.001269 -0.004742 -0.011430
# 4 -0.002639 -0.000372 0.001269 0.032516 0.004213 -0.005974
# 5 0.001297 -0.007598 -0.004742 0.004213 0.029130 -0.000596
# 6 0.006256 0.029505 -0.011430 -0.005974 -0.000596 0.065526
#
#
# Mechanical properties :
#
#
# Convention : Reuss Voigt Hill
#
# Bulk Modulus (GPa) = 21.26248 48.81554 35.03901
# Shear Modulus (GPa) = 18.38088 31.81823 25.09955
#
# Velocity S-wave (km/s) = 2.86424 3.76846 3.34702
# Velocity P-wave (km/s) = 4.51978 6.38143 5.52951
#
# Compressibility (1/GPa) = 0.04703121
#
# Stress axis : x y z
#
# Youngs Moduli (GPa) = 92.68533 15.76084 72.12519
#
# Poissons Ratio (x) = 0.10188 0.17514
# Poissons Ratio (y) = 0.59911 0.83978
# Poissons Ratio (z) = 0.22507 0.18351
#
# Static dielectric constant tensor:
#      x y z
#    x 1.797320 -0.041460 -0.058280 
#    y -0.041460 1.934200 0.058680 
#    z -0.058280 0.058680 1.990150 
# 
# From -- ./inp_files/211736.got.cif
#   From: 2010.05.17/outbox.ucp.g08.bks.cvg/sg2_106_cif.got.tgz:211736.got - 2010.06.11 11:32:03.
