data_PCOD9074821
_publ_section_title
;
Structure prediction by ZEFSAII (Michael W. Deem and Ramdas Pophale) SiO2 
 PCOD9074821
Probable space group: P -1
;
_chemical_formula_sum "Si O2"
_cell_formula_units_Z 16
_cell_length_a 11.955478
_cell_length_b 18.751300
_cell_length_c 14.757949
_cell_angle_alpha 31.554421
_cell_angle_beta 151.645384
_cell_angle_gamma 130.367685
_cell_volume 749.496336
_symmetry_space_group_name_H-M "P -1"
_symmetry_group_IT_number 2
_symmetry_cell_setting 'triclinic'
loop_
_space_group_symop_operation_xyz
x,y,z
-x,-y,-z
loop_
_atom_site_type_symbol
_atom_site_label
_atom_site_fract_x
_atom_site_fract_y
_atom_site_fract_z
Si Si1 0.762445 0.506468 0.216941
Si Si2 0.798176 0.797203 0.859918
Si Si3 0.456289 0.723063 0.905720
Si Si4 0.727812 0.947653 0.834145
Si Si5 0.965704 0.810065 0.323812
Si Si6 0.923792 0.143874 0.176690
Si Si7 0.385617 0.160597 0.794130
Si Si8 0.064751 0.791086 0.690257
O O1 0.971278 0.343397 0.519296
O O2 0.500000 0.500000 0.000000
O O3 0.834073 0.629483 0.085257
O O4 0.678995 0.573415 0.185523
O O5 0.850274 0.869985 0.910345
O O6 0.968600 0.815390 0.880787
O O7 0.493423 0.888780 0.519810
O O8 0.557221 0.852739 0.840253
O O9 0.346858 0.699558 0.949256
O O10 0.210259 0.781555 0.595649
O O11 0.903606 0.927960 0.069805
O O12 0.716803 0.852904 0.164742
O O13 0.005848 0.202022 0.262986
O O14 0.614567 0.212233 0.893159
O O15 0.017946 0.963697 0.446156
O O16 0.129738 0.256674 0.452516
O O17 0.500000 0.000000 0.000000
#
# Coordination Sequence:
#
# PCOD9074821 Si02
#       8
#     2   2   2   2   2   2   2   2
#     4   9  20  39  59  79 113 155 184 228 282 342
#     4  10  21  35  56  84 119 143 186 238 283 320
#     4   9  17  34  57  83 112 143 189 234 270 331
#     4  10  20  36  56  85 114 143 182 244 280 321
#     4  10  20  36  61  82 110 151 193 217 280 345
#     4  10  18  32  52  80 113 146 178 229 280 323
#     4   9  19  31  53  85 107 140 188 232 261 329
#     4   9  17  30  54  79 111 145 182 222 281 327
#
# _framework density 21.347670000000001
#
# number of rings (size 3 to 8) (size 9 to 14) (size 15 to 20)
#    0.000    2.500    1.250    0.750    3.500    2.000 
#    0.000   14.375    0.000    6.750    0.000    0.000 
#    0.000    0.000    0.000    0.000    0.000    0.000 
#
# Total GULP energy -89270.452295 kJ/mol
# GULP energy per Si atom -5579.403268 kJ/mol
# Density = 2.129908 g / cm^3
# Si number density = 21.347670 Si / 1000 Ang^3
#
#
#
# Elastic Constant Matrix: (Units=GPa)
#
#
# Indices 1 2 3 4 5 6 
#
# 1 191.8584 11.9135 34.0606 7.7295 1.9695 3.1903
# 2 11.9135 36.9224 15.3774 1.3532 -11.0137 -5.0272
# 3 34.0606 15.3774 49.3387 -0.9108 -0.6807 -3.1437
# 4 7.7295 1.3532 -0.9108 18.1002 -13.5700 -4.6118
# 5 1.9695 -11.0137 -0.6807 -13.5700 29.0302 2.1617
# 6 3.1903 -5.0272 -3.1437 -4.6118 2.1617 27.5281
#
#
#
# Elastic Compliance Matrix: (Units=1/GPa)
#
#
# Indices 1 2 3 4 5 6 
#
# 1 0.006395 -0.001535 -0.004252 -0.006338 -0.003910 -0.002262
# 2 -0.001535 0.038259 -0.009874 0.014545 0.020676 0.006850
# 3 -0.004252 -0.009874 0.026478 0.003444 -0.001406 0.002401
# 4 -0.006338 0.014545 0.003444 0.099818 0.051462 0.016465
# 5 -0.003910 0.020676 -0.001406 0.051462 0.066020 0.007506
# 6 -0.002262 0.006850 0.002401 0.016465 0.007506 0.040283
#
#
# Mechanical properties :
#
#
# Convention : Reuss Voigt Hill
#
# Bulk Modulus (GPa) = 25.11911 44.53583 34.82747
# Shear Modulus (GPa) = 15.53543 29.38291 22.45917
#
# Velocity S-wave (km/s) = 2.70058 3.71401 3.24708
# Velocity P-wave (km/s) = 4.63858 6.26891 5.51433
#
# Compressibility (1/GPa) = 0.03981032
#
# Stress axis : x y z
#
# Youngs Moduli (GPa) = 156.36298 26.13781 37.76747
#
# Poissons Ratio (x) = 0.04012 0.16058
# Poissons Ratio (y) = 0.23999 0.37293
# Poissons Ratio (z) = 0.66481 0.25809
#
# Static dielectric constant tensor:
#      x y z
#    x 1.772330 -0.006420 0.002060 
#    y -0.006420 1.802050 0.066040 
#    z 0.002060 0.066040 1.870030 
# 
# From -- ./inp_files/523905.got.cif
#   From: 2010.05.17/outbox.cif.g08.bks.cpg/sg2_262_cif.got.tgz:523905.got - 2010.06.03 11:33:40.
