data_PCOD9074907
_publ_section_title
;
Structure prediction by ZEFSAII (Michael W. Deem and Ramdas Pophale) SiO2 
 PCOD9074907
Probable space group: P -1
;
_chemical_formula_sum "Si O2"
_cell_formula_units_Z 16
_cell_length_a 10.388160
_cell_length_b 13.690564
_cell_length_c 6.849574
_cell_angle_alpha 129.380725
_cell_angle_beta 77.770637
_cell_angle_gamma 70.593620
_cell_volume 578.665805
_symmetry_space_group_name_H-M "P -1"
_symmetry_group_IT_number 2
_symmetry_cell_setting 'triclinic'
loop_
_space_group_symop_operation_xyz
x,y,z
-x,-y,-z
loop_
_atom_site_type_symbol
_atom_site_label
_atom_site_fract_x
_atom_site_fract_y
_atom_site_fract_z
Si Si1 0.406525 0.689980 0.760485
Si Si2 0.148713 0.668274 0.751635
Si Si3 0.478983 0.930944 0.124050
Si Si4 0.129419 0.039363 0.946406
Si Si5 0.826958 0.623277 0.593822
Si Si6 0.134436 0.207938 0.534642
Si Si7 0.563892 0.284394 0.675445
Si Si8 0.237102 0.592848 0.170072
O O1 0.500000 0.500000 0.500000
O O2 0.219647 0.751455 0.931800
O O3 0.438918 0.803611 0.993632
O O4 0.427674 0.706448 0.548081
O O5 0.225724 0.491122 0.570255
O O6 0.186887 0.648552 0.480622
O O7 0.954203 0.806989 0.972795
O O8 0.675262 0.796644 0.950492
O O9 0.500000 0.000000 0.000000
O O10 0.305250 0.098057 0.466732
O O11 0.292601 0.904040 0.599460
O O12 0.166276 0.081445 0.196979
O O13 0.000000 0.000000 0.000000
O O14 0.865518 0.662157 0.422541
O O15 0.000000 0.500000 0.500000
O O16 0.934751 0.311639 0.777786
O O17 0.641173 0.360557 0.859992
O O18 0.364101 0.399450 0.911799
#
# Coordination Sequence:
#
# PCOD9074907 Si02
#       8
#     2   2   2   2   2   2   2   2
#     4  11  19  32  53  81 107 136 179 229 269 313
#     4  10  19  31  54  82 106 139 181 226 269 312
#     4  10  21  32  52  84 108 140 177 228 275 316
#     4  11  15  27  50  77 102 131 178 224 255 303
#     4  11  19  32  52  82 107 138 181 231 268 318
#     4  10  18  32  53  76 106 141 183 223 266 320
#     4  10  19  30  50  81 110 141 179 220 271 326
#     4   9  18  31  50  76 112 145 175 215 276 331
#
# _framework density 27.649809999999999
#
# number of rings (size 3 to 8) (size 9 to 14) (size 15 to 20)
#    0.000    1.750    8.750    0.000    0.000    0.000 
#    0.000    0.000    0.000    8.250    0.000    0.000 
#    0.000    0.000    0.000    0.000    0.000    0.000 
#
# Total GULP energy -89078.725510 kJ/mol
# GULP energy per Si atom -5567.420344 kJ/mol
# Density = 2.758688 g / cm^3
# Si number density = 27.649810 Si / 1000 Ang^3
#
#
#
# Elastic Constant Matrix: (Units=GPa)
#
#
# Indices 1 2 3 4 5 6 
#
# 1 110.5854 17.6285 43.6320 13.2904 -28.4969 17.1677
# 2 17.6285 77.9037 40.4825 30.5672 -4.6186 8.0400
# 3 43.6320 40.4825 197.4269 43.9125 -51.7399 -15.6757
# 4 13.2904 30.5672 43.9125 57.0264 -12.0610 2.9343
# 5 -28.4969 -4.6186 -51.7399 -12.0610 59.8128 16.5324
# 6 17.1677 8.0400 -15.6757 2.9343 16.5324 36.9660
#
#
#
# Elastic Compliance Matrix: (Units=1/GPa)
#
#
# Indices 1 2 3 4 5 6 
#
# 1 0.013395 -0.000960 -0.001730 0.000917 0.007851 -0.010330
# 2 -0.000960 0.017454 -0.002430 -0.007516 -0.001919 -0.002926
# 3 -0.001730 -0.002430 0.008216 -0.003839 0.004457 0.003128
# 4 0.000917 -0.007516 -0.003839 0.025032 0.002566 -0.003554
# 5 0.007851 -0.001919 0.004457 0.002566 0.028652 -0.014357
# 6 -0.010330 -0.002926 0.003128 -0.003554 -0.014357 0.040515
#
#
# Mechanical properties :
#
#
# Convention : Reuss Voigt Hill
#
# Bulk Modulus (GPa) = 34.69387 65.48911 50.09149
# Shear Modulus (GPa) = 32.65560 49.70590 41.18075
#
# Velocity S-wave (km/s) = 3.44036 4.24452 3.86342
# Velocity P-wave (km/s) = 5.32506 6.91071 6.16904
#
# Compressibility (1/GPa) = 0.02882354
#
# Stress axis : x y z
#
# Youngs Moduli (GPa) = 74.65410 57.29468 121.71335
#
# Poissons Ratio (x) = 0.05503 0.21057
# Poissons Ratio (y) = 0.07170 0.29578
# Poissons Ratio (z) = 0.12915 0.13923
#
# Static dielectric constant tensor:
#      x y z
#    x 2.402270 -0.048210 -0.185790 
#    y -0.048210 2.249810 0.048330 
#    z -0.185790 0.048330 2.488360 
# 
# From -- ./inp_files/435043.got.cif
#   From: 2010.05.17/outbox.cif.g08.bks.cpg/sg2_218_cif.got.tgz:435043.got - 2010.06.03 11:33:40.
