data_PCOD9074656
_publ_section_title
;
Structure prediction by ZEFSAII (Michael W. Deem and Ramdas Pophale) SiO2 
 PCOD9074656
Probable space group: P -1
;
_chemical_formula_sum "Si O2"
_cell_formula_units_Z 14
_cell_length_a 15.000000
_cell_length_b 27.000000
_cell_length_c 15.000000
_cell_angle_alpha 20.000000
_cell_angle_beta 20.000000
_cell_angle_gamma 20.000000
_cell_volume 621.679612
_symmetry_space_group_name_H-M "P -1"
_symmetry_group_IT_number 2
_symmetry_cell_setting 'triclinic'
loop_
_space_group_symop_operation_xyz
x,y,z
-x,-y,-z
loop_
_atom_site_type_symbol
_atom_site_label
_atom_site_fract_x
_atom_site_fract_y
_atom_site_fract_z
Si Si1 0.041240 0.762500 0.289465
Si Si2 0.123450 0.774457 0.668668
Si Si3 0.373531 0.394266 0.106778
Si Si4 0.276544 0.125798 0.294035
Si Si5 0.786128 0.147770 0.854406
Si Si6 0.515685 0.801432 0.508232
Si Si7 0.857783 0.911691 0.871882
O O1 0.236294 0.733089 0.245410
O O2 0.846298 0.667060 0.629567
O O3 0.281955 0.715111 0.063784
O O4 0.843531 0.963402 0.140280
O O5 0.943451 0.788190 0.726066
O O6 0.900104 0.865651 0.806461
O O7 0.279155 0.890718 0.316486
O O8 0.307913 0.581022 0.840068
O O9 0.335019 0.367683 0.292226
O O10 0.069093 0.124130 0.571441
O O11 0.479410 0.939493 0.381770
O O12 0.479674 0.208538 0.986261
O O13 0.190596 0.839037 0.720410
O O14 0.693338 0.826683 0.219244
#
# Coordination Sequence:
#
# PCOD9074656 Si02
#       7
#     2   2   2   2   2   2   2
#     4  11  23  40  65  97 128 162 210 270 312 366
#     4  10  26  43  65  94 135 165 210 258 326 374
#     4  12  24  41  64 100 131 162 204 277 319 359
#     4  11  21  39  66  93 121 176 209 254 302 396
#     4  11  21  40  67  93 123 166 220 252 305 382
#     4  11  21  39  68  92 125 161 225 257 306 367
#     4  10  24  44  65  92 122 178 213 252 305 393
#
# _framework density 22.519638
#
# number of rings (size 3 to 8) (size 9 to 14) (size 15 to 20)
#    0.000    1.143    2.857    3.429    0.000   14.286 
#    0.000    4.286    0.000    0.000    0.000    0.000 
#    0.000    0.000    0.000    0.000    0.000    0.000 
#
# Total GULP energy -78209.024737 kJ/mol
# GULP energy per Si atom -5586.358910 kJ/mol
# Density = 2.246838 g / cm^3
# Si number density = 22.519638 Si / 1000 Ang^3
#
#
#
# Elastic Constant Matrix: (Units=GPa)
#
#
# Indices 1 2 3 4 5 6 
#
# 1 60.8286 -2.3269 -16.2085 0.5551 -8.4492 -4.1161
# 2 -2.3269 21.4561 14.0630 -16.3532 -1.2751 -5.8153
# 3 -16.2085 14.0630 21.1059 6.6937 -17.5832 1.1266
# 4 0.5551 -16.3532 6.6937 41.1522 -8.3396 7.4111
# 5 -8.4492 -1.2751 -17.5832 -8.3396 38.9471 9.4398
# 6 -4.1161 -5.8153 1.1266 7.4111 9.4398 17.9457
#
#
#
# Elastic Compliance Matrix: (Units=1/GPa)
#
#
# Indices 1 2 3 4 5 6 
#
# 1 0.009357 0.033416 -0.029099 0.012931 -0.010931 0.015211
# 2 0.033416 -0.037881 0.108152 -0.013941 0.060995 -0.037728
# 3 -0.029099 0.108152 -0.107157 0.041716 -0.053350 0.045935
# 4 0.012931 -0.013941 0.041716 0.024575 0.034286 -0.032354
# 5 -0.010931 0.060995 -0.053350 0.034286 0.008017 0.002231
# 6 0.015211 -0.037728 0.045935 -0.032354 0.002231 0.056291
#
#
# Mechanical properties :
#
#
# Convention : Reuss Voigt Hill
#
# Bulk Modulus (GPa) = 11.20356 10.49396 10.84876
# Shear Modulus (GPa) = -20.66262 26.79988 3.06863
#
# Velocity S-wave (km/s) = -3.03237 3.45348 1.16859
# Velocity P-wave (km/s) = 2.69714 4.53564 2.57851
#
# Compressibility (1/GPa) = 0.08925731
#
# Stress axis : x y z
#
# Youngs Moduli (GPa) = 106.87096 -26.39869 -9.33211
#
# Poissons Ratio (x) = 0.88214 -0.27155
# Poissons Ratio (y) = -3.57120 1.00929
# Poissons Ratio (z) = 3.10983 2.85507
#
# Static dielectric constant tensor:
#      x y z
#    x 1.943050 -0.089660 0.031690 
#    y -0.089660 1.862070 -0.014150 
#    z 0.031690 -0.014150 1.807740 
# 
# From -- ./inp_files/97973.got.cif
#   From: 2010.05.17/outbox.ucp.g08.bks.cvg/sg2_49_cif.got.tgz:97973.got - 2010.06.11 11:32:03.
