data_PCOD9074889
_publ_section_title
;
Structure prediction by ZEFSAII (Michael W. Deem and Ramdas Pophale) SiO2 
 PCOD9074889
Probable space group: P -1
;
_chemical_formula_sum "Si O2"
_cell_formula_units_Z 16
_cell_length_a 9.000000
_cell_length_b 15.000000
_cell_length_c 9.000000
_cell_angle_alpha 110.000000
_cell_angle_beta 80.000000
_cell_angle_gamma 50.000000
_cell_volume 732.374747
_symmetry_space_group_name_H-M "P -1"
_symmetry_group_IT_number 2
_symmetry_cell_setting 'triclinic'
loop_
_space_group_symop_operation_xyz
x,y,z
-x,-y,-z
loop_
_atom_site_type_symbol
_atom_site_label
_atom_site_fract_x
_atom_site_fract_y
_atom_site_fract_z
Si Si1 0.494537 0.725702 0.013035
Si Si2 0.952877 0.996326 0.320622
Si Si3 0.642578 0.147505 0.180528
Si Si4 0.842126 0.602127 0.442988
Si Si5 0.070443 0.332004 0.092164
Si Si6 0.979164 0.845755 0.470077
Si Si7 0.877608 0.402653 0.838701
Si Si8 0.756644 0.907524 0.855871
O O1 0.440148 0.731562 0.850900
O O2 0.684562 0.723384 0.981182
O O3 0.639199 0.574070 0.979972
O O4 0.234730 0.859542 0.197824
O O5 0.843463 0.052902 0.211153
O O6 0.885033 0.130213 0.473890
O O7 0.853746 0.956807 0.414301
O O8 0.404435 0.243604 0.368009
O O9 0.742850 0.021162 0.979176
O O10 0.000000 0.500000 0.500000
O O11 0.861415 0.497552 0.282719
O O12 0.961777 0.619637 0.322349
O O13 0.092042 0.234174 0.147219
O O14 0.006110 0.337140 0.937560
O O15 0.829177 0.875510 0.651417
O O16 0.143386 0.690165 0.280837
O O17 0.500000 0.000000 0.000000
#
# Coordination Sequence:
#
# PCOD9074889 Si02
#       8
#     2   2   2   2   2   2   2   2
#     4  11  22  43  70  93 137 173 215 270 321 394
#     4  11  26  46  66  92 134 181 227 256 324 396
#     4  12  23  41  71  97 129 180 212 269 329 392
#     4  11  20  40  67 101 134 165 211 275 337 384
#     4  11  23  41  70 104 131 170 214 275 341 389
#     4  11  25  44  65  95 135 172 222 276 315 387
#     4  11  24  42  69  99 133 172 219 275 336 380
#     4  12  22  41  69  98 136 165 215 279 335 381
#
# _framework density 21.846738999999999
#
# number of rings (size 3 to 8) (size 9 to 14) (size 15 to 20)
#    0.000    0.750    5.000    4.125    0.000    5.500 
#    0.000    6.250    0.000    0.000    0.000    0.000 
#    0.000    0.000    0.000    0.000    0.000    0.000 
#
# Total GULP energy -89150.744227 kJ/mol
# GULP energy per Si atom -5571.921514 kJ/mol
# Density = 2.179701 g / cm^3
# Si number density = 21.846739 Si / 1000 Ang^3
#
#
#
# Elastic Constant Matrix: (Units=GPa)
#
#
# Indices 1 2 3 4 5 6 
#
# 1 37.8707 55.1069 49.4466 0.7109 -7.7963 -1.1906
# 2 55.1069 141.5616 48.0927 -15.4577 3.0468 4.1828
# 3 49.4466 48.0927 120.0710 -12.1573 4.3515 -2.0426
# 4 0.7109 -15.4577 -12.1573 48.4587 8.3191 0.6952
# 5 -7.7963 3.0468 4.3515 8.3191 30.5363 -0.7337
# 6 -1.1906 4.1828 -2.0426 0.6952 -0.7337 36.7438
#
#
#
# Elastic Compliance Matrix: (Units=1/GPa)
#
#
# Indices 1 2 3 4 5 6 
#
# 1 1.288821 -0.411006 -0.418892 -0.346614 0.526162 0.082325
# 2 -0.411006 0.139486 0.130440 0.112618 -0.168781 -0.027446
# 3 -0.418892 0.130440 0.145979 0.114371 -0.172547 -0.025916
# 4 -0.346614 0.112618 0.114371 0.116110 -0.148211 -0.022849
# 5 0.526162 -0.168781 -0.172547 -0.148211 0.249719 0.034460
# 6 0.082325 -0.027446 -0.025916 -0.022849 0.034460 0.032687
#
#
# Mechanical properties :
#
#
# Convention : Reuss Voigt Hill
#
# Bulk Modulus (GPa) = 5.70217 67.19951 36.45084
# Shear Modulus (GPa) = 1.45765 32.93825 17.19795
#
# Velocity S-wave (km/s) = 0.81772 3.88712 2.80877
# Velocity P-wave (km/s) = 1.87278 7.13951 5.21919
#
# Compressibility (1/GPa) = 0.17537189
#
# Stress axis : x y z
#
# Youngs Moduli (GPa) = 0.77590 7.16917 6.85028
#
# Poissons Ratio (x) = 2.94657 2.86953
# Poissons Ratio (y) = 0.31890 -0.89355
# Poissons Ratio (z) = 0.32502 -0.93515
#
# Static dielectric constant tensor:
#      x y z
#    x 1.916520 0.050700 0.010180 
#    y 0.050700 1.894730 -0.051070 
#    z 0.010180 -0.051070 1.862600 
# 
# From -- ./inp_files/208274.got.cif
#   From: 2010.05.17/outbox.ucp.g08.bks.cvg/sg2_105_cif.got.tgz:208274.got - 2010.06.11 11:32:03.
