data_PCOD9074912
_publ_section_title
;
Structure prediction by ZEFSAII (Michael W. Deem and Ramdas Pophale) SiO2 
 PCOD9074912
Probable space group: P -1
;
_chemical_formula_sum "Si O2"
_cell_formula_units_Z 16
_cell_length_a 12.187348
_cell_length_b 8.165045
_cell_length_c 8.735681
_cell_angle_alpha 77.355551
_cell_angle_beta 96.869871
_cell_angle_gamma 121.863893
_cell_volume 720.377484
_symmetry_space_group_name_H-M "P -1"
_symmetry_group_IT_number 2
_symmetry_cell_setting 'triclinic'
loop_
_space_group_symop_operation_xyz
x,y,z
-x,-y,-z
loop_
_atom_site_type_symbol
_atom_site_label
_atom_site_fract_x
_atom_site_fract_y
_atom_site_fract_z
Si Si1 0.759023 0.975350 0.398373
Si Si2 0.148781 0.941474 0.926111
Si Si3 0.626907 0.945258 0.840665
Si Si4 0.360261 0.592067 0.788119
Si Si5 0.482815 0.390701 0.681950
Si Si6 0.114822 0.288234 0.974163
Si Si7 0.745105 0.722217 0.714280
Si Si8 0.353562 0.828116 0.472597
O O1 0.615487 0.832624 0.331842
O O2 0.787093 0.832602 0.535686
O O3 0.850813 0.080266 0.250396
O O4 0.746773 0.124916 0.473927
O O5 0.126532 0.122375 0.917071
O O6 0.031418 0.762427 0.035157
O O7 0.286330 0.995713 0.007249
O O8 0.474045 0.785451 0.852206
O O9 0.679900 0.832208 0.766580
O O10 0.654377 0.138682 0.714444
O O11 0.413687 0.447559 0.790598
O O12 0.228738 0.489224 0.881982
O O13 0.338678 0.646321 0.601506
O O14 0.500000 0.500000 0.500000
O O15 0.631371 0.495077 0.733199
O O16 0.147135 0.263079 0.159251
O O17 0.500000 0.000000 0.500000
#
# Coordination Sequence:
#
# PCOD9074912 Si02
#       8
#     2   2   2   2   2   2   2   2
#     4  10  18  32  53  77 103 138 166 213 261 298
#     4  10  20  33  52  77 106 136 173 217 251 300
#     4   8  17  32  53  75 101 136 170 207 260 310
#     4  10  18  32  56  77 101 139 169 209 258 309
#     4   9  16  28  51  81 103 122 168 220 257 288
#     4  10  20  33  50  78 108 135 174 211 254 306
#     4   8  17  29  49  76 103 133 168 212 255 308
#     4   9  18  35  54  76 104 136 170 207 259 317
#
# _framework density 22.210576
#
# number of rings (size 3 to 8) (size 9 to 14) (size 15 to 20)
#    0.000    2.750    1.250    2.250    1.750    2.000 
#    0.000    3.750    5.500    0.000    0.000    0.000 
#    0.000    0.000    0.000    0.000    0.000    0.000 
#
# Total GULP energy -89197.545741 kJ/mol
# GULP energy per Si atom -5574.846609 kJ/mol
# Density = 2.216002 g / cm^3
# Si number density = 22.210576 Si / 1000 Ang^3
#
#
#
# Elastic Constant Matrix: (Units=GPa)
#
#
# Indices 1 2 3 4 5 6 
#
# 1 34.5685 30.6276 25.8498 -16.2740 -11.9163 11.2976
# 2 30.6276 42.6403 20.1492 -12.1879 -6.6514 11.9350
# 3 25.8498 20.1492 100.7273 -22.0211 -13.5540 10.8393
# 4 -16.2740 -12.1879 -22.0211 25.7230 6.2160 -7.8026
# 5 -11.9163 -6.6514 -13.5540 6.2160 28.6513 -9.0173
# 6 11.2976 11.9350 10.8393 -7.8026 -9.0173 24.3397
#
#
#
# Elastic Compliance Matrix: (Units=1/GPa)
#
#
# Indices 1 2 3 4 5 6 
#
# 1 0.116579 -0.068578 -0.006543 0.030287 0.023122 0.000705
# 2 -0.068578 0.070689 0.000833 -0.009359 -0.013176 -0.011083
# 3 -0.006543 0.000833 0.013296 0.007045 0.002160 -0.000234
# 4 0.030287 -0.009359 0.007045 0.061390 0.003016 0.008191
# 5 0.023122 -0.013176 0.002160 0.003016 0.045828 0.012712
# 6 0.000705 -0.011083 -0.000234 0.008191 0.012712 0.053632
#
#
# Mechanical properties :
#
#
# Convention : Reuss Voigt Hill
#
# Bulk Modulus (GPa) = 19.23535 36.79882 28.01708
# Shear Modulus (GPa) = 9.48189 22.49677 15.98933
#
# Velocity S-wave (km/s) = 2.06842 3.18604 2.68600
# Velocity P-wave (km/s) = 3.79259 5.48986 4.71817
#
# Compressibility (1/GPa) = 0.05198763
#
# Stress axis : x y z
#
# Youngs Moduli (GPa) = 8.57784 14.14655 75.20851
#
# Poissons Ratio (x) = 0.97015 0.49208
# Poissons Ratio (y) = 0.58825 -0.06263
# Poissons Ratio (z) = 0.05612 -0.01178
#
# Static dielectric constant tensor:
#      x y z
#    x 1.857910 -0.014120 0.011400 
#    y -0.014120 1.905240 0.003260 
#    z 0.011400 0.003260 1.855180 
# 
# From -- ./inp_files/238499.got.cif
#   From: 2010.05.17/outbox.cif.g08.bks.cpg/sg2_120_cif.got.tgz:238499.got - 2010.06.03 11:33:40.
