data_PCOD9074857
_publ_section_title
;
Structure prediction by ZEFSAII (Michael W. Deem and Ramdas Pophale) SiO2 
 PCOD9074857
Probable space group: P -1
;
_chemical_formula_sum "Si O2"
_cell_formula_units_Z 16
_cell_length_a 18.000000
_cell_length_b 12.000000
_cell_length_c 21.000000
_cell_angle_alpha 30.000000
_cell_angle_beta 160.000000
_cell_angle_gamma 140.000000
_cell_volume 744.844803
_symmetry_space_group_name_H-M "P -1"
_symmetry_group_IT_number 2
_symmetry_cell_setting 'triclinic'
loop_
_space_group_symop_operation_xyz
x,y,z
-x,-y,-z
loop_
_atom_site_type_symbol
_atom_site_label
_atom_site_fract_x
_atom_site_fract_y
_atom_site_fract_z
Si Si1 0.856045 0.577411 0.130459
Si Si2 0.765197 0.827954 0.795555
Si Si3 0.512819 0.997317 0.325216
Si Si4 0.313140 0.437868 0.642651
Si Si5 0.722940 0.138588 0.199941
Si Si6 0.404133 0.913906 0.136678
Si Si7 0.107265 0.855640 0.359493
Si Si8 0.581003 0.564440 0.684139
O O1 0.722814 0.388934 0.102634
O O2 0.081544 0.430011 0.423248
O O3 0.857593 0.711928 0.995950
O O4 0.705140 0.782408 0.950856
O O5 0.779015 0.616708 0.861097
O O6 0.500000 0.000000 0.500000
O O7 0.897053 0.984212 0.786624
O O8 0.727130 0.074644 0.489090
O O9 0.512258 0.908714 0.296612
O O10 0.497564 0.784066 0.462573
O O11 0.222270 0.597093 0.552778
O O12 0.402347 0.569813 0.593000
O O13 0.541663 0.228911 0.948577
O O14 0.580751 0.997701 0.193824
O O15 0.000000 0.000000 0.500000
O O16 0.379489 0.671181 0.207854
O O17 0.148251 0.086986 0.848270
#
# Coordination Sequence:
#
# PCOD9074857 Si02
#       8
#     2   2   2   2   2   2   2   2
#     4  12  23  44  78 111 142 199 253 310 356 440
#     4  11  19  42  77 110 153 192 245 306 363 436
#     4  11  23  45  72 111 156 191 238 300 379 440
#     4  12  24  46  80 110 137 196 264 302 364 440
#     4  12  29  54  73 103 148 198 257 313 372 440
#     4  12  29  46  71 113 154 202 239 306 376 449
#     4  11  23  45  75 115 151 188 246 306 371 442
#     4  11  23  45  73 109 156 191 243 304 369 439
#
# _framework density 21.480985
#
# number of rings (size 3 to 8) (size 9 to 14) (size 15 to 20)
#    0.000    0.500    7.500    1.125    1.750    8.000 
#    4.500    0.000    0.000    0.000    0.000    0.000 
#    0.000    0.000    0.000    0.000    0.000    0.000 
#
# Total GULP energy -89143.165296 kJ/mol
# GULP energy per Si atom -5571.447831 kJ/mol
# Density = 2.143209 g / cm^3
# Si number density = 21.480985 Si / 1000 Ang^3
#
#
#
# Elastic Constant Matrix: (Units=GPa)
#
#
# Indices 1 2 3 4 5 6 
#
# 1 79.8023 37.4955 34.0423 7.4859 -6.2674 -14.2968
# 2 37.4955 94.6713 39.2067 6.9184 -6.4167 -15.5990
# 3 34.0423 39.2067 132.3909 27.0969 -4.5720 -1.3825
# 4 7.4859 6.9184 27.0969 34.3117 -6.7902 3.5489
# 5 -6.2674 -6.4167 -4.5720 -6.7902 41.4720 9.8583
# 6 -14.2968 -15.5990 -1.3825 3.5489 9.8583 42.0908
#
#
#
# Elastic Compliance Matrix: (Units=1/GPa)
#
#
# Indices 1 2 3 4 5 6 
#
# 1 0.016710 -0.004809 -0.002634 -0.000899 0.000446 0.003779
# 2 -0.004809 0.014284 -0.002996 0.000252 0.000373 0.003453
# 3 -0.002634 -0.002996 0.010559 -0.007199 -0.000663 -0.000896
# 4 -0.000899 0.000252 -0.007199 0.036746 0.006321 -0.005027
# 5 0.000446 0.000373 -0.000663 0.006321 0.026752 -0.006531
# 6 0.003779 0.003453 -0.000896 -0.005027 -0.006531 0.028245
#
#
# Mechanical properties :
#
#
# Convention : Reuss Voigt Hill
#
# Bulk Modulus (GPa) = 48.36670 58.70597 53.53634
# Shear Modulus (GPa) = 31.04304 36.64958 33.84631
#
# Velocity S-wave (km/s) = 3.80562 4.13503 3.97374
# Velocity P-wave (km/s) = 6.47111 7.08425 6.78461
#
# Compressibility (1/GPa) = 0.02067538
#
# Stress axis : x y z
#
# Youngs Moduli (GPa) = 59.84327 70.00715 94.70543
#
# Poissons Ratio (x) = 0.33667 0.24944
# Poissons Ratio (y) = 0.28779 0.28376
# Poissons Ratio (z) = 0.15762 0.20976
#
# Static dielectric constant tensor:
#      x y z
#    x 1.796390 -0.004000 0.002510 
#    y -0.004000 1.895730 0.047340 
#    z 0.002510 0.047340 1.834920 
# 
# From -- ./inp_files/600027.got.cif
#   From: 2010.05.17/outbox.ucp.g08.bks.cvg/sg2_301_cif.got.tgz:600027.got - 2010.06.11 11:32:03.
