data_PCOD9074358
_publ_section_title
;
Structure prediction by ZEFSAII (Michael W. Deem and Ramdas Pophale) SiO2 
 PCOD9074358
Probable space group: P -1
;
_chemical_formula_sum "Si O2"
_cell_formula_units_Z 16
_cell_length_a 12.000000
_cell_length_b 6.000000
_cell_length_c 12.000000
_cell_angle_alpha 80.000000
_cell_angle_beta 70.000000
_cell_angle_gamma 70.000000
_cell_volume 761.358403
_symmetry_space_group_name_H-M "P -1"
_symmetry_group_IT_number 2
_symmetry_cell_setting 'triclinic'
loop_
_space_group_symop_operation_xyz
x,y,z
-x,-y,-z
loop_
_atom_site_type_symbol
_atom_site_label
_atom_site_fract_x
_atom_site_fract_y
_atom_site_fract_z
Si Si1 0.170635 0.417542 0.182830
Si Si2 0.423007 0.038357 0.135808
Si Si3 0.356671 0.998910 0.535475
Si Si4 0.030740 0.256714 0.077074
Si Si5 0.189365 0.803738 0.968934
Si Si6 0.849103 0.557311 0.551113
Si Si7 0.422365 0.766451 0.758894
Si Si8 0.351063 0.689159 0.350387
O O1 0.063586 0.312149 0.184525
O O2 0.173305 0.393430 0.315292
O O3 0.309101 0.262475 0.121952
O O4 0.156987 0.659233 0.097412
O O5 0.362975 0.844176 0.224358
O O6 0.508182 0.085747 0.202963
O O7 0.500000 0.000000 0.000000
O O8 0.338101 0.909157 0.673573
O O9 0.369232 0.814177 0.447081
O O10 0.500000 0.000000 0.500000
O O11 0.242553 0.230944 0.513366
O O12 0.911488 0.175495 0.097237
O O13 0.000000 0.500000 0.000000
O O14 0.155856 0.071553 0.001556
O O15 0.326869 0.696809 0.881718
O O16 0.783565 0.349234 0.581887
O O17 0.000000 0.500000 0.500000
O O18 0.535216 0.552971 0.687212
#
# Coordination Sequence:
#
# PCOD9074358 Si02
#       8
#     2   2   2   2   2   2   2   2
#     4  11  22  44  64  96 145 176 231 298 349 427
#     4  12  25  41  71 108 144 181 230 291 364 433
#     4  12  24  50  70 102 143 186 245 301 350 426
#     4   9  21  41  62  91 140 182 227 283 349 420
#     4  10  23  40  68 102 134 183 232 287 365 425
#     4  12  29  47  70 105 139 193 246 295 361 429
#     4  12  25  42  72 109 137 183 240 290 360 435
#     4  12  24  47  74  98 148 187 236 304 359 414
#
# _framework density 21.015070000000001
#
# number of rings (size 3 to 8) (size 9 to 14) (size 15 to 20)
#    0.000    0.750    5.000    1.875    3.500    6.500 
#    0.000    0.000    0.000    0.000    0.000    0.000 
#    0.000    0.000    0.000    0.000    0.000    0.000 
#
# Total GULP energy -89106.017896 kJ/mol
# GULP energy per Si atom -5569.126118 kJ/mol
# Density = 2.096724 g / cm^3
# Si number density = 21.015070 Si / 1000 Ang^3
#
#
#
# Elastic Constant Matrix: (Units=GPa)
#
#
# Indices 1 2 3 4 5 6 
#
# 1 123.2708 35.2769 25.7378 5.2232 2.0725 -5.0550
# 2 35.2769 73.9101 54.6177 0.9967 4.5069 -12.3511
# 3 25.7378 54.6177 34.4818 -29.2315 5.2533 -3.8641
# 4 5.2232 0.9967 -29.2315 19.3770 -9.1305 3.7144
# 5 2.0725 4.5069 5.2533 -9.1305 53.9664 2.5211
# 6 -5.0550 -12.3511 -3.8641 3.7144 2.5211 34.3616
#
#
#
# Elastic Compliance Matrix: (Units=1/GPa)
#
#
# Indices 1 2 3 4 5 6 
#
# 1 0.009421 -0.005437 0.001200 -0.000412 -0.000076 -0.000383
# 2 -0.005437 0.005867 0.013349 0.022282 0.002178 0.000242
# 3 0.001200 0.013349 -0.016402 -0.029306 -0.004833 0.006653
# 4 -0.000412 0.022282 -0.029306 0.006546 0.001938 0.003803
# 5 -0.000076 0.002178 -0.004833 0.001938 0.019214 -0.001391
# 6 -0.000383 0.000242 0.006653 0.003803 -0.001391 0.029572
#
#
# Mechanical properties :
#
#
# Convention : Reuss Voigt Hill
#
# Bulk Modulus (GPa) = 58.44210 51.43637 54.93923
# Shear Modulus (GPa) = 119.91020 29.27635 74.59327
#
# Velocity S-wave (km/s) = 7.56195 3.73649 5.96424
# Velocity P-wave (km/s) = 10.20363 6.56843 8.58074
#
# Compressibility (1/GPa) = 0.01711095
#
# Stress axis : x y z
#
# Youngs Moduli (GPa) = 106.15014 170.43339 -60.96935
#
# Poissons Ratio (x) = 0.92667 0.07317
# Poissons Ratio (y) = 0.57715 0.81390
# Poissons Ratio (z) = -0.12739 -2.27517
#
# Static dielectric constant tensor:
#      x y z
#    x 1.853380 0.098420 -0.000910 
#    y 0.098420 1.836560 -0.023190 
#    z -0.000910 -0.023190 1.774020 
# 
# From -- ./inp_files/410241.got.cif
#   From: 2010.05.17/outbox.ucp.g08.bks.cvg/sg2_206_cif.got.tgz:410241.got - 2010.06.11 11:32:03.
