data_PCOD9074154
_publ_section_title
;
Structure prediction by ZEFSAII (Michael W. Deem and Ramdas Pophale) SiO2 
 PCOD9074154
Probable space group: P -1
;
_chemical_formula_sum "Si O2"
_cell_formula_units_Z 14
_cell_length_a 18.000000
_cell_length_b 9.000000
_cell_length_c 24.000000
_cell_angle_alpha 150.000000
_cell_angle_beta 20.000000
_cell_angle_gamma 150.000000
_cell_volume 633.120058
_symmetry_space_group_name_H-M "P -1"
_symmetry_group_IT_number 2
_symmetry_cell_setting 'triclinic'
loop_
_space_group_symop_operation_xyz
x,y,z
-x,-y,-z
loop_
_atom_site_type_symbol
_atom_site_label
_atom_site_fract_x
_atom_site_fract_y
_atom_site_fract_z
Si Si1 0.060454 0.253097 0.311826
Si Si2 0.528992 0.727062 0.766860
Si Si3 0.892972 0.290315 0.671438
Si Si4 0.333194 0.696363 0.551063
Si Si5 0.345660 0.550148 0.300606
Si Si6 0.775469 0.107315 0.184939
Si Si7 0.989864 0.402087 0.911100
O O1 0.128760 0.553314 0.321105
O O2 0.253780 0.287616 0.233379
O O3 0.836487 0.260046 0.505206
O O4 0.999459 0.945318 0.217952
O O5 0.564715 0.574678 0.632495
O O6 0.645684 0.589696 0.689613
O O7 0.640827 0.100408 0.808509
O O8 0.265846 0.616103 0.931725
O O9 0.070689 0.560641 0.669938
O O10 0.000000 0.000000 0.500000
O O11 0.310600 0.775891 0.658029
O O12 0.500000 0.000000 0.500000
O O13 0.583082 0.799133 0.200532
O O14 0.834556 0.368450 0.180009
O O15 0.000000 0.000000 0.000000
O O16 0.000000 0.500000 0.000000
#
# Coordination Sequence:
#
# PCOD9074154 Si02
#       7
#     2   2   2   2   2   2   2
#     4  11  26  45  72 110 148 190 239 317 355 436
#     4  11  24  47  72 104 145 202 238 298 363 452
#     4  10  22  42  73 102 136 192 241 286 366 435
#     4  11  21  41  77 104 137 188 248 295 354 439
#     4  11  24  46  75 105 149 186 252 294 371 438
#     4  12  26  46  74 106 141 199 245 301 367 438
#     4  12  31  48  69 110 156 187 249 308 368 424
#
# _framework density 22.11271
#
# number of rings (size 3 to 8) (size 9 to 14) (size 15 to 20)
#    0.000    0.857    5.714    0.000   10.000    4.000 
#    0.000    0.000    0.000    0.000    0.000    0.000 
#    0.000    0.000    0.000    0.000    0.000    0.000 
#
# Total GULP energy -78191.641958 kJ/mol
# GULP energy per Si atom -5585.117283 kJ/mol
# Density = 2.206238 g / cm^3
# Si number density = 22.112710 Si / 1000 Ang^3
#
#
#
# Elastic Constant Matrix: (Units=GPa)
#
#
# Indices 1 2 3 4 5 6 
#
# 1 100.7860 52.8493 17.6535 -1.4183 18.5352 -5.0325
# 2 52.8493 159.1201 32.0976 -23.3870 12.3755 -1.7880
# 3 17.6535 32.0976 54.0397 -8.0171 14.6112 -4.7339
# 4 -1.4183 -23.3870 -8.0171 43.2729 3.0777 2.2867
# 5 18.5352 12.3755 14.6112 3.0777 34.5358 -5.7797
# 6 -5.0325 -1.7880 -4.7339 2.2867 -5.7797 38.2259
#
#
#
# Elastic Compliance Matrix: (Units=1/GPa)
#
#
# Indices 1 2 3 4 5 6 
#
# 1 0.013104 -0.004045 -0.000684 -0.001568 -0.005023 0.000786
# 2 -0.004045 0.008917 -0.003415 0.004102 -0.000078 -0.000796
# 3 -0.000684 -0.003415 0.023602 0.003043 -0.008463 0.001212
# 4 -0.001568 0.004102 0.003043 0.026264 -0.004574 -0.001901
# 5 -0.005023 -0.000078 -0.008463 -0.004574 0.036346 0.004056
# 6 0.000786 -0.000796 0.001212 -0.001901 0.004056 0.027104
#
#
# Mechanical properties :
#
#
# Convention : Reuss Voigt Hill
#
# Bulk Modulus (GPa) = 34.08850 57.68298 45.88574
# Shear Modulus (GPa) = 30.97831 37.29661 34.13746
#
# Velocity S-wave (km/s) = 3.74696 4.11135 3.93338
# Velocity P-wave (km/s) = 5.84541 6.97712 6.43619
#
# Compressibility (1/GPa) = 0.02933541
#
# Stress axis : x y z
#
# Youngs Moduli (GPa) = 76.31326 112.14570 42.36849
#
# Poissons Ratio (x) = 0.45366 0.02897
# Poissons Ratio (y) = 0.30871 0.14469
# Poissons Ratio (z) = 0.05218 0.38297
#
# Static dielectric constant tensor:
#      x y z
#    x 1.821910 0.027480 -0.040740 
#    y 0.027480 1.832520 -0.026530 
#    z -0.040740 -0.026530 1.875230 
# 
# From -- ./inp_files/613011.got.cif
#   From: 2010.05.17/outbox.ucp.g08.bks.cvg/sg2_307_cif.got.tgz:613011.got - 2010.06.11 11:32:03.
