data_PCOD9074016
_publ_section_title
;
Structure prediction by ZEFSAII (Michael W. Deem and Ramdas Pophale) SiO2 
 PCOD9074016
Probable space group: P -1
;
_chemical_formula_sum "Si O2"
_cell_formula_units_Z 16
_cell_length_a 11.639202
_cell_length_b 15.800940
_cell_length_c 15.893660
_cell_angle_alpha 161.603473
_cell_angle_beta 116.150842
_cell_angle_gamma 59.555711
_cell_volume 786.615810
_symmetry_space_group_name_H-M "P -1"
_symmetry_group_IT_number 2
_symmetry_cell_setting 'triclinic'
loop_
_space_group_symop_operation_xyz
x,y,z
-x,-y,-z
loop_
_atom_site_type_symbol
_atom_site_label
_atom_site_fract_x
_atom_site_fract_y
_atom_site_fract_z
Si Si1 0.888583 0.057639 0.278525
Si Si2 0.200119 0.709171 0.044240
Si Si3 0.145401 0.359508 0.252305
Si Si4 0.828147 0.585531 0.408290
Si Si5 0.270302 0.429347 0.985379
Si Si6 0.160119 0.963896 0.030132
Si Si7 0.533031 0.194498 0.764314
Si Si8 0.855528 0.040942 0.449118
O O1 0.051266 0.933490 0.203086
O O2 0.826773 0.346956 0.479348
O O3 0.861046 0.100467 0.408502
O O4 0.839807 0.810140 0.990124
O O5 0.310990 0.870325 0.226863
O O6 0.226474 0.481328 0.762643
O O7 0.216448 0.547892 0.986896
O O8 0.208572 0.122695 0.119616
O O9 0.988899 0.465983 0.330686
O O10 0.812964 0.872605 0.724505
O O11 0.782867 0.371336 0.253764
O O12 0.425753 0.238430 0.845809
O O13 0.184223 0.240122 0.813888
O O14 0.249839 0.699774 0.292290
O O15 0.000000 0.000000 0.000000
O O16 0.500000 0.000000 0.500000
O O17 0.500000 0.500000 0.000000
O O18 0.000000 0.000000 0.500000
#
# Coordination Sequence:
#
# PCOD9074016 Si02
#       8
#     2   2   2   2   2   2   2   2
#     4  11  22  32  52  77 105 141 180 216 264 309
#     4  10  22  36  54  81 110 141 187 220 269 323
#     4  10  19  32  47  70 105 140 173 209 257 329
#     4  10  19  28  50  73 104 139 176 213 257 325
#     4  11  23  39  55  75 108 151 185 222 270 309
#     4  10  18  32  46  71 105 144 172 204 265 327
#     4  10  22  38  57  76 104 146 187 231 269 319
#     4  12  24  36  55  76 110 141 188 230 261 313
#
# _framework density 20.340298000000001
#
# number of rings (size 3 to 8) (size 9 to 14) (size 15 to 20)
#    0.000    1.500    1.250    7.125    3.500    5.000 
#    0.000    0.000    0.000    0.000    0.000    0.000 
#    0.000   20.000    0.000    0.000    0.000    0.000 
#
# Total GULP energy -89266.994842 kJ/mol
# GULP energy per Si atom -5579.187178 kJ/mol
# Density = 2.029400 g / cm^3
# Si number density = 20.340298 Si / 1000 Ang^3
#
#
#
# Elastic Constant Matrix: (Units=GPa)
#
#
# Indices 1 2 3 4 5 6 
#
# 1 34.0044 13.7757 6.8177 -2.7104 0.1794 7.3767
# 2 13.7757 83.1964 25.1701 -3.0093 3.4160 23.4557
# 3 6.8177 25.1701 125.9498 -0.9001 6.6649 -2.6873
# 4 -2.7104 -3.0093 -0.9001 35.1309 10.0180 5.6442
# 5 0.1794 3.4160 6.6649 10.0180 25.7086 -0.2130
# 6 7.3767 23.4557 -2.6873 5.6442 -0.2130 18.2899
#
#
#
# Elastic Compliance Matrix: (Units=1/GPa)
#
#
# Indices 1 2 3 4 5 6 
#
# 1 0.033675 -0.000533 -0.001893 0.005441 -0.001917 -0.014877
# 2 -0.000533 0.023697 -0.005069 0.008863 -0.005564 -0.033720
# 3 -0.001893 -0.005069 0.009294 -0.001497 -0.001064 0.009079
# 4 0.005441 0.008863 -0.001497 0.038301 -0.015966 -0.025786
# 5 -0.001917 -0.005564 -0.001064 -0.015966 0.046257 0.013218
# 6 -0.014877 -0.033720 0.009079 -0.025786 0.013218 0.113364
#
#
# Mechanical properties :
#
#
# Convention : Reuss Voigt Hill
#
# Bulk Modulus (GPa) = 19.35125 37.18639 28.26882
# Shear Modulus (GPa) = 16.84610 28.98503 22.91556
#
# Velocity S-wave (km/s) = 2.88099 3.77902 3.36014
# Velocity P-wave (km/s) = 4.53886 6.11254 5.38351
#
# Compressibility (1/GPa) = 0.05167624
#
# Stress axis : x y z
#
# Youngs Moduli (GPa) = 29.69583 42.19910 107.59181
#
# Poissons Ratio (x) = 0.02250 0.20371
# Poissons Ratio (y) = 0.01583 0.54533
# Poissons Ratio (z) = 0.05623 0.21389
#
# Static dielectric constant tensor:
#      x y z
#    x 1.769390 -0.034040 -0.007250 
#    y -0.034040 1.828510 0.032220 
#    z -0.007250 0.032220 1.737370 
# 
# From -- ./inp_files/522719.got.cif
#   From: 2010.05.17/outbox.cif.g08.bks.cpg/sg2_262_cif.got.tgz:522719.got - 2010.06.03 11:33:40.
