data_PCOD9074639
_publ_section_title
;
Structure prediction by ZEFSAII (Michael W. Deem and Ramdas Pophale) SiO2 
 PCOD9074639
Probable space group: P -1
;
_chemical_formula_sum "Si O2"
_cell_formula_units_Z 16
_cell_length_a 8.734170
_cell_length_b 18.701568
_cell_length_c 12.765469
_cell_angle_alpha 42.458453
_cell_angle_beta 90.082427
_cell_angle_gamma 123.169146
_cell_volume 827.587458
_symmetry_space_group_name_H-M "P -1"
_symmetry_group_IT_number 2
_symmetry_cell_setting 'triclinic'
loop_
_space_group_symop_operation_xyz
x,y,z
-x,-y,-z
loop_
_atom_site_type_symbol
_atom_site_label
_atom_site_fract_x
_atom_site_fract_y
_atom_site_fract_z
Si Si1 0.442277 0.473711 0.903858
Si Si2 0.848729 0.320834 0.249630
Si Si3 0.663976 0.940451 0.347058
Si Si4 0.893647 0.926441 0.697202
Si Si5 0.850622 0.600631 0.634421
Si Si6 0.593673 0.054316 0.822845
Si Si7 0.067175 0.711678 0.923533
Si Si8 0.563437 0.229063 0.018321
O O1 0.282611 0.277203 0.092272
O O2 0.244353 0.458657 0.897215
O O3 0.500000 0.500000 0.000000
O O4 0.678080 0.598214 0.687174
O O5 0.570633 0.202212 0.417179
O O6 0.010160 0.367073 0.296318
O O7 0.831813 0.222675 0.266001
O O8 0.000000 0.500000 0.000000
O O9 0.530550 0.910963 0.272913
O O10 0.867461 0.959095 0.345151
O O11 0.831514 0.134091 0.176530
O O12 0.694223 0.901666 0.768834
O O13 0.000000 0.000000 0.500000
O O14 0.092451 0.765262 0.382990
O O15 0.667828 0.404867 0.797699
O O16 0.499970 0.894419 0.935986
O O17 0.500000 0.000000 0.000000
O O18 0.202203 0.687605 0.002723
#
# Coordination Sequence:
#
# PCOD9074639 Si02
#       8
#     2   2   2   2   2   2   2   2
#     4  10  20  31  48  82 121 154 183 221 272 346
#     4  11  18  28  49  79 116 148 184 215 274 350
#     4   9  21  35  53  79 113 147 196 237 277 340
#     4  10  21  33  54  85 122 155 180 222 285 350
#     4  10  21  36  54  87 116 147 190 238 278 347
#     4  10  23  43  64  80 106 153 204 254 294 319
#     4  10  18  32  52  75 115 157 184 218 278 347
#     4  10  21  38  58  84 114 150 193 236 290 345
#
# _framework density 19.333303000000001
#
# number of rings (size 3 to 8) (size 9 to 14) (size 15 to 20)
#    0.000    2.000    2.500    1.125    3.500    2.500 
#    0.000    0.625    0.000   12.000    0.000    0.000 
#    0.000    0.000    0.000    0.000    0.000    0.000 
#
# Total GULP energy -89175.120988 kJ/mol
# GULP energy per Si atom -5573.445062 kJ/mol
# Density = 1.928930 g / cm^3
# Si number density = 19.333303 Si / 1000 Ang^3
#
#
#
# Elastic Constant Matrix: (Units=GPa)
#
#
# Indices 1 2 3 4 5 6 
#
# 1 118.8097 37.2583 47.6390 7.1373 -36.2711 6.6603
# 2 37.2583 60.4871 38.7076 13.3429 -20.2720 -6.2206
# 3 47.6390 38.7076 112.2627 20.2331 -32.8547 5.8617
# 4 7.1373 13.3429 20.2331 27.8621 -1.6802 -4.3899
# 5 -36.2711 -20.2720 -32.8547 -1.6802 25.5645 -5.1905
# 6 6.6603 -6.2206 5.8617 -4.3899 -5.1905 22.3870
#
#
#
# Elastic Compliance Matrix: (Units=1/GPa)
#
#
# Indices 1 2 3 4 5 6 
#
# 1 0.015340 -0.002907 0.000839 -0.002145 0.020123 -0.001346
# 2 -0.002907 0.028882 -0.002967 -0.008023 0.016876 0.012007
# 3 0.000839 -0.002967 0.017561 -0.010833 0.020055 -0.003146
# 4 -0.002145 -0.008023 -0.010833 0.047998 -0.018899 0.006276
# 5 0.020123 0.016876 0.020055 -0.018899 0.108613 0.014928
# 6 -0.001346 0.012007 -0.003146 0.006276 0.014928 0.053921
#
#
# Mechanical properties :
#
#
# Convention : Reuss Voigt Hill
#
# Bulk Modulus (GPa) = 19.33756 59.86324 39.60040
# Shear Modulus (GPa) = 16.68772 26.35968 21.52370
#
# Velocity S-wave (km/s) = 2.94114 3.69648 3.34023
# Velocity P-wave (km/s) = 4.64303 7.01781 5.95010
#
# Compressibility (1/GPa) = 0.05171282
#
# Stress axis : x y z
#
# Youngs Moduli (GPa) = 65.19094 34.62362 56.94544
#
# Poissons Ratio (x) = 0.10064 -0.04777
# Poissons Ratio (y) = 0.18949 0.16895
# Poissons Ratio (z) = -0.05469 0.10273
#
# Static dielectric constant tensor:
#      x y z
#    x 1.798760 -0.032450 -0.009780 
#    y -0.032450 1.697380 -0.052830 
#    z -0.009780 -0.052830 1.689010 
# 
# From -- ./inp_files/181301.got.cif
#   From: 2010.05.17/outbox.cif.g08.bks.cpg/sg2_91_cif.got.tgz:181301.got - 2010.06.03 11:33:40.
