data_PCOD9074096
_publ_section_title
;
Structure prediction by ZEFSAII (Michael W. Deem and Ramdas Pophale) SiO2 
 PCOD9074096
Probable space group: P -1
;
_chemical_formula_sum "Si O2"
_cell_formula_units_Z 14
_cell_length_a 15.000000
_cell_length_b 15.000000
_cell_length_c 6.000000
_cell_angle_alpha 70.000000
_cell_angle_beta 100.000000
_cell_angle_gamma 150.000000
_cell_volume 612.336345
_symmetry_space_group_name_H-M "P -1"
_symmetry_group_IT_number 2
_symmetry_cell_setting 'triclinic'
loop_
_space_group_symop_operation_xyz
x,y,z
-x,-y,-z
loop_
_atom_site_type_symbol
_atom_site_label
_atom_site_fract_x
_atom_site_fract_y
_atom_site_fract_z
Si Si1 0.504998 0.114393 0.981612
Si Si2 0.786431 0.205266 0.527478
Si Si3 0.470576 0.634526 0.735661
Si Si4 0.206413 0.569138 0.533719
Si Si5 0.780411 0.044514 0.307148
Si Si6 0.013686 0.938097 0.757630
Si Si7 0.669896 0.686238 0.129581
O O1 0.695569 0.325995 0.761141
O O2 0.354389 0.048118 0.869697
O O3 0.500000 0.000000 0.000000
O O4 0.407742 0.012579 0.270223
O O5 0.770816 0.306291 0.440549
O O6 0.812815 0.174072 0.333953
O O7 0.981844 0.355647 0.606128
O O8 0.312759 0.574487 0.687781
O O9 0.424945 0.500057 0.675915
O O10 0.658416 0.861124 0.560603
O O11 0.526867 0.627922 0.994151
O O12 0.958598 0.145866 0.231257
O O13 0.202563 0.138283 0.796849
O O14 0.000000 0.000000 0.500000
O O15 0.829872 0.789186 0.947245
#
# Coordination Sequence:
#
# PCOD9074096 Si02
#       7
#     2   2   2   2   2   2   2
#     4   9  21  41  63  93 128 171 216 263 328 387
#     4  10  22  43  67  94 140 168 218 277 314 400
#     4  10  22  42  64  97 126 171 216 269 333 376
#     4   9  21  42  68  99 130 176 220 265 331 387
#     4  11  24  40  64  99 126 173 216 265 336 388
#     4  11  24  43  66  93 125 174 222 267 331 390
#     4  10  24  44  64  92 132 168 220 275 321 396
#
# _framework density 22.863251999999999
#
# number of rings (size 3 to 8) (size 9 to 14) (size 15 to 20)
#    0.000    2.000    1.429    0.000    6.000    5.714 
#    2.571    6.429    0.000    0.000    0.000    0.000 
#    0.000    0.000    0.000    0.000    0.000    0.000 
#
# Total GULP energy -78031.783879 kJ/mol
# GULP energy per Si atom -5573.698848 kJ/mol
# Density = 2.281121 g / cm^3
# Si number density = 22.863252 Si / 1000 Ang^3
#
#
#
# Elastic Constant Matrix: (Units=GPa)
#
#
# Indices 1 2 3 4 5 6 
#
# 1 177.3582 16.7486 24.6686 13.1800 13.2688 13.9563
# 2 16.7486 87.6875 9.5520 -1.8411 2.4763 11.8469
# 3 24.6686 9.5520 33.0893 -11.7229 5.7416 4.4160
# 4 13.1800 -1.8411 -11.7229 27.8837 3.9584 1.7206
# 5 13.2688 2.4763 5.7416 3.9584 51.1664 1.0842
# 6 13.9563 11.8469 4.4160 1.7206 1.0842 47.0340
#
#
#
# Elastic Compliance Matrix: (Units=1/GPa)
#
#
# Indices 1 2 3 4 5 6 
#
# 1 0.007316 -0.000571 -0.007332 -0.006436 -0.000526 -0.001091
# 2 -0.000571 0.012167 -0.002672 0.000127 -0.000095 -0.002647
# 3 -0.007332 -0.002672 0.045896 0.023415 -0.004884 -0.002204
# 4 -0.006436 0.000127 0.023415 0.049558 -0.004756 -0.002024
# 5 -0.000526 -0.000095 -0.004884 -0.004756 0.020594 0.000338
# 6 -0.001091 -0.002647 -0.002204 -0.002024 0.000338 0.022525
#
#
# Mechanical properties :
#
#
# Convention : Reuss Voigt Hill
#
# Bulk Modulus (GPa) = 22.61037 44.45260 33.53149
# Shear Modulus (GPa) = 25.77998 41.69455 33.73726
#
# Velocity S-wave (km/s) = 3.36158 4.27505 3.84554
# Velocity P-wave (km/s) = 4.99778 6.62217 5.86647
#
# Compressibility (1/GPa) = 0.04422750
#
# Stress axis : x y z
#
# Youngs Moduli (GPa) = 136.69397 82.18784 21.78844
#
# Poissons Ratio (x) = 0.04697 0.15976
# Poissons Ratio (y) = 0.07812 0.05821
# Poissons Ratio (z) = 1.00230 0.21958
#
# Static dielectric constant tensor:
#      x y z
#    x 1.821990 -0.028570 -0.045660 
#    y -0.028570 1.919010 0.033870 
#    z -0.045660 0.033870 1.974630 
# 
# From -- ./inp_files/97772.got.cif
#   From: 2010.05.17/outbox.ucp.g08.bks.cvg/sg2_49_cif.got.tgz:97772.got - 2010.06.11 11:32:03.
