data_PCOD9074633
_publ_section_title
;
Structure prediction by ZEFSAII (Michael W. Deem and Ramdas Pophale) SiO2 
 PCOD9074633
Probable space group: P -1
;
_chemical_formula_sum "Si O2"
_cell_formula_units_Z 16
_cell_length_a 9.000000
_cell_length_b 6.000000
_cell_length_c 24.000000
_cell_angle_alpha 90.000000
_cell_angle_beta 130.000000
_cell_angle_gamma 120.000000
_cell_volume 752.153660
_symmetry_space_group_name_H-M "P -1"
_symmetry_group_IT_number 2
_symmetry_cell_setting 'triclinic'
loop_
_space_group_symop_operation_xyz
x,y,z
-x,-y,-z
loop_
_atom_site_type_symbol
_atom_site_label
_atom_site_fract_x
_atom_site_fract_y
_atom_site_fract_z
Si Si1 0.706829 0.513722 0.223682
Si Si2 0.157837 0.120800 0.285539
Si Si3 0.248898 0.836253 0.855730
Si Si4 0.620493 0.664012 0.468441
Si Si5 0.720314 0.500708 0.935134
Si Si6 0.855270 0.173273 0.445394
Si Si7 0.535764 0.921310 0.732982
Si Si8 0.993733 0.526212 0.091650
O O1 0.772979 0.363565 0.197707
O O2 0.467054 0.458928 0.136859
O O3 0.619606 0.361084 0.263213
O O4 0.962102 0.857196 0.282136
O O5 0.399929 0.408744 0.374413
O O6 0.283198 0.058857 0.269022
O O7 0.977444 0.158607 0.209868
O O8 0.192909 0.694251 0.903696
O O9 0.521154 0.158742 0.908651
O O10 0.500000 0.500000 0.500000
O O11 0.904864 0.780829 0.523886
O O12 0.687953 0.959649 0.458457
O O13 0.928011 0.589327 0.938130
O O14 0.878172 0.652736 0.030400
O O15 0.660609 0.075659 0.348566
O O16 0.000000 0.500000 0.500000
O O17 0.730560 0.208114 0.816930
#
# Coordination Sequence:
#
# PCOD9074633 Si02
#       8
#     2   2   2   2   2   2   2   2
#     4  11  25  41  68  98 131 173 223 275 328 396
#     4  11  25  43  65  96 132 173 224 267 332 400
#     4  11  22  43  63  96 129 173 223 274 327 389
#     4  11  27  44  71 101 133 177 218 276 338 400
#     4  10  24  43  62  98 133 171 225 271 333 391
#     4  11  26  47  68 103 137 170 223 278 333 399
#     4  12  24  44  69  94 135 178 218 274 334 396
#     4  11  22  42  68  92 132 178 216 276 332 394
#
# _framework density 21.272248999999999
#
# number of rings (size 3 to 8) (size 9 to 14) (size 15 to 20)
#    0.000    1.000    3.750    1.875    3.500    1.500 
#    2.250    0.000    0.000    0.000    0.000    0.000 
#    0.000    0.000    0.000    0.000    0.000    0.000 
#
# Total GULP energy -89234.142703 kJ/mol
# GULP energy per Si atom -5577.133919 kJ/mol
# Density = 2.122383 g / cm^3
# Si number density = 21.272249 Si / 1000 Ang^3
#
#
#
# Elastic Constant Matrix: (Units=GPa)
#
#
# Indices 1 2 3 4 5 6 
#
# 1 61.7560 11.6924 -7.2238 1.9408 12.7809 38.6569
# 2 11.6924 102.9820 17.7953 -8.8905 -6.1064 43.7120
# 3 -7.2238 17.7953 89.3355 12.8738 6.3115 11.5961
# 4 1.9408 -8.8905 12.8738 2.6077 14.6743 -16.1717
# 5 12.7809 -6.1064 6.3115 14.6743 32.9443 -2.0219
# 6 38.6569 43.7120 11.5961 -16.1717 -2.0219 38.9332
#
#
#
# Elastic Compliance Matrix: (Units=1/GPa)
#
#
# Indices 1 2 3 4 5 6 
#
# 1 0.038226 0.010168 -0.000517 0.055633 -0.039355 -0.028153
# 2 0.010168 0.019120 -0.003495 0.027780 -0.013313 -0.019674
# 3 -0.000517 -0.003495 0.010092 0.010568 -0.006753 0.005471
# 4 0.055633 0.027780 0.010568 0.011387 -0.028830 -0.086343
# 5 -0.039355 -0.013313 -0.006753 -0.028830 0.060185 0.047184
# 6 -0.028153 -0.019674 0.005471 -0.086343 0.047184 0.040684
#
#
# Mechanical properties :
#
#
# Convention : Reuss Voigt Hill
#
# Bulk Modulus (GPa) = 12.53900 33.17792 22.85846
# Shear Modulus (GPa) = 25.77777 30.35101 28.06439
#
# Velocity S-wave (km/s) = 3.48487 3.78138 3.63615
# Velocity P-wave (km/s) = 4.70104 5.89032 5.32896
#
# Compressibility (1/GPa) = 0.07975121
#
# Stress axis : x y z
#
# Youngs Moduli (GPa) = 26.15986 52.30232 99.08582
#
# Poissons Ratio (x) = -0.53183 0.05119
# Poissons Ratio (y) = -0.26600 0.34634
# Poissons Ratio (z) = 0.01352 0.18281
#
# Static dielectric constant tensor:
#      x y z
#    x 1.766680 -0.057480 -0.001800 
#    y -0.057480 1.834290 -0.029520 
#    z -0.001800 -0.029520 1.791580 
# 
# From -- ./inp_files/46990.got.cif
#   From: 2010.05.17/outbox.ucp.g08.bks.cvg/sg2_24_cif.got.tgz:46990.got - 2010.06.11 11:32:03.
