data_PCOD9074320
_publ_section_title
;
Structure prediction by ZEFSAII (Michael W. Deem and Ramdas Pophale) SiO2 
 PCOD9074320
Probable space group: P -1
;
_chemical_formula_sum "Si O2"
_cell_formula_units_Z 15
_cell_length_a 18.000000
_cell_length_b 9.000000
_cell_length_c 12.000000
_cell_angle_alpha 50.000000
_cell_angle_beta 30.000000
_cell_angle_gamma 70.000000
_cell_volume 616.684141
_symmetry_space_group_name_H-M "P -1"
_symmetry_group_IT_number 2
_symmetry_cell_setting 'triclinic'
loop_
_space_group_symop_operation_xyz
x,y,z
-x,-y,-z
loop_
_atom_site_type_symbol
_atom_site_label
_atom_site_fract_x
_atom_site_fract_y
_atom_site_fract_z
Si Si1 0.508246 0.556337 0.785286
Si Si2 0.939323 0.432393 0.853249
Si Si3 0.000888 0.878284 0.807749
Si Si4 0.782158 0.635612 0.579143
Si Si5 0.000000 0.500000 0.000000
Si Si6 0.129857 0.896635 0.282072
Si Si7 0.680212 0.020549 0.233147
Si Si8 0.657395 0.965166 0.831942
O O1 0.649019 0.635232 0.664592
O O2 0.614862 0.751962 0.459492
O O3 0.335748 0.526128 0.085620
O O4 0.421500 0.296050 0.979273
O O5 0.125923 0.470665 0.554554
O O6 0.913282 0.443783 0.010943
O O7 0.953871 0.647299 0.666204
O O8 0.802102 0.183125 0.097268
O O9 0.885371 0.620061 0.128922
O O10 0.079140 0.099217 0.681692
O O11 0.168713 0.858470 0.558974
O O12 0.931540 0.937530 0.760983
O O13 0.263601 0.990061 0.168102
O O14 0.222157 0.880458 0.058518
O O15 0.500000 0.000000 0.500000
O O16 0.500000 0.000000 0.000000
#
# Coordination Sequence:
#
# PCOD9074320 Si02
#       8
#     2   2   2   2   1   2   2   2
#     4  10  24  43  72 107 146 192 245 303 361 447
#     4  12  26  48  76 107 149 195 248 299 375 441
#     4  11  25  45  74 110 144 195 248 306 360 445
#     4  10  22  47  76 101 146 198 244 295 373 446
#     4  12  28  42  76 110 148 184 250 312 352 432
#     4  12  26  48  79 107 148 203 244 306 376 449
#     4  12  28  44  71 109 148 187 250 308 368 439
#     4  11  25  46  73 105 153 197 244 302 383 440
#
# _framework density 24.323634999999999
#
# number of rings (size 3 to 8) (size 9 to 14) (size 15 to 20)
#    0.000    0.800    2.667    3.200    5.600    4.800 
#    0.000    0.000    0.000    0.000    0.000    0.000 
#    0.000    0.000    0.000    0.000    0.000    0.000 
#
# Total GULP energy -83690.964759 kJ/mol
# GULP energy per Si atom -5579.397651 kJ/mol
# Density = 2.426827 g / cm^3
# Si number density = 24.323635 Si / 1000 Ang^3
#
#
#
# Elastic Constant Matrix: (Units=GPa)
#
#
# Indices 1 2 3 4 5 6 
#
# 1 105.1243 35.2071 25.4695 0.4800 -2.3590 17.0897
# 2 35.2071 108.2776 19.2906 -7.5684 -9.3199 0.6104
# 3 25.4695 19.2906 53.6963 -2.3411 0.8744 13.3287
# 4 0.4800 -7.5684 -2.3411 29.3664 -5.6297 -5.3728
# 5 -2.3590 -9.3199 0.8744 -5.6297 36.3480 -0.6170
# 6 17.0897 0.6104 13.3287 -5.3728 -0.6170 56.4179
#
#
#
# Elastic Compliance Matrix: (Units=1/GPa)
#
#
# Indices 1 2 3 4 5 6 
#
# 1 0.012053 -0.003382 -0.003864 -0.001972 -0.000347 -0.002893
# 2 -0.003382 0.011391 -0.002869 0.003773 0.003388 0.001975
# 3 -0.003864 -0.002869 0.022542 0.000059 -0.001590 -0.004136
# 4 -0.001972 0.003773 0.000059 0.037096 0.006654 0.004148
# 5 -0.000347 0.003388 -0.001590 0.006654 0.029451 0.001400
# 6 -0.002893 0.001975 -0.004136 0.004148 0.001400 0.019967
#
#
# Mechanical properties :
#
#
# Convention : Reuss Voigt Hill
#
# Bulk Modulus (GPa) = 38.82739 47.44807 43.13773
# Shear Modulus (GPa) = 30.99522 36.90187 33.94854
#
# Velocity S-wave (km/s) = 3.57358 3.89925 3.73996
# Velocity P-wave (km/s) = 5.74672 6.31043 6.03516
#
# Compressibility (1/GPa) = 0.02575502
#
# Stress axis : x y z
#
# Youngs Moduli (GPa) = 82.96685 87.79205 44.36189
#
# Poissons Ratio (x) = 0.29692 0.17143
# Poissons Ratio (y) = 0.28060 0.12727
# Poissons Ratio (z) = 0.32060 0.25187
#
# Static dielectric constant tensor:
#      x y z
#    x 1.843170 -0.013360 -0.158960 
#    y -0.013360 1.877760 0.093860 
#    z -0.158960 0.093860 3.373900 
# 
# From -- ./inp_files/240148.got.cif
#   From: 2010.05.17/outbox.ucp.g08.bks.cvg/sg2_121_cif.got.tgz:240148.got - 2010.06.11 11:32:03.
