data_PCOD9074679
_publ_section_title
;
Structure prediction by ZEFSAII (Michael W. Deem and Ramdas Pophale) SiO2 
 PCOD9074679
Probable space group: P -1
;
_chemical_formula_sum "Si O2"
_cell_formula_units_Z 16
_cell_length_a 9.000000
_cell_length_b 9.000000
_cell_length_c 15.000000
_cell_angle_alpha 110.000000
_cell_angle_beta 40.000000
_cell_angle_gamma 100.000000
_cell_volume 725.993766
_symmetry_space_group_name_H-M "P -1"
_symmetry_group_IT_number 2
_symmetry_cell_setting 'triclinic'
loop_
_space_group_symop_operation_xyz
x,y,z
-x,-y,-z
loop_
_atom_site_type_symbol
_atom_site_label
_atom_site_fract_x
_atom_site_fract_y
_atom_site_fract_z
Si Si1 0.101452 0.591630 0.055812
Si Si2 0.559629 0.899191 0.625159
Si Si3 0.359259 0.709832 0.814881
Si Si4 0.874840 0.723230 0.933444
Si Si5 0.240062 0.571527 0.426999
Si Si6 0.626167 0.208745 0.743548
Si Si7 0.972506 0.825075 0.304470
Si Si8 0.130826 0.845946 0.680504
O O1 0.159347 0.462645 0.081188
O O2 0.935668 0.727056 0.211254
O O3 0.301722 0.680284 0.938068
O O4 0.000000 0.500000 0.000000
O O5 0.487593 0.849056 0.746302
O O6 0.341557 0.892723 0.656732
O O7 0.773550 0.789652 0.457300
O O8 0.667882 0.060069 0.625999
O O9 0.539577 0.556852 0.671517
O O10 0.108726 0.734730 0.885808
O O11 0.931906 0.796803 0.828242
O O12 0.639441 0.797180 0.105399
O O13 0.327187 0.645777 0.310831
O O14 0.201476 0.698503 0.550964
O O15 0.000000 0.500000 0.500000
O O16 0.788181 0.206198 0.755636
O O17 0.950084 0.003774 0.313893
#
# Coordination Sequence:
#
# PCOD9074679 Si02
#       8
#     2   2   2   2   2   2   2   2
#     4  10  24  44  71  99 141 186 237 286 350 416
#     4  11  26  45  75 106 145 183 246 289 360 423
#     4  10  24  44  73 102 142 186 235 298 350 416
#     4  10  25  45  70 104 141 185 245 282 357 420
#     4  12  27  46  73 105 146 187 240 297 362 418
#     4  12  27  47  73 104 149 190 232 301 355 427
#     4  12  27  45  71 106 148 186 237 297 359 415
#     4  11  28  44  74 107 141 191 241 291 354 430
#
# _framework density 22.038757
#
# number of rings (size 3 to 8) (size 9 to 14) (size 15 to 20)
#    0.000    1.000    2.500    1.500   14.000    4.000 
#    0.000    0.000    0.000    0.000    0.000    0.000 
#    0.000    0.000    0.000    0.000    0.000    0.000 
#
# Total GULP energy -89176.106054 kJ/mol
# GULP energy per Si atom -5573.506628 kJ/mol
# Density = 2.198860 g / cm^3
# Si number density = 22.038757 Si / 1000 Ang^3
#
#
#
# Elastic Constant Matrix: (Units=GPa)
#
#
# Indices 1 2 3 4 5 6 
#
# 1 56.9292 13.9825 3.7442 7.1854 7.5491 21.8549
# 2 13.9825 94.6530 28.9683 -23.6096 1.8643 -9.8258
# 3 3.7442 28.9683 105.7181 -21.4285 3.2334 8.4452
# 4 7.1854 -23.6096 -21.4285 38.1591 -8.4083 9.9147
# 5 7.5491 1.8643 3.2334 -8.4083 8.1676 -5.4730
# 6 21.8549 -9.8258 8.4452 9.9147 -5.4730 16.1728
#
#
#
# Elastic Compliance Matrix: (Units=1/GPa)
#
#
# Indices 1 2 3 4 5 6 
#
# 1 -0.028519 0.015951 -0.010654 0.008256 0.088061 0.078534
# 2 0.015951 0.005323 0.002158 0.001965 -0.037025 -0.033182
# 3 -0.010654 0.002158 0.009759 0.011190 0.025253 0.012299
# 4 0.008256 0.001965 0.011190 0.043962 0.005300 -0.040963
# 5 0.088061 -0.037025 0.025253 0.005300 -0.078729 -0.184573
# 6 0.078534 -0.033182 0.012299 -0.040963 -0.184573 -0.108224
#
#
# Mechanical properties :
#
#
# Convention : Reuss Voigt Hill
#
# Bulk Modulus (GPa) = 679.80612 38.96558 359.38585
# Shear Modulus (GPa) = -29.26587 26.54023 -1.36282
#
# Velocity S-wave (km/s) = -3.64803 3.47400 -0.78722
# Velocity P-wave (km/s) = 17.07000 5.81467 12.75138
#
# Compressibility (1/GPa) = 0.00147101
#
# Stress axis : x y z
#
# Youngs Moduli (GPa) = -35.06374 187.87135 102.47422
#
# Poissons Ratio (x) = -2.99674 1.09180
# Poissons Ratio (y) = 0.55930 -0.22113
# Poissons Ratio (z) = -0.37358 -0.40541
#
# Static dielectric constant tensor:
#      x y z
#    x 1.773420 -0.008700 -0.007270 
#    y -0.008700 1.936220 0.093530 
#    z -0.007270 0.093530 1.878800 
# 
# From -- ./inp_files/227759.got.cif
#   From: 2010.05.17/outbox.ucp.g08.bks.cvg/sg2_114_cif.got.tgz:227759.got - 2010.06.11 11:32:03.
