data_PCOD9074834
_publ_section_title
;
Structure prediction by ZEFSAII (Michael W. Deem and Ramdas Pophale) SiO2 
 PCOD9074834
Probable space group: P -1
;
_chemical_formula_sum "Si O2"
_cell_formula_units_Z 14
_cell_length_a 11.210585
_cell_length_b 11.367314
_cell_length_c 10.831072
_cell_angle_alpha 133.308635
_cell_angle_beta 145.231589
_cell_angle_gamma 53.520440
_cell_volume 571.142262
_symmetry_space_group_name_H-M "P -1"
_symmetry_group_IT_number 2
_symmetry_cell_setting 'triclinic'
loop_
_space_group_symop_operation_xyz
x,y,z
-x,-y,-z
loop_
_atom_site_type_symbol
_atom_site_label
_atom_site_fract_x
_atom_site_fract_y
_atom_site_fract_z
Si Si1 0.813949 0.416528 0.125835
Si Si2 0.240193 0.324903 0.555218
Si Si3 0.793554 0.953122 0.143671
Si Si4 0.574139 0.619122 0.489723
Si Si5 0.600319 0.251996 0.319782
Si Si6 0.009356 0.650634 0.026625
Si Si7 0.900281 0.105262 0.102469
O O1 0.699384 0.572937 0.202424
O O2 0.760194 0.253258 0.030522
O O3 0.056075 0.424145 0.387470
O O4 0.823769 0.393885 0.971889
O O5 0.412888 0.301274 0.577799
O O6 0.110952 0.178122 0.387994
O O7 0.781810 0.118991 0.332161
O O8 0.771204 0.018047 0.030885
O O9 0.607182 0.844845 0.949201
O O10 0.993458 0.823896 0.205788
O O11 0.582371 0.422374 0.353237
O O12 0.405008 0.689821 0.498998
O O13 0.788731 0.657973 0.769844
O O14 0.000000 0.500000 0.000000
O O15 0.000000 0.000000 0.000000
#
# Coordination Sequence:
#
# PCOD9074834 Si02
#       7
#     2   2   2   2   2   2   2
#     4   8  15  26  41  68  90 119 145 183 248 270
#     4   8  15  25  45  69  92 114 145 198 243 271
#     4  10  18  29  44  74  99 117 157 189 241 278
#     4   9  16  32  48  71  97 119 159 184 240 286
#     4   9  18  28  47  68  96 127 146 199 232 272
#     4  10  19  31  45  66 101 131 153 184 228 292
#     4  10  14  24  44  69  98 109 140 205 244 267
#
# _framework density 24.512281999999999
#
# number of rings (size 3 to 8) (size 9 to 14) (size 15 to 20)
#    0.857    2.000    1.429    1.714    2.000    0.000 
#    0.000    0.714    0.000    0.000    0.000   38.000 
#    0.000    0.000    0.000    0.000    0.000    0.000 
#
# Total GULP energy -78006.528313 kJ/mol
# GULP energy per Si atom -5571.894879 kJ/mol
# Density = 2.445649 g / cm^3
# Si number density = 24.512282 Si / 1000 Ang^3
#
#
#
# Elastic Constant Matrix: (Units=GPa)
#
#
# Indices 1 2 3 4 5 6 
#
# 1 67.4154 22.0369 15.6911 -7.8975 -7.0020 2.2102
# 2 22.0369 81.2479 37.2826 24.8214 -14.9259 -1.6914
# 3 15.6911 37.2826 76.3364 22.4367 -21.6265 -7.3951
# 4 -7.8975 24.8214 22.4367 36.1882 -4.5647 -4.1963
# 5 -7.0020 -14.9259 -21.6265 -4.5647 48.8586 10.1629
# 6 2.2102 -1.6914 -7.3951 -4.1963 10.1629 43.8026
#
#
#
# Elastic Compliance Matrix: (Units=1/GPa)
#
#
# Indices 1 2 3 4 5 6 
#
# 1 0.019387 -0.006880 -0.004004 0.011350 0.000145 -0.000866
# 2 -0.006880 0.020444 -0.004263 -0.012729 0.002469 -0.001375
# 3 -0.004004 -0.004263 0.020776 -0.009920 0.006150 0.001168
# 4 0.011350 -0.012729 -0.009920 0.044882 -0.002925 0.002239
# 5 0.000145 0.002469 0.006150 -0.002925 0.024708 -0.004886
# 6 -0.000866 -0.001375 0.001168 0.002239 -0.004886 0.024366
#
#
# Mechanical properties :
#
#
# Convention : Reuss Voigt Hill
#
# Bulk Modulus (GPa) = 32.98830 41.66899 37.32865
# Shear Modulus (GPa) = 25.64609 35.76917 30.70763
#
# Velocity S-wave (km/s) = 3.23810 3.82414 3.54325
# Velocity P-wave (km/s) = 5.24094 6.04440 5.65695
#
# Compressibility (1/GPa) = 0.03031378
#
# Stress axis : x y z
#
# Youngs Moduli (GPa) = 51.57986 48.91395 48.13228
#
# Poissons Ratio (x) = 0.33654 0.19271
# Poissons Ratio (y) = 0.35488 0.20519
# Poissons Ratio (z) = 0.20651 0.20852
#
# Static dielectric constant tensor:
#      x y z
#    x 1.982390 -0.105280 -0.098560 
#    y -0.105280 1.944210 -0.050800 
#    z -0.098560 -0.050800 1.833410 
# 
# From -- ./inp_files/422285.got.cif
#   From: 2010.05.17/outbox.cif.g08.bks.cpg/sg2_212_cif.got.tgz:422285.got - 2010.06.03 11:33:40.
