data_PCOD9074504
_publ_section_title
;
Structure prediction by ZEFSAII (Michael W. Deem and Ramdas Pophale) SiO2 
 PCOD9074504
Probable space group: P -1
;
_chemical_formula_sum "Si O2"
_cell_formula_units_Z 16
_cell_length_a 18.000000
_cell_length_b 15.000000
_cell_length_c 12.000000
_cell_angle_alpha 50.000000
_cell_angle_beta 30.000000
_cell_angle_gamma 30.000000
_cell_volume 731.734496
_symmetry_space_group_name_H-M "P -1"
_symmetry_group_IT_number 2
_symmetry_cell_setting 'triclinic'
loop_
_space_group_symop_operation_xyz
x,y,z
-x,-y,-z
loop_
_atom_site_type_symbol
_atom_site_label
_atom_site_fract_x
_atom_site_fract_y
_atom_site_fract_z
Si Si1 0.456698 0.903614 0.689959
Si Si2 0.924432 0.917267 0.134112
Si Si3 0.284760 0.485841 0.324499
Si Si4 0.256027 0.070663 0.268067
Si Si5 0.498855 0.810018 0.361815
Si Si6 0.212421 0.139319 0.023823
Si Si7 0.561719 0.498587 0.109064
Si Si8 0.661824 0.443751 0.438857
O O1 0.676741 0.672365 0.566126
O O2 0.500000 0.000000 0.500000
O O3 0.202123 0.011694 0.879200
O O4 0.425944 0.947376 0.824933
O O5 0.703240 0.020731 0.421482
O O6 0.172237 0.688117 0.024276
O O7 0.000000 0.000000 0.000000
O O8 0.457569 0.454342 0.207926
O O9 0.996997 0.711509 0.526984
O O10 0.393245 0.436094 0.098805
O O11 0.356074 0.906986 0.350620
O O12 0.191588 0.088032 0.209998
O O13 0.500000 0.000000 0.000000
O O14 0.720905 0.766445 0.114862
O O15 0.563527 0.635891 0.442959
O O16 0.956434 0.283203 0.172491
O O17 0.374375 0.621929 0.357891
O O18 0.500000 0.500000 0.500000
#
# Coordination Sequence:
#
# PCOD9074504 Si02
#       8
#     2   2   2   2   2   2   2   2
#     4  12  26  43  69 107 136 180 228 288 346 405
#     4  12  21  41  70  96 137 172 236 276 334 409
#     4  11  23  44  70 100 134 178 234 281 336 415
#     4  10  23  44  69  97 130 185 228 276 347 410
#     4  11  23  43  70  96 132 189 228 282 345 414
#     4  11  25  45  66  99 142 178 228 289 353 408
#     4  11  23  41  69  98 130 185 228 277 339 410
#     4  12  25  42  67 104 139 179 232 288 347 409
#
# _framework density 21.865853999999999
#
# number of rings (size 3 to 8) (size 9 to 14) (size 15 to 20)
#    0.000    0.750    6.250    1.125    0.000    3.000 
#    0.000    6.875    0.000    0.000    0.000    0.000 
#    0.000    0.000    0.000    0.000    0.000    0.000 
#
# Total GULP energy -89286.280299 kJ/mol
# GULP energy per Si atom -5580.392519 kJ/mol
# Density = 2.181609 g / cm^3
# Si number density = 21.865854 Si / 1000 Ang^3
#
#
#
# Elastic Constant Matrix: (Units=GPa)
#
#
# Indices 1 2 3 4 5 6 
#
# 1 105.4714 4.9679 24.0504 -7.5860 -2.8035 -8.4070
# 2 4.9679 50.2783 19.1152 -4.6043 -3.1023 -3.8506
# 3 24.0504 19.1152 84.2878 -0.6475 1.6749 -0.2957
# 4 -7.5860 -4.6043 -0.6475 29.4826 -11.0342 -1.1301
# 5 -2.8035 -3.1023 1.6749 -11.0342 39.7913 -1.4712
# 6 -8.4070 -3.8506 -0.2957 -1.1301 -1.4712 24.4889
#
#
#
# Elastic Compliance Matrix: (Units=1/GPa)
#
#
# Indices 1 2 3 4 5 6 
#
# 1 0.010860 0.000999 -0.003325 0.003863 0.002208 0.004156
# 2 0.000999 0.022928 -0.005503 0.005273 0.003713 0.004348
# 3 -0.003325 -0.005503 0.014075 -0.002213 -0.001945 -0.002056
# 4 0.003863 0.005273 -0.002213 0.040419 0.012159 0.004724
# 5 0.002208 0.003713 -0.001945 0.012159 0.029164 0.003631
# 6 0.004156 0.004348 -0.002056 0.004724 0.003631 0.043357
#
#
# Mechanical properties :
#
#
# Convention : Reuss Voigt Hill
#
# Bulk Modulus (GPa) = 31.04998 37.36716 34.20857
# Shear Modulus (GPa) = 26.71005 31.54616 29.12810
#
# Velocity S-wave (km/s) = 3.49885 3.80243 3.65379
# Velocity P-wave (km/s) = 5.52753 6.03360 5.78610
#
# Compressibility (1/GPa) = 0.03220614
#
# Stress axis : x y z
#
# Youngs Moduli (GPa) = 92.07924 43.61545 71.04651
#
# Poissons Ratio (x) = -0.04359 0.23624
# Poissons Ratio (y) = -0.09202 0.39096
# Poissons Ratio (z) = 0.30617 0.24001
#
# Static dielectric constant tensor:
#      x y z
#    x 1.831340 -0.016700 0.010420 
#    y -0.016700 1.792590 0.000400 
#    z 0.010420 0.000400 1.885730 
# 
# From -- ./inp_files/392058.got.cif
#   From: 2010.05.17/outbox.ucp.g08.bks.cvg/sg2_197_cif.got.tgz:392058.got - 2010.06.11 11:32:03.
