data_PCOD9074068
_publ_section_title
;
Structure prediction by ZEFSAII (Michael W. Deem and Ramdas Pophale) SiO2 
 PCOD9074068
Probable space group: P -1
;
_chemical_formula_sum "Si O2"
_cell_formula_units_Z 14
_cell_length_a 9.000000
_cell_length_b 24.000000
_cell_length_c 12.000000
_cell_angle_alpha 30.000000
_cell_angle_beta 40.000000
_cell_angle_gamma 30.000000
_cell_volume 646.664136
_symmetry_space_group_name_H-M "P -1"
_symmetry_group_IT_number 2
_symmetry_cell_setting 'triclinic'
loop_
_space_group_symop_operation_xyz
x,y,z
-x,-y,-z
loop_
_atom_site_type_symbol
_atom_site_label
_atom_site_fract_x
_atom_site_fract_y
_atom_site_fract_z
Si Si1 0.686920 0.043906 0.764796
Si Si2 0.190593 0.904807 0.162126
Si Si3 0.165712 0.372885 0.462214
Si Si4 0.836220 0.828311 0.877134
Si Si5 0.174025 0.150246 0.406145
Si Si6 0.063891 0.544524 0.998623
Si Si7 0.291956 0.541521 0.242743
O O1 0.870373 0.026318 0.798545
O O2 0.439392 0.204826 0.582062
O O3 0.851828 0.932964 0.763058
O O4 0.500000 0.000000 0.000000
O O5 0.065342 0.818562 0.416630
O O6 0.526753 0.849081 0.036011
O O7 0.000000 0.000000 0.000000
O O8 0.290714 0.417947 0.407778
O O9 0.876813 0.406668 0.630772
O O10 0.077102 0.464820 0.240893
O O11 0.900078 0.852530 0.675077
O O12 0.090256 0.670153 0.048750
O O13 0.177065 0.283179 0.163223
O O14 0.500000 0.000000 0.500000
O O15 0.384063 0.505496 0.868289
O O16 0.000000 0.500000 0.000000
#
# Coordination Sequence:
#
# PCOD9074068 Si02
#       7
#     2   2   2   2   2   2   2
#     4  10  22  41  68 107 134 177 234 288 332 410
#     4  11  23  43  69 101 143 178 224 289 347 409
#     4  11  23  45  73  99 141 183 235 285 348 414
#     4  11  24  46  70 107 135 179 241 282 346 413
#     4  12  27  46  70 100 140 185 231 288 355 416
#     4  12  30  46  67 107 142 182 236 292 355 417
#     4  11  24  46  76  98 136 189 232 284 350 421
#
# _framework density 21.649569
#
# number of rings (size 3 to 8) (size 9 to 14) (size 15 to 20)
#    0.000    0.857    5.714    1.286    6.000    2.286 
#    0.000    0.000    0.000    0.000    0.000    0.000 
#    0.000    0.000    0.000    0.000    0.000    0.000 
#
# Total GULP energy -78085.153688 kJ/mol
# GULP energy per Si atom -5577.510978 kJ/mol
# Density = 2.160029 g / cm^3
# Si number density = 21.649569 Si / 1000 Ang^3
#
#
#
# Elastic Constant Matrix: (Units=GPa)
#
#
# Indices 1 2 3 4 5 6 
#
# 1 59.1717 18.8372 38.4129 -13.5035 25.9802 8.8694
# 2 18.8372 54.0207 14.7430 -6.5680 12.1274 -15.3249
# 3 38.4129 14.7430 120.7281 9.2329 43.0891 -14.5477
# 4 -13.5035 -6.5680 9.2329 51.7036 4.7408 2.4335
# 5 25.9802 12.1274 43.0891 4.7408 33.7907 5.5928
# 6 8.8694 -15.3249 -14.5477 2.4335 5.5928 39.8188
#
#
#
# Elastic Compliance Matrix: (Units=1/GPa)
#
#
# Indices 1 2 3 4 5 6 
#
# 1 0.035406 -0.009682 -0.007896 0.011252 -0.013047 -0.013352
# 2 -0.009682 0.028262 0.006851 0.000332 -0.014385 0.017537
# 3 -0.007896 0.006851 0.021359 -0.003395 -0.025801 0.016030
# 4 0.011252 0.000332 -0.003395 0.023771 -0.007102 -0.004074
# 5 -0.013047 -0.014385 -0.025801 -0.007102 0.082528 -0.023214
# 6 -0.013352 0.017537 0.016030 -0.004074 -0.023214 0.044204
#
#
# Mechanical properties :
#
#
# Convention : Reuss Voigt Hill
#
# Bulk Modulus (GPa) = 15.72970 41.98965 28.85967
# Shear Modulus (GPa) = 17.97437 35.85779 26.91608
#
# Velocity S-wave (km/s) = 2.88452 4.07416 3.52982
# Velocity P-wave (km/s) = 4.28664 6.44740 5.47468
#
# Compressibility (1/GPa) = 0.06357400
#
# Stress axis : x y z
#
# Youngs Moduli (GPa) = 28.24397 35.38259 46.81947
#
# Poissons Ratio (x) = 0.34258 0.36967
# Poissons Ratio (y) = 0.27346 -0.32077
# Poissons Ratio (z) = 0.22301 -0.24242
#
# Static dielectric constant tensor:
#      x y z
#    x 1.861720 0.024030 -0.137380 
#    y 0.024030 1.843840 0.028280 
#    z -0.137380 0.028280 1.967510 
# 
# From -- ./inp_files/406872.got.cif
#   From: 2010.05.17/outbox.ucp.g08.bks.cvg/sg2_204_cif.got.tgz:406872.got - 2010.06.11 11:32:03.
