data_PCOD9074702
_publ_section_title
;
Structure prediction by ZEFSAII (Michael W. Deem and Ramdas Pophale) SiO2 
 PCOD9074702
Probable space group: P -1
;
_chemical_formula_sum "Si O2"
_cell_formula_units_Z 14
_cell_length_a 18.000000
_cell_length_b 9.000000
_cell_length_c 12.000000
_cell_angle_alpha 140.000000
_cell_angle_beta 130.000000
_cell_angle_gamma 30.000000
_cell_volume 623.501542
_symmetry_space_group_name_H-M "P -1"
_symmetry_group_IT_number 2
_symmetry_cell_setting 'triclinic'
loop_
_space_group_symop_operation_xyz
x,y,z
-x,-y,-z
loop_
_atom_site_type_symbol
_atom_site_label
_atom_site_fract_x
_atom_site_fract_y
_atom_site_fract_z
Si Si1 0.358905 0.622623 0.763480
Si Si2 0.534297 0.879925 0.239425
Si Si3 0.774472 0.673981 0.868423
Si Si4 0.049406 0.142545 0.684050
Si Si5 0.922455 0.421825 0.095854
Si Si6 0.745658 0.316583 0.930088
Si Si7 0.433294 0.682254 0.418496
O O1 0.469569 0.269843 0.740291
O O2 0.432832 0.529822 0.662589
O O3 0.192893 0.817166 0.708875
O O4 0.319924 0.933700 0.962387
O O5 0.362492 0.247394 0.248835
O O6 0.621417 0.956160 0.402194
O O7 0.623124 0.567050 0.053178
O O8 0.890369 0.413980 0.931020
O O9 0.894346 0.515462 0.799390
O O10 0.105830 0.255713 0.731045
O O11 0.000000 0.000000 0.500000
O O12 0.791394 0.502217 0.064448
O O13 0.090406 0.073007 0.099327
O O14 0.677247 0.296104 0.745622
O O15 0.500000 0.500000 0.500000
#
# Coordination Sequence:
#
# PCOD9074702 Si02
#       7
#     2   2   2   2   2   2   2
#     4  11  24  45  70 107 141 188 244 293 357 425
#     4  12  25  43  78 106 141 184 242 298 361 415
#     4  11  22  43  73 102 142 188 236 290 362 417
#     4  11  24  40  70 104 146 182 240 292 352 426
#     4  10  24  45  69  98 143 194 234 283 365 423
#     4  11  25  48  71 101 148 189 237 295 354 436
#     4  12  28  44  72 107 145 189 240 297 360 423
#
# _framework density 22.453834000000001
#
# number of rings (size 3 to 8) (size 9 to 14) (size 15 to 20)
#    0.000    0.857    1.429    6.000    8.000    1.143 
#    0.000    1.429    0.000    0.000    0.000    0.000 
#    0.000    0.000    0.000    0.000    0.000    0.000 
#
# Total GULP energy -77944.497150 kJ/mol
# GULP energy per Si atom -5567.464082 kJ/mol
# Density = 2.240273 g / cm^3
# Si number density = 22.453834 Si / 1000 Ang^3
#
#
#
# Elastic Constant Matrix: (Units=GPa)
#
#
# Indices 1 2 3 4 5 6 
#
# 1 90.2853 36.7762 47.6732 -27.4785 -6.7553 0.1361
# 2 36.7762 94.2147 46.1542 -40.0802 -5.6543 -23.5757
# 3 47.6732 46.1542 112.0529 -29.5754 0.6499 -6.6442
# 4 -27.4785 -40.0802 -29.5754 26.7142 -19.1818 9.6832
# 5 -6.7553 -5.6543 0.6499 -19.1818 14.8920 -11.9752
# 6 0.1361 -23.5757 -6.6442 9.6832 -11.9752 36.6033
#
#
#
# Elastic Compliance Matrix: (Units=1/GPa)
#
#
# Indices 1 2 3 4 5 6 
#
# 1 0.014689 -0.007698 -0.004695 -0.004676 -0.007868 -0.007202
# 2 -0.007698 0.007446 -0.004113 -0.017212 -0.021325 0.001654
# 3 -0.004695 -0.004113 0.013201 0.002540 -0.002342 -0.001674
# 4 -0.004676 -0.017212 0.002540 -0.020853 -0.053901 -0.022725
# 5 -0.007868 -0.021325 -0.002342 -0.053901 -0.018642 -0.005970
# 6 -0.007202 0.001654 -0.001674 -0.022725 -0.005970 0.032167
#
#
# Mechanical properties :
#
#
# Convention : Reuss Voigt Hill
#
# Bulk Modulus (GPa) = 430.01691 61.97336 245.99513
# Shear Modulus (GPa) = 80.91476 26.70519 53.80998
#
# Velocity S-wave (km/s) = 6.00952 3.45242 4.90069
# Velocity P-wave (km/s) = 15.49451 6.59943 11.90866
#
# Compressibility (1/GPa) = 0.00232549
#
# Stress axis : x y z
#
# Youngs Moduli (GPa) = 68.07591 134.30416 75.75460
#
# Poissons Ratio (x) = 1.03382 0.35563
# Poissons Ratio (y) = 0.52402 0.31158
# Poissons Ratio (z) = 0.31959 0.55240
#
# Static dielectric constant tensor:
#      x y z
#    x 2.011320 -0.000320 0.005360 
#    y -0.000320 1.841210 -0.108970 
#    z 0.005360 -0.108970 1.771730 
# 
# From -- ./inp_files/245239.got.cif
#   From: 2010.05.17/outbox.ucp.g08.bks.cvg/sg2_123_cif.got.tgz:245239.got - 2010.06.11 11:32:03.
