data_PCOD9074897
_publ_section_title
;
Structure prediction by ZEFSAII (Michael W. Deem and Ramdas Pophale) SiO2 
 PCOD9074897
Probable space group: P -1
;
_chemical_formula_sum "Si O2"
_cell_formula_units_Z 16
_cell_length_a 15.000000
_cell_length_b 12.000000
_cell_length_c 9.000000
_cell_angle_alpha 80.000000
_cell_angle_beta 90.000000
_cell_angle_gamma 30.000000
_cell_volume 759.581896
_symmetry_space_group_name_H-M "P -1"
_symmetry_group_IT_number 2
_symmetry_cell_setting 'triclinic'
loop_
_space_group_symop_operation_xyz
x,y,z
-x,-y,-z
loop_
_atom_site_type_symbol
_atom_site_label
_atom_site_fract_x
_atom_site_fract_y
_atom_site_fract_z
Si Si1 0.648972 0.683547 0.858388
Si Si2 0.867184 0.943996 0.317431
Si Si3 0.377030 0.365751 0.790896
Si Si4 0.258387 0.164649 0.155185
Si Si5 0.984679 0.364820 0.344601
Si Si6 0.854776 0.228854 0.835572
Si Si7 0.773237 0.828099 0.202668
Si Si8 0.513282 0.495705 0.181335
O O1 0.742725 0.701845 0.826759
O O2 0.755285 0.455368 0.845437
O O3 0.427362 0.944139 0.765243
O O4 0.633883 0.674326 0.035181
O O5 0.898578 0.821362 0.480199
O O6 0.844325 0.878213 0.199484
O O7 0.026265 0.856453 0.285233
O O8 0.682265 0.223011 0.284206
O O9 0.432691 0.435915 0.789248
O O10 0.175086 0.553170 0.690185
O O11 0.537742 0.119674 0.758145
O O12 0.109464 0.255145 0.224572
O O13 0.233843 0.191335 0.969930
O O14 0.888838 0.593721 0.324139
O O15 0.682141 0.333370 0.791001
O O16 0.000000 0.000000 0.000000
O O17 0.500000 0.500000 0.000000
#
# Coordination Sequence:
#
# PCOD9074897 Si02
#       8
#     2   2   2   2   2   2   2   2
#     4  11  20  41  71 102 129 173 227 284 326 389
#     4  12  27  44  67 101 138 176 223 281 337 394
#     4  11  23  41  68  98 138 173 224 281 329 392
#     4  11  23  41  72 100 130 182 226 273 334 397
#     4  12  26  43  65 102 141 177 220 273 342 403
#     4  12  25  42  72 100 128 173 227 278 334 393
#     4  11  21  44  70  97 137 176 225 277 328 404
#     4  12  23  46  69  99 133 172 230 285 327 393
#
# _framework density 21.064219999999999
#
# number of rings (size 3 to 8) (size 9 to 14) (size 15 to 20)
#    0.000    0.500    6.250    3.000    1.750    2.500 
#    0.000    2.500    0.000    0.000    0.000    0.000 
#    0.000    0.000    0.000    0.000    0.000    0.000 
#
# Total GULP energy -89337.009790 kJ/mol
# GULP energy per Si atom -5583.563112 kJ/mol
# Density = 2.101628 g / cm^3
# Si number density = 21.064220 Si / 1000 Ang^3
#
#
#
# Elastic Constant Matrix: (Units=GPa)
#
#
# Indices 1 2 3 4 5 6 
#
# 1 177.2200 40.4682 19.7114 -3.0471 -9.8365 -3.0942
# 2 40.4682 125.9226 33.3766 -18.3714 -10.8548 -5.2391
# 3 19.7114 33.3766 49.4103 -19.6185 -20.5909 0.1815
# 4 -3.0471 -18.3714 -19.6185 18.7781 5.7729 -3.9377
# 5 -9.8365 -10.8548 -20.5909 5.7729 32.4859 -2.1677
# 6 -3.0942 -5.2391 0.1815 -3.9377 -2.1677 47.6591
#
#
#
# Elastic Compliance Matrix: (Units=1/GPa)
#
#
# Indices 1 2 3 4 5 6 
#
# 1 0.006302 -0.001844 -0.002556 -0.003557 0.000300 -0.000064
# 2 -0.001844 0.010560 -0.004285 0.006100 -0.000728 0.001528
# 3 -0.002556 -0.004285 0.049859 0.041390 0.022283 0.003606
# 4 -0.003557 0.006100 0.041390 0.100743 0.009898 0.009056
# 5 0.000300 -0.000728 0.022283 0.009898 0.043171 0.002636
# 6 -0.000064 0.001528 0.003606 0.009056 0.002636 0.022001
#
#
# Mechanical properties :
#
#
# Convention : Reuss Voigt Hill
#
# Bulk Modulus (GPa) = 20.26191 59.96282 40.11237
# Shear Modulus (GPa) = 18.76477 37.05107 27.90792
#
# Velocity S-wave (km/s) = 2.98793 4.19854 3.64386
# Velocity P-wave (km/s) = 4.64151 7.21333 6.06530
#
# Compressibility (1/GPa) = 0.04935369
#
# Stress axis : x y z
#
# Youngs Moduli (GPa) = 158.67053 94.69272 20.05638
#
# Poissons Ratio (x) = 0.17459 0.05126
# Poissons Ratio (y) = 0.29254 0.08594
# Poissons Ratio (z) = 0.40553 0.40574
#
# Static dielectric constant tensor:
#      x y z
#    x 1.779610 -0.044840 0.090150 
#    y -0.044840 1.792030 -0.055640 
#    z 0.090150 -0.055640 1.827070 
# 
# From -- ./inp_files/273460.got.cif
#   From: 2010.05.17/outbox.ucp.g08.bks.cvg/sg2_137_cif.got.tgz:273460.got - 2010.06.11 11:32:03.
