data_PCOD9074747
_publ_section_title
;
Structure prediction by ZEFSAII (Michael W. Deem and Ramdas Pophale) SiO2 
 PCOD9074747
Probable space group: P -1
;
_chemical_formula_sum "Si O2"
_cell_formula_units_Z 16
_cell_length_a 9.000000
_cell_length_b 12.000000
_cell_length_c 9.000000
_cell_angle_alpha 100.000000
_cell_angle_beta 130.000000
_cell_angle_gamma 80.000000
_cell_volume 730.800219
_symmetry_space_group_name_H-M "P -1"
_symmetry_group_IT_number 2
_symmetry_cell_setting 'triclinic'
loop_
_space_group_symop_operation_xyz
x,y,z
-x,-y,-z
loop_
_atom_site_type_symbol
_atom_site_label
_atom_site_fract_x
_atom_site_fract_y
_atom_site_fract_z
Si Si1 0.755647 0.280838 0.199095
Si Si2 0.615213 0.734489 0.549771
Si Si3 0.289962 0.042982 0.141157
Si Si4 0.550725 0.836575 0.210309
Si Si5 0.241828 0.667350 0.437589
Si Si6 0.110352 0.901489 0.236935
Si Si7 0.925044 0.906922 0.537796
Si Si8 0.967725 0.546357 0.659535
O O1 0.730756 0.313147 0.363916
O O2 0.917094 0.173149 0.290360
O O3 0.838533 0.384121 0.182513
O O4 0.564858 0.237857 0.992503
O O5 0.660437 0.843720 0.708340
O O6 0.531798 0.789637 0.355416
O O7 0.458725 0.657402 0.505796
O O8 0.799582 0.648318 0.603288
O O9 0.475861 0.969903 0.176314
O O10 0.195033 0.936658 0.140295
O O11 0.122235 0.083946 0.927498
O O12 0.783528 0.829983 0.341840
O O13 0.160663 0.783021 0.325754
O O14 0.103156 0.561871 0.318106
O O15 0.187891 0.007760 0.399889
O O16 0.000000 0.000000 0.500000
O O17 0.000000 0.500000 0.500000
#
# Coordination Sequence:
#
# PCOD9074747 Si02
#       8
#     2   2   2   2   2   2   2   2
#     4  11  24  45  69 101 140 187 229 282 347 411
#     4  12  23  43  71 103 137 180 235 290 343 410
#     4  11  23  38  68 104 141 176 220 276 354 420
#     4  12  24  41  71 103 141 187 223 278 352 422
#     4  11  24  43  68 100 139 181 238 291 336 403
#     4  11  21  39  63 100 140 182 217 279 346 409
#     4  12  23  39  65  97 142 179 225 278 343 411
#     4  10  24  48  71  93 136 188 235 293 344 399
#
# _framework density 21.893808
#
# number of rings (size 3 to 8) (size 9 to 14) (size 15 to 20)
#    0.000    0.750    6.250    1.500    1.750    1.500 
#    0.000    6.250    0.000    0.000    0.000    0.000 
#    0.000    0.000    0.000    0.000    0.000    0.000 
#
# Total GULP energy -89198.569651 kJ/mol
# GULP energy per Si atom -5574.910603 kJ/mol
# Density = 2.184398 g / cm^3
# Si number density = 21.893808 Si / 1000 Ang^3
#
#
#
# Elastic Constant Matrix: (Units=GPa)
#
#
# Indices 1 2 3 4 5 6 
#
# 1 75.5775 16.1307 8.7878 -2.0800 -1.3176 27.4624
# 2 16.1307 77.9833 16.3289 16.3980 -5.8644 29.6156
# 3 8.7878 16.3289 114.4100 13.1164 15.1651 17.6079
# 4 -2.0800 16.3980 13.1164 28.3643 5.7737 4.1373
# 5 -1.3176 -5.8644 15.1651 5.7737 21.9646 6.3920
# 6 27.4624 29.6156 17.6079 4.1373 6.3920 51.4891
#
#
#
# Elastic Compliance Matrix: (Units=1/GPa)
#
#
# Indices 1 2 3 4 5 6 
#
# 1 0.016834 0.000043 -0.000568 0.002114 0.003601 -0.009426
# 2 0.000043 0.021683 -0.001522 -0.012810 0.013897 -0.012670
# 3 -0.000568 -0.001522 0.010357 -0.002418 -0.006561 -0.001355
# 4 0.002114 -0.012810 -0.002418 0.046287 -0.015318 0.005249
# 5 0.003601 0.013897 -0.006561 -0.015318 0.062129 -0.014152
# 6 -0.009426 -0.012670 -0.001355 0.005249 -0.014152 0.033535
#
#
# Mechanical properties :
#
#
# Convention : Reuss Voigt Hill
#
# Bulk Modulus (GPa) = 22.33117 38.94063 30.63590
# Shear Modulus (GPa) = 23.82696 35.47850 29.65273
#
# Velocity S-wave (km/s) = 3.30251 4.02989 3.68419
# Velocity P-wave (km/s) = 4.97635 6.28316 5.66754
#
# Compressibility (1/GPa) = 0.04478045
#
# Stress axis : x y z
#
# Youngs Moduli (GPa) = 59.40189 46.11838 96.55610
#
# Poissons Ratio (x) = -0.00197 0.05486
# Poissons Ratio (y) = -0.00253 0.14691
# Poissons Ratio (z) = 0.03375 0.07017
#
# Static dielectric constant tensor:
#      x y z
#    x 2.028240 -0.045450 -0.011820 
#    y -0.045450 1.789950 0.004140 
#    z -0.011820 0.004140 1.830650 
# 
# From -- ./inp_files/188888.got.cif
#   From: 2010.05.17/outbox.ucp.g08.bks.cvg/sg2_95_cif.got.tgz:188888.got - 2010.06.11 11:32:03.
