data_PCOD9074695
_publ_section_title
;
Structure prediction by ZEFSAII (Michael W. Deem and Ramdas Pophale) SiO2 
 PCOD9074695
Probable space group: P -1
;
_chemical_formula_sum "Si O2"
_cell_formula_units_Z 14
_cell_length_a 10.644418
_cell_length_b 5.130955
_cell_length_c 15.844119
_cell_angle_alpha 73.023101
_cell_angle_beta 101.216077
_cell_angle_gamma 62.217151
_cell_volume 674.020798
_symmetry_space_group_name_H-M "P -1"
_symmetry_group_IT_number 2
_symmetry_cell_setting 'triclinic'
loop_
_space_group_symop_operation_xyz
x,y,z
-x,-y,-z
loop_
_atom_site_type_symbol
_atom_site_label
_atom_site_fract_x
_atom_site_fract_y
_atom_site_fract_z
Si Si1 0.136547 0.129950 0.034604
Si Si2 0.464349 0.997809 0.592726
Si Si3 0.764090 0.638250 0.191355
Si Si4 0.630658 0.462400 0.337527
Si Si5 0.818804 0.159426 0.111020
Si Si6 0.349423 0.544680 0.211413
Si Si7 0.417270 0.224119 0.066100
O O1 0.289638 0.137523 0.045006
O O2 0.184370 0.870812 0.141179
O O3 0.000000 0.500000 0.000000
O O4 0.112386 0.991054 0.957990
O O5 0.348603 0.879774 0.605002
O O6 0.620927 0.716709 0.688674
O O7 0.500000 0.000000 0.500000
O O8 0.397757 0.335120 0.600816
O O9 0.745452 0.480252 0.287892
O O10 0.860037 0.355218 0.161145
O O11 0.827397 0.866625 0.190057
O O12 0.589820 0.909646 0.109394
O O13 0.469194 0.634696 0.248333
O O14 0.646469 0.457898 0.031909
O O15 0.403679 0.355479 0.147433
#
# Coordination Sequence:
#
# PCOD9074695 Si02
#       7
#     2   2   2   2   2   2   2
#     4  11  23  38  51  70 109 149 190 218 249 297
#     4  10  18  32  52  77 108 136 167 205 262 336
#     4  12  19  34  51  75 108 131 177 213 261 321
#     4  10  19  32  50  77 109 137 159 211 265 312
#     4  11  24  30  52  74  97 144 179 215 256 301
#     4   9  19  32  53  72 103 144 171 211 265 298
#     4  11  19  35  49  76 102 141 178 216 264 298
#
# _framework density 20.770869000000001
#
# number of rings (size 3 to 8) (size 9 to 14) (size 15 to 20)
#    0.857    0.571    4.286    3.000    2.000    2.286 
#    0.000    0.000    0.000    0.000    0.000    0.000 
#    0.000    6.857    0.000    0.000    0.000    0.000 
#
# Total GULP energy -78047.139324 kJ/mol
# GULP energy per Si atom -5574.795666 kJ/mol
# Density = 2.072359 g / cm^3
# Si number density = 20.770869 Si / 1000 Ang^3
#
#
#
# Elastic Constant Matrix: (Units=GPa)
#
#
# Indices 1 2 3 4 5 6 
#
# 1 30.5221 11.6299 1.7881 3.1028 -6.3079 12.8733
# 2 11.6299 145.8013 26.9402 24.0452 4.6147 8.0011
# 3 1.7881 26.9402 77.0231 23.3806 -19.2076 2.2033
# 4 3.1028 24.0452 23.3806 32.0073 -2.2052 -0.0205
# 5 -6.3079 4.6147 -19.2076 -2.2052 20.4165 -1.0384
# 6 12.8733 8.0011 2.2033 -0.0205 -1.0384 36.1463
#
#
#
# Elastic Compliance Matrix: (Units=1/GPa)
#
#
# Indices 1 2 3 4 5 6 
#
# 1 0.044934 -0.003888 0.007538 -0.005539 0.020491 -0.015016
# 2 -0.003888 0.008729 -0.003383 -0.004181 -0.006836 -0.000540
# 3 0.007538 -0.003383 0.024567 -0.014448 0.024506 -0.002737
# 4 -0.005539 -0.004181 -0.014448 0.044834 -0.009336 0.003536
# 5 0.020491 -0.006836 0.024506 -0.009336 0.078647 -0.005024
# 6 -0.015016 -0.000540 -0.002737 0.003536 -0.005024 0.033157
#
#
# Mechanical properties :
#
#
# Convention : Reuss Voigt Hill
#
# Bulk Modulus (GPa) = 12.69623 37.11809 24.90716
# Shear Modulus (GPa) = 19.18723 31.91325 25.55024
#
# Velocity S-wave (km/s) = 3.04263 3.92400 3.51108
# Velocity P-wave (km/s) = 4.29759 6.19995 5.33426
#
# Compressibility (1/GPa) = 0.07876353
#
# Stress axis : x y z
#
# Youngs Moduli (GPa) = 22.25465 114.55493 40.70572
#
# Poissons Ratio (x) = 0.44539 -0.30683
# Poissons Ratio (y) = 0.08653 0.13772
# Poissons Ratio (z) = -0.16775 0.38756
#
# Static dielectric constant tensor:
#      x y z
#    x 1.843920 0.026100 -0.033870 
#    y 0.026100 1.765030 -0.019560 
#    z -0.033870 -0.019560 1.749310 
# 
# From -- ./inp_files/509696.got.cif
#   From: 2010.05.17/outbox.cif.g08.bks.cpg/sg2_255_cif.got.tgz:509696.got - 2010.06.03 11:33:40.
