data_PCOD9074230
_publ_section_title
;
Structure prediction by ZEFSAII (Michael W. Deem and Ramdas Pophale) SiO2 
 PCOD9074230
Probable space group: P -1
;
_chemical_formula_sum "Si O2"
_cell_formula_units_Z 16
_cell_length_a 6.000000
_cell_length_b 18.000000
_cell_length_c 9.000000
_cell_angle_alpha 120.000000
_cell_angle_beta 110.000000
_cell_angle_gamma 60.000000
_cell_volume 723.492119
_symmetry_space_group_name_H-M "P -1"
_symmetry_group_IT_number 2
_symmetry_cell_setting 'triclinic'
loop_
_space_group_symop_operation_xyz
x,y,z
-x,-y,-z
loop_
_atom_site_type_symbol
_atom_site_label
_atom_site_fract_x
_atom_site_fract_y
_atom_site_fract_z
Si Si1 0.361671 0.963308 0.801213
Si Si2 0.794909 0.184088 0.197435
Si Si3 0.851989 0.136390 0.813551
Si Si4 0.894042 0.679450 0.551678
Si Si5 0.746468 0.650451 0.810354
Si Si6 0.146297 0.534191 0.198503
Si Si7 0.957552 0.286441 0.803389
Si Si8 0.615906 0.835716 0.463234
O O1 0.231140 0.895918 0.779588
O O2 0.560486 0.913233 0.660274
O O3 0.127753 0.051626 0.765249
O O4 0.500000 0.000000 0.000000
O O5 0.511417 0.264752 0.210591
O O6 0.968947 0.244795 0.331236
O O7 0.842803 0.146716 0.000745
O O8 0.618029 0.121030 0.664604
O O9 0.835923 0.230656 0.821883
O O10 0.902666 0.635765 0.674278
O O11 0.000210 0.597387 0.370993
O O12 0.622228 0.748639 0.481894
O O13 0.690286 0.564062 0.778884
O O14 0.868697 0.686433 0.010255
O O15 0.223607 0.612031 0.209312
O O16 0.000000 0.500000 0.000000
O O17 0.134340 0.216128 0.642872
#
# Coordination Sequence:
#
# PCOD9074230 Si02
#       8
#     2   2   2   2   2   2   2   2
#     4  12  27  48  69 100 136 179 232 283 335 402
#     4  12  25  45  71 100 135 179 230 279 337 399
#     4  12  25  45  70  99 137 181 224 283 339 402
#     4  11  23  43  71  98 139 181 223 279 334 399
#     4  11  20  44  69  98 140 179 227 270 341 402
#     4   9  22  40  69 103 136 179 222 278 334 403
#     4  10  22  44  68 100 142 173 223 279 347 396
#     4  11  25  43  68  99 134 181 220 281 338 400
#
# _framework density 22.114961000000001
#
# number of rings (size 3 to 8) (size 9 to 14) (size 15 to 20)
#    0.000    1.000    3.750    2.625    3.500    1.000 
#    0.000    3.125    0.000    0.000    0.000    0.000 
#    0.000    0.000    0.000    0.000    0.000    0.000 
#
# Total GULP energy -89116.221232 kJ/mol
# GULP energy per Si atom -5569.763827 kJ/mol
# Density = 2.206463 g / cm^3
# Si number density = 22.114961 Si / 1000 Ang^3
#
#
#
# Elastic Constant Matrix: (Units=GPa)
#
#
# Indices 1 2 3 4 5 6 
#
# 1 24.7157 -7.0695 6.1107 1.1327 -5.1911 21.8468
# 2 -7.0695 83.9105 -3.2424 -6.1326 11.9509 26.4557
# 3 6.1107 -3.2424 151.9171 2.6695 -23.2708 -3.1536
# 4 1.1327 -6.1326 2.6695 42.4671 2.4105 -5.5157
# 5 -5.1911 11.9509 -23.2708 2.4105 35.0815 -6.4779
# 6 21.8468 26.4557 -3.1536 -5.5157 -6.4779 31.4490
#
#
#
# Elastic Compliance Matrix: (Units=1/GPa)
#
#
# Indices 1 2 3 4 5 6 
#
# 1 -0.243791 -0.120630 0.024187 0.021333 0.073543 0.292147
# 2 -0.120630 -0.040278 0.010249 0.011687 0.025121 0.125933
# 3 0.024187 0.010249 0.005192 -0.002759 -0.001005 -0.025594
# 4 0.021333 0.011687 -0.002759 0.022363 -0.008389 -0.022733
# 5 0.073543 0.025121 -0.001005 -0.008389 0.017790 -0.070128
# 6 0.292147 0.125933 -0.025594 -0.022733 -0.070128 -0.298086
#
#
# Mechanical properties :
#
#
# Convention : Reuss Voigt Hill
#
# Bulk Modulus (GPa) = -2.21599 28.01565 12.89983
# Shear Modulus (GPa) = -9.71166 39.44916 14.86875
#
# Velocity S-wave (km/s) = -2.09785 4.22811 2.59576
# Velocity P-wave (km/s) = 2.62148 6.04414 3.85094
#
# Compressibility (1/GPa) = -0.45126516
#
# Stress axis : x y z
#
# Youngs Moduli (GPa) = -4.10187 -24.82742 192.61905
#
# Poissons Ratio (x) = -2.99493 -4.65881
# Poissons Ratio (y) = -0.49481 -1.97422
# Poissons Ratio (z) = 0.09921 0.25447
#
# Static dielectric constant tensor:
#      x y z
#    x 1.914370 -0.024320 -0.007360 
#    y -0.024320 1.826870 0.005360 
#    z -0.007360 0.005360 1.869320 
# 
# From -- ./inp_files/122878.got.cif
#   From: 2010.05.17/outbox.ucp.g08.bks.cvg/sg2_62_cif.got.tgz:122878.got - 2010.06.11 11:32:03.
