data_PCOD9074532
_publ_section_title
;
Structure prediction by ZEFSAII (Michael W. Deem and Ramdas Pophale) SiO2 
 PCOD9074532
Probable space group: P -1
;
_chemical_formula_sum "Si O2"
_cell_formula_units_Z 16
_cell_length_a 9.000000
_cell_length_b 27.000000
_cell_length_c 15.000000
_cell_angle_alpha 20.000000
_cell_angle_beta 130.000000
_cell_angle_gamma 140.000000
_cell_volume 750.501489
_symmetry_space_group_name_H-M "P -1"
_symmetry_group_IT_number 2
_symmetry_cell_setting 'triclinic'
loop_
_space_group_symop_operation_xyz
x,y,z
-x,-y,-z
loop_
_atom_site_type_symbol
_atom_site_label
_atom_site_fract_x
_atom_site_fract_y
_atom_site_fract_z
Si Si1 0.873014 0.559772 0.526307
Si Si2 0.569424 0.687232 0.891883
Si Si3 0.551219 0.045222 0.663510
Si Si4 0.024347 0.699500 0.979583
Si Si5 0.681324 0.033153 0.933625
Si Si6 0.981046 0.058365 0.720555
Si Si7 0.405399 0.333671 0.854383
Si Si8 0.754442 0.619687 0.840386
O O1 0.667233 0.448042 0.712945
O O2 0.724687 0.570076 0.371987
O O3 0.085988 0.754550 0.321723
O O4 0.995887 0.466140 0.702442
O O5 0.503200 0.809072 0.614063
O O6 0.826827 0.728545 0.889231
O O7 0.580574 0.704466 0.973173
O O8 0.335943 0.484499 0.112538
O O9 0.556916 0.001120 0.843913
O O10 0.812438 0.106645 0.619638
O O11 0.309366 0.871641 0.813215
O O12 0.951025 0.639132 0.949814
O O13 0.500000 0.000000 0.000000
O O14 0.807201 0.930889 0.161479
O O15 0.120388 0.173932 0.489206
O O16 0.773998 0.851361 0.958466
O O17 0.500000 0.500000 0.000000
#
# Coordination Sequence:
#
# PCOD9074532 Si02
#       8
#     2   2   2   2   2   2   2   2
#     4  10  23  45  69  97 144 174 225 285 341 406
#     4  11  26  41  71 101 138 180 231 282 339 411
#     4  12  26  45  69 104 136 185 230 284 344 403
#     4  11  24  43  70  98 141 177 228 281 337 408
#     4  11  28  45  73 101 140 180 228 286 346 411
#     4  11  25  46  71  99 140 181 229 284 341 414
#     4  10  23  45  69 104 134 182 227 284 342 402
#     4  10  25  44  68 101 142 179 223 286 344 402
#
# _framework density 21.319078000000001
#
# number of rings (size 3 to 8) (size 9 to 14) (size 15 to 20)
#    0.000    1.250    1.250    2.250   14.000    3.000 
#    0.000    0.000    0.000    0.000    0.000    0.000 
#    0.000    0.000    0.000    0.000    0.000    0.000 
#
# Total GULP energy -89240.614957 kJ/mol
# GULP energy per Si atom -5577.538435 kJ/mol
# Density = 2.127056 g / cm^3
# Si number density = 21.319078 Si / 1000 Ang^3
#
#
#
# Elastic Constant Matrix: (Units=GPa)
#
#
# Indices 1 2 3 4 5 6 
#
# 1 95.2994 32.0190 28.9565 25.7903 9.7055 30.0372
# 2 32.0190 129.8178 15.1003 23.3017 -6.1262 28.7643
# 3 28.9565 15.1003 69.0198 18.2551 3.8085 33.0547
# 4 25.7903 23.3017 18.2551 46.4311 10.1903 -0.4952
# 5 9.7055 -6.1262 3.8085 10.1903 35.9018 7.8458
# 6 30.0372 28.7643 33.0547 -0.4952 7.8458 31.1503
#
#
#
# Elastic Compliance Matrix: (Units=1/GPa)
#
#
# Indices 1 2 3 4 5 6 
#
# 1 0.046927 0.033034 0.070095 -0.081640 0.044215 -0.162568
# 2 0.033034 0.046983 0.079211 -0.086630 0.053320 -0.174099
# 3 0.070095 0.079211 0.184034 -0.178082 0.105447 -0.365409
# 4 -0.081640 -0.086630 -0.178082 0.210015 -0.116559 0.380383
# 5 0.044215 0.053320 0.105447 -0.116559 0.097181 -0.230094
# 6 -0.162568 -0.174099 -0.365409 0.380383 -0.230094 0.801374
#
#
# Mechanical properties :
#
#
# Convention : Reuss Voigt Hill
#
# Bulk Modulus (GPa) = 1.55612 49.58762 25.57187
# Shear Modulus (GPa) = 4.04517 37.23404 20.63960
#
# Velocity S-wave (km/s) = 1.37897 4.18366 3.11485
# Velocity P-wave (km/s) = 1.80746 6.82991 4.99573
#
# Compressibility (1/GPa) = 0.64262352
#
# Stress axis : x y z
#
# Youngs Moduli (GPa) = 21.30990 21.28415 5.43379
#
# Poissons Ratio (x) = -0.70310 -0.38088
# Poissons Ratio (y) = -0.70395 -0.43042
# Poissons Ratio (z) = -1.49372 -1.68594
#
# Static dielectric constant tensor:
#      x y z
#    x 1.783530 -0.020230 0.048630 
#    y -0.020230 1.754110 -0.004950 
#    z 0.048630 -0.004950 1.891090 
# 
# From -- ./inp_files/505222.got.cif
#   From: 2010.05.17/outbox.ucp.g08.bks.cvg/sg2_253_cif.got.tgz:505222.got - 2010.06.11 11:32:03.
