data_PCOD9074548
_publ_section_title
;
Structure prediction by ZEFSAII (Michael W. Deem and Ramdas Pophale) SiO2 
 PCOD9074548
Probable space group: P -1
;
_chemical_formula_sum "Si O2"
_cell_formula_units_Z 16
_cell_length_a 9.000000
_cell_length_b 15.000000
_cell_length_c 12.000000
_cell_angle_alpha 50.000000
_cell_angle_beta 70.000000
_cell_angle_gamma 110.000000
_cell_volume 728.972637
_symmetry_space_group_name_H-M "P -1"
_symmetry_group_IT_number 2
_symmetry_cell_setting 'triclinic'
loop_
_space_group_symop_operation_xyz
x,y,z
-x,-y,-z
loop_
_atom_site_type_symbol
_atom_site_label
_atom_site_fract_x
_atom_site_fract_y
_atom_site_fract_z
Si Si1 0.932194 0.156774 0.127013
Si Si2 0.645528 0.782249 0.097273
Si Si3 0.726924 0.026108 0.039140
Si Si4 0.176831 0.533611 0.841390
Si Si5 0.224774 0.018212 0.312617
Si Si6 0.206910 0.753041 0.480465
Si Si7 0.917374 0.582933 0.485308
Si Si8 0.315819 0.171144 0.396040
O O1 0.782732 0.069610 0.120205
O O2 0.172312 0.213264 0.995845
O O3 0.027580 0.336658 0.993882
O O4 0.768904 0.999196 0.389446
O O5 0.370183 0.572378 0.355329
O O6 0.753159 0.913331 0.070078
O O7 0.640727 0.874094 0.924675
O O8 0.428114 0.879405 0.229259
O O9 0.912589 0.221705 0.773545
O O10 0.226759 0.650286 0.632723
O O11 0.435470 0.647040 0.747720
O O12 0.000000 0.500000 0.000000
O O13 0.235379 0.887021 0.435571
O O14 0.929551 0.886616 0.484450
O O15 0.349425 0.163416 0.263283
O O16 0.952139 0.613520 0.585032
O O17 0.000000 0.500000 0.500000
#
# Coordination Sequence:
#
# PCOD9074548 Si02
#       8
#     2   2   2   2   2   2   2   2
#     4  11  26  45  70 100 137 181 225 277 344 405
#     4  11  25  44  68 103 136 181 227 278 336 402
#     4  12  24  45  67 100 140 181 226 274 337 406
#     4  12  28  45  70 103 135 178 227 281 344 401
#     4  10  23  45  74  97 133 183 222 283 336 402
#     4  12  24  43  69  98 138 178 224 277 337 398
#     4  12  24  40  65  99 138 177 226 272 330 398
#     4  10  24  49  69  98 138 174 229 280 343 398
#
# _framework density 21.948698
#
# number of rings (size 3 to 8) (size 9 to 14) (size 15 to 20)
#    0.000    0.750    3.750    3.000    5.250    1.500 
#    0.000    2.500    0.000    0.000    0.000    0.000 
#    0.000    0.000    0.000    0.000    0.000    0.000 
#
# Total GULP energy -89502.562617 kJ/mol
# GULP energy per Si atom -5593.910164 kJ/mol
# Density = 2.189874 g / cm^3
# Si number density = 21.948698 Si / 1000 Ang^3
#
#
#
# Elastic Constant Matrix: (Units=GPa)
#
#
# Indices 1 2 3 4 5 6 
#
# 1 23.2783 8.1894 8.4102 10.0582 4.0895 18.7830
# 2 8.1894 111.7846 38.4955 2.1788 5.0847 4.7643
# 3 8.4102 38.4955 74.9957 -12.4982 -10.9659 3.6469
# 4 10.0582 2.1788 -12.4982 13.1687 1.4009 -8.4597
# 5 4.0895 5.0847 -10.9659 1.4009 9.9222 -2.3762
# 6 18.7830 4.7643 3.6469 -8.4597 -2.3762 31.9978
#
#
#
# Elastic Compliance Matrix: (Units=1/GPa)
#
#
# Indices 1 2 3 4 5 6 
#
# 1 -0.029434 -0.011532 0.025304 0.067567 0.045411 0.037347
# 2 -0.011532 0.010814 -0.003818 0.008732 -0.004427 0.007574
# 3 0.025304 -0.003818 0.009651 -0.023417 0.000338 -0.021551
# 4 0.067567 0.008732 -0.023417 -0.024124 -0.066681 -0.049623
# 5 0.045411 -0.004427 0.000338 -0.066681 0.085182 -0.037340
# 6 0.037347 0.007574 -0.021551 -0.049623 -0.037340 -0.005235
#
#
# Mechanical properties :
#
#
# Convention : Reuss Voigt Hill
#
# Bulk Modulus (GPa) = 91.40874 35.58319 63.49597
# Shear Modulus (GPa) = 163.44216 21.34864 92.39540
#
# Velocity S-wave (km/s) = 8.63870 3.12213 6.49519
# Velocity P-wave (km/s) = 11.88444 5.40779 9.23266
#
# Compressibility (1/GPa) = 0.01093987
#
# Stress axis : x y z
#
# Youngs Moduli (GPa) = -33.97444 92.47499 103.61435
#
# Poissons Ratio (x) = 1.06643 -2.62189
# Poissons Ratio (y) = -0.39180 0.39559
# Poissons Ratio (z) = 0.85970 0.35306
#
# Static dielectric constant tensor:
#      x y z
#    x 1.844740 0.044220 -0.018690 
#    y 0.044220 1.801120 0.009850 
#    z -0.018690 0.009850 1.798180 
# 
# From -- ./inp_files/70904.got.cif
#   From: 2010.05.17/outbox.ucp.g08.bks.cvg/sg2_36_cif.got.tgz:70904.got - 2010.06.11 11:32:03.
