data_PCOD9074806
_publ_section_title
;
Structure prediction by ZEFSAII (Michael W. Deem and Ramdas Pophale) SiO2 
 PCOD9074806
Probable space group: P -1
;
_chemical_formula_sum "Si O2"
_cell_formula_units_Z 13
_cell_length_a 9.000000
_cell_length_b 27.000000
_cell_length_c 27.000000
_cell_angle_alpha 10.000000
_cell_angle_beta 150.000000
_cell_angle_gamma 150.000000
_cell_volume 563.074451
_symmetry_space_group_name_H-M "P -1"
_symmetry_group_IT_number 2
_symmetry_cell_setting 'triclinic'
loop_
_space_group_symop_operation_xyz
x,y,z
-x,-y,-z
loop_
_atom_site_type_symbol
_atom_site_label
_atom_site_fract_x
_atom_site_fract_y
_atom_site_fract_z
Si Si1 0.982806 0.084663 0.085852
Si Si2 0.370365 0.225893 0.801474
Si Si3 0.260283 0.742447 0.315414
Si Si4 0.596063 0.327241 0.388781
Si Si5 0.746230 0.827467 0.457384
Si Si6 0.000000 0.500000 0.000000
Si Si7 0.168616 0.414113 0.014522
O O1 0.805220 0.880083 0.194424
O O2 0.715591 0.175336 0.951566
O O3 0.218608 0.899698 0.360099
O O4 0.184549 0.370156 0.841018
O O5 0.376452 0.560791 0.482614
O O6 0.192477 0.026784 0.988525
O O7 0.525340 0.833132 0.341830
O O8 0.000000 0.500000 0.500000
O O9 0.475483 0.196310 0.535595
O O10 0.298546 0.376177 0.225936
O O11 0.027595 0.078350 0.300221
O O12 0.914421 0.551373 0.775715
O O13 0.873840 0.499262 0.025010
O O14 0.500000 0.500000 0.000000
#
# Coordination Sequence:
#
# PCOD9074806 Si02
#       7
#     2   2   2   2   2   1   2
#     4  11  23  41  64  93 133 173 217 278 341 393
#     4  11  24  40  62  97 132 172 224 271 327 412
#     4  12  24  40  65  94 132 178 221 268 331 406
#     4  11  23  42  67  94 130 174 220 277 338 405
#     4  11  24  43  65  96 132 171 222 273 333 404
#     4  10  26  44  70 102 128 174 234 274 340 416
#     4  11  25  46  70  97 136 174 220 288 342 395
#
# _framework density 23.087533000000001
#
# number of rings (size 3 to 8) (size 9 to 14) (size 15 to 20)
#    0.000    0.923    0.000    7.385    0.000   11.692 
#    0.000    1.538    0.000    0.000    0.000    0.000 
#    0.000    0.000    0.000    0.000    0.000    0.000 
#
# Total GULP energy -72392.417877 kJ/mol
# GULP energy per Si atom -5568.647529 kJ/mol
# Density = 2.303498 g / cm^3
# Si number density = 23.087533 Si / 1000 Ang^3
#
#
#
# Elastic Constant Matrix: (Units=GPa)
#
#
# Indices 1 2 3 4 5 6 
#
# 1 76.9700 25.9146 11.3055 -10.2924 -6.0988 20.8487
# 2 25.9146 55.5431 12.1025 0.5383 -10.1071 10.8570
# 3 11.3055 12.1025 95.8344 -6.1641 12.6481 4.8681
# 4 -10.2924 0.5383 -6.1641 39.4409 8.5560 -4.7274
# 5 -6.0988 -10.1071 12.6481 8.5560 32.1211 7.7755
# 6 20.8487 10.8570 4.8681 -4.7274 7.7755 43.7967
#
#
#
# Elastic Compliance Matrix: (Units=1/GPa)
#
#
# Indices 1 2 3 4 5 6 
#
# 1 0.017762 -0.006232 -0.001110 0.003133 0.002691 -0.006926
# 2 -0.006232 0.024858 -0.003942 -0.005597 0.010966 -0.005308
# 3 -0.001110 -0.003942 0.012208 0.003562 -0.007665 0.001894
# 4 0.003133 -0.005597 0.003562 0.029920 -0.011702 0.004807
# 5 0.002691 0.010966 -0.007665 -0.011702 0.044196 -0.012257
# 6 -0.006926 -0.005308 0.001894 0.004807 -0.012257 0.029930
#
#
# Mechanical properties :
#
#
# Convention : Reuss Voigt Hill
#
# Bulk Modulus (GPa) = 30.99809 36.33254 33.66532
# Shear Modulus (GPa) = 26.01534 35.00674 30.51104
#
# Velocity S-wave (km/s) = 3.36045 3.89814 3.63924
# Velocity P-wave (km/s) = 5.33969 6.00264 5.68085
#
# Compressibility (1/GPa) = 0.03226005
#
# Stress axis : x y z
#
# Youngs Moduli (GPa) = 56.30131 40.22864 81.91379
#
# Poissons Ratio (x) = 0.25070 0.09093
# Poissons Ratio (y) = 0.35086 0.32288
# Poissons Ratio (z) = 0.06250 0.15857
#
# Static dielectric constant tensor:
#      x y z
#    x 1.949890 0.005310 0.013950 
#    y 0.005310 1.778790 -0.001740 
#    z 0.013950 -0.001740 1.881370 
# 
# From -- ./inp_files/297197.got.cif
#   From: 2010.05.17/outbox.ucp.g08.bks.cvg/sg2_149_cif.got.tgz:297197.got - 2010.06.11 11:32:03.
