data_PCOD9074972
_publ_section_title
;
Structure prediction by ZEFSAII (Michael W. Deem and Ramdas Pophale) SiO2 
 PCOD9074972
Probable space group: P -1
;
_chemical_formula_sum "Si O2"
_cell_formula_units_Z 16
_cell_length_a 18.000000
_cell_length_b 15.000000
_cell_length_c 12.000000
_cell_angle_alpha 150.000000
_cell_angle_beta 130.000000
_cell_angle_gamma 30.000000
_cell_volume 731.734496
_symmetry_space_group_name_H-M "P -1"
_symmetry_group_IT_number 2
_symmetry_cell_setting 'triclinic'
loop_
_space_group_symop_operation_xyz
x,y,z
-x,-y,-z
loop_
_atom_site_type_symbol
_atom_site_label
_atom_site_fract_x
_atom_site_fract_y
_atom_site_fract_z
Si Si1 0.045900 0.450185 0.156155
Si Si2 0.803543 0.287399 0.629385
Si Si3 0.765527 0.482017 0.584647
Si Si4 0.595015 0.814869 0.499364
Si Si5 0.755418 0.991429 0.336526
Si Si6 0.170451 0.806230 0.897920
Si Si7 0.849536 0.762409 0.721583
Si Si8 0.573537 0.951523 0.181002
O O1 0.095647 0.581377 0.323017
O O2 0.089866 0.326257 0.187938
O O3 0.854057 0.747634 0.267296
O O4 0.139137 0.199066 0.880059
O O5 0.752509 0.347339 0.516555
O O6 0.738212 0.227473 0.579560
O O7 0.718838 0.598423 0.917787
O O8 0.000000 0.000000 0.500000
O O9 0.807919 0.333926 0.347916
O O10 0.602943 0.845924 0.818540
O O11 0.690844 0.490115 0.215473
O O12 0.718194 0.797145 0.624621
O O13 0.500000 0.000000 0.500000
O O14 0.468726 0.971594 0.647403
O O15 0.595012 0.110885 0.315715
O O16 0.201887 0.964422 0.071644
O O17 0.000000 0.000000 0.000000
O O18 0.000000 0.500000 0.500000
#
# Coordination Sequence:
#
# PCOD9074972 Si02
#       8
#     2   2   2   2   2   2   2   2
#     4  11  21  44  66  98 138 174 228 279 335 409
#     4  12  23  41  66  99 132 178 230 270 339 408
#     4  11  22  43  67  94 138 176 220 285 335 405
#     4  11  27  48  68 105 141 176 230 296 344 402
#     4  11  24  39  67 100 134 179 224 276 342 407
#     4  11  23  44  72  99 129 179 237 275 338 411
#     4  12  24  45  74  99 135 188 230 281 348 409
#     4  11  25  44  64  95 143 173 219 287 345 399
#
# _framework density 21.865853999999999
#
# number of rings (size 3 to 8) (size 9 to 14) (size 15 to 20)
#    0.000    0.750    6.250    1.875    1.750    4.000 
#    2.250    0.000    0.000    0.000    0.000    0.000 
#    0.000    0.000    0.000    0.000    0.000    0.000 
#
# Total GULP energy -89195.908971 kJ/mol
# GULP energy per Si atom -5574.744311 kJ/mol
# Density = 2.181609 g / cm^3
# Si number density = 21.865854 Si / 1000 Ang^3
#
#
#
# Elastic Constant Matrix: (Units=GPa)
#
#
# Indices 1 2 3 4 5 6 
#
# 1 140.7400 37.4883 52.4046 18.2727 16.8600 11.0543
# 2 37.4883 90.4783 35.1804 17.8277 -0.4041 26.4919
# 3 52.4046 35.1804 92.0438 25.7066 17.3673 0.5683
# 4 18.2727 17.8277 25.7066 19.0634 -5.2256 8.0175
# 5 16.8600 -0.4041 17.3673 -5.2256 47.2765 3.7962
# 6 11.0543 26.4919 0.5683 8.0175 3.7962 35.2838
#
#
#
# Elastic Compliance Matrix: (Units=1/GPa)
#
#
# Indices 1 2 3 4 5 6 
#
# 1 0.009641 -0.001900 -0.003261 -0.003600 -0.002619 -0.000442
# 2 -0.001900 0.018472 -0.007191 0.001434 0.004759 -0.013996
# 3 -0.003261 -0.007191 0.030414 -0.042940 -0.016217 0.017433
# 4 -0.003600 0.001434 -0.042940 0.136320 0.034867 -0.033984
# 5 -0.002619 0.004759 -0.016217 0.034867 0.033060 -0.013971
# 6 -0.000442 -0.013996 0.017433 -0.033984 -0.013971 0.047933
#
#
# Mechanical properties :
#
#
# Convention : Reuss Voigt Hill
#
# Bulk Modulus (GPa) = 29.56381 63.71205 46.63793
# Shear Modulus (GPa) = 16.03492 33.53733 24.78613
#
# Velocity S-wave (km/s) = 2.71095 3.92059 3.37048
# Velocity P-wave (km/s) = 4.83207 7.04952 6.04337
#
# Compressibility (1/GPa) = 0.03382514
#
# Stress axis : x y z
#
# Youngs Moduli (GPa) = 103.71982 54.13492 32.87945
#
# Poissons Ratio (x) = 0.10285 0.10721
# Poissons Ratio (y) = 0.19706 0.23642
# Poissons Ratio (z) = 0.33821 0.38927
#
# Static dielectric constant tensor:
#      x y z
#    x 1.880690 0.032840 0.025010 
#    y 0.032840 1.830280 -0.012810 
#    z 0.025010 -0.012810 1.795290 
# 
# From -- ./inp_files/278811.got.cif
#   From: 2010.05.17/outbox.ucp.g08.bks.cvg/sg2_140_cif.got.tgz:278811.got - 2010.06.11 11:32:03.
