data_PCOD9074722
_publ_section_title
;
Structure prediction by ZEFSAII (Michael W. Deem and Ramdas Pophale) SiO2 
 PCOD9074722
Probable space group: P -1
;
_chemical_formula_sum "Si O2"
_cell_formula_units_Z 16
_cell_length_a 10.928786
_cell_length_b 10.331305
_cell_length_c 8.600500
_cell_angle_alpha 122.121886
_cell_angle_beta 121.906666
_cell_angle_gamma 83.072596
_cell_volume 680.557078
_symmetry_space_group_name_H-M "P -1"
_symmetry_group_IT_number 2
_symmetry_cell_setting 'triclinic'
loop_
_space_group_symop_operation_xyz
x,y,z
-x,-y,-z
loop_
_atom_site_type_symbol
_atom_site_label
_atom_site_fract_x
_atom_site_fract_y
_atom_site_fract_z
Si Si1 0.452341 0.661091 0.552781
Si Si2 0.905710 0.013522 0.715732
Si Si3 0.395763 0.104462 0.431865
Si Si4 0.962307 0.237693 0.201889
Si Si5 0.082429 0.284198 0.822128
Si Si6 0.635051 0.858135 0.077793
Si Si7 0.670845 0.116580 0.032257
Si Si8 0.121119 0.511155 0.298194
O O1 0.500000 0.500000 0.500000
O O2 0.502938 0.736251 0.466258
O O3 0.548991 0.766896 0.814663
O O4 0.279852 0.627845 0.458929
O O5 0.960572 0.126281 0.681016
O O6 0.737365 0.916457 0.548873
O O7 0.939458 0.137586 0.961372
O O8 0.995113 0.880363 0.720060
O O9 0.500000 0.000000 0.500000
O O10 0.315187 0.017045 0.168907
O O11 0.085921 0.391538 0.342843
O O12 0.803899 0.260655 0.169376
O O13 0.007549 0.391428 0.728831
O O14 0.230877 0.223672 0.843373
O O15 0.113558 0.396586 0.068441
O O16 0.683380 0.035709 0.156114
O O17 0.492125 0.853209 0.086248
#
# Coordination Sequence:
#
# PCOD9074722 Si02
#       8
#     2   2   2   2   2   2   2   2
#     4  11  20  34  54  81 110 139 175 217 267 315
#     4   9  16  28  52  75  96 128 179 219 253 294
#     4  10  20  33  55  81 106 132 173 228 268 301
#     4   9  16  30  51  73  98 132 176 217 250 302
#     4  10  18  32  52  78 104 139 173 218 263 309
#     4  10  19  35  58  78 106 142 182 215 258 319
#     4   9  19  35  57  79 101 141 184 216 254 317
#     4  10  20  30  50  79 109 133 172 220 267 309
#
# _framework density 23.510152999999999
#
# number of rings (size 3 to 8) (size 9 to 14) (size 15 to 20)
#    0.000    2.250    2.500    1.500    3.500    1.000 
#    0.000    1.250    2.750    3.000    0.000    0.000 
#    0.000    0.000    0.000    0.000    0.000    0.000 
#
# Total GULP energy -89243.804456 kJ/mol
# GULP energy per Si atom -5577.737779 kJ/mol
# Density = 2.345664 g / cm^3
# Si number density = 23.510153 Si / 1000 Ang^3
#
#
#
# Elastic Constant Matrix: (Units=GPa)
#
#
# Indices 1 2 3 4 5 6 
#
# 1 121.2739 39.7561 36.1636 10.7146 39.8369 -21.1339
# 2 39.7561 121.4510 28.9844 18.9794 24.4411 -7.9106
# 3 36.1636 28.9844 64.3320 15.2359 18.9557 5.6754
# 4 10.7146 18.9794 15.2359 28.9905 -0.3333 15.7311
# 5 39.8369 24.4411 18.9557 -0.3333 48.8311 3.9295
# 6 -21.1339 -7.9106 5.6754 15.7311 3.9295 35.5565
#
#
#
# Elastic Compliance Matrix: (Units=1/GPa)
#
#
# Indices 1 2 3 4 5 6 
#
# 1 0.021589 0.003165 -0.004931 -0.021881 -0.019537 0.026163
# 2 0.003165 0.012908 -0.002312 -0.015593 -0.009302 0.013049
# 3 -0.004931 -0.002312 0.022090 -0.006203 -0.003125 -0.003882
# 4 -0.021881 -0.015593 -0.006203 0.087948 0.033337 -0.058079
# 5 -0.019537 -0.009302 -0.003125 0.033337 0.045163 -0.032923
# 6 0.026163 0.013049 -0.003882 -0.058079 -0.032923 0.076532
#
#
# Mechanical properties :
#
#
# Convention : Reuss Voigt Hill
#
# Bulk Modulus (GPa) = 20.64829 57.42945 39.03887
# Shear Modulus (GPa) = 17.20991 36.15247 26.68119
#
# Velocity S-wave (km/s) = 2.70852 3.92566 3.37245
# Velocity P-wave (km/s) = 4.31083 6.71031 5.63966
#
# Compressibility (1/GPa) = 0.04843017
#
# Stress axis : x y z
#
# Youngs Moduli (GPa) = 46.32007 77.47083 45.26837
#
# Poissons Ratio (x) = -0.24520 0.22323
# Poissons Ratio (y) = -0.14661 0.10468
# Poissons Ratio (z) = 0.22842 0.17914
#
# Static dielectric constant tensor:
#      x y z
#    x 2.013950 0.023610 -0.107280 
#    y 0.023610 1.854380 0.014960 
#    z -0.107280 0.014960 2.053680 
# 
# From -- ./inp_files/388375.got.cif
#   From: 2010.05.17/outbox.cif.g08.bks.cpg/sg2_195_cif.got.tgz:388375.got - 2010.06.03 11:33:40.
