data_PCOD9074660
_publ_section_title
;
Structure prediction by ZEFSAII (Michael W. Deem and Ramdas Pophale) SiO2 
 PCOD9074660
Probable space group: P -1
;
_chemical_formula_sum "Si O2"
_cell_formula_units_Z 16
_cell_length_a 9.000000
_cell_length_b 18.000000
_cell_length_c 12.000000
_cell_angle_alpha 130.000000
_cell_angle_beta 100.000000
_cell_angle_gamma 40.000000
_cell_volume 729.599496
_symmetry_space_group_name_H-M "P -1"
_symmetry_group_IT_number 2
_symmetry_cell_setting 'triclinic'
loop_
_space_group_symop_operation_xyz
x,y,z
-x,-y,-z
loop_
_atom_site_type_symbol
_atom_site_label
_atom_site_fract_x
_atom_site_fract_y
_atom_site_fract_z
Si Si1 0.849615 0.939625 0.321048
Si Si2 0.265217 0.766737 0.801811
Si Si3 0.023236 0.933000 0.678506
Si Si4 0.590690 0.102728 0.080413
Si Si5 0.792534 0.377211 0.604652
Si Si6 0.894572 0.395016 0.875940
Si Si7 0.536845 0.783250 0.247096
Si Si8 0.636565 0.886985 0.732999
O O1 0.609866 0.013099 0.288775
O O2 0.087231 0.721514 0.176299
O O3 0.928804 0.991542 0.307029
O O4 0.685353 0.069690 0.536995
O O5 0.147080 0.850443 0.740981
O O6 0.451835 0.763998 0.842812
O O7 0.495091 0.556353 0.664709
O O8 0.956294 0.908346 0.963345
O O9 0.173771 0.752145 0.473220
O O10 0.667498 0.111362 0.788398
O O11 0.388791 0.180241 0.234910
O O12 0.556940 0.033631 0.922518
O O13 0.784503 0.443022 0.780529
O O14 0.062637 0.260769 0.444039
O O15 0.225506 0.261751 0.779394
O O16 0.697856 0.588990 0.096547
#
# Coordination Sequence:
#
# PCOD9074660 Si02
#       8
#     2   2   2   2   2   2   2   2
#     4  12  24  48  68 104 146 183 237 292 358 417
#     4  11  25  45  69 105 142 187 237 292 354 429
#     4  12  25  46  71 100 143 194 225 295 358 417
#     4  10  24  44  67 103 137 187 235 289 360 412
#     4  12  25  44  72 100 144 188 243 288 354 423
#     4  11  26  44  74 107 134 191 235 297 350 423
#     4  11  25  46  72 105 142 182 241 287 360 421
#     4  11  23  44  72  99 139 190 230 297 355 419
#
# _framework density 21.929839999999999
#
# number of rings (size 3 to 8) (size 9 to 14) (size 15 to 20)
#    0.000    0.750    5.000    1.875    3.500    2.000 
#    2.250    0.000    0.000    0.000    0.000    0.000 
#    0.000    0.000    0.000    0.000    0.000    0.000 
#
# Total GULP energy -89223.282835 kJ/mol
# GULP energy per Si atom -5576.455177 kJ/mol
# Density = 2.187993 g / cm^3
# Si number density = 21.929840 Si / 1000 Ang^3
#
#
#
# Elastic Constant Matrix: (Units=GPa)
#
#
# Indices 1 2 3 4 5 6 
#
# 1 110.6100 30.4809 10.0297 5.5668 22.2643 19.0716
# 2 30.4809 114.2390 27.7201 5.7859 6.8432 7.8427
# 3 10.0297 27.7201 51.9547 -5.9900 19.1622 5.0016
# 4 5.5668 5.7859 -5.9900 35.6822 2.9862 10.0273
# 5 22.2643 6.8432 19.1622 2.9862 30.8345 -2.2247
# 6 19.0716 7.8427 5.0016 10.0273 -2.2247 45.4809
#
#
#
# Elastic Compliance Matrix: (Units=1/GPa)
#
#
# Indices 1 2 3 4 5 6 
#
# 1 0.013079 -0.003585 0.004809 0.002201 -0.012317 -0.006483
# 2 -0.003585 0.011385 -0.007924 -0.003477 0.005427 0.001444
# 3 0.004809 -0.007924 0.033331 0.010319 -0.023987 -0.007764
# 4 0.002201 -0.003477 0.010319 0.033554 -0.011158 -0.009402
# 5 -0.012317 0.005427 -0.023987 -0.011158 0.056982 0.012115
# 6 -0.006483 0.001444 -0.007764 -0.009402 0.012115 0.027976
#
#
# Mechanical properties :
#
#
# Convention : Reuss Voigt Hill
#
# Bulk Modulus (GPa) = 22.52516 45.91835 34.22175
# Shear Modulus (GPa) = 24.44933 36.30439 30.37686
#
# Velocity S-wave (km/s) = 3.34262 4.07317 3.72584
# Velocity P-wave (km/s) = 5.01909 6.56545 5.84365
#
# Compressibility (1/GPa) = 0.04439481
#
# Stress axis : x y z
#
# Youngs Moduli (GPa) = 76.45830 87.83723 30.00215
#
# Poissons Ratio (x) = 0.31491 -0.14427
# Poissons Ratio (y) = 0.27411 0.23772
# Poissons Ratio (z) = -0.36767 0.69598
#
# Static dielectric constant tensor:
#      x y z
#    x 1.812660 -0.021290 0.055130 
#    y -0.021290 1.822790 -0.019550 
#    z 0.055130 -0.019550 1.902290 
# 
# From -- ./inp_files/403260.got.cif
#   From: 2010.05.17/outbox.ucp.g08.bks.cvg/sg2_202_cif.got.tgz:403260.got - 2010.06.11 11:32:03.
