data_PCOD9074761
_publ_section_title
;
Structure prediction by ZEFSAII (Michael W. Deem and Ramdas Pophale) SiO2 
 PCOD9074761
Probable space group: P -1
;
_chemical_formula_sum "Si O2"
_cell_formula_units_Z 16
_cell_length_a 9.000000
_cell_length_b 27.000000
_cell_length_c 27.000000
_cell_angle_alpha 10.000000
_cell_angle_beta 140.000000
_cell_angle_gamma 140.000000
_cell_volume 728.340053
_symmetry_space_group_name_H-M "P -1"
_symmetry_group_IT_number 2
_symmetry_cell_setting 'triclinic'
loop_
_space_group_symop_operation_xyz
x,y,z
-x,-y,-z
loop_
_atom_site_type_symbol
_atom_site_label
_atom_site_fract_x
_atom_site_fract_y
_atom_site_fract_z
Si Si1 0.105727 0.208040 0.865682
Si Si2 0.403002 0.852671 0.170890
Si Si3 0.851365 0.745882 0.739254
Si Si4 0.005031 0.400683 0.308806
Si Si5 0.005389 0.844805 0.791484
Si Si6 0.370283 0.650426 0.652953
Si Si7 0.500155 0.583268 0.300934
Si Si8 0.445554 0.117241 0.129947
O O1 0.266103 0.457480 0.630964
O O2 0.874733 0.246636 0.800940
O O3 0.291071 0.100555 0.057402
O O4 0.000000 0.000000 0.000000
O O5 0.515728 0.582505 0.487616
O O6 0.500000 0.000000 0.000000
O O7 0.469097 0.086339 0.000803
O O8 0.591034 0.714096 0.683044
O O9 0.870861 0.799589 0.750001
O O10 0.000000 0.000000 0.500000
O O11 0.000000 0.500000 0.000000
O O12 0.855777 0.387877 0.332971
O O13 0.271900 0.500363 0.292617
O O14 0.985309 0.112760 0.556939
O O15 0.917812 0.601920 0.046666
O O16 0.280821 0.862912 0.831649
O O17 0.360672 0.877299 0.383753
O O18 0.410790 0.386088 0.889761
#
# Coordination Sequence:
#
# PCOD9074761 Si02
#       8
#     2   2   2   2   2   2   2   2
#     4  10  25  44  68  98 133 180 232 282 334 414
#     4  11  25  42  66  97 129 176 226 284 348 400
#     4  12  23  44  72 103 141 177 233 282 338 408
#     4  12  27  43  70 103 144 178 231 287 348 400
#     4  12  24  45  73 101 134 193 225 281 342 422
#     4  12  27  45  70 107 138 180 225 296 342 406
#     4  11  24  44  65  91 138 176 222 281 341 406
#     4  12  25  45  74 100 135 184 238 272 349 414
#
# _framework density 21.967760999999999
#
# number of rings (size 3 to 8) (size 9 to 14) (size 15 to 20)
#    0.000    0.500    3.750    3.750    5.250    3.000 
#    0.000    0.000    0.000    0.000    0.000    0.000 
#    0.000    0.000    0.000    0.000    0.000    0.000 
#
# Total GULP energy -89261.663450 kJ/mol
# GULP energy per Si atom -5578.853966 kJ/mol
# Density = 2.191776 g / cm^3
# Si number density = 21.967761 Si / 1000 Ang^3
#
#
#
# Elastic Constant Matrix: (Units=GPa)
#
#
# Indices 1 2 3 4 5 6 
#
# 1 143.7434 23.1228 40.8297 -3.3576 -14.5171 -13.3225
# 2 23.1228 158.3383 26.9227 2.6081 -2.7681 -19.3139
# 3 40.8297 26.9227 102.7889 -22.1546 -1.7489 -14.7129
# 4 -3.3576 2.6081 -22.1546 27.9367 -16.5485 -5.2234
# 5 -14.5171 -2.7681 -1.7489 -16.5485 43.6089 0.8223
# 6 -13.3225 -19.3139 -14.7129 -5.2234 0.8223 41.1914
#
#
#
# Elastic Compliance Matrix: (Units=1/GPa)
#
#
# Indices 1 2 3 4 5 6 
#
# 1 0.008261 -0.000530 -0.002666 0.000959 0.002945 0.001534
# 2 -0.000530 0.006986 -0.001756 -0.002065 -0.000629 0.002228
# 3 -0.002666 -0.001756 0.015922 0.017185 0.006046 0.006060
# 4 0.000959 -0.002065 0.017185 0.067898 0.026387 0.013563
# 5 0.002945 -0.000629 0.006046 0.026387 0.034024 0.005484
# 6 0.001534 0.002228 0.006060 0.013563 0.005484 0.029592
#
#
# Mechanical properties :
#
#
# Convention : Reuss Voigt Hill
#
# Bulk Modulus (GPa) = 47.02743 65.18013 56.10378
# Shear Modulus (GPa) = 27.82772 43.48043 35.65408
#
# Velocity S-wave (km/s) = 3.56301 4.45374 4.03304
# Velocity P-wave (km/s) = 6.19521 7.49553 6.87618
#
# Compressibility (1/GPa) = 0.02126419
#
# Stress axis : x y z
#
# Youngs Moduli (GPa) = 121.04405 143.13576 62.80664
#
# Poissons Ratio (x) = 0.07591 0.16747
# Poissons Ratio (y) = 0.06419 0.11029
# Poissons Ratio (z) = 0.32275 0.25135
#
# Static dielectric constant tensor:
#      x y z
#    x 1.766820 0.017070 0.014760 
#    y 0.017070 1.740960 0.014170 
#    z 0.014760 0.014170 1.790270 
# 
# From -- ./inp_files/617691.got.cif
#   From: 2010.05.17/outbox.ucp.g08.bks.cvg/sg2_309_cif.got.tgz:617691.got - 2010.06.11 11:32:03.
