data_PCOD9074215
_publ_section_title
;
Structure prediction by ZEFSAII (Michael W. Deem and Ramdas Pophale) SiO2 
 PCOD9074215
Probable space group: P -1
;
_chemical_formula_sum "Si O2"
_cell_formula_units_Z 16
_cell_length_a 21.000000
_cell_length_b 18.000000
_cell_length_c 9.000000
_cell_angle_alpha 120.000000
_cell_angle_beta 130.000000
_cell_angle_gamma 20.000000
_cell_volume 818.070593
_symmetry_space_group_name_H-M "P -1"
_symmetry_group_IT_number 2
_symmetry_cell_setting 'triclinic'
loop_
_space_group_symop_operation_xyz
x,y,z
-x,-y,-z
loop_
_atom_site_type_symbol
_atom_site_label
_atom_site_fract_x
_atom_site_fract_y
_atom_site_fract_z
Si Si1 0.779441 0.264180 0.010954
Si Si2 0.839145 0.572265 0.800555
Si Si3 0.316878 0.112152 0.504312
Si Si4 0.609528 0.505587 0.301021
Si Si5 0.700537 0.048231 0.873734
Si Si6 0.380867 0.392468 0.995952
Si Si7 0.898908 0.490398 0.472518
Si Si8 0.796220 0.438605 0.785775
O O1 0.570438 0.396179 0.824642
O O2 0.774592 0.303039 0.218063
O O3 0.710283 0.422199 0.987383
O O4 0.000000 0.000000 0.000000
O O5 0.840356 0.491271 0.835804
O O6 0.905048 0.468422 0.635481
O O7 0.580596 0.857442 0.692773
O O8 0.000000 0.500000 0.000000
O O9 0.690974 0.960248 0.700344
O O10 0.145211 0.259097 0.530880
O O11 0.232617 0.289629 0.510147
O O12 0.462457 0.727086 0.232244
O O13 0.728052 0.436520 0.552725
O O14 0.616277 0.143285 0.012612
O O15 0.965758 0.818305 0.037356
O O16 0.223061 0.469762 0.760210
O O17 0.382245 0.381860 0.165670
#
# Coordination Sequence:
#
# PCOD9074215 Si02
#       8
#     2   2   2   2   2   2   2   2
#     4  10  22  43  73  99 133 178 218 275 344 397
#     4  12  26  41  63 101 137 177 232 278 331 400
#     4  11  23  43  70  93 135 180 226 279 331 400
#     4  10  23  45  69 102 136 170 225 278 330 405
#     4  11  22  45  68  97 139 180 218 280 335 392
#     4  11  24  41  69 100 130 179 228 268 341 403
#     4  11  24  43  69  93 132 185 224 275 344 394
#     4  12  25  43  68 102 136 177 226 275 335 402
#
# _framework density 19.558214
#
# number of rings (size 3 to 8) (size 9 to 14) (size 15 to 20)
#    0.000    1.000    3.750    2.625    3.500    3.000 
#    0.000    8.750    0.000    0.000    0.000    0.000 
#    0.000    0.000    0.000    0.000    0.000    0.000 
#
# Total GULP energy -89233.001501 kJ/mol
# GULP energy per Si atom -5577.062594 kJ/mol
# Density = 1.951370 g / cm^3
# Si number density = 19.558214 Si / 1000 Ang^3
#
#
#
# Elastic Constant Matrix: (Units=GPa)
#
#
# Indices 1 2 3 4 5 6 
#
# 1 104.9631 31.1964 19.1726 22.2730 4.8123 0.0841
# 2 31.1964 150.5333 31.7754 26.5117 3.8833 -3.8737
# 3 19.1726 31.7754 113.2410 26.9313 16.4725 6.8160
# 4 22.2730 26.5117 26.9313 43.5075 -1.0913 7.5236
# 5 4.8123 3.8833 16.4725 -1.0913 35.8129 9.2102
# 6 0.0841 -3.8737 6.8160 7.5236 9.2102 38.4522
#
#
#
# Elastic Compliance Matrix: (Units=1/GPa)
#
#
# Indices 1 2 3 4 5 6 
#
# 1 0.011094 -0.001300 -0.000125 -0.005077 -0.001778 0.001286
# 2 -0.001300 0.007884 -0.001084 -0.003821 -0.000794 0.001927
# 3 -0.000125 -0.001084 0.011496 -0.006608 -0.005472 0.000457
# 4 -0.005077 -0.003821 -0.006608 0.033467 0.007070 -0.007444
# 5 -0.001778 -0.000794 -0.005472 0.007070 0.033148 -0.008429
# 6 0.001286 0.001927 0.000457 -0.007444 -0.008429 0.029592
#
#
# Mechanical properties :
#
#
# Convention : Reuss Voigt Hill
#
# Bulk Modulus (GPa) = 39.28176 59.22511 49.25343
# Shear Modulus (GPa) = 35.66721 42.66073 39.16397
#
# Velocity S-wave (km/s) = 4.27505 4.67542 4.47971
# Velocity P-wave (km/s) = 6.67054 7.71319 7.21074
#
# Compressibility (1/GPa) = 0.02545711
#
# Stress axis : x y z
#
# Youngs Moduli (GPa) = 90.13802 126.83533 86.98612
#
# Poissons Ratio (x) = 0.16484 0.01087
# Poissons Ratio (y) = 0.11714 0.09430
# Poissons Ratio (z) = 0.01127 0.13750
#
# Static dielectric constant tensor:
#      x y z
#    x 1.762620 -0.022080 -0.014010 
#    y -0.022080 1.676920 -0.022150 
#    z -0.014010 -0.022150 1.696680 
# 
# From -- ./inp_files/348537.got.cif
#   From: 2010.05.17/outbox.ucp.g08.bks.cvg/sg2_175_cif.got.tgz:348537.got - 2010.06.11 11:32:03.
