data_PCOD9074449
_publ_section_title
;
Structure prediction by ZEFSAII (Michael W. Deem and Ramdas Pophale) SiO2 
 PCOD9074449
Probable space group: P -1
;
_chemical_formula_sum "Si O2"
_cell_formula_units_Z 16
_cell_length_a 12.000000
_cell_length_b 9.000000
_cell_length_c 18.000000
_cell_angle_alpha 120.000000
_cell_angle_beta 130.000000
_cell_angle_gamma 30.000000
_cell_volume 736.400153
_symmetry_space_group_name_H-M "P -1"
_symmetry_group_IT_number 2
_symmetry_cell_setting 'triclinic'
loop_
_space_group_symop_operation_xyz
x,y,z
-x,-y,-z
loop_
_atom_site_type_symbol
_atom_site_label
_atom_site_fract_x
_atom_site_fract_y
_atom_site_fract_z
Si Si1 0.592674 0.575970 0.608613
Si Si2 0.897926 0.020064 0.232908
Si Si3 0.880246 0.420131 0.353845
Si Si4 0.335185 0.111722 0.886207
Si Si5 0.599229 0.908117 0.259112
Si Si6 0.197308 0.832398 0.942151
Si Si7 0.099899 0.193067 0.120139
Si Si8 0.405193 0.012887 0.536232
O O1 0.500000 0.500000 0.500000
O O2 0.831639 0.286143 0.688221
O O3 0.416594 0.879725 0.661267
O O4 0.626000 0.686335 0.586348
O O5 0.714745 0.041492 0.178849
O O6 0.796647 0.305223 0.283981
O O7 0.893053 0.031594 0.144713
O O8 0.856760 0.551339 0.299675
O O9 0.708196 0.716116 0.400906
O O10 0.156605 0.142773 0.440948
O O11 0.443180 0.052383 0.837129
O O12 0.077338 0.468818 0.876559
O O13 0.500000 0.000000 0.000000
O O14 0.369944 0.007839 0.214804
O O15 0.040175 0.813763 0.891451
O O16 0.500000 0.500000 0.000000
O O17 0.134031 0.052669 0.023788
O O18 0.500000 0.000000 0.500000
#
# Coordination Sequence:
#
# PCOD9074449 Si02
#       8
#     2   2   2   2   2   2   2   2
#     4  11  24  46  67 103 142 181 234 298 351 419
#     4  12  24  43  70 103 144 179 235 290 363 406
#     4  10  23  43  66  97 134 180 239 284 341 428
#     4  12  27  43  69 105 144 182 233 294 361 423
#     4  11  25  45  71  99 144 189 235 282 360 431
#     4  11  25  45  72 105 140 188 239 292 344 434
#     4  11  23  45  71  99 143 183 235 288 353 422
#     4  10  23  43  70  94 133 185 235 290 348 412
#
# _framework density 21.727318
#
# number of rings (size 3 to 8) (size 9 to 14) (size 15 to 20)
#    0.000    1.000    2.500    3.750    3.500    5.000 
#    0.000    1.250    0.000    0.000    0.000    0.000 
#    0.000    0.000    0.000    0.000    0.000    0.000 
#
# Total GULP energy -89159.312970 kJ/mol
# GULP energy per Si atom -5572.457061 kJ/mol
# Density = 2.167787 g / cm^3
# Si number density = 21.727318 Si / 1000 Ang^3
#
#
#
# Elastic Constant Matrix: (Units=GPa)
#
#
# Indices 1 2 3 4 5 6 
#
# 1 101.1498 37.2112 52.0816 1.2659 -4.4099 19.0597
# 2 37.2112 70.2463 21.7505 -10.7750 12.2860 32.4376
# 3 52.0816 21.7505 119.3332 -13.8891 0.7664 5.2200
# 4 1.2659 -10.7750 -13.8891 39.9044 24.2525 -0.0570
# 5 -4.4099 12.2860 0.7664 24.2525 33.9521 -3.1400
# 6 19.0597 32.4376 5.2200 -0.0570 -3.1400 30.2495
#
#
#
# Elastic Compliance Matrix: (Units=1/GPa)
#
#
# Indices 1 2 3 4 5 6 
#
# 1 0.829643 -2.577209 -0.365253 -2.883424 3.353039 2.646547
# 2 -2.577209 8.157884 1.133226 9.105340-10.593515 -8.402188
# 3 -0.365253 1.133226 0.170026 1.274161 -1.479300 -1.165556
# 4 -2.883424 9.105340 1.274161 10.214538-11.861989 -9.379141
# 5 3.353039-10.593515 -1.479300-11.861989 13.814338 10.914027
# 6 2.646547 -8.402188 -1.165556 -9.379141 10.914027 8.691867
#
#
# Mechanical properties :
#
#
# Convention : Reuss Voigt Hill
#
# Bulk Modulus (GPa) = 0.18054 56.97956 28.58005
# Shear Modulus (GPa) = 0.10561 32.80026 16.45294
#
# Velocity S-wave (km/s) = 0.22071 3.88961 2.75480
# Velocity P-wave (km/s) = 0.38500 6.81571 4.82712
#
# Compressibility (1/GPa) = 5.53908043
#
# Stress axis : x y z
#
# Youngs Moduli (GPa) = 1.20534 0.12258 5.88145
#
# Poissons Ratio (x) = 0.31592 2.14822
# Poissons Ratio (y) = 3.10641 -6.66501
# Poissons Ratio (z) = 0.44025 -0.13891
#
# Static dielectric constant tensor:
#      x y z
#    x 2.309800 0.027360 -0.394790 
#    y 0.027360 1.782970 -0.041480 
#    z -0.394790 -0.041480 1.977340 
# 
# From -- ./inp_files/547761.got.cif
#   From: 2010.05.17/outbox.ucp.g08.bks.cvg/sg2_274_cif.got.tgz:547761.got - 2010.06.11 11:32:03.
