data_PCOD9074655
_publ_section_title
;
Structure prediction by ZEFSAII (Michael W. Deem and Ramdas Pophale) SiO2 
 PCOD9074655
Probable space group: P -1
;
_chemical_formula_sum "Si O2"
_cell_formula_units_Z 16
_cell_length_a 24.000000
_cell_length_b 9.000000
_cell_length_c 15.000000
_cell_angle_alpha 50.000000
_cell_angle_beta 150.000000
_cell_angle_gamma 150.000000
_cell_volume 731.734496
_symmetry_space_group_name_H-M "P -1"
_symmetry_group_IT_number 2
_symmetry_cell_setting 'triclinic'
loop_
_space_group_symop_operation_xyz
x,y,z
-x,-y,-z
loop_
_atom_site_type_symbol
_atom_site_label
_atom_site_fract_x
_atom_site_fract_y
_atom_site_fract_z
Si Si1 0.472780 0.311427 0.956532
Si Si2 0.186976 0.717093 0.907261
Si Si3 0.134517 0.099501 0.951324
Si Si4 0.600100 0.797412 0.818374
Si Si5 0.289472 0.396283 0.403058
Si Si6 0.221756 0.844558 0.505062
Si Si7 0.288096 0.634149 0.819592
Si Si8 0.629136 0.418208 0.760489
O O1 0.478044 0.442992 0.823377
O O2 0.286434 0.932466 0.871095
O O3 0.500000 0.500000 0.000000
O O4 0.658537 0.440641 0.156906
O O5 0.965847 0.454426 0.699022
O O6 0.218107 0.533539 0.026409
O O7 0.319156 0.973577 0.073362
O O8 0.186186 0.363834 0.859328
O O9 0.209691 0.023203 0.029015
O O10 0.275697 0.284388 0.160902
O O11 0.913570 0.787445 0.789720
O O12 0.454212 0.686377 0.589458
O O13 0.365327 0.535404 0.354247
O O14 0.241743 0.099962 0.455680
O O15 0.196304 0.685428 0.622047
O O16 0.421287 0.075719 0.642967
O O17 0.500000 0.000000 0.000000
#
# Coordination Sequence:
#
# PCOD9074655 Si02
#       8
#     2   2   2   2   2   2   2   2
#     4   9  19  41  62  88 135 169 194 261 327 380
#     4  11  24  42  67  97 131 171 214 266 324 386
#     4  11  23  42  65  95 130 166 213 269 320 386
#     4  10  24  44  63  97 135 164 213 273 319 381
#     4  12  26  41  70  92 126 184 216 259 327 380
#     4  12  24  39  70  99 123 173 217 263 328 376
#     4  11  20  39  65  97 131 157 209 279 313 370
#     4  12  24  45  66  93 134 168 224 267 313 386
#
# _framework density 21.865853999999999
#
# number of rings (size 3 to 8) (size 9 to 14) (size 15 to 20)
#    0.000    1.000    5.000    1.500    1.750    2.000 
#    0.000    3.125    0.000    0.000    0.000    0.000 
#    0.000    0.000    0.000    0.000    0.000    0.000 
#
# Total GULP energy -89274.270406 kJ/mol
# GULP energy per Si atom -5579.641900 kJ/mol
# Density = 2.181609 g / cm^3
# Si number density = 21.865854 Si / 1000 Ang^3
#
#
#
# Elastic Constant Matrix: (Units=GPa)
#
#
# Indices 1 2 3 4 5 6 
#
# 1 86.9580 5.0896 29.4430 4.2872 -3.0410 19.1568
# 2 5.0896 15.0985 15.2360 7.3001 -2.4305 5.6815
# 3 29.4430 15.2360 127.0300 19.6635 -10.8932 20.4311
# 4 4.2872 7.3001 19.6635 26.2226 -1.9928 4.7944
# 5 -3.0410 -2.4305 -10.8932 -1.9928 25.4137 5.9243
# 6 19.1568 5.6815 20.4311 4.7944 5.9243 27.0218
#
#
#
# Elastic Compliance Matrix: (Units=1/GPa)
#
#
# Indices 1 2 3 4 5 6 
#
# 1 0.014280 0.000760 -0.001619 0.000751 0.003466 -0.009953
# 2 0.000760 0.085629 -0.004929 -0.017190 0.007970 -0.013514
# 3 -0.001619 -0.004929 0.011115 -0.005123 0.005201 -0.006451
# 4 0.000751 -0.017190 -0.005123 0.046920 0.000262 -0.001427
# 5 0.003466 0.007970 0.005201 0.000262 0.047073 -0.018433
# 6 -0.009953 -0.013514 -0.006451 -0.001427 -0.018433 0.056076
#
#
# Mechanical properties :
#
#
# Convention : Reuss Voigt Hill
#
# Bulk Modulus (GPa) = 10.05541 36.51372 23.28457
# Shear Modulus (GPa) = 16.34956 27.68617 22.01786
#
# Velocity S-wave (km/s) = 2.73742 3.56221 3.17669
# Velocity P-wave (km/s) = 3.82098 5.80123 4.91194
#
# Compressibility (1/GPa) = 0.09944895
#
# Stress axis : x y z
#
# Youngs Moduli (GPa) = 70.02645 11.67833 89.96576
#
# Poissons Ratio (x) = -0.00888 0.14569
# Poissons Ratio (y) = -0.05324 0.44341
# Poissons Ratio (z) = 0.11340 0.05756
#
# Static dielectric constant tensor:
#      x y z
#    x 1.844470 -0.050700 -0.001500 
#    y -0.050700 1.856050 -0.055710 
#    z -0.001500 -0.055710 1.785150 
# 
# From -- ./inp_files/454416.got.cif
#   From: 2010.05.17/outbox.ucp.g08.bks.cvg/sg2_228_cif.got.tgz:454416.got - 2010.06.11 11:32:03.
