data_PCOD9074446
_publ_section_title
;
Structure prediction by ZEFSAII (Michael W. Deem and Ramdas Pophale) SiO2 
 PCOD9074446
Probable space group: P -1
;
_chemical_formula_sum "Si O2"
_cell_formula_units_Z 16
_cell_length_a 24.000000
_cell_length_b 9.000000
_cell_length_c 21.000000
_cell_angle_alpha 40.000000
_cell_angle_beta 20.000000
_cell_angle_gamma 30.000000
_cell_volume 744.844803
_symmetry_space_group_name_H-M "P -1"
_symmetry_group_IT_number 2
_symmetry_cell_setting 'triclinic'
loop_
_space_group_symop_operation_xyz
x,y,z
-x,-y,-z
loop_
_atom_site_type_symbol
_atom_site_label
_atom_site_fract_x
_atom_site_fract_y
_atom_site_fract_z
Si Si1 0.619300 0.174783 0.012690
Si Si2 0.336272 0.532277 0.037057
Si Si3 0.564065 0.118409 0.664056
Si Si4 0.029354 0.536007 0.744448
Si Si5 0.227620 0.184115 0.334906
Si Si6 0.960870 0.887157 0.226602
Si Si7 0.070998 0.724616 0.967883
Si Si8 0.194540 0.801311 0.406156
O O1 0.769486 0.167333 0.904837
O O2 0.500000 0.500000 0.000000
O O3 0.785386 0.870549 0.892287
O O4 0.457915 0.141237 0.229034
O O5 0.359017 0.275600 0.136042
O O6 0.180566 0.634627 0.112098
O O7 0.569285 0.411210 0.808789
O O8 0.328526 0.438961 0.794680
O O9 0.637799 0.079897 0.670066
O O10 0.751176 0.048456 0.442966
O O11 0.056233 0.296694 0.747013
O O12 0.177270 0.603553 0.538245
O O13 0.044787 0.401038 0.841872
O O14 0.000000 0.500000 0.500000
O O15 0.170376 0.062218 0.382673
O O16 0.969751 0.131543 0.104901
O O17 0.000000 0.000000 0.000000
O O18 0.000000 0.000000 0.500000
#
# Coordination Sequence:
#
# PCOD9074446 Si02
#       8
#     2   2   2   2   2   2   2   2
#     4  11  22  39  63  94 135 175 207 263 336 395
#     4  12  25  40  65  99 134 170 219 272 324 391
#     4  11  23  41  72  96 134 176 220 264 332 398
#     4  10  23  43  65  92 130 175 216 262 334 388
#     4  12  25  42  65 101 135 173 216 267 332 399
#     4  11  23  44  69  98 127 170 232 273 320 387
#     4   9  22  43  73  94 127 174 222 277 324 384
#     4  12  27  40  63  96 137 173 215 268 330 395
#
# _framework density 21.480985
#
# number of rings (size 3 to 8) (size 9 to 14) (size 15 to 20)
#    0.000    1.000    2.500    3.750    8.750    0.000 
#    0.000    3.125    2.750    0.000    0.000    0.000 
#    0.000    0.000    0.000    0.000    0.000    0.000 
#
# Total GULP energy -89295.705168 kJ/mol
# GULP energy per Si atom -5580.981573 kJ/mol
# Density = 2.143209 g / cm^3
# Si number density = 21.480985 Si / 1000 Ang^3
#
#
#
# Elastic Constant Matrix: (Units=GPa)
#
#
# Indices 1 2 3 4 5 6 
#
# 1 47.8276 8.6621 33.8540 -0.4656 1.3606 2.5561
# 2 8.6621 90.3752 51.7150 -11.2695 15.7116 -11.6009
# 3 33.8540 51.7150 125.7176 -33.9414 33.1185 -1.7747
# 4 -0.4656 -11.2695 -33.9414 35.5306 -4.4778 4.6641
# 5 1.3606 15.7116 33.1185 -4.4778 18.4958 -22.1546
# 6 2.5561 -11.6009 -1.7747 4.6641 -22.1546 24.5636
#
#
#
# Elastic Compliance Matrix: (Units=1/GPa)
#
#
# Indices 1 2 3 4 5 6 
#
# 1 0.024754 -0.000078 -0.003616 -0.002969 -0.015364 -0.016168
# 2 -0.000078 0.014249 -0.002856 0.000873 -0.010604 -0.003199
# 3 -0.003616 -0.002856 0.002440 0.001773 0.032413 0.028101
# 4 -0.002969 0.000873 0.001773 0.030948 0.027727 0.019981
# 5 -0.015364 -0.010604 0.032413 0.027727 -0.065883 -0.065754
# 6 -0.016168 -0.003199 0.028101 0.019981 -0.065754 -0.020187
#
#
# Mechanical properties :
#
#
# Convention : Reuss Voigt Hill
#
# Bulk Modulus (GPa) = 35.28278 50.26473 42.77376
# Shear Modulus (GPa) = 563.79172 27.03062 295.41117
#
# Velocity S-wave (km/s) = 16.21822 3.55117 11.73971
# Velocity P-wave (km/s) = 19.16164 6.34546 14.27293
#
# Compressibility (1/GPa) = 0.02834244
#
# Stress axis : x y z
#
# Youngs Moduli (GPa) = 40.39680 70.18223 409.88583
#
# Poissons Ratio (x) = 0.00546 1.48225
# Poissons Ratio (y) = 0.00314 1.17069
# Poissons Ratio (z) = 0.14608 0.20045
#
# Static dielectric constant tensor:
#      x y z
#    x 1.829580 -0.033380 -0.000600 
#    y -0.033380 1.678770 -0.090450 
#    z -0.000600 -0.090450 1.707050 
# 
# From -- ./inp_files/178681.got.cif
#   From: 2010.05.17/outbox.ucp.g08.bks.cvg/sg2_90_cif.got.tgz:178681.got - 2010.06.11 11:32:03.
