data_PCOD9074844
_publ_section_title
;
Structure prediction by ZEFSAII (Michael W. Deem and Ramdas Pophale) SiO2 
 PCOD9074844
Probable space group: P -1
;
_chemical_formula_sum "Si O2"
_cell_formula_units_Z 16
_cell_length_a 9.000000
_cell_length_b 12.000000
_cell_length_c 15.000000
_cell_angle_alpha 50.000000
_cell_angle_beta 110.000000
_cell_angle_gamma 140.000000
_cell_volume 759.581896
_symmetry_space_group_name_H-M "P -1"
_symmetry_group_IT_number 2
_symmetry_cell_setting 'triclinic'
loop_
_space_group_symop_operation_xyz
x,y,z
-x,-y,-z
loop_
_atom_site_type_symbol
_atom_site_label
_atom_site_fract_x
_atom_site_fract_y
_atom_site_fract_z
Si Si1 0.186212 0.622004 0.838247
Si Si2 0.925750 0.014042 0.213770
Si Si3 0.926811 0.684998 0.373797
Si Si4 0.528950 0.265232 0.610119
Si Si5 0.433024 0.945816 0.411302
Si Si6 0.626883 0.935662 0.029747
Si Si7 0.103035 0.690778 0.232457
Si Si8 0.206971 0.459234 0.107284
O O1 0.022490 0.453627 0.808819
O O2 0.037216 0.649344 0.840067
O O3 0.435297 0.840218 0.730911
O O4 0.225983 0.542982 0.969808
O O5 0.985672 0.892847 0.262837
O O6 0.707642 0.860673 0.319393
O O7 0.813681 0.019091 0.102193
O O8 0.153461 0.254380 0.181722
O O9 0.693161 0.507372 0.479479
O O10 0.147492 0.762856 0.431271
O O11 0.916690 0.598967 0.320200
O O12 0.474040 0.133599 0.578012
O O13 0.700154 0.283931 0.699380
O O14 0.500000 0.000000 0.500000
O O15 0.428293 0.672746 0.102805
O O16 0.500000 0.000000 0.000000
O O17 0.758410 0.068342 0.896275
#
# Coordination Sequence:
#
# PCOD9074844 Si02
#       8
#     2   2   2   2   2   2   2   2
#     4  11  19  36  66  94 124 158 217 270 304 367
#     4  12  24  44  64  95 137 167 206 268 323 382
#     4  11  26  42  61  94 131 170 211 261 330 377
#     4  11  21  42  67  87 122 173 222 258 312 384
#     4  11  22  40  65  94 123 164 220 265 309 375
#     4  12  21  40  70  99 124 167 217 263 315 380
#     4  11  21  40  69  95 123 168 218 264 318 377
#     4  11  21  37  63 100 124 161 215 260 314 375
#
# _framework density 21.064219999999999
#
# number of rings (size 3 to 8) (size 9 to 14) (size 15 to 20)
#    0.000    0.750    5.000    5.625    0.000    0.500 
#    4.500    1.875    0.000    0.000    0.000    0.000 
#    0.000    0.000    0.000    0.000    0.000    0.000 
#
# Total GULP energy -89370.124880 kJ/mol
# GULP energy per Si atom -5585.632805 kJ/mol
# Density = 2.101628 g / cm^3
# Si number density = 21.064220 Si / 1000 Ang^3
#
#
#
# Elastic Constant Matrix: (Units=GPa)
#
#
# Indices 1 2 3 4 5 6 
#
# 1 43.2302 13.5562 23.8720 3.9637 1.0938 -19.8565
# 2 13.5562 99.2689 27.8842 5.5589 -5.7618 -23.7407
# 3 23.8720 27.8842 96.0522 -3.9451 -16.4154 -11.1039
# 4 3.9637 5.5589 -3.9451 38.6437 -5.4686 -8.5413
# 5 1.0938 -5.7618 -16.4154 -5.4686 27.8335 -6.5080
# 6 -19.8565 -23.7407 -11.1039 -8.5413 -6.5080 22.0580
#
#
#
# Elastic Compliance Matrix: (Units=1/GPa)
#
#
# Indices 1 2 3 4 5 6 
#
# 1 0.048428 0.008640 -0.005955 0.007048 0.010808 0.055814
# 2 0.008640 0.016795 -0.001709 0.004488 0.009947 0.029666
# 3 -0.005955 -0.001709 0.015197 0.005283 0.011240 0.005812
# 4 0.007048 0.004488 0.005283 0.034867 0.018271 0.032726
# 5 0.010808 0.009947 0.011240 0.018271 0.059652 0.050768
# 6 0.055814 0.029666 0.005812 0.032726 0.050768 0.158085
#
#
# Mechanical properties :
#
#
# Convention : Reuss Voigt Hill
#
# Bulk Modulus (GPa) = 12.14006 41.01956 26.57981
# Shear Modulus (GPa) = 13.94589 29.25631 21.60110
#
# Velocity S-wave (km/s) = 2.57585 3.73085 3.20580
# Velocity P-wave (km/s) = 3.82395 6.17048 5.13310
#
# Compressibility (1/GPa) = 0.08237194
#
# Stress axis : x y z
#
# Youngs Moduli (GPa) = 20.64916 59.54257 65.80249
#
# Poissons Ratio (x) = -0.51448 0.39188
# Poissons Ratio (y) = -0.17842 0.11246
# Poissons Ratio (z) = 0.12297 0.10176
#
# Static dielectric constant tensor:
#      x y z
#    x 1.726460 -0.002790 -0.004010 
#    y -0.002790 1.786010 -0.095030 
#    z -0.004010 -0.095030 1.800260 
# 
# From -- ./inp_files/273931.got.cif
#   From: 2010.05.17/outbox.ucp.g08.bks.cvg/sg2_137_cif.got.tgz:273931.got - 2010.06.11 11:32:03.
