data_PCOD9074460
_publ_section_title
;
Structure prediction by ZEFSAII (Michael W. Deem and Ramdas Pophale) SiO2 
 PCOD9074460
Probable space group: P -1
;
_chemical_formula_sum "Si O2"
_cell_formula_units_Z 14
_cell_length_a 9.000000
_cell_length_b 24.000000
_cell_length_c 9.000000
_cell_angle_alpha 30.000000
_cell_angle_beta 130.000000
_cell_angle_gamma 140.000000
_cell_volume 623.501542
_symmetry_space_group_name_H-M "P -1"
_symmetry_group_IT_number 2
_symmetry_cell_setting 'triclinic'
loop_
_space_group_symop_operation_xyz
x,y,z
-x,-y,-z
loop_
_atom_site_type_symbol
_atom_site_label
_atom_site_fract_x
_atom_site_fract_y
_atom_site_fract_z
Si Si1 0.804873 0.443727 0.876050
Si Si2 0.547803 0.839753 0.084298
Si Si3 0.343919 0.181951 0.140720
Si Si4 0.426808 0.929216 0.274541
Si Si5 0.063336 0.638594 0.147545
Si Si6 0.920761 0.709281 0.399006
Si Si7 0.304690 0.350745 0.275778
O O1 0.870215 0.383406 0.923444
O O2 0.825500 0.580051 0.534237
O O3 0.538954 0.326898 0.999565
O O4 0.000000 0.500000 0.000000
O O5 0.270780 0.753272 0.111191
O O6 0.624239 0.756566 0.422031
O O7 0.601453 0.837915 0.948831
O O8 0.640254 0.986049 0.862324
O O9 0.375824 0.083575 0.490632
O O10 0.121128 0.188374 0.951935
O O11 0.191735 0.785056 0.435118
O O12 0.500000 0.000000 0.000000
O O13 0.000000 0.500000 0.500000
O O14 0.888530 0.682177 0.894521
O O15 0.780392 0.657973 0.585978
O O16 0.500000 0.500000 0.000000
#
# Coordination Sequence:
#
# PCOD9074460 Si02
#       7
#     2   2   2   2   2   2   2
#     4  11  20  41  70  93 133 171 207 271 334 379
#     4  10  24  43  66  94 129 174 220 263 323 395
#     4  10  23  43  68  94 126 175 221 267 325 390
#     4  12  27  45  66  93 133 176 220 271 326 387
#     4  11  22  38  64  96 131 165 211 266 323 378
#     4  11  24  43  67  97 133 173 219 267 331 386
#     4  11  22  40  67 100 131 165 215 271 327 387
#
# _framework density 22.453834000000001
#
# number of rings (size 3 to 8) (size 9 to 14) (size 15 to 20)
#    0.000    1.143    4.286    1.714    2.000    5.143 
#    2.571    0.000    0.000    0.000    0.000    0.000 
#    0.000    0.000    0.000    0.000    0.000    0.000 
#
# Total GULP energy -78083.625380 kJ/mol
# GULP energy per Si atom -5577.401813 kJ/mol
# Density = 2.240273 g / cm^3
# Si number density = 22.453834 Si / 1000 Ang^3
#
#
#
# Elastic Constant Matrix: (Units=GPa)
#
#
# Indices 1 2 3 4 5 6 
#
# 1 15.2728 6.2151 13.9159 7.0182 4.6819 4.2398
# 2 6.2151 67.3884 17.6263 8.7244 14.8388 -1.7716
# 3 13.9159 17.6263 149.1365 36.4924 15.9061 4.1969
# 4 7.0182 8.7244 36.4924 57.1936 5.7950 14.8364
# 5 4.6819 14.8388 15.9061 5.7950 42.1219 0.0348
# 6 4.2398 -1.7716 4.1969 14.8364 0.0348 22.1080
#
#
#
# Elastic Compliance Matrix: (Units=1/GPa)
#
#
# Indices 1 2 3 4 5 6 
#
# 1 0.078298 -0.004922 -0.005508 -0.001385 -0.004688 -0.013428
# 2 -0.004922 0.016901 -0.000616 -0.002075 -0.004892 0.003815
# 3 -0.005508 -0.000616 0.008709 -0.005383 -0.001721 0.002968
# 4 -0.001385 -0.002075 -0.005383 0.025638 -0.000596 -0.016083
# 5 -0.004688 -0.004892 -0.001721 -0.000596 0.026716 0.001192
# 6 -0.013428 0.003815 0.002968 -0.016083 0.001192 0.058341
#
#
# Mechanical properties :
#
#
# Convention : Reuss Voigt Hill
#
# Bulk Modulus (GPa) = 12.22256 34.14582 23.18419
# Shear Modulus (GPa) = 18.94181 37.22072 28.08127
#
# Velocity S-wave (km/s) = 2.90761 4.07585 3.54025
# Velocity P-wave (km/s) = 4.08993 6.11475 5.20181
#
# Compressibility (1/GPa) = 0.08181593
#
# Stress axis : x y z
#
# Youngs Moduli (GPa) = 12.77173 59.16967 114.82178
#
# Poissons Ratio (x) = 0.29125 0.63238
# Poissons Ratio (y) = 0.06287 0.07074
# Poissons Ratio (z) = 0.07034 0.03645
#
# Static dielectric constant tensor:
#      x y z
#    x 1.925410 0.066060 0.025710 
#    y 0.066060 1.830370 -0.007050 
#    z 0.025710 -0.007050 1.902230 
# 
# From -- ./inp_files/225899.got.cif
#   From: 2010.05.17/outbox.ucp.g08.bks.cvg/sg2_113_cif.got.tgz:225899.got - 2010.06.11 11:32:03.
