data_PCOD9074004
_publ_section_title
;
Structure prediction by ZEFSAII (Michael W. Deem and Ramdas Pophale) SiO2 
 PCOD9074004
Probable space group: P -1
;
_chemical_formula_sum "Si O2"
_cell_formula_units_Z 16
_cell_length_a 9.000000
_cell_length_b 12.000000
_cell_length_c 18.000000
_cell_angle_alpha 140.000000
_cell_angle_beta 100.000000
_cell_angle_gamma 50.000000
_cell_volume 729.599496
_symmetry_space_group_name_H-M "P -1"
_symmetry_group_IT_number 2
_symmetry_cell_setting 'triclinic'
loop_
_space_group_symop_operation_xyz
x,y,z
-x,-y,-z
loop_
_atom_site_type_symbol
_atom_site_label
_atom_site_fract_x
_atom_site_fract_y
_atom_site_fract_z
Si Si1 0.414516 0.163460 0.877441
Si Si2 0.935745 0.700484 0.180028
Si Si3 0.220571 0.841420 0.497217
Si Si4 0.898767 0.683786 0.752529
Si Si5 0.208407 0.706293 0.716932
Si Si6 0.920449 0.290773 0.463472
Si Si7 0.452765 0.694536 0.155950
Si Si8 0.017198 0.712540 0.945609
O O1 0.562118 0.117623 0.799641
O O2 0.289651 0.110055 0.802530
O O3 0.595383 0.961505 0.858420
O O4 0.194341 0.498477 0.055475
O O5 0.984419 0.459409 0.091029
O O6 0.867114 0.901234 0.338325
O O7 0.516441 0.588370 0.372585
O O8 0.237538 0.667654 0.468190
O O9 0.000000 0.000000 0.500000
O O10 0.963437 0.446595 0.585441
O O11 0.956991 0.680457 0.842819
O O12 0.011864 0.749526 0.756331
O O13 0.198317 0.651772 0.599909
O O14 0.133083 0.977082 0.874119
O O15 0.191911 0.940802 0.303657
O O16 0.692090 0.488688 0.126254
O O17 0.500000 0.500000 0.000000
#
# Coordination Sequence:
#
# PCOD9074004 Si02
#       8
#     2   2   2   2   2   2   2   2
#     4  10  22  40  71  96 136 177 237 276 344 404
#     4  10  24  44  70 100 139 185 229 283 342 422
#     4  12  29  46  68 104 144 182 228 288 354 409
#     4  12  26  44  71 106 141 181 228 297 347 403
#     4  12  27  47  71 104 141 183 236 284 345 416
#     4  12  26  45  75 100 140 187 230 286 344 421
#     4  11  21  42  68  99 135 181 238 276 342 411
#     4  11  26  43  72 104 140 182 229 290 345 407
#
# _framework density 21.929839999999999
#
# number of rings (size 3 to 8) (size 9 to 14) (size 15 to 20)
#    0.000    0.750    2.500    3.375   12.250    1.000 
#    0.000    0.000    0.000    0.000    0.000    0.000 
#    0.000    0.000    0.000    0.000    0.000    0.000 
#
# Total GULP energy -89098.899133 kJ/mol
# GULP energy per Si atom -5568.681196 kJ/mol
# Density = 2.187993 g / cm^3
# Si number density = 21.929840 Si / 1000 Ang^3
#
#
#
# Elastic Constant Matrix: (Units=GPa)
#
#
# Indices 1 2 3 4 5 6 
#
# 1 78.9132 25.0189 35.3813 -1.2616 23.5903 -17.0748
# 2 25.0189 152.5116 32.5302 -21.0239 9.6697 -50.3793
# 3 35.3813 32.5302 121.5937 -7.4545 38.4312 -34.7430
# 4 -1.2616 -21.0239 -7.4545 34.2857 -12.7294 -0.0825
# 5 23.5903 9.6697 38.4312 -12.7294 52.0283 -1.7684
# 6 -17.0748 -50.3793 -34.7430 -0.0825 -1.7684 57.4772
#
#
#
# Elastic Compliance Matrix: (Units=1/GPa)
#
#
# Indices 1 2 3 4 5 6 
#
# 1 0.016357 -0.001620 -0.001892 -0.003183 -0.006425 0.002093
# 2 -0.001620 0.010657 0.000579 0.006730 0.000286 0.009228
# 3 -0.001892 0.000579 0.013812 -0.000110 -0.009207 0.008011
# 4 -0.003183 0.006730 -0.000110 0.036663 0.009422 0.005229
# 5 -0.006425 0.000286 -0.009207 0.009422 0.030973 -0.006257
# 6 0.002093 0.009228 0.008011 0.005229 -0.006257 0.030766
#
#
# Mechanical properties :
#
#
# Convention : Reuss Voigt Hill
#
# Bulk Modulus (GPa) = 28.60406 59.87548 44.23977
# Shear Modulus (GPa) = 31.89851 46.09744 38.99798
#
# Velocity S-wave (km/s) = 3.81802 4.58978 4.22157
# Velocity P-wave (km/s) = 5.70159 7.44651 6.63169
#
# Compressibility (1/GPa) = 0.03496007
#
# Stress axis : x y z
#
# Youngs Moduli (GPa) = 61.13609 93.83529 72.40155
#
# Poissons Ratio (x) = 0.15197 0.13702
# Poissons Ratio (y) = 0.09901 -0.04193
# Poissons Ratio (z) = 0.11570 -0.05435
#
# Static dielectric constant tensor:
#      x y z
#    x 1.842430 0.011210 -0.020870 
#    y 0.011210 1.853350 0.011690 
#    z -0.020870 0.011690 1.807060 
# 
# From -- ./inp_files/560039.got.cif
#   From: 2010.05.17/outbox.ucp.g08.bks.cvg/sg2_281_cif.got.tgz:560039.got - 2010.06.11 11:32:03.
