data_PCOD9074430
_publ_section_title
;
Structure prediction by ZEFSAII (Michael W. Deem and Ramdas Pophale) SiO2 
 PCOD9074430
Probable space group: P -1
;
_chemical_formula_sum "Si O2"
_cell_formula_units_Z 10
_cell_length_a 9.000000
_cell_length_b 12.000000
_cell_length_c 9.000000
_cell_angle_alpha 130.000000
_cell_angle_beta 90.000000
_cell_angle_gamma 130.000000
_cell_volume 405.043232
_symmetry_space_group_name_H-M "P -1"
_symmetry_group_IT_number 2
_symmetry_cell_setting 'triclinic'
loop_
_space_group_symop_operation_xyz
x,y,z
-x,-y,-z
loop_
_atom_site_type_symbol
_atom_site_label
_atom_site_fract_x
_atom_site_fract_y
_atom_site_fract_z
Si Si1 0.794526 0.476364 0.557065
Si Si2 0.059491 0.504348 0.835457
Si Si3 0.693702 0.664505 0.904990
Si Si4 0.362190 0.058123 0.943895
Si Si5 0.128357 0.260984 0.724925
O O1 0.693734 0.552523 0.674938
O O2 0.546983 0.217738 0.231658
O O3 0.874053 0.443609 0.671039
O O4 0.088665 0.739185 0.700142
O O5 0.387122 0.779037 0.029917
O O6 0.984913 0.271245 0.643853
O O7 0.000000 0.500000 0.000000
O O8 0.764975 0.886157 0.043969
O O9 0.411465 0.468149 0.818822
O O10 0.852124 0.704131 0.067659
O O11 0.000000 0.000000 0.500000
#
# Coordination Sequence:
#
# PCOD9074430 Si02
#       5
#     2   2   2   2   2
#     4  12  25  48  71 110 141 189 234 300 358 422
#     4  11  24  48  73 105 144 189 239 295 357 422
#     4  10  23  42  71 103 140 188 240 288 356 424
#     4  11  27  45  73 104 150 183 238 292 361 424
#     4  10  23  44  71 105 142 184 243 296 350 423
#
# _framework density 24.688723
#
# number of rings (size 3 to 8) (size 9 to 14) (size 15 to 20)
#    0.000    1.200    2.000    2.400    8.400    0.000 
#    7.200    5.000    0.000    0.000    0.000    0.000 
#    0.000    0.000    0.000    0.000    0.000    0.000 
#
# Total GULP energy -55839.693657 kJ/mol
# GULP energy per Si atom -5583.969366 kJ/mol
# Density = 2.463253 g / cm^3
# Si number density = 24.688723 Si / 1000 Ang^3
#
#
#
# Elastic Constant Matrix: (Units=GPa)
#
#
# Indices 1 2 3 4 5 6 
#
# 1 124.1886 35.8573 22.7376 -29.5124 -7.6433 -46.6349
# 2 35.8573 99.7697 40.1548 -28.2953 -2.1695 -46.4746
# 3 22.7376 40.1548 89.0804 -1.4412 -10.2512 0.1999
# 4 -29.5124 -28.2953 -1.4412 29.7799 3.6981 -27.8030
# 5 -7.6433 -2.1695 -10.2512 3.6981 34.1519 -5.0146
# 6 -46.6349 -46.4746 0.1999 -27.8030 -5.0146 40.0941
#
#
#
# Elastic Compliance Matrix: (Units=1/GPa)
#
#
# Indices 1 2 3 4 5 6 
#
# 1 0.006225 -0.007526 0.001864 -0.006510 0.001322 -0.005842
# 2 -0.007526 0.005929 -0.001114 -0.010258 -0.001886 -0.009225
# 3 0.001864 -0.001114 0.011801 0.005937 0.004045 0.005440
# 4 -0.006510 -0.010258 0.005937 -0.001433 -0.003239 -0.020891
# 5 0.001322 -0.001886 0.004045 -0.003239 0.031166 0.000983
# 6 -0.005842 -0.009225 0.005440 -0.020891 0.000983 -0.006938
#
#
# Mechanical properties :
#
#
# Convention : Reuss Voigt Hill
#
# Bulk Modulus (GPa) = 96.13199 56.72647 76.42923
# Shear Modulus (GPa) = 78.40789 35.09110 56.74950
#
# Velocity S-wave (km/s) = 5.64159 3.77416 4.79957
# Velocity P-wave (km/s) = 9.02546 6.48220 7.85741
#
# Compressibility (1/GPa) = 0.01040236
#
# Stress axis : x y z
#
# Youngs Moduli (GPa) = 160.65235 168.67551 84.73522
#
# Poissons Ratio (x) = 1.26944 -0.15790
# Poissons Ratio (y) = 1.20906 0.09437
# Poissons Ratio (z) = -0.29938 0.18785
#
# Static dielectric constant tensor:
#      x y z
#    x 1.948230 0.178840 -0.111470 
#    y 0.178840 1.672880 -0.398370 
#    z -0.111470 -0.398370 2.208260 
# 
# From -- ./inp_files/15353.got.cif
#   From: 2010.05.17/outbox.ucp.g08.bks.cvg/sg2_8_cif.got.tgz:15353.got - 2010.06.11 11:32:03.
