data_PCOD9074167
_publ_section_title
;
Structure prediction by ZEFSAII (Michael W. Deem and Ramdas Pophale) SiO2 
 PCOD9074167
Probable space group: P -1
;
_chemical_formula_sum "Si O2"
_cell_formula_units_Z 16
_cell_length_a 9.000000
_cell_length_b 12.000000
_cell_length_c 12.000000
_cell_angle_alpha 120.000000
_cell_angle_beta 130.000000
_cell_angle_gamma 50.000000
_cell_volume 752.153660
_symmetry_space_group_name_H-M "P -1"
_symmetry_group_IT_number 2
_symmetry_cell_setting 'triclinic'
loop_
_space_group_symop_operation_xyz
x,y,z
-x,-y,-z
loop_
_atom_site_type_symbol
_atom_site_label
_atom_site_fract_x
_atom_site_fract_y
_atom_site_fract_z
Si Si1 0.037713 0.394537 0.788491
Si Si2 0.340748 0.911333 0.670996
Si Si3 0.137231 0.682474 0.125789
Si Si4 0.086033 0.955053 0.343144
Si Si5 0.537155 0.599612 0.978042
Si Si6 0.151322 0.266335 0.189615
Si Si7 0.705932 0.373501 0.465892
Si Si8 0.096926 0.743690 0.722487
O O1 0.017705 0.345774 0.878081
O O2 0.891525 0.570800 0.784956
O O3 0.924306 0.327342 0.621446
O O4 0.290432 0.352185 0.867668
O O5 0.598382 0.865001 0.768584
O O6 0.347547 0.758986 0.630341
O O7 0.155786 0.022733 0.723126
O O8 0.225968 0.955879 0.517350
O O9 0.333125 0.519056 0.115599
O O10 0.209417 0.794662 0.267617
O O11 0.008739 0.752890 0.984917
O O12 0.035714 0.093994 0.312120
O O13 0.307913 0.726160 0.885746
O O14 0.500000 0.500000 0.000000
O O15 0.058990 0.280131 0.277041
O O16 0.500000 0.500000 0.500000
O O17 0.790969 0.377618 0.383487
#
# Coordination Sequence:
#
# PCOD9074167 Si02
#       8
#     2   2   2   2   2   2   2   2
#     4  11  22  39  65  99 124 164 216 265 311 373
#     4  10  22  43  63  91 130 167 216 269 313 376
#     4  11  23  41  68  96 125 170 218 261 313 387
#     4  10  24  43  65  90 127 173 219 260 317 379
#     4  11  22  43  63  95 137 163 204 264 324 375
#     4  11  23  41  63  98 133 164 212 266 326 378
#     4  11  21  39  68  95 124 167 219 264 311 375
#     4  11  25  43  64  96 135 171 204 268 326 380
#
# _framework density 21.272248999999999
#
# number of rings (size 3 to 8) (size 9 to 14) (size 15 to 20)
#    0.000    1.250    5.000    2.250    5.250    2.000 
#    2.250    0.000    0.000    0.000    0.000    0.000 
#    0.000    0.000    0.000    0.000    0.000    0.000 
#
# Total GULP energy -89237.324184 kJ/mol
# GULP energy per Si atom -5577.332762 kJ/mol
# Density = 2.122383 g / cm^3
# Si number density = 21.272249 Si / 1000 Ang^3
#
#
#
# Elastic Constant Matrix: (Units=GPa)
#
#
# Indices 1 2 3 4 5 6 
#
# 1 74.1105 9.2412 10.4493 0.6301 -25.9023 2.5190
# 2 9.2412 51.0368 -4.4685 -12.5234 -3.3724 4.7214
# 3 10.4493 -4.4685 29.1775 0.0896 -16.6596 -7.4227
# 4 0.6301 -12.5234 0.0896 29.9944 5.3717 3.9876
# 5 -25.9023 -3.3724 -16.6596 5.3717 21.8303 -18.1687
# 6 2.5190 4.7214 -7.4227 3.9876 -18.1687 23.3696
#
#
#
# Elastic Compliance Matrix: (Units=1/GPa)
#
#
# Indices 1 2 3 4 5 6 
#
# 1 0.012133 -0.002099 -0.016050 0.003354 -0.012625 -0.016369
# 2 -0.002099 0.023019 0.007684 0.008506 0.005603 0.000921
# 3 -0.016050 0.007684 0.008469 0.015519 -0.042585 -0.032888
# 4 0.003354 0.008506 0.015519 0.031172 0.020997 0.013854
# 5 -0.012625 0.005603 -0.042585 0.020997 -0.056722 -0.060979
# 6 -0.016369 0.000921 -0.032888 0.013854 -0.060979 -0.015849
#
#
# Mechanical properties :
#
#
# Convention : Reuss Voigt Hill
#
# Bulk Modulus (GPa) = 44.07075 20.52987 32.30031
# Shear Modulus (GPa) = 162.78538 24.31237 93.54888
#
# Velocity S-wave (km/s) = 8.75733 3.38437 6.63871
# Velocity P-wave (km/s) = 11.09130 4.99439 8.60119
#
# Compressibility (1/GPa) = 0.02269079
#
# Stress axis : x y z
#
# Youngs Moduli (GPa) = 82.41747 43.44265 118.08239
#
# Poissons Ratio (x) = 0.09119 1.89523
# Poissons Ratio (y) = 0.17301 -0.90737
# Poissons Ratio (z) = 1.32281 -0.33382
#
# Static dielectric constant tensor:
#      x y z
#    x 1.831810 -0.030390 -0.016860 
#    y -0.030390 1.783880 0.029020 
#    z -0.016860 0.029020 1.814720 
# 
# From -- ./inp_files/223696.got.cif
#   From: 2010.05.17/outbox.ucp.g08.bks.cvg/sg2_112_cif.got.tgz:223696.got - 2010.06.11 11:32:03.
