data_PCOD9074572
_publ_section_title
;
Structure prediction by ZEFSAII (Michael W. Deem and Ramdas Pophale) SiO2 
 PCOD9074572
Probable space group: P -1
;
_chemical_formula_sum "Si O2"
_cell_formula_units_Z 15
_cell_length_a 12.000000
_cell_length_b 9.000000
_cell_length_c 9.000000
_cell_angle_alpha 70.000000
_cell_angle_beta 120.000000
_cell_angle_gamma 130.000000
_cell_volume 644.526612
_symmetry_space_group_name_H-M "P -1"
_symmetry_group_IT_number 2
_symmetry_cell_setting 'triclinic'
loop_
_space_group_symop_operation_xyz
x,y,z
-x,-y,-z
loop_
_atom_site_type_symbol
_atom_site_label
_atom_site_fract_x
_atom_site_fract_y
_atom_site_fract_z
Si Si1 0.425163 0.291051 0.637207
Si Si2 0.577121 0.399079 0.016976
Si Si3 0.836080 0.110877 0.271234
Si Si4 0.290024 0.998339 0.083096
Si Si5 0.815565 0.392414 0.365563
Si Si6 0.321495 0.707361 0.366729
Si Si7 0.000000 0.000000 0.000000
Si Si8 0.838006 0.697449 0.706175
O O1 0.508370 0.231334 0.597403
O O2 0.328899 0.352350 0.453941
O O3 0.278576 0.114079 0.690950
O O4 0.551288 0.402352 0.820492
O O5 0.750437 0.479585 0.174506
O O6 0.460347 0.179502 0.078260
O O7 0.500000 0.500000 0.000000
O O8 0.792647 0.212034 0.326655
O O9 0.017456 0.186668 0.355835
O O10 0.789038 0.138282 0.067373
O O11 0.305013 0.879655 0.261424
O O12 0.168765 0.047811 0.037192
O O13 0.718528 0.349140 0.467825
O O14 0.000000 0.500000 0.500000
O O15 0.196991 0.515829 0.251156
O O16 0.902562 0.830636 0.852057
#
# Coordination Sequence:
#
# PCOD9074572 Si02
#       8
#     2   2   2   2   2   2   1   2
#     4  11  25  46  74 106 147 194 250 308 369 438
#     4  11  26  46  74 105 153 198 248 303 377 447
#     4  10  23  47  71 100 151 196 243 304 369 446
#     4  10  25  48  70 110 144 196 249 305 376 437
#     4  12  26  46  72 111 148 195 251 304 377 448
#     4  12  26  44  77 106 147 192 249 314 363 442
#     4  10  26  42  72 108 150 186 246 310 366 442
#     4  11  24  47  72 109 149 197 245 307 374 440
#
# _framework density 23.272894999999998
#
# number of rings (size 3 to 8) (size 9 to 14) (size 15 to 20)
#    0.000    1.067    1.333    3.200    5.600    6.400 
#    2.400    0.000    0.000    0.000    0.000    0.000 
#    0.000    0.000    0.000    0.000    0.000    0.000 
#
# Total GULP energy -83507.322492 kJ/mol
# GULP energy per Si atom -5567.154833 kJ/mol
# Density = 2.321992 g / cm^3
# Si number density = 23.272895 Si / 1000 Ang^3
#
#
#
# Elastic Constant Matrix: (Units=GPa)
#
#
# Indices 1 2 3 4 5 6 
#
# 1 139.3223 5.9206 45.2020 19.4805 -12.4702 10.9101
# 2 5.9206 46.9811 29.4391 8.7066 -2.6977 -3.8355
# 3 45.2020 29.4391 140.0327 5.0549 4.7674 -10.8966
# 4 19.4805 8.7066 5.0549 33.9484 2.1757 -5.6974
# 5 -12.4702 -2.6977 4.7674 2.1757 54.9855 15.0174
# 6 10.9101 -3.8355 -10.8966 -5.6974 15.0174 35.3070
#
#
#
# Elastic Compliance Matrix: (Units=1/GPa)
#
#
# Indices 1 2 3 4 5 6 
#
# 1 0.010763 0.002611 -0.004552 -0.007869 0.005472 -0.008044
# 2 0.002611 0.026459 -0.006446 -0.008003 0.003505 -0.002704
# 3 -0.004552 -0.006446 0.010455 0.004040 -0.004149 0.006350
# 4 -0.007869 -0.008003 0.004040 0.037912 -0.007316 0.012038
# 5 0.005472 0.003505 -0.004149 -0.007316 0.024076 -0.014011
# 6 -0.008044 -0.002704 0.006350 0.012038 -0.014011 0.040377
#
#
# Mechanical properties :
#
#
# Convention : Reuss Voigt Hill
#
# Bulk Modulus (GPa) = 32.35757 54.16217 43.25987
# Shear Modulus (GPa) = 28.23002 41.23314 34.73158
#
# Velocity S-wave (km/s) = 3.48659 4.21375 3.86730
# Velocity P-wave (km/s) = 5.49019 6.85547 6.21046
#
# Compressibility (1/GPa) = 0.03090467
#
# Stress axis : x y z
#
# Youngs Moduli (GPa) = 92.90760 37.79436 95.64671
#
# Poissons Ratio (x) = -0.09870 0.43535
# Poissons Ratio (y) = -0.24263 0.61657
# Poissons Ratio (z) = 0.42288 0.24363
#
# Static dielectric constant tensor:
#      x y z
#    x 1.835980 0.010920 0.042740 
#    y 0.010920 1.961630 0.013400 
#    z 0.042740 0.013400 1.915730 
# 
# From -- ./inp_files/243224.got.cif
#   From: 2010.05.17/outbox.ucp.g08.bks.cvg/sg2_122_cif.got.tgz:243224.got - 2010.06.11 11:32:03.
