data_PCOD9074663
_publ_section_title
;
Structure prediction by ZEFSAII (Michael W. Deem and Ramdas Pophale) SiO2 
 PCOD9074663
Probable space group: P -1
;
_chemical_formula_sum "Si O2"
_cell_formula_units_Z 16
_cell_length_a 6.000000
_cell_length_b 18.000000
_cell_length_c 18.000000
_cell_angle_alpha 30.000000
_cell_angle_beta 130.000000
_cell_angle_gamma 130.000000
_cell_volume 725.531033
_symmetry_space_group_name_H-M "P -1"
_symmetry_group_IT_number 2
_symmetry_cell_setting 'triclinic'
loop_
_space_group_symop_operation_xyz
x,y,z
-x,-y,-z
loop_
_atom_site_type_symbol
_atom_site_label
_atom_site_fract_x
_atom_site_fract_y
_atom_site_fract_z
Si Si1 0.298121 0.957459 0.132693
Si Si2 0.842511 0.846579 0.317244
Si Si3 0.867773 0.588322 0.099995
Si Si4 0.643737 0.867476 0.860794
Si Si5 0.053609 0.834697 0.665351
Si Si6 0.114135 0.642222 0.455328
Si Si7 0.219168 0.337288 0.389898
Si Si8 0.799699 0.598739 0.913902
O O1 0.567514 0.923308 0.169892
O O2 0.194853 0.792835 0.291532
O O3 0.430556 0.084908 0.113106
O O4 0.000000 0.000000 0.000000
O O5 0.825550 0.794929 0.443697
O O6 0.873546 0.692594 0.414355
O O7 0.134902 0.978126 0.253402
O O8 0.538428 0.489710 0.094228
O O9 0.087747 0.481176 0.264033
O O10 0.812681 0.727846 0.016602
O O11 0.957685 0.641172 0.989825
O O12 0.368517 0.832559 0.773979
O O13 0.971613 0.731859 0.663293
O O14 0.809896 0.756857 0.739796
O O15 0.000000 0.000000 0.500000
O O16 0.419843 0.622404 0.579202
O O17 0.000000 0.500000 0.500000
O O18 0.000000 0.500000 0.000000
#
# Coordination Sequence:
#
# PCOD9074663 Si02
#       8
#     2   2   2   2   2   2   2   2
#     4  10  24  46  68  99 131 171 227 282 334 398
#     4  10  24  44  68  97 142 168 223 284 322 418
#     4  11  24  39  64  95 134 191 219 271 344 380
#     4  11  25  42  64 104 132 180 230 267 340 402
#     4  12  24  41  67  96 141 183 220 277 334 394
#     4  10  24  46  68  99 131 171 227 282 334 398
#     4  11  25  42  64 104 132 180 230 267 340 402
#     4  11  22  43  58  92 144 178 232 278 308 408
#
# _framework density 22.052813
#
# number of rings (size 3 to 8) (size 9 to 14) (size 15 to 20)
#    0.000    1.250    2.500    3.000    7.000    7.500 
#    0.000    0.000    0.000    0.000    0.000    0.000 
#    0.000    0.000    0.000    0.000    0.000    0.000 
#
# Total GULP energy -89235.341444 kJ/mol
# GULP energy per Si atom -5577.208840 kJ/mol
# Density = 2.200262 g / cm^3
# Si number density = 22.052813 Si / 1000 Ang^3
#
#
#
# Elastic Constant Matrix: (Units=GPa)
#
#
# Indices 1 2 3 4 5 6 
#
# 1 71.2167 45.1751 24.5207 6.3235 41.1175 -5.8021
# 2 45.1751 132.6830 43.2418 0.2597 27.0334 -7.6941
# 3 24.5207 43.2418 120.1218 -7.1850 37.2161 -2.1834
# 4 6.3235 0.2597 -7.1850 40.0669 3.8893 12.7004
# 5 41.1175 27.0334 37.2161 3.8893 53.0344 -7.2369
# 6 -5.8021 -7.6941 -2.1834 12.7004 -7.2369 18.0477
#
#
#
# Elastic Compliance Matrix: (Units=1/GPa)
#
#
# Indices 1 2 3 4 5 6 
#
# 1 0.030069 -0.006757 0.002926 -0.001999 -0.021802 -0.000195
# 2 -0.006757 0.010565 -0.003266 -0.001049 0.002737 0.003773
# 3 0.002926 -0.003266 0.012336 0.004892 -0.010522 -0.006621
# 4 -0.001999 -0.001049 0.004892 0.036173 -0.007979 -0.029153
# 5 -0.021802 0.002737 -0.010522 -0.007979 0.044566 0.016370
# 6 -0.000195 0.003773 -0.006621 -0.029153 0.016370 0.083233
#
#
# Mechanical properties :
#
#
# Convention : Reuss Voigt Hill
#
# Bulk Modulus (GPa) = 25.78959 61.09965 43.44462
# Shear Modulus (GPa) = 20.48672 36.30207 28.39440
#
# Velocity S-wave (km/s) = 3.05123 4.06167 3.59216
# Velocity P-wave (km/s) = 4.91256 7.05425 6.07847
#
# Compressibility (1/GPa) = 0.03877534
#
# Stress axis : x y z
#
# Youngs Moduli (GPa) = 33.25663 94.65340 81.06679
#
# Poissons Ratio (x) = 0.63955 -0.23717
# Poissons Ratio (y) = 0.22471 0.26477
# Poissons Ratio (z) = -0.09730 0.30914
#
# Static dielectric constant tensor:
#      x y z
#    x 2.043040 0.011640 -0.085320 
#    y 0.011640 1.789030 -0.014140 
#    z -0.085320 -0.014140 1.830450 
# 
# From -- ./inp_files/550548.got.cif
#   From: 2010.05.17/outbox.ucp.g08.bks.cvg/sg2_276_cif.got.tgz:550548.got - 2010.06.11 11:32:03.
