data_PCOD9074134
_publ_section_title
;
Structure prediction by ZEFSAII (Michael W. Deem and Ramdas Pophale) SiO2 
 PCOD9074134
Probable space group: P -1
;
_chemical_formula_sum "Si O2"
_cell_formula_units_Z 12
_cell_length_a 9.000000
_cell_length_b 15.000000
_cell_length_c 15.000000
_cell_angle_alpha 20.000000
_cell_angle_beta 70.000000
_cell_angle_gamma 80.000000
_cell_volume 577.977739
_symmetry_space_group_name_H-M "P -1"
_symmetry_group_IT_number 2
_symmetry_cell_setting 'triclinic'
loop_
_space_group_symop_operation_xyz
x,y,z
-x,-y,-z
loop_
_atom_site_type_symbol
_atom_site_label
_atom_site_fract_x
_atom_site_fract_y
_atom_site_fract_z
Si Si1 0.485433 0.703165 0.735414
Si Si2 0.139323 0.951001 0.757667
Si Si3 0.082878 0.292457 0.146065
Si Si4 0.461814 0.672077 0.211615
Si Si5 0.317633 0.653296 0.458556
Si Si6 0.900953 0.530773 0.647383
O O1 0.663301 0.816512 0.533273
O O2 0.500000 0.000000 0.500000
O O3 0.500000 0.500000 0.000000
O O4 0.296797 0.496245 0.919876
O O5 0.064889 0.138672 0.652445
O O6 0.999547 0.811810 0.836812
O O7 0.164848 0.699129 0.041325
O O8 0.000000 0.000000 0.500000
O O9 0.000000 0.500000 0.000000
O O10 0.394324 0.654207 0.343669
O O11 0.590403 0.506945 0.347076
O O12 0.274252 0.575251 0.284300
O O13 0.593980 0.009709 0.843016
O O14 0.102918 0.546927 0.583657
#
# Coordination Sequence:
#
# PCOD9074134 Si02
#       6
#     2   2   2   2   2   2
#     4  12  23  43  68  90 122 164 219 275 325 391
#     4  12  26  40  65 100 130 174 216 276 341 396
#     4  12  23  43  68  90 122 164 219 275 325 391
#     4  10  22  42  69  97 131 179 225 264 320 394
#     4  10  22  42  69  97 131 179 225 264 320 394
#     4  12  25  42  64  98 144 168 218 274 340 392
#
# _framework density 20.762045000000001
#
# number of rings (size 3 to 8) (size 9 to 14) (size 15 to 20)
#    0.000    0.667    3.333    4.500    0.000    4.000 
#    0.000    6.667    0.000    0.000    0.000    0.000 
#    0.000    0.000    0.000    0.000    0.000    0.000 
#
# Total GULP energy -66834.150513 kJ/mol
# GULP energy per Si atom -5569.512543 kJ/mol
# Density = 2.071479 g / cm^3
# Si number density = 20.762045 Si / 1000 Ang^3
#
#
#
# Elastic Constant Matrix: (Units=GPa)
#
#
# Indices 1 2 3 4 5 6 
#
# 1 218.8967 32.6642 61.7530 -14.1030 -12.9715 24.4000
# 2 32.6642 34.4573 18.0562 -16.4968 3.0803 17.7556
# 3 61.7530 18.0562 120.5693 -17.9313 7.5456 13.3754
# 4 -14.1030 -16.4968 -17.9313 32.6766 -5.1762 -6.1664
# 5 -12.9715 3.0803 7.5456 -5.1762 71.0610 -0.7892
# 6 24.4000 17.7556 13.3754 -6.1664 -0.7892 56.4324
#
#
#
# Elastic Compliance Matrix: (Units=1/GPa)
#
#
# Indices 1 2 3 4 5 6 
#
# 1 0.006100 -0.004745 -0.002597 -0.001067 0.001510 -0.000624
# 2 -0.004745 0.049411 -0.000628 0.020193 -0.001594 -0.011161
# 3 -0.002597 -0.000628 0.010471 0.003965 -0.001278 -0.000746
# 4 -0.001067 0.020193 0.003965 0.042349 0.001570 -0.002182
# 5 0.001510 -0.001594 -0.001278 0.001570 0.014673 0.000528
# 6 -0.000624 -0.011161 -0.000746 -0.002182 0.000528 0.021448
#
#
# Mechanical properties :
#
#
# Convention : Reuss Voigt Hill
#
# Bulk Modulus (GPa) = 19.98423 66.54114 43.26269
# Shear Modulus (GPa) = 28.23707 49.46399 38.85053
#
# Velocity S-wave (km/s) = 3.69186 4.88630 4.33046
# Velocity P-wave (km/s) = 5.27441 7.99710 6.77396
#
# Compressibility (1/GPa) = 0.05003945
#
# Stress axis : x y z
#
# Youngs Moduli (GPa) = 163.94695 20.23857 95.50465
#
# Poissons Ratio (x) = 0.09604 0.24806
# Poissons Ratio (y) = 0.77798 0.05998
# Poissons Ratio (z) = 0.42583 0.01271
#
# Static dielectric constant tensor:
#      x y z
#    x 1.769160 -0.012490 -0.024020 
#    y -0.012490 1.781910 -0.005260 
#    z -0.024020 -0.005260 1.757250 
# 
# From -- ./inp_files/503476.got.cif
#   From: 2010.05.17/outbox.ucp.g08.bks.cvg/sg2_252_cif.got.tgz:503476.got - 2010.06.11 11:32:03.
