data_PCOD9074689
_publ_section_title
;
Structure prediction by ZEFSAII (Michael W. Deem and Ramdas Pophale) SiO2 
 PCOD9074689
Probable space group: P -1
;
_chemical_formula_sum "Si O2"
_cell_formula_units_Z 14
_cell_length_a 9.000000
_cell_length_b 21.000000
_cell_length_c 18.000000
_cell_angle_alpha 160.000000
_cell_angle_beta 130.000000
_cell_angle_gamma 40.000000
_cell_volume 700.468056
_symmetry_space_group_name_H-M "P -1"
_symmetry_group_IT_number 2
_symmetry_cell_setting 'triclinic'
loop_
_space_group_symop_operation_xyz
x,y,z
-x,-y,-z
loop_
_atom_site_type_symbol
_atom_site_label
_atom_site_fract_x
_atom_site_fract_y
_atom_site_fract_z
Si Si1 0.001950 0.425437 0.136510
Si Si2 0.122583 0.078913 0.960523
Si Si3 0.495004 0.316031 0.245673
Si Si4 0.762126 0.626787 0.425448
Si Si5 0.233375 0.889722 0.619312
Si Si6 0.118818 0.536814 0.150309
Si Si7 0.328160 0.879294 0.070466
O O1 0.773547 0.564301 0.272616
O O2 0.227820 0.395017 0.220756
O O3 0.963170 0.562233 0.199489
O O4 0.093206 0.165909 0.855341
O O5 0.893744 0.085810 0.919252
O O6 0.351182 0.924217 0.920212
O O7 0.211092 0.938129 0.755012
O O8 0.998061 0.359755 0.233301
O O9 0.500000 0.500000 0.500000
O O10 0.633470 0.246967 0.134999
O O11 0.515572 0.720899 0.495120
O O12 0.755065 0.856240 0.678774
O O13 0.126170 0.759745 0.407669
O O14 0.405279 0.298516 0.996791
O O15 0.000000 0.500000 0.000000
#
# Coordination Sequence:
#
# PCOD9074689 Si02
#       7
#     2   2   2   2   2   2   2
#     4  10  24  45  62  94 136 169 209 271 316 368
#     4  11  24  39  68  94 128 178 215 251 317 382
#     4  11  22  39  65  96 132 177 217 256 310 377
#     4  11  22  41  67  89 131 173 207 261 320 372
#     4  11  22  44  65  93 133 166 209 270 314 377
#     4  11  23  43  73  95 122 169 215 265 330 388
#     4  11  22  44  62  91 136 167 208 275 319 366
#
# _framework density 19.986636000000001
#
# number of rings (size 3 to 8) (size 9 to 14) (size 15 to 20)
#    0.000    1.143    4.286    3.857    0.000    3.429 
#    0.000    3.571    0.000    0.000    0.000    0.000 
#    0.000    0.000    0.000    0.000    0.000    0.000 
#
# Total GULP energy -78056.173816 kJ/mol
# GULP energy per Si atom -5575.440987 kJ/mol
# Density = 1.994115 g / cm^3
# Si number density = 19.986636 Si / 1000 Ang^3
#
#
#
# Elastic Constant Matrix: (Units=GPa)
#
#
# Indices 1 2 3 4 5 6 
#
# 1 112.0137 19.9831 32.6372 -0.5024 -30.1558 13.4870
# 2 19.9831 85.5589 41.9400 -19.1283 -1.6657 10.5467
# 3 32.6372 41.9400 186.7100 -8.3249 -2.5192 4.2644
# 4 -0.5024 -19.1283 -8.3249 28.9355 2.0641 -1.9979
# 5 -30.1558 -1.6657 -2.5192 2.0641 52.8408 -0.1777
# 6 13.4870 10.5467 4.2644 -1.9979 -0.1777 13.9302
#
#
#
# Elastic Compliance Matrix: (Units=1/GPa)
#
#
# Indices 1 2 3 4 5 6 
#
# 1 0.012984 -0.001148 -0.001757 -0.002350 0.007343 -0.011408
# 2 -0.001148 0.016645 -0.002910 0.009556 -0.000673 -0.009238
# 3 -0.001757 -0.002910 0.006263 0.000041 -0.000791 0.001983
# 4 -0.002350 0.009556 0.000041 0.041098 -0.002640 0.000888
# 5 0.007343 -0.000673 -0.000791 -0.002640 0.023138 -0.006441
# 6 -0.011408 -0.009238 0.001983 0.000888 -0.006441 0.089264
#
#
# Mechanical properties :
#
#
# Convention : Reuss Voigt Hill
#
# Bulk Modulus (GPa) = 41.21730 63.71147 52.46438
# Shear Modulus (GPa) = 23.91116 38.45612 31.18364
#
# Velocity S-wave (km/s) = 3.46259 4.39121 3.95425
# Velocity P-wave (km/s) = 6.05419 7.59319 6.86694
#
# Compressibility (1/GPa) = 0.02426166
#
# Stress axis : x y z
#
# Youngs Moduli (GPa) = 77.01725 60.07982 159.67818
#
# Poissons Ratio (x) = 0.06894 0.28056
# Poissons Ratio (y) = 0.08838 0.46470
# Poissons Ratio (z) = 0.13532 0.17485
#
# Static dielectric constant tensor:
#      x y z
#    x 1.803150 0.039680 0.048440 
#    y 0.039680 1.702760 0.038030 
#    z 0.048440 0.038030 1.711440 
# 
# From -- ./inp_files/562799.got.cif
#   From: 2010.05.17/outbox.ucp.g08.bks.cvg/sg2_282_cif.got.tgz:562799.got - 2010.06.11 11:32:03.
