data_PCOD9074830
_publ_section_title
;
Structure prediction by ZEFSAII (Michael W. Deem and Ramdas Pophale) SiO2 
 PCOD9074830
Probable space group: P -1
;
_chemical_formula_sum "Si O2"
_cell_formula_units_Z 14
_cell_length_a 9.220452
_cell_length_b 11.084601
_cell_length_c 10.928271
_cell_angle_alpha 116.857039
_cell_angle_beta 44.863034
_cell_angle_gamma 83.373175
_cell_volume 507.302082
_symmetry_space_group_name_H-M "P -1"
_symmetry_group_IT_number 2
_symmetry_cell_setting 'triclinic'
loop_
_space_group_symop_operation_xyz
x,y,z
-x,-y,-z
loop_
_atom_site_type_symbol
_atom_site_label
_atom_site_fract_x
_atom_site_fract_y
_atom_site_fract_z
Si Si1 0.762091 0.991642 0.916607
Si Si2 0.887952 0.683467 0.804599
Si Si3 0.018704 0.855867 0.307583
Si Si4 0.464939 0.335179 0.378705
Si Si5 0.553838 0.284463 0.832348
Si Si6 0.392853 0.759628 0.495249
Si Si7 0.090456 0.176370 0.889329
O O1 0.516121 0.158543 0.227167
O O2 0.823555 0.083296 0.824342
O O3 0.744413 0.837659 0.852860
O O4 0.067625 0.853798 0.743820
O O5 0.225053 0.507953 0.517624
O O6 0.726795 0.614448 0.876446
O O7 0.837389 0.762573 0.011226
O O8 0.226590 0.718773 0.229392
O O9 0.953430 0.773803 0.206488
O O10 0.734435 0.059191 0.617302
O O11 0.405216 0.373198 0.575871
O O12 0.777211 0.257875 0.144132
O O13 0.508869 0.332141 0.738386
O O14 0.327295 0.949339 0.633420
#
# Coordination Sequence:
#
# PCOD9074830 Si02
#       7
#     2   2   2   2   2   2   2
#     4   9  18  34  55  78 103 139 176 216 257 313
#     4  12  20  29  57  90 103 123 186 225 255 299
#     4   8  18  38  56  67 111 149 170 203 274 317
#     4  10  18  32  52  82 111 138 162 221 273 304
#     4   9  20  33  53  82 101 146 176 208 262 321
#     4   9  16  33  54  70 112 144 168 204 269 318
#     4   9  17  32  55  79  99 138 175 216 253 309
#
# _framework density 27.596972000000001
#
# number of rings (size 3 to 8) (size 9 to 14) (size 15 to 20)
#    0.000    3.143    2.857    1.286    0.000    3.429 
#    0.000    2.857    0.000    0.857    0.000    1.000 
#    0.000    0.000    0.000    0.000    0.000    0.000 
#
# Total GULP energy -78124.073552 kJ/mol
# GULP energy per Si atom -5580.290968 kJ/mol
# Density = 2.753416 g / cm^3
# Si number density = 27.596972 Si / 1000 Ang^3
#
#
#
# Elastic Constant Matrix: (Units=GPa)
#
#
# Indices 1 2 3 4 5 6 
#
# 1 83.1374 23.2330 22.6717 -14.1548 10.0171 -18.8832
# 2 23.2330 101.6111 29.5225 17.3369 9.6459 -20.4266
# 3 22.6717 29.5225 42.4207 -4.8351 3.7675 -8.2292
# 4 -14.1548 17.3369 -4.8351 26.6969 2.0922 2.8911
# 5 10.0171 9.6459 3.7675 2.0922 15.1579 -5.4106
# 6 -18.8832 -20.4266 -8.2292 2.8911 -5.4106 40.7668
#
#
#
# Elastic Compliance Matrix: (Units=1/GPa)
#
#
# Indices 1 2 3 4 5 6 
#
# 1 0.017960 -0.002933 -0.004768 0.010836 -0.008908 0.003936
# 2 -0.002933 0.017941 -0.011314 -0.015742 -0.002295 0.006159
# 3 -0.004768 -0.011314 0.035013 0.011385 -0.000525 -0.001687
# 4 0.010836 -0.015742 0.011385 0.056909 -0.009943 -0.005926
# 5 -0.008908 -0.002295 -0.000525 -0.009943 0.076791 0.005515
# 6 0.003936 0.006159 -0.001687 -0.005926 0.005515 0.030251
#
#
# Mechanical properties :
#
#
# Convention : Reuss Voigt Hill
#
# Bulk Modulus (GPa) = 30.40990 42.00265 36.20627
# Shear Modulus (GPa) = 17.61448 26.64044 22.12746
#
# Velocity S-wave (km/s) = 2.52915 3.11036 2.83469
# Velocity P-wave (km/s) = 4.42403 5.30586 4.88489
#
# Compressibility (1/GPa) = 0.03288403
#
# Stress axis : x y z
#
# Youngs Moduli (GPa) = 55.67786 55.73705 28.56105
#
# Poissons Ratio (x) = 0.16349 0.13617
# Poissons Ratio (y) = 0.16331 0.32315
# Poissons Ratio (z) = 0.26546 0.63063
#
# Static dielectric constant tensor:
#      x y z
#    x 2.226330 0.073970 0.032820 
#    y 0.073970 2.254980 -0.060960 
#    z 0.032820 -0.060960 2.127960 
# 
# From -- ./inp_files/428311.got.cif
#   From: 2010.05.17/outbox.cif.g08.bks.cpg/sg2_215_cif.got.tgz:428311.got - 2010.06.03 11:33:40.
