data_PCOD9074027
_publ_section_title
;
Structure prediction by ZEFSAII (Michael W. Deem and Ramdas Pophale) SiO2 
 PCOD9074027
Probable space group: P -1
;
_chemical_formula_sum "Si O2"
_cell_formula_units_Z 14
_cell_length_a 24.000000
_cell_length_b 12.000000
_cell_length_c 6.000000
_cell_angle_alpha 70.000000
_cell_angle_beta 90.000000
_cell_angle_gamma 30.000000
_cell_volume 630.239816
_symmetry_space_group_name_H-M "P -1"
_symmetry_group_IT_number 2
_symmetry_cell_setting 'triclinic'
loop_
_space_group_symop_operation_xyz
x,y,z
-x,-y,-z
loop_
_atom_site_type_symbol
_atom_site_label
_atom_site_fract_x
_atom_site_fract_y
_atom_site_fract_z
Si Si1 0.778913 0.714366 0.418222
Si Si2 0.318944 0.522399 0.877775
Si Si3 0.115117 0.256738 0.473692
Si Si4 0.265192 0.361554 0.152248
Si Si5 0.587517 0.428623 0.906525
Si Si6 0.000002 0.247935 0.343857
Si Si7 0.528878 0.208844 0.741680
O O1 0.823009 0.732001 0.581730
O O2 0.731150 0.687451 0.557899
O O3 0.914082 0.423045 0.458471
O O4 0.647609 0.016063 0.056815
O O5 0.403050 0.379265 0.742758
O O6 0.307485 0.413442 0.057713
O O7 0.401902 0.458345 0.069762
O O8 0.153132 0.884520 0.602608
O O9 0.000000 0.500000 0.500000
O O10 0.047372 0.294697 0.272724
O O11 0.248889 0.932003 0.817712
O O12 0.378987 0.057751 0.231197
O O13 0.108043 0.620267 0.895177
O O14 0.530679 0.566377 0.563163
O O15 0.500000 0.500000 0.000000
#
# Coordination Sequence:
#
# PCOD9074027 Si02
#       7
#     2   2   2   2   2   2   2
#     4  10  22  41  64  91 126 166 208 253 303 366
#     4  11  24  40  62  94 126 161 208 257 307 366
#     4   9  19  39  62  90 120 153 202 252 306 362
#     4  11  23  41  63  89 126 169 209 251 305 366
#     4  11  24  42  64  92 123 159 203 255 312 368
#     4   9  22  40  62  91 124 163 208 259 309 359
#     4  11  24  41  63  91 126 164 203 254 309 367
#
# _framework density 22.213766
#
# number of rings (size 3 to 8) (size 9 to 14) (size 15 to 20)
#    0.000    1.714    0.000    3.429    0.000   11.429 
#    0.000    7.143    0.000    0.000    0.000    0.000 
#    0.000    0.000    0.000    0.000    0.000    0.000 
#
# Total GULP energy -78091.444939 kJ/mol
# GULP energy per Si atom -5577.960353 kJ/mol
# Density = 2.216321 g / cm^3
# Si number density = 22.213766 Si / 1000 Ang^3
#
#
#
# Elastic Constant Matrix: (Units=GPa)
#
#
# Indices 1 2 3 4 5 6 
#
# 1 177.4739 22.5940 57.9154 2.7334 -18.9720 -24.9117
# 2 22.5940 82.0457 38.9003 -26.3780 3.4721 -27.7576
# 3 57.9154 38.9003 114.3848 -6.4215 4.1321 -24.0380
# 4 2.7334 -26.3780 -6.4215 29.3960 -10.2412 0.8744
# 5 -18.9720 3.4721 4.1321 -10.2412 38.4632 4.5250
# 6 -24.9117 -27.7576 -24.0380 0.8744 4.5250 36.3725
#
#
#
# Elastic Compliance Matrix: (Units=1/GPa)
#
#
# Indices 1 2 3 4 5 6 
#
# 1 0.007499 0.000345 -0.003495 0.000080 0.003756 0.002621
# 2 0.000345 0.028062 -0.004736 0.024495 0.002596 0.017610
# 3 -0.003495 -0.004736 0.012728 -0.002512 -0.003676 0.002922
# 4 0.000080 0.024495 -0.002512 0.059278 0.012217 0.014143
# 5 0.003756 0.002596 -0.003676 0.012217 0.031511 -0.002090
# 6 0.002621 0.017610 0.002922 0.014143 -0.002090 0.044578
#
#
# Mechanical properties :
#
#
# Convention : Reuss Voigt Hill
#
# Bulk Modulus (GPa) = 30.75225 68.08043 49.41634
# Shear Modulus (GPa) = 23.77922 37.81265 30.79593
#
# Velocity S-wave (km/s) = 3.27536 4.13027 3.72740
# Velocity P-wave (km/s) = 5.30827 7.31163 6.38896
#
# Compressibility (1/GPa) = 0.03251795
#
# Stress axis : x y z
#
# Youngs Moduli (GPa) = 133.34402 35.63564 78.56438
#
# Poissons Ratio (x) = -0.01230 0.27458
# Poissons Ratio (y) = -0.04602 0.37208
# Poissons Ratio (z) = 0.46603 0.16877
#
# Static dielectric constant tensor:
#      x y z
#    x 1.852320 0.044010 0.029410 
#    y 0.044010 1.850210 0.048620 
#    z 0.029410 0.048620 1.880790 
# 
# From -- ./inp_files/71563.got.cif
#   From: 2010.05.17/outbox.ucp.g08.bks.cvg/sg2_36_cif.got.tgz:71563.got - 2010.06.11 11:32:03.
