data_PCOD9074527
_publ_section_title
;
Structure prediction by ZEFSAII (Michael W. Deem and Ramdas Pophale) SiO2 
 PCOD9074527
Probable space group: P -1
;
_chemical_formula_sum "Si O2"
_cell_formula_units_Z 14
_cell_length_a 9.000000
_cell_length_b 9.000000
_cell_length_c 24.000000
_cell_angle_alpha 140.000000
_cell_angle_beta 150.000000
_cell_angle_gamma 50.000000
_cell_volume 623.501542
_symmetry_space_group_name_H-M "P -1"
_symmetry_group_IT_number 2
_symmetry_cell_setting 'triclinic'
loop_
_space_group_symop_operation_xyz
x,y,z
-x,-y,-z
loop_
_atom_site_type_symbol
_atom_site_label
_atom_site_fract_x
_atom_site_fract_y
_atom_site_fract_z
Si Si1 0.743530 0.978319 0.010639
Si Si2 0.854657 0.765580 0.413983
Si Si3 0.535310 0.405816 0.122721
Si Si4 0.706557 0.963920 0.202940
Si Si5 0.825662 0.297390 0.992563
Si Si6 0.699883 0.300726 0.698280
Si Si7 0.711640 0.393607 0.407834
O O1 0.013795 0.924173 0.042656
O O2 0.751340 0.232137 0.112460
O O3 0.729069 0.772802 0.991852
O O4 0.412896 0.927001 0.861041
O O5 0.706138 0.575114 0.269835
O O6 0.579011 0.790516 0.377694
O O7 0.150180 0.656651 0.502793
O O8 0.000000 0.000000 0.500000
O O9 0.371956 0.578801 0.080318
O O10 0.429313 0.771175 0.064498
O O11 0.040509 0.875939 0.282905
O O12 0.656478 0.146244 0.287978
O O13 0.097651 0.481725 0.148521
O O14 0.538630 0.423968 0.629580
O O15 0.000000 0.500000 0.500000
#
# Coordination Sequence:
#
# PCOD9074527 Si02
#       7
#     2   2   2   2   2   2   2
#     4  11  23  40  69 103 137 174 215 279 347 400
#     4  11  24  47  70  98 137 187 230 270 328 411
#     4  11  24  42  67 102 140 172 226 273 348 403
#     4  12  24  42  70 106 133 172 230 278 341 402
#     4  12  23  42  68 108 138 168 220 285 351 400
#     4  11  24  43  72  98 136 176 219 290 337 389
#     4  10  23  45  68  94 136 181 231 271 325 398
#
# _framework density 22.453834000000001
#
# number of rings (size 3 to 8) (size 9 to 14) (size 15 to 20)
#    0.000    0.857    4.286    3.000    0.000    2.286 
#    0.000    4.286    0.000    9.429    0.000    0.000 
#    0.000    0.000    0.000    0.000    0.000    0.000 
#
# Total GULP energy -78055.760011 kJ/mol
# GULP energy per Si atom -5575.411429 kJ/mol
# Density = 2.240273 g / cm^3
# Si number density = 22.453834 Si / 1000 Ang^3
#
#
#
# Elastic Constant Matrix: (Units=GPa)
#
#
# Indices 1 2 3 4 5 6 
#
# 1 80.6755 42.2171 24.3037 -0.5411 25.4674 -2.0147
# 2 42.2171 116.8168 12.1872 1.4027 6.9839 -4.6188
# 3 24.3037 12.1872 71.6190 24.9534 3.0609 9.1789
# 4 -0.5411 1.4027 24.9534 3.4303 8.8311 -1.3418
# 5 25.4674 6.9839 3.0609 8.8311 28.5946 -10.2612
# 6 -2.0147 -4.6188 9.1789 -1.3418 -10.2612 34.1709
#
#
#
# Elastic Compliance Matrix: (Units=1/GPa)
#
#
# Indices 1 2 3 4 5 6 
#
# 1 0.014955 -0.005550 0.006192 -0.027330 -0.005739 -0.004328
# 2 -0.005550 0.010689 -0.001925 0.004581 0.001990 0.002412
# 3 0.006192 -0.001925 0.001409 0.034588 -0.017359 -0.004128
# 4 -0.027330 0.004581 0.034588 -0.080267 0.044257 -0.000145
# 5 -0.005739 0.001990 -0.017359 0.044257 0.033690 0.016448
# 6 -0.004328 0.002412 -0.004128 -0.000145 0.016448 0.035378
#
#
# Mechanical properties :
#
#
# Convention : Reuss Voigt Hill
#
# Bulk Modulus (GPa) = 40.84250 47.39189 44.11720
# Shear Modulus (GPa) = 188.09255 25.93273 107.01264
#
# Velocity S-wave (km/s) = 9.16245 3.40212 6.91104
# Velocity P-wave (km/s) = 11.40890 6.04853 9.13093
#
# Compressibility (1/GPa) = 0.02448430
#
# Stress axis : x y z
#
# Youngs Moduli (GPa) = 66.86740 93.55759 709.74682
#
# Poissons Ratio (x) = 0.51929 -4.39461
# Poissons Ratio (y) = 0.37115 1.36658
# Poissons Ratio (z) = -0.41403 0.18014
#
# Static dielectric constant tensor:
#      x y z
#    x 1.965630 0.063730 -0.062210 
#    y 0.063730 1.888570 0.007520 
#    z -0.062210 0.007520 1.846400 
# 
# From -- ./inp_files/279144.got.cif
#   From: 2010.05.17/outbox.ucp.g08.bks.cvg/sg2_140_cif.got.tgz:279144.got - 2010.06.11 11:32:03.
