data_PCOD9074625
_publ_section_title
;
Structure prediction by ZEFSAII (Michael W. Deem and Ramdas Pophale) SiO2 
 PCOD9074625
Probable space group: P -1
;
_chemical_formula_sum "Si O2"
_cell_formula_units_Z 14
_cell_length_a 18.000000
_cell_length_b 9.000000
_cell_length_c 6.000000
_cell_angle_alpha 50.000000
_cell_angle_beta 100.000000
_cell_angle_gamma 120.000000
_cell_volume 628.643806
_symmetry_space_group_name_H-M "P -1"
_symmetry_group_IT_number 2
_symmetry_cell_setting 'triclinic'
loop_
_space_group_symop_operation_xyz
x,y,z
-x,-y,-z
loop_
_atom_site_type_symbol
_atom_site_label
_atom_site_fract_x
_atom_site_fract_y
_atom_site_fract_z
Si Si1 0.931661 0.420529 0.341469
Si Si2 0.950566 0.132615 0.305596
Si Si3 0.788304 0.718077 0.462119
Si Si4 0.614706 0.085801 0.356725
Si Si5 0.623517 0.744665 0.448512
Si Si6 0.221204 0.492140 0.827680
Si Si7 0.503626 0.262747 0.992822
O O1 0.920657 0.192412 0.459284
O O2 0.838256 0.396173 0.341750
O O3 0.000000 0.500000 0.500000
O O4 0.980835 0.631482 0.995558
O O5 0.866189 0.977191 0.264909
O O6 0.000000 0.000000 0.500000
O O7 0.694847 0.698111 0.428783
O O8 0.797622 0.636352 0.297952
O O9 0.793213 0.616361 0.816298
O O10 0.677242 0.310269 0.308952
O O11 0.565487 0.157763 0.083964
O O12 0.667804 0.985168 0.361713
O O13 0.548496 0.882380 0.678981
O O14 0.566437 0.532728 0.787368
O O15 0.561097 0.757730 0.217478
#
# Coordination Sequence:
#
# PCOD9074625 Si02
#       7
#     2   2   2   2   2   2   2
#     4  11  26  45  77 109 143 191 241 295 358 432
#     4  11  24  47  75 106 146 187 240 292 361 423
#     4  12  28  47  75 105 148 194 239 298 358 429
#     4  11  24  44  72 100 145 187 241 299 365 421
#     4  11  24  44  71 102 142 187 246 293 367 423
#     4  12  28  48  73 107 149 189 244 293 362 428
#     4  10  24  42  70 105 140 184 246 297 364 427
#
# _framework density 22.270163
#
# number of rings (size 3 to 8) (size 9 to 14) (size 15 to 20)
#    0.000    0.857    2.857    2.571    8.000    6.857 
#    0.000    0.000    0.000    0.000    0.000    0.000 
#    0.000    0.000    0.000    0.000    0.000    0.000 
#
# Total GULP energy -77980.636491 kJ/mol
# GULP energy per Si atom -5570.045464 kJ/mol
# Density = 2.221948 g / cm^3
# Si number density = 22.270163 Si / 1000 Ang^3
#
#
#
# Elastic Constant Matrix: (Units=GPa)
#
#
# Indices 1 2 3 4 5 6 
#
# 1 109.1935 47.4426 32.5723 3.2273 22.3087 -5.2443
# 2 47.4426 139.4579 9.4949 7.0765 14.4921 -11.5418
# 3 32.5723 9.4949 78.0656 4.7317 28.7329 -9.2729
# 4 3.2273 7.0765 4.7317 28.3607 6.5473 -3.8385
# 5 22.3087 14.4921 28.7329 6.5473 30.1194 -1.6625
# 6 -5.2443 -11.5418 -9.2729 -3.8385 -1.6625 38.3888
#
#
#
# Elastic Compliance Matrix: (Units=1/GPa)
#
#
# Indices 1 2 3 4 5 6 
#
# 1 0.012628 -0.003652 -0.003129 0.001087 -0.004860 -0.000231
# 2 -0.003652 0.008847 0.001899 -0.001095 -0.002994 0.002381
# 3 -0.003129 0.001899 0.021340 0.001329 -0.018988 0.004609
# 4 0.001087 -0.001095 0.001329 0.037876 -0.009586 0.003512
# 5 -0.004860 -0.002994 -0.018988 -0.009586 0.058186 -0.004589
# 6 -0.000231 0.002381 0.004609 0.003512 -0.004589 0.027999
#
#
# Mechanical properties :
#
#
# Convention : Reuss Voigt Hill
#
# Bulk Modulus (GPa) = 30.25688 56.19296 43.22492
# Shear Modulus (GPa) = 26.64410 35.18759 30.91584
#
# Velocity S-wave (km/s) = 3.46266 3.97928 3.72992
# Velocity P-wave (km/s) = 5.44081 6.81176 6.16451
#
# Compressibility (1/GPa) = 0.03305033
#
# Stress axis : x y z
#
# Youngs Moduli (GPa) = 79.18928 113.02641 46.86003
#
# Poissons Ratio (x) = 0.41279 0.14664
# Poissons Ratio (y) = 0.28921 -0.08898
# Poissons Ratio (z) = 0.24781 -0.21462
#
# Static dielectric constant tensor:
#      x y z
#    x 1.918150 -0.044620 -0.061450 
#    y -0.044620 1.864670 0.003850 
#    z -0.061450 0.003850 1.819820 
# 
# From -- ./inp_files/106131.got.cif
#   From: 2010.05.17/outbox.ucp.g08.bks.cvg/sg2_54_cif.got.tgz:106131.got - 2010.06.11 11:32:03.
