data_PCOD9074397
_publ_section_title
;
Structure prediction by ZEFSAII (Michael W. Deem and Ramdas Pophale) SiO2 
 PCOD9074397
Probable space group: P -1
;
_chemical_formula_sum "Si O2"
_cell_formula_units_Z 16
_cell_length_a 12.000000
_cell_length_b 12.000000
_cell_length_c 15.000000
_cell_angle_alpha 60.000000
_cell_angle_beta 30.000000
_cell_angle_gamma 80.000000
_cell_volume 748.962810
_symmetry_space_group_name_H-M "P -1"
_symmetry_group_IT_number 2
_symmetry_cell_setting 'triclinic'
loop_
_space_group_symop_operation_xyz
x,y,z
-x,-y,-z
loop_
_atom_site_type_symbol
_atom_site_label
_atom_site_fract_x
_atom_site_fract_y
_atom_site_fract_z
Si Si1 0.560647 0.732119 0.194986
Si Si2 0.419442 0.053552 0.624218
Si Si3 0.874933 0.772352 0.473387
Si Si4 0.094013 0.921686 0.628300
Si Si5 0.785158 0.762531 0.228342
Si Si6 0.161413 0.816715 0.449309
Si Si7 0.331082 0.530094 0.034973
Si Si8 0.951541 0.622867 0.314326
O O1 0.653245 0.723667 0.235258
O O2 0.458664 0.846845 0.224321
O O3 0.287841 0.561258 0.419591
O O4 0.801804 0.788298 0.932947
O O5 0.663150 0.090803 0.505081
O O6 0.382705 0.195787 0.606794
O O7 0.500000 0.000000 0.500000
O O8 0.109669 0.908023 0.927638
O O9 0.993066 0.741551 0.316776
O O10 0.045162 0.797746 0.436810
O O11 0.859188 0.920717 0.425936
O O12 0.551981 0.618931 0.767874
O O13 0.125060 0.925361 0.497565
O O14 0.825040 0.646326 0.304111
O O15 0.954268 0.644673 0.711999
O O16 0.229592 0.635280 0.097411
O O17 0.500000 0.500000 0.000000
#
# Coordination Sequence:
#
# PCOD9074397 Si02
#       8
#     2   2   2   2   2   2   2   2
#     4  11  24  42  63  93 128 170 206 259 322 368
#     4  11  22  39  65  91 123 167 205 255 316 369
#     4  11  24  40  65  97 125 166 216 258 312 372
#     4  12  23  40  65  93 130 163 213 260 317 373
#     4  11  23  41  65  92 129 163 211 258 312 375
#     4  10  23  42  63  92 128 168 209 261 314 372
#     4   9  21  42  66  88 124 165 211 254 311 365
#     4  11  24  41  65  96 127 165 212 260 309 376
#
# _framework density 21.362876
#
# number of rings (size 3 to 8) (size 9 to 14) (size 15 to 20)
#    0.000    1.250    2.500    3.000    1.750    8.000 
#    0.000    0.625    0.000    0.000    0.000    0.000 
#    0.000    0.000    0.000    0.000    0.000    0.000 
#
# Total GULP energy -89210.961351 kJ/mol
# GULP energy per Si atom -5575.685084 kJ/mol
# Density = 2.131425 g / cm^3
# Si number density = 21.362876 Si / 1000 Ang^3
#
#
#
# Elastic Constant Matrix: (Units=GPa)
#
#
# Indices 1 2 3 4 5 6 
#
# 1 72.1524 8.7576 18.5034 25.5254 -16.6155 -15.2270
# 2 8.7576 102.5943 20.0027 38.8348 -12.2816 -19.3013
# 3 18.5034 20.0027 58.8857 25.5441 -17.7990 -9.0599
# 4 25.5254 38.8348 25.5441 47.5265 -4.0189 -2.3317
# 5 -16.6155 -12.2816 -17.7990 -4.0189 23.3096 4.5126
# 6 -15.2270 -19.3013 -9.0599 -2.3317 4.5126 36.5348
#
#
#
# Elastic Compliance Matrix: (Units=1/GPa)
#
#
# Indices 1 2 3 4 5 6 
#
# 1 0.029300 0.012395 0.009061 -0.027714 0.026466 0.015970
# 2 0.012395 0.022503 0.008496 -0.027219 0.019582 0.015005
# 3 0.009061 0.008496 0.033610 -0.026803 0.029809 0.011207
# 4 -0.027714 -0.027219 -0.026803 0.068184 -0.038257 -0.023500
# 5 0.026466 0.019582 0.029809 -0.038257 0.085190 0.015804
# 6 0.015970 0.015005 0.011207 -0.023500 0.015804 0.041282
#
#
# Mechanical properties :
#
#
# Convention : Reuss Voigt Hill
#
# Bulk Modulus (GPa) = 6.88144 36.46220 21.67182
# Shear Modulus (GPa) = 18.61480 33.89875 26.25678
#
# Velocity S-wave (km/s) = 2.95509 3.98780 3.50963
# Velocity P-wave (km/s) = 3.85637 6.18938 5.15655
#
# Compressibility (1/GPa) = 0.14531835
#
# Stress axis : x y z
#
# Youngs Moduli (GPa) = 34.12915 44.43865 29.75304
#
# Poissons Ratio (x) = -0.55083 -0.26960
# Poissons Ratio (y) = -0.42304 -0.25278
# Poissons Ratio (z) = -0.30925 -0.37755
#
# Static dielectric constant tensor:
#      x y z
#    x 1.792220 -0.005510 0.016860 
#    y -0.005510 1.852110 -0.063190 
#    z 0.016860 -0.063190 1.794400 
# 
# From -- ./inp_files/68471.got.cif
#   From: 2010.05.17/outbox.ucp.g08.bks.cvg/sg2_35_cif.got.tgz:68471.got - 2010.06.11 11:32:03.
