data_PCOD9074641
_publ_section_title
;
Structure prediction by ZEFSAII (Michael W. Deem and Ramdas Pophale) SiO2 
 PCOD9074641
Probable space group: P -1
;
_chemical_formula_sum "Si O2"
_cell_formula_units_Z 14
_cell_length_a 27.000000
_cell_length_b 15.000000
_cell_length_c 27.000000
_cell_angle_alpha 20.000000
_cell_angle_beta 170.000000
_cell_angle_gamma 160.000000
_cell_volume 630.401208
_symmetry_space_group_name_H-M "P -1"
_symmetry_group_IT_number 2
_symmetry_cell_setting 'triclinic'
loop_
_space_group_symop_operation_xyz
x,y,z
-x,-y,-z
loop_
_atom_site_type_symbol
_atom_site_label
_atom_site_fract_x
_atom_site_fract_y
_atom_site_fract_z
Si Si1 0.493688 0.410663 0.867803
Si Si2 0.287943 0.225607 0.955862
Si Si3 0.407191 0.376942 0.286097
Si Si4 0.078226 0.775840 0.900705
Si Si5 0.058290 0.532876 0.298504
Si Si6 0.615584 0.848227 0.323756
Si Si7 0.723116 0.164415 0.496337
O O1 0.236652 0.348885 0.603530
O O2 0.374140 0.603732 0.687744
O O3 0.812979 0.576033 0.074303
O O4 0.566557 0.135511 0.104597
O O5 0.483994 0.088122 0.256729
O O6 0.500000 0.500000 0.000000
O O7 0.029643 0.276372 0.710757
O O8 0.153161 0.024550 0.883437
O O9 0.643721 0.295308 0.523808
O O10 0.580844 0.626372 0.361287
O O11 0.274994 0.104702 0.329474
O O12 0.164678 0.491963 0.956077
O O13 0.884722 0.852996 0.624151
O O14 0.355267 0.741158 0.161162
O O15 0.000000 0.500000 0.000000
#
# Coordination Sequence:
#
# PCOD9074641 Si02
#       7
#     2   2   2   2   2   2   2
#     4  11  25  42  66  98 137 178 223 283 340 406
#     4  12  26  44  69 101 138 180 229 284 342 406
#     4  11  24  43  70  99 135 181 228 281 336 409
#     4  12  25  45  71 100 137 180 230 283 339 406
#     4  10  24  43  67  99 136 177 229 278 341 404
#     4  12  25  44  69 100 136 178 228 279 342 404
#     4  12  25  45  69  99 138 180 229 280 343 405
#
# _framework density 22.208079000000001
#
# number of rings (size 3 to 8) (size 9 to 14) (size 15 to 20)
#    0.000    0.571    0.000    7.714    0.000    9.143 
#    0.000    0.000    0.000    0.000    0.000    0.000 
#    0.000    0.000    0.000    0.000    0.000    0.000 
#
# Total GULP energy -78037.478299 kJ/mol
# GULP energy per Si atom -5574.105593 kJ/mol
# Density = 2.215753 g / cm^3
# Si number density = 22.208079 Si / 1000 Ang^3
#
#
#
# Elastic Constant Matrix: (Units=GPa)
#
#
# Indices 1 2 3 4 5 6 
#
# 1 133.0680 59.3146 66.6099 -0.2810 -12.0954 18.1718
# 2 59.3146 122.3528 29.6674 -18.3803 -7.5074 -3.6656
# 3 66.6099 29.6674 185.5669 12.2926 -33.9339 4.4462
# 4 -0.2810 -18.3803 12.2926 38.7368 9.2026 4.1214
# 5 -12.0954 -7.5074 -33.9339 9.2026 92.4192 10.6209
# 6 18.1718 -3.6656 4.4462 4.1214 10.6209 30.8882
#
#
#
# Elastic Compliance Matrix: (Units=1/GPa)
#
#
# Indices 1 2 3 4 5 6 
#
# 1 0.012928 -0.005807 -0.003260 -0.001020 0.001050 -0.008050
# 2 -0.005807 0.012023 -0.000508 0.005591 -0.001047 0.004530
# 3 -0.003260 -0.000508 0.007299 -0.003213 0.002488 0.000380
# 4 -0.001020 0.005591 -0.003213 0.030488 -0.003775 -0.001044
# 5 0.001050 -0.001047 0.002488 -0.003775 0.012734 -0.004975
# 6 -0.008050 0.004530 0.000380 -0.001044 -0.004975 0.039444
#
#
# Mechanical properties :
#
#
# Convention : Reuss Voigt Hill
#
# Bulk Modulus (GPa) = 76.33448 83.57460 79.95454
# Shear Modulus (GPa) = 36.11935 51.43524 43.77729
#
# Velocity S-wave (km/s) = 4.03725 4.81777 4.44467
# Velocity P-wave (km/s) = 7.49530 8.28626 7.90068
#
# Compressibility (1/GPa) = 0.01310024
#
# Stress axis : x y z
#
# Youngs Moduli (GPa) = 77.35430 83.17689 137.00681
#
# Poissons Ratio (x) = 0.48298 0.44658
# Poissons Ratio (y) = 0.44917 0.06962
# Poissons Ratio (z) = 0.25214 0.04227
#
# Static dielectric constant tensor:
#      x y z
#    x 1.827020 0.024400 0.011390 
#    y 0.024400 1.793300 -0.000730 
#    z 0.011390 -0.000730 1.798540 
# 
# From -- ./inp_files/621318.got.cif
#   From: 2010.05.17/outbox.ucp.g08.bks.cvg/sg2_311_cif.got.tgz:621318.got - 2010.06.11 11:32:03.
