data_PCOD9074609
_publ_section_title
;
Structure prediction by ZEFSAII (Michael W. Deem and Ramdas Pophale) SiO2 
 PCOD9074609
Probable space group: P -1
;
_chemical_formula_sum "Si O2"
_cell_formula_units_Z 14
_cell_length_a 15.000000
_cell_length_b 12.000000
_cell_length_c 12.000000
_cell_angle_alpha 130.000000
_cell_angle_beta 40.000000
_cell_angle_gamma 150.000000
_cell_volume 692.779491
_symmetry_space_group_name_H-M "P -1"
_symmetry_group_IT_number 2
_symmetry_cell_setting 'triclinic'
loop_
_space_group_symop_operation_xyz
x,y,z
-x,-y,-z
loop_
_atom_site_type_symbol
_atom_site_label
_atom_site_fract_x
_atom_site_fract_y
_atom_site_fract_z
Si Si1 0.963112 0.101225 0.856266
Si Si2 0.780328 0.777734 0.009499
Si Si3 0.986572 0.390917 0.553557
Si Si4 0.319318 0.162813 0.248867
Si Si5 0.298914 0.116519 0.503280
Si Si6 0.196485 0.489478 0.063386
Si Si7 0.382625 0.549620 0.396826
O O1 0.166312 0.158017 0.682224
O O2 0.851871 0.044675 0.806901
O O3 0.048075 0.297208 0.984014
O O4 0.791979 0.863231 0.933520
O O5 0.581111 0.678892 0.206341
O O6 0.792149 0.613698 0.908224
O O7 0.000000 0.000000 0.000000
O O8 0.203902 0.501090 0.472321
O O9 0.000000 0.500000 0.500000
O O10 0.885292 0.419561 0.760671
O O11 0.838549 0.135649 0.499026
O O12 0.312128 0.120801 0.359449
O O13 0.292370 0.316873 0.361988
O O14 0.559179 0.311797 0.081025
O O15 0.511294 0.297819 0.493631
#
# Coordination Sequence:
#
# PCOD9074609 Si02
#       7
#     2   2   2   2   2   2   2
#     4  11  21  39  71  97 131 170 226 280 319 390
#     4   9  18  39  67  96 123 167 228 269 323 379
#     4  12  29  44  65 102 142 173 219 273 345 401
#     4  11  24  41  75  99 127 179 233 271 325 390
#     4  12  24  45  69 101 134 175 230 274 323 403
#     4  10  24  42  62 100 136 172 221 279 328 397
#     4  11  24  42  72  98 131 179 217 283 332 385
#
# _framework density 20.208449999999999
#
# number of rings (size 3 to 8) (size 9 to 14) (size 15 to 20)
#    0.000    1.143    5.714    1.714    4.000    3.429 
#    0.000    1.429    0.000    0.000    0.000    0.000 
#    0.000    0.000    0.000    0.000    0.000    0.000 
#
# Total GULP energy -78209.445536 kJ/mol
# GULP energy per Si atom -5586.388967 kJ/mol
# Density = 2.016246 g / cm^3
# Si number density = 20.208450 Si / 1000 Ang^3
#
#
#
# Elastic Constant Matrix: (Units=GPa)
#
#
# Indices 1 2 3 4 5 6 
#
# 1 134.8998 28.5464 29.5752 -0.7139 -0.0467 28.0811
# 2 28.5464 62.6425 11.1513 16.6923 -8.4232 26.9494
# 3 29.5752 11.1513 74.3258 11.0453 -13.6021 6.6359
# 4 -0.7139 16.6923 11.0453 30.7796 2.9511 14.1843
# 5 -0.0467 -8.4232 -13.6021 2.9511 41.5938 2.3371
# 6 28.0811 26.9494 6.6359 14.1843 2.3371 37.0809
#
#
#
# Elastic Compliance Matrix: (Units=1/GPa)
#
#
# Indices 1 2 3 4 5 6 
#
# 1 0.010706 -0.002938 -0.004604 0.007298 -0.002168 -0.007803
# 2 -0.002938 0.026643 0.001107 -0.008991 0.007198 -0.014351
# 3 -0.004604 0.001107 0.017355 -0.008699 0.006371 0.002502
# 4 0.007298 -0.008991 -0.008699 0.048508 -0.007226 -0.015535
# 5 -0.002168 0.007198 0.006371 -0.007226 0.028304 -0.003750
# 6 -0.007803 -0.014351 0.002502 -0.015535 -0.003750 0.049038
#
#
# Mechanical properties :
#
#
# Convention : Reuss Voigt Hill
#
# Bulk Modulus (GPa) = 23.90421 45.60155 34.75288
# Shear Modulus (GPa) = 24.11127 35.39719 29.75423
#
# Velocity S-wave (km/s) = 3.45792 4.18976 3.84130
# Velocity P-wave (km/s) = 5.27232 6.78380 6.07525
#
# Compressibility (1/GPa) = 0.04183364
#
# Stress axis : x y z
#
# Youngs Moduli (GPa) = 93.40304 37.53284 57.61876
#
# Poissons Ratio (x) = 0.11029 0.26527
# Poissons Ratio (y) = 0.27446 -0.06376
# Poissons Ratio (z) = 0.43002 -0.04154
#
# Static dielectric constant tensor:
#      x y z
#    x 1.728200 -0.025970 0.053420 
#    y -0.025970 1.730650 -0.027550 
#    z 0.053420 -0.027550 1.746470 
# 
# From -- ./inp_files/181030.got.cif
#   From: 2010.05.17/outbox.ucp.g08.bks.cvg/sg2_91_cif.got.tgz:181030.got - 2010.06.11 11:32:03.
