data_PCOD9074431
_publ_section_title
;
Structure prediction by ZEFSAII (Michael W. Deem and Ramdas Pophale) SiO2 
 PCOD9074431
Probable space group: P -1
;
_chemical_formula_sum "Si O2"
_cell_formula_units_Z 16
_cell_length_a 18.000000
_cell_length_b 9.000000
_cell_length_c 15.000000
_cell_angle_alpha 140.000000
_cell_angle_beta 140.000000
_cell_angle_gamma 30.000000
_cell_volume 740.097418
_symmetry_space_group_name_H-M "P -1"
_symmetry_group_IT_number 2
_symmetry_cell_setting 'triclinic'
loop_
_space_group_symop_operation_xyz
x,y,z
-x,-y,-z
loop_
_atom_site_type_symbol
_atom_site_label
_atom_site_fract_x
_atom_site_fract_y
_atom_site_fract_z
Si Si1 0.624705 0.136315 0.942054
Si Si2 0.951919 0.813029 0.049471
Si Si3 0.722049 0.839687 0.086429
Si Si4 0.630052 0.006169 0.590457
Si Si5 0.542143 0.642374 0.785410
Si Si6 0.966786 0.630846 0.785229
Si Si7 0.597323 0.972206 0.338031
Si Si8 0.939038 0.355042 0.318851
O O1 0.543831 0.018169 0.776387
O O2 0.500000 0.500000 0.000000
O O3 0.767162 0.038325 0.973450
O O4 0.686179 0.009718 0.039276
O O5 0.984645 0.017933 0.222562
O O6 0.992754 0.750555 0.953072
O O7 0.000000 0.500000 0.000000
O O8 0.881532 0.730015 0.222638
O O9 0.594781 0.067792 0.147983
O O10 0.688812 0.614822 0.925529
O O11 0.578652 0.338273 0.712611
O O12 0.500000 0.000000 0.500000
O O13 0.797567 0.744553 0.672052
O O14 0.646679 0.978232 0.485155
O O15 0.475487 0.747791 0.671183
O O16 0.002016 0.694147 0.750813
O O17 0.750482 0.640464 0.283943
O O18 0.000000 0.500000 0.500000
#
# Coordination Sequence:
#
# PCOD9074431 Si02
#       8
#     2   2   2   2   2   2   2   2
#     4  11  23  43  75 100 144 186 238 295 354 429
#     4  12  27  47  73 110 148 186 248 304 358 424
#     4  10  23  42  71 107 131 182 243 294 357 418
#     4  12  28  45  68 104 147 186 237 297 369 426
#     4  10  24  43  71 100 141 181 241 293 349 435
#     4  12  26  46  73 107 145 189 244 305 360 440
#     4  11  23  46  70 101 138 194 237 291 359 435
#     4  12  26  48  74 105 147 197 240 293 370 440
#
# _framework density 21.618776
#
# number of rings (size 3 to 8) (size 9 to 14) (size 15 to 20)
#    0.000    0.750    5.000    1.500    7.000    0.000 
#    4.500    1.250    0.000    0.000    0.000    0.000 
#    0.000    0.000    0.000    0.000    0.000    0.000 
#
# Total GULP energy -89082.648512 kJ/mol
# GULP energy per Si atom -5567.665532 kJ/mol
# Density = 2.156957 g / cm^3
# Si number density = 21.618776 Si / 1000 Ang^3
#
#
#
# Elastic Constant Matrix: (Units=GPa)
#
#
# Indices 1 2 3 4 5 6 
#
# 1 65.4248 42.1773 76.8108 0.5625 8.3435 7.4431
# 2 42.1773 99.7990 47.7170 -19.7587 20.0920 -14.7185
# 3 76.8108 47.7170 62.3189 -17.2044 -16.5344 -16.6673
# 4 0.5625 -19.7587 -17.2044 37.5430 0.0154 12.6590
# 5 8.3435 20.0920 -16.5344 0.0154 26.8916 -5.9759
# 6 7.4431 -14.7185 -16.6673 12.6590 -5.9759 20.9097
#
#
#
# Elastic Compliance Matrix: (Units=1/GPa)
#
#
# Indices 1 2 3 4 5 6 
#
# 1 0.000082 -0.009822 0.015104 -0.002302 0.019266 0.011996
# 2 -0.009822 0.020240 -0.002342 0.006912 -0.011661 0.008359
# 3 0.015104 -0.002342 -0.008555 0.000580 -0.012121 -0.017660
# 4 -0.002302 0.006912 0.000580 0.036812 -0.008223 -0.018489
# 5 0.019266 -0.011661 -0.012121 -0.008223 0.029989 -0.011179
# 6 0.011996 0.008359 -0.017660 -0.018489 -0.011179 0.043360
#
#
# Mechanical properties :
#
#
# Convention : Reuss Voigt Hill
#
# Bulk Modulus (GPa) = 56.66670 62.32807 59.49739
# Shear Modulus (GPa) = 41.00714 21.12470 31.06592
#
# Velocity S-wave (km/s) = 4.35999 3.12932 3.79487
# Velocity P-wave (km/s) = 7.18434 6.47688 6.83976
#
# Compressibility (1/GPa) = 0.01764705
#
# Stress axis : x y z
#
# Youngs Moduli (GPa) = 12162.34461 49.40790 -116.88975
#
# Poissons Ratio (x) = 0.48526 1.76546
# Poissons Ratio (y) = 119.45264 -0.27376
# Poissons Ratio (z) = -183.69556 0.11571
#
# Static dielectric constant tensor:
#      x y z
#    x 1.936260 -0.004360 0.046430 
#    y -0.004360 1.857470 0.024820 
#    z 0.046430 0.024820 1.810950 
# 
# From -- ./inp_files/537683.got.cif
#   From: 2010.05.17/outbox.ucp.g08.bks.cvg/sg2_269_cif.got.tgz:537683.got - 2010.06.11 11:32:03.
