data_PCOD9074740
_publ_section_title
;
Structure prediction by ZEFSAII (Michael W. Deem and Ramdas Pophale) SiO2 
 PCOD9074740
Probable space group: P -1
;
_chemical_formula_sum "Si O2"
_cell_formula_units_Z 16
_cell_length_a 21.000000
_cell_length_b 12.000000
_cell_length_c 18.000000
_cell_angle_alpha 140.000000
_cell_angle_beta 160.000000
_cell_angle_gamma 30.000000
_cell_volume 744.844803
_symmetry_space_group_name_H-M "P -1"
_symmetry_group_IT_number 2
_symmetry_cell_setting 'triclinic'
loop_
_space_group_symop_operation_xyz
x,y,z
-x,-y,-z
loop_
_atom_site_type_symbol
_atom_site_label
_atom_site_fract_x
_atom_site_fract_y
_atom_site_fract_z
Si Si1 0.004893 0.377550 0.868947
Si Si2 0.869745 0.825730 0.891523
Si Si3 0.032226 0.241635 0.609150
Si Si4 0.495142 0.967486 0.265063
Si Si5 0.055167 0.087963 0.271032
Si Si6 0.248427 0.549355 0.743870
Si Si7 0.873894 0.403545 0.088647
Si Si8 0.291062 0.716864 0.588717
O O1 0.969759 0.564142 0.872222
O O2 0.815822 0.335107 0.623842
O O3 0.000000 0.500000 0.000000
O O4 0.272788 0.121292 0.040254
O O5 0.912969 0.810080 0.841915
O O6 0.623477 0.983106 0.756165
O O7 0.009133 0.910779 0.120137
O O8 0.122720 0.386101 0.793798
O O9 0.861296 0.357243 0.409309
O O10 0.859396 0.286529 0.511159
O O11 0.219891 0.965213 0.652280
O O12 0.654246 0.044126 0.478976
O O13 0.673532 0.701408 0.297170
O O14 0.934645 0.248260 0.294191
O O15 0.929570 0.275873 0.162740
O O16 0.500000 0.500000 0.000000
O O17 0.591189 0.524171 0.818241
#
# Coordination Sequence:
#
# PCOD9074740 Si02
#       8
#     2   2   2   2   2   2   2   2
#     4  10  24  47  69 103 139 184 234 288 351 416
#     4  11  26  47  68 103 142 190 234 283 359 412
#     4  11  25  46  71 106 143 186 233 291 360 413
#     4  11  25  46  71 101 144 178 237 295 345 421
#     4  12  27  45  72 108 137 192 233 290 355 418
#     4  12  23  47  73 105 142 182 237 294 357 412
#     4  12  26  46  71 107 142 184 245 284 350 431
#     4  11  25  47  72 103 144 186 233 295 354 415
#
# _framework density 21.480985
#
# number of rings (size 3 to 8) (size 9 to 14) (size 15 to 20)
#    0.000    0.750    3.750    2.625    5.250    3.000 
#    0.000    0.000    0.000    0.000    0.000    0.000 
#    0.000    0.000    0.000    0.000    0.000    0.000 
#
# Total GULP energy -89125.993478 kJ/mol
# GULP energy per Si atom -5570.374592 kJ/mol
# Density = 2.143209 g / cm^3
# Si number density = 21.480985 Si / 1000 Ang^3
#
#
#
# Elastic Constant Matrix: (Units=GPa)
#
#
# Indices 1 2 3 4 5 6 
#
# 1 8.6215 -17.5284 16.5989 4.1438 1.5255 -23.6843
# 2 -17.5284 69.6682 6.8936 18.5068 -6.8574 -13.4418
# 3 16.5989 6.8936 147.7080 21.8946 9.6942 -6.6641
# 4 4.1438 18.5068 21.8946 36.2999 2.0021 -4.0171
# 5 1.5255 -6.8574 9.6942 2.0021 32.2869 5.7696
# 6 -23.6843 -13.4418 -6.6641 -4.0171 5.7696 32.1396
#
#
#
# Elastic Compliance Matrix: (Units=1/GPa)
#
#
# Indices 1 2 3 4 5 6 
#
# 1 -0.042558 -0.020640 0.002372 0.009464 0.003281 -0.038909
# 2 -0.020640 0.008186 0.001717 -0.004539 0.004777 -0.012855
# 3 0.002372 0.001717 0.007510 -0.005124 -0.002365 0.003807
# 4 0.009464 -0.004539 -0.005124 0.033035 -0.003488 0.008768
# 5 0.003281 0.004777 -0.002365 -0.003488 0.033200 -0.002471
# 6 -0.038909 -0.012855 0.003807 0.008768 -0.002471 -0.000606
#
#
# Mechanical properties :
#
#
# Convention : Reuss Voigt Hill
#
# Bulk Modulus (GPa) = -16.67644 26.43622 4.87989
# Shear Modulus (GPa) = 96.37247 34.81418 65.59332
#
# Velocity S-wave (km/s) = 6.70533 4.03016 5.53189
# Velocity P-wave (km/s) = 7.22277 5.83007 6.56347
#
# Compressibility (1/GPa) = -0.05996484
#
# Stress axis : x y z
#
# Youngs Moduli (GPa) = -23.49717 122.15343 133.15731
#
# Poissons Ratio (x) = 2.52130 -0.31589
# Poissons Ratio (y) = -0.48499 -0.22859
# Poissons Ratio (z) = 0.05574 -0.20970
#
# Static dielectric constant tensor:
#      x y z
#    x 1.921900 0.032510 -0.042600 
#    y 0.032510 1.819450 -0.015180 
#    z -0.042600 -0.015180 1.777280 
# 
# From -- ./inp_files/428967.got.cif
#   From: 2010.05.17/outbox.ucp.g08.bks.cvg/sg2_215_cif.got.tgz:428967.got - 2010.06.11 11:32:03.
