data_PCOD9074200
_publ_section_title
;
Structure prediction by ZEFSAII (Michael W. Deem and Ramdas Pophale) SiO2 
 PCOD9074200
Probable space group: P -1
;
_chemical_formula_sum "Si O2"
_cell_formula_units_Z 14
_cell_length_a 18.000000
_cell_length_b 6.000000
_cell_length_c 9.000000
_cell_angle_alpha 120.000000
_cell_angle_beta 70.000000
_cell_angle_gamma 70.000000
_cell_volume 614.029152
_symmetry_space_group_name_H-M "P -1"
_symmetry_group_IT_number 2
_symmetry_cell_setting 'triclinic'
loop_
_space_group_symop_operation_xyz
x,y,z
-x,-y,-z
loop_
_atom_site_type_symbol
_atom_site_label
_atom_site_fract_x
_atom_site_fract_y
_atom_site_fract_z
Si Si1 0.011611 0.237080 0.795207
Si Si2 0.106754 0.217787 0.417359
Si Si3 0.178457 0.576377 0.634062
Si Si4 0.196460 0.564885 0.972250
Si Si5 0.422079 0.198227 0.750798
Si Si6 0.538221 0.337792 0.079880
Si Si7 0.397640 0.297161 0.307502
O O1 0.074244 0.151567 0.573160
O O2 0.896638 0.401898 0.881046
O O3 0.076794 0.909601 0.744521
O O4 0.000000 0.500000 0.000000
O O5 0.176379 0.310138 0.459226
O O6 0.000000 0.500000 0.500000
O O7 0.168713 0.907291 0.161364
O O8 0.177532 0.558468 0.807326
O O9 0.283182 0.519709 0.517520
O O10 0.314255 0.273926 0.839395
O O11 0.398279 0.551435 0.873286
O O12 0.500000 0.000000 0.500000
O O13 0.502839 0.966139 0.747374
O O14 0.431733 0.502140 0.291142
O O15 0.500000 0.500000 0.000000
O O16 0.597681 0.948091 0.894737
#
# Coordination Sequence:
#
# PCOD9074200 Si02
#       7
#     2   2   2   2   2   2   2
#     4  12  26  47  73 104 140 186 233 290 357 418
#     4  12  26  48  73 104 142 184 237 291 352 417
#     4  12  25  46  74 101 143 180 235 288 354 414
#     4  12  25  47  71 105 144 184 235 292 347 416
#     4  11  23  43  66  99 141 178 226 282 342 413
#     4   9  21  42  66  94 136 174 234 280 339 404
#     4  10  22  43  69  99 131 185 226 284 344 411
#
# _framework density 22.800219999999999
#
# number of rings (size 3 to 8) (size 9 to 14) (size 15 to 20)
#    0.000    0.857    4.286    2.571    0.000    7.429 
#    5.143    0.000    0.000    0.000    0.000    0.000 
#    0.000    0.000    0.000    0.000    0.000    0.000 
#
# Total GULP energy -77992.704110 kJ/mol
# GULP energy per Si atom -5570.907436 kJ/mol
# Density = 2.274833 g / cm^3
# Si number density = 22.800220 Si / 1000 Ang^3
#
#
#
# Elastic Constant Matrix: (Units=GPa)
#
#
# Indices 1 2 3 4 5 6 
#
# 1 156.7733 29.2999 29.3525 1.5054 -25.4665 -9.6358
# 2 29.2999 24.1958 4.8531 -13.4543 1.3287 -0.9008
# 3 29.3525 4.8531 59.0743 2.6677 -1.3422 -11.7573
# 4 1.5054 -13.4543 2.6677 25.3455 0.2936 -4.0847
# 5 -25.4665 1.3287 -1.3422 0.2936 61.8423 -2.4803
# 6 -9.6358 -0.9008 -11.7573 -4.0847 -2.4803 26.6793
#
#
#
# Elastic Compliance Matrix: (Units=1/GPa)
#
#
# Indices 1 2 3 4 5 6 
#
# 1 0.011717 -0.019719 -0.003418 -0.010718 0.005262 0.000908
# 2 -0.019719 0.094885 0.000036 0.052159 -0.010280 0.003128
# 3 -0.003418 0.000036 0.020125 -0.000685 -0.000669 0.007469
# 4 -0.010718 0.052159 -0.000685 0.069150 -0.005570 0.007657
# 5 0.005262 -0.010280 -0.000669 -0.005570 0.018656 0.002140
# 6 0.000908 0.003128 0.007469 0.007657 0.002140 0.042579
#
#
# Mechanical properties :
#
#
# Convention : Reuss Voigt Hill
#
# Bulk Modulus (GPa) = 12.41816 40.78384 26.60100
# Shear Modulus (GPa) = 15.14439 34.54260 24.84350
#
# Velocity S-wave (km/s) = 2.58004 3.89654 3.30452
# Velocity P-wave (km/s) = 3.78601 6.17821 5.12368
#
# Compressibility (1/GPa) = 0.08052721
#
# Stress axis : x y z
#
# Youngs Moduli (GPa) = 85.34342 10.53904 49.68867
#
# Poissons Ratio (x) = 0.20782 0.16983
# Poissons Ratio (y) = 1.68287 -0.00180
# Poissons Ratio (z) = 0.29169 -0.00038
#
# Static dielectric constant tensor:
#      x y z
#    x 1.870150 -0.101790 -0.079330 
#    y -0.101790 4.065510 -0.264700 
#    z -0.079330 -0.264700 1.891790 
# 
# From -- ./inp_files/324103.got.cif
#   From: 2010.05.17/outbox.ucp.g08.bks.cvg/sg2_163_cif.got.tgz:324103.got - 2010.06.11 11:32:03.
