data_PCOD9074894
_publ_section_title
;
Structure prediction by ZEFSAII (Michael W. Deem and Ramdas Pophale) SiO2 
 PCOD9074894
Probable space group: P -1
;
_chemical_formula_sum "Si O2"
_cell_formula_units_Z 16
_cell_length_a 9.000000
_cell_length_b 12.000000
_cell_length_c 18.000000
_cell_angle_alpha 130.000000
_cell_angle_beta 150.000000
_cell_angle_gamma 60.000000
_cell_volume 736.400153
_symmetry_space_group_name_H-M "P -1"
_symmetry_group_IT_number 2
_symmetry_cell_setting 'triclinic'
loop_
_space_group_symop_operation_xyz
x,y,z
-x,-y,-z
loop_
_atom_site_type_symbol
_atom_site_label
_atom_site_fract_x
_atom_site_fract_y
_atom_site_fract_z
Si Si1 0.833833 0.020950 0.244034
Si Si2 0.749535 0.298940 0.894728
Si Si3 0.900124 0.430261 0.746783
Si Si4 0.731359 0.740124 0.544146
Si Si5 0.335515 0.205042 0.057636
Si Si6 0.353172 0.468052 0.703344
Si Si7 0.360566 0.208181 0.822198
Si Si8 0.057784 0.626131 0.768127
O O1 0.584164 0.129817 0.176359
O O2 0.143996 0.110096 0.382578
O O3 0.803062 0.943523 0.277874
O O4 0.729082 0.885412 0.084975
O O5 0.579122 0.352957 0.773678
O O6 0.501816 0.209352 0.802344
O O7 0.912740 0.453715 0.066277
O O8 0.014229 0.204021 0.955777
O O9 0.611455 0.326925 0.611268
O O10 0.127626 0.323315 0.772740
O O11 0.845664 0.538813 0.701519
O O12 0.825980 0.614318 0.477432
O O13 0.909349 0.734020 0.695964
O O14 0.463819 0.374996 0.172004
O O15 0.167699 0.502564 0.709892
O O16 0.652279 0.280666 0.027637
#
# Coordination Sequence:
#
# PCOD9074894 Si02
#       8
#     2   2   2   2   2   2   2   2
#     4  11  24  42  61  92 131 178 203 255 318 388
#     4  11  22  40  69  99 119 167 221 270 304 369
#     4  11  22  41  67 100 126 164 213 268 318 369
#     4  12  26  38  64 100 134 162 205 266 330 370
#     4  11  22  41  67  92 127 165 224 255 310 379
#     4  12  21  40  68  98 123 158 217 273 310 364
#     4  11  22  43  68  89 131 171 218 253 311 383
#     4  11  20  41  67  94 128 163 209 269 317 367
#
# _framework density 21.727318
#
# number of rings (size 3 to 8) (size 9 to 14) (size 15 to 20)
#    0.000    0.750    6.250    2.625    1.750    1.000 
#    0.000    1.875    0.000    0.000    0.000    0.000 
#    0.000    0.000    0.000    0.000    0.000    0.000 
#
# Total GULP energy -89356.404111 kJ/mol
# GULP energy per Si atom -5584.775257 kJ/mol
# Density = 2.167787 g / cm^3
# Si number density = 21.727318 Si / 1000 Ang^3
#
#
#
# Elastic Constant Matrix: (Units=GPa)
#
#
# Indices 1 2 3 4 5 6 
#
# 1 94.6680 49.3680 6.8431 1.0974 28.3321 22.1581
# 2 49.3680 69.9355 12.5836 14.0019 14.4483 29.8862
# 3 6.8431 12.5836 42.0864 10.9328 15.0454 23.9410
# 4 1.0974 14.0019 10.9328 26.6150 4.2837 10.4655
# 5 28.3321 14.4483 15.0454 4.2837 35.8537 6.1140
# 6 22.1581 29.8862 23.9410 10.4655 6.1140 40.7165
#
#
#
# Elastic Compliance Matrix: (Units=1/GPa)
#
#
# Indices 1 2 3 4 5 6 
#
# 1 0.023241 -0.012882 0.008098 0.008093 -0.016244 -0.007595
# 2 -0.012882 0.031950 0.005138 -0.011868 -0.000652 -0.016314
# 3 0.008098 0.005138 0.048897 -0.006990 -0.022744 -0.031717
# 4 0.008093 -0.011868 -0.006990 0.048323 -0.003869 -0.003422
# 5 -0.016244 -0.000652 -0.022744 -0.003869 0.048192 0.016450
# 6 -0.007595 -0.016314 -0.031717 -0.003422 0.016450 0.057727
#
#
# Mechanical properties :
#
#
# Convention : Reuss Voigt Hill
#
# Bulk Modulus (GPa) = 9.54237 38.25325 23.89781
# Shear Modulus (GPa) = 17.09091 29.83004 23.46048
#
# Velocity S-wave (km/s) = 2.80770 3.70932 3.28955
# Velocity P-wave (km/s) = 3.86165 5.99914 5.04490
#
# Compressibility (1/GPa) = 0.10479581
#
# Stress axis : x y z
#
# Youngs Moduli (GPa) = 43.02767 31.29860 20.45124
#
# Poissons Ratio (x) = 0.40318 -0.16561
# Poissons Ratio (y) = 0.55427 -0.10508
# Poissons Ratio (z) = -0.34842 -0.16081
#
# Static dielectric constant tensor:
#      x y z
#    x 1.839660 0.006590 -0.000080 
#    y 0.006590 1.784800 -0.036060 
#    z -0.000080 -0.036060 1.782250 
# 
# From -- ./inp_files/278962.got.cif
#   From: 2010.05.17/outbox.ucp.g08.bks.cvg/sg2_140_cif.got.tgz:278962.got - 2010.06.11 11:32:03.
