data_PCOD9074927
_publ_section_title
;
Structure prediction by ZEFSAII (Michael W. Deem and Ramdas Pophale) SiO2 
 PCOD9074927
Probable space group: P -1
;
_chemical_formula_sum "Si O2"
_cell_formula_units_Z 16
_cell_length_a 9.000000
_cell_length_b 24.000000
_cell_length_c 15.000000
_cell_angle_alpha 30.000000
_cell_angle_beta 130.000000
_cell_angle_gamma 150.000000
_cell_volume 731.734496
_symmetry_space_group_name_H-M "P -1"
_symmetry_group_IT_number 2
_symmetry_cell_setting 'triclinic'
loop_
_space_group_symop_operation_xyz
x,y,z
-x,-y,-z
loop_
_atom_site_type_symbol
_atom_site_label
_atom_site_fract_x
_atom_site_fract_y
_atom_site_fract_z
Si Si1 0.518026 0.179100 0.317850
Si Si2 0.838825 0.259657 0.965537
Si Si3 0.247812 0.651230 0.643835
Si Si4 0.352515 0.063301 0.896571
Si Si5 0.132535 0.981717 0.721501
Si Si6 0.458932 0.049263 0.288007
Si Si7 0.758963 0.742856 0.367507
Si Si8 0.097909 0.328419 0.649502
O O1 0.771870 0.342285 0.265296
O O2 0.589358 0.183781 0.234628
O O3 0.212706 0.118547 0.273495
O O4 0.408953 0.011354 0.552314
O O5 0.693047 0.217855 0.869248
O O6 0.120248 0.473864 0.806894
O O7 0.927364 0.172182 0.117157
O O8 0.570195 0.143018 0.103749
O O9 0.054314 0.651913 0.506022
O O10 0.623039 0.845017 0.492525
O O11 0.210370 0.110622 0.818114
O O12 0.308661 0.062836 0.774637
O O13 0.161793 0.860708 0.128866
O O14 0.061802 0.847181 0.403748
O O15 0.393137 0.522333 0.551441
O O16 0.788263 0.714011 0.317298
#
# Coordination Sequence:
#
# PCOD9074927 Si02
#       8
#     2   2   2   2   2   2   2   2
#     4  11  24  47  72  95 135 182 226 282 329 395
#     4  12  26  44  72 100 135 179 225 279 339 403
#     4  12  25  45  70  96 138 181 227 277 333 399
#     4  12  23  41  68  99 139 174 221 274 337 405
#     4  12  26  46  68  98 138 186 219 280 334 395
#     4  11  23  46  73 100 134 177 227 280 338 392
#     4  11  21  40  67 102 133 176 216 277 346 396
#     4  11  23  39  69 103 135 175 222 277 345 400
#
# _framework density 21.865853999999999
#
# number of rings (size 3 to 8) (size 9 to 14) (size 15 to 20)
#    0.000    0.500    7.500    1.125    0.000    2.500 
#    0.000    1.250    0.000    0.000    0.000    0.000 
#    0.000    0.000    0.000    0.000    0.000    0.000 
#
# Total GULP energy -89264.813775 kJ/mol
# GULP energy per Si atom -5579.050861 kJ/mol
# Density = 2.181609 g / cm^3
# Si number density = 21.865854 Si / 1000 Ang^3
#
#
#
# Elastic Constant Matrix: (Units=GPa)
#
#
# Indices 1 2 3 4 5 6 
#
# 1 91.1996 47.7844 34.8174 -4.2176 21.9277 -23.1503
# 2 47.7844 115.6328 41.1895 5.0290 16.9729 -30.0671
# 3 34.8174 41.1895 60.3991 -14.7944 24.7115 -10.4667
# 4 -4.2176 5.0290 -14.7944 25.2176 -14.2148 3.0131
# 5 21.9277 16.9729 24.7115 -14.2148 23.8586 -0.4212
# 6 -23.1503 -30.0671 -10.4667 3.0131 -0.4212 39.2773
#
#
#
# Elastic Compliance Matrix: (Units=1/GPa)
#
#
# Indices 1 2 3 4 5 6 
#
# 1 0.019939 -0.000446 -0.003434 -0.011989 -0.021397 0.011186
# 2 -0.000446 0.017950 -0.008469 -0.018083 -0.014142 0.012457
# 3 -0.003434 -0.008469 0.035701 0.009617 -0.022066 0.000032
# 4 -0.011989 -0.018083 0.009617 0.086432 0.064989 -0.024280
# 5 -0.021397 -0.014142 -0.022066 0.064989 0.132634 -0.032881
# 6 0.011186 0.012457 0.000032 -0.024280 -0.032881 0.043108
#
#
# Mechanical properties :
#
#
# Convention : Reuss Voigt Hill
#
# Bulk Modulus (GPa) = 20.45261 57.20155 38.82708
# Shear Modulus (GPa) = 13.27107 27.23340 20.25223
#
# Velocity S-wave (km/s) = 2.46627 3.53296 3.04666
# Velocity P-wave (km/s) = 4.18138 6.54671 5.49288
#
# Compressibility (1/GPa) = 0.04889352
#
# Stress axis : x y z
#
# Youngs Moduli (GPa) = 50.15239 55.70904 28.01079
#
# Poissons Ratio (x) = 0.02483 0.09618
# Poissons Ratio (y) = 0.02236 0.23722
# Poissons Ratio (z) = 0.17221 0.47179
#
# Static dielectric constant tensor:
#      x y z
#    x 1.902690 0.053080 -0.025670 
#    y 0.053080 1.792630 -0.008240 
#    z -0.025670 -0.008240 1.789030 
# 
# From -- ./inp_files/505315.got.cif
#   From: 2010.05.17/outbox.ucp.g08.bks.cvg/sg2_253_cif.got.tgz:505315.got - 2010.06.11 11:32:03.
