data_PCOD9074978
_publ_section_title
;
Structure prediction by ZEFSAII (Michael W. Deem and Ramdas Pophale) SiO2 
 PCOD9074978
Probable space group: P -1
;
_chemical_formula_sum "Si O2"
_cell_formula_units_Z 14
_cell_length_a 9.000000
_cell_length_b 9.000000
_cell_length_c 12.000000
_cell_angle_alpha 110.000000
_cell_angle_beta 120.000000
_cell_angle_gamma 50.000000
_cell_volume 644.526612
_symmetry_space_group_name_H-M "P -1"
_symmetry_group_IT_number 2
_symmetry_cell_setting 'triclinic'
loop_
_space_group_symop_operation_xyz
x,y,z
-x,-y,-z
loop_
_atom_site_type_symbol
_atom_site_label
_atom_site_fract_x
_atom_site_fract_y
_atom_site_fract_z
Si Si1 0.356790 0.404365 0.723445
Si Si2 0.289204 0.540015 0.103720
Si Si3 0.420189 0.873986 0.471408
Si Si4 0.163082 0.069384 0.922580
Si Si5 0.619550 0.802104 0.114819
Si Si6 0.926275 0.172244 0.322701
Si Si7 0.479264 0.642112 0.627750
O O1 0.530540 0.428037 0.851025
O O2 0.468891 0.299002 0.622689
O O3 0.325627 0.274926 0.759620
O O4 0.138336 0.614531 0.679622
O O5 0.353176 0.461452 0.235600
O O6 0.053608 0.737808 0.064708
O O7 0.318133 0.374477 0.991660
O O8 0.496804 0.791637 0.602236
O O9 0.500000 0.000000 0.500000
O O10 0.165859 0.009012 0.404337
O O11 0.248452 0.120764 0.860681
O O12 0.119960 0.916469 0.822699
O O13 0.367678 0.963913 0.051677
O O14 0.750572 0.236312 0.368906
O O15 0.500000 0.500000 0.500000
#
# Coordination Sequence:
#
# PCOD9074978 Si02
#       7
#     2   2   2   2   2   2   2
#     4  11  24  44  63  96 133 165 211 265 322 377
#     4  11  22  42  68  92 128 169 216 256 321 376
#     4  12  27  43  66  99 128 167 218 266 317 383
#     4  11  23  41  68  96 124 169 217 256 318 381
#     4  11  25  41  64  98 131 164 213 267 309 378
#     4  11  23  45  68  92 128 174 210 261 328 374
#     4  11  21  45  69  91 128 169 215 263 316 386
#
# _framework density 21.721367999999998
#
# number of rings (size 3 to 8) (size 9 to 14) (size 15 to 20)
#    0.000    0.857    7.143    1.286    2.000    3.429 
#    0.000    0.000    0.000    0.000    0.000    0.000 
#    0.000    0.000    0.000    0.000    0.000    0.000 
#
# Total GULP energy -78264.254426 kJ/mol
# GULP energy per Si atom -5590.303888 kJ/mol
# Density = 2.167193 g / cm^3
# Si number density = 21.721368 Si / 1000 Ang^3
#
#
#
# Elastic Constant Matrix: (Units=GPa)
#
#
# Indices 1 2 3 4 5 6 
#
# 1 1.3024 4.3129 -4.1833 2.1732 -15.0837 6.7289
# 2 4.3129 114.6226 13.8237 -1.8959 -9.9016 -25.1839
# 3 -4.1833 13.8237 31.5093 3.0601 -18.8405 -9.9764
# 4 2.1732 -1.8959 3.0601 19.2685 11.2317 -9.6226
# 5 -15.0837 -9.9016 -18.8405 11.2317 32.3239 -9.5415
# 6 6.7289 -25.1839 -9.9764 -9.6226 -9.5415 52.4208
#
#
#
# Elastic Compliance Matrix: (Units=1/GPa)
#
#
# Indices 1 2 3 4 5 6 
#
# 1 -0.030526 0.000797 -0.042683 0.038623 -0.054249 -0.006606
# 2 0.000797 0.010464 0.000835 0.000599 0.005695 0.006230
# 3 -0.042683 0.000835 0.026073 0.009033 -0.004136 0.011747
# 4 0.038623 0.000599 0.009033 0.043583 0.010375 0.006938
# 5 -0.054249 0.005695 -0.004136 0.010375 0.004802 0.011691
# 6 -0.006606 0.006230 0.011747 0.006938 0.011691 0.028555
#
#
# Mechanical properties :
#
#
# Convention : Reuss Voigt Hill
#
# Bulk Modulus (GPa) = -13.14230 19.48231 3.17001
# Shear Modulus (GPa) = 35.79404 29.70140 32.74772
#
# Velocity S-wave (km/s) = 4.06380 3.70182 3.88703
# Velocity P-wave (km/s) = 3.99447 5.22111 4.64843
#
# Compressibility (1/GPa) = -0.07609020
#
# Stress axis : x y z
#
# Youngs Moduli (GPa) = -32.75868 95.56251 38.35416
#
# Poissons Ratio (x) = -0.07619 1.63705
# Poissons Ratio (y) = 0.02612 -0.03201
# Poissons Ratio (z) = -1.39822 -0.07977
#
# Static dielectric constant tensor:
#      x y z
#    x 1.781040 0.072060 -0.000750 
#    y 0.072060 1.881880 0.010870 
#    z -0.000750 0.010870 1.773730 
# 
# From -- ./inp_files/168195.got.cif
#   From: 2010.05.17/outbox.ucp.g08.bks.cvg/sg2_85_cif.got.tgz:168195.got - 2010.06.11 11:32:03.
