data_PCOD9074841
_publ_section_title
;
Structure prediction by ZEFSAII (Michael W. Deem and Ramdas Pophale) SiO2 
 PCOD9074841
Probable space group: P -1
;
_chemical_formula_sum "Si O2"
_cell_formula_units_Z 16
_cell_length_a 12.000000
_cell_length_b 9.000000
_cell_length_c 24.000000
_cell_angle_alpha 50.000000
_cell_angle_beta 150.000000
_cell_angle_gamma 110.000000
_cell_volume 822.245522
_symmetry_space_group_name_H-M "P -1"
_symmetry_group_IT_number 2
_symmetry_cell_setting 'triclinic'
loop_
_space_group_symop_operation_xyz
x,y,z
-x,-y,-z
loop_
_atom_site_type_symbol
_atom_site_label
_atom_site_fract_x
_atom_site_fract_y
_atom_site_fract_z
Si Si1 0.601524 0.852298 0.975029
Si Si2 0.579785 0.663725 0.261005
Si Si3 0.939738 0.124791 0.283036
Si Si4 0.131909 0.281736 0.530770
Si Si5 0.455320 0.758292 0.758480
Si Si6 0.522291 0.700183 0.671972
Si Si7 0.179914 0.531281 0.749093
Si Si8 0.941444 0.479313 0.118252
O O1 0.316453 0.893791 0.823034
O O2 0.549557 0.107248 0.888626
O O3 0.675945 0.719252 0.098502
O O4 0.835619 0.671409 0.076478
O O5 0.640436 0.733050 0.329806
O O6 0.409230 0.558088 0.225001
O O7 0.862643 0.443860 0.411974
O O8 0.911413 0.283972 0.284803
O O9 0.910002 0.279114 0.179255
O O10 0.229112 0.879502 0.473383
O O11 0.062399 0.412080 0.409984
O O12 0.233410 0.015510 0.625207
O O13 0.494530 0.787129 0.703177
O O14 0.354436 0.590165 0.771015
O O15 0.735902 0.631264 0.943149
O O16 0.758687 0.658065 0.744080
#
# Coordination Sequence:
#
# PCOD9074841 Si02
#       8
#     2   2   2   2   2   2   2   2
#     4  11  22  39  63  88 127 157 200 254 300 352
#     4  11  23  38  59  92 123 164 198 243 303 362
#     4  11  20  40  65  91 118 156 205 259 298 345
#     4  11  21  37  62  90 121 155 208 249 296 352
#     4  12  20  40  61  93 120 157 200 258 298 349
#     4  12  25  38  63  92 126 160 200 242 305 367
#     4  11  19  35  64  91 118 151 203 257 304 337
#     4  11  23  40  62  92 124 159 199 250 304 357
#
# _framework density 19.458908000000001
#
# number of rings (size 3 to 8) (size 9 to 14) (size 15 to 20)
#    0.000    0.750    6.250    4.125    0.000    1.000 
#    0.000    0.000    0.000    3.000    0.000    0.000 
#    0.000    0.000    0.000    0.000    0.000    0.000 
#
# Total GULP energy -89254.127661 kJ/mol
# GULP energy per Si atom -5578.382979 kJ/mol
# Density = 1.941462 g / cm^3
# Si number density = 19.458908 Si / 1000 Ang^3
#
#
#
# Elastic Constant Matrix: (Units=GPa)
#
#
# Indices 1 2 3 4 5 6 
#
# 1 85.3954 15.1248 23.7170 -2.6548 4.4235 2.0908
# 2 15.1248 55.2119 9.8477 -11.6789 -1.1751 3.0535
# 3 23.7170 9.8477 108.1420 -15.8347 -18.3600 -1.1029
# 4 -2.6548 -11.6789 -15.8347 24.6146 -8.1634 -11.0513
# 5 4.4235 -1.1751 -18.3600 -8.1634 34.2994 -0.0996
# 6 2.0908 3.0535 -1.1029 -11.0513 -0.0996 20.6735
#
#
#
# Elastic Compliance Matrix: (Units=1/GPa)
#
#
# Indices 1 2 3 4 5 6 
#
# 1 0.014228 -0.004693 -0.005261 -0.009036 -0.006980 -0.005890
# 2 -0.004693 0.022300 0.002727 0.017014 0.006897 0.006455
# 3 -0.005261 0.002727 0.015816 0.021208 0.014321 0.012379
# 4 -0.009036 0.017014 0.021208 0.096364 0.036185 0.051219
# 5 -0.006980 0.006897 0.014321 0.036185 0.046628 0.020019
# 6 -0.005890 0.006455 0.012379 0.051219 0.020019 0.076150
#
#
# Mechanical properties :
#
#
# Convention : Reuss Voigt Hill
#
# Bulk Modulus (GPa) = 26.39374 38.45871 32.42623
# Shear Modulus (GPa) = 16.74645 29.25482 23.00064
#
# Velocity S-wave (km/s) = 2.93679 3.88160 3.44177
# Velocity P-wave (km/s) = 5.00929 6.31633 5.70039
#
# Compressibility (1/GPa) = 0.03788776
#
# Stress axis : x y z
#
# Youngs Moduli (GPa) = 70.28635 44.84282 63.22812
#
# Poissons Ratio (x) = 0.21046 0.33265
# Poissons Ratio (y) = 0.32988 -0.17240
# Poissons Ratio (z) = 0.36978 -0.12227
#
# Static dielectric constant tensor:
#      x y z
#    x 1.691580 -0.012450 -0.018400 
#    y -0.012450 1.745670 0.031060 
#    z -0.018400 0.031060 1.704870 
# 
# From -- ./inp_files/218333.got.cif
#   From: 2010.05.17/outbox.ucp.g08.bks.cvg/sg2_110_cif.got.tgz:218333.got - 2010.06.11 11:32:03.
