data_PCOD9074298
_publ_section_title
;
Structure prediction by ZEFSAII (Michael W. Deem and Ramdas Pophale) SiO2 
 PCOD9074298
Probable space group: P -1
;
_chemical_formula_sum "Si O2"
_cell_formula_units_Z 14
_cell_length_a 9.000000
_cell_length_b 12.000000
_cell_length_c 9.000000
_cell_angle_alpha 110.000000
_cell_angle_beta 50.000000
_cell_angle_gamma 120.000000
_cell_volume 644.526612
_symmetry_space_group_name_H-M "P -1"
_symmetry_group_IT_number 2
_symmetry_cell_setting 'triclinic'
loop_
_space_group_symop_operation_xyz
x,y,z
-x,-y,-z
loop_
_atom_site_type_symbol
_atom_site_label
_atom_site_fract_x
_atom_site_fract_y
_atom_site_fract_z
Si Si1 0.198630 0.730186 0.365067
Si Si2 0.449779 0.566327 0.207836
Si Si3 0.130537 0.189276 0.876365
Si Si4 0.853618 0.632857 0.291927
Si Si5 0.475873 0.626774 0.705507
Si Si6 0.977376 0.089765 0.248747
Si Si7 0.459658 0.126795 0.031880
O O1 0.263334 0.618735 0.344708
O O2 0.015095 0.659868 0.333392
O O3 0.115236 0.820784 0.559438
O O4 0.404121 0.821018 0.181256
O O5 0.429514 0.456313 0.289722
O O6 0.500000 0.500000 0.000000
O O7 0.653567 0.696068 0.163954
O O8 0.996277 0.136042 0.086962
O O9 0.033630 0.262864 0.860356
O O10 0.155054 0.064345 0.731822
O O11 0.649084 0.665302 0.481565
O O12 0.749910 0.482774 0.243648
O O13 0.466410 0.751390 0.846617
O O14 0.212817 0.102299 0.152870
O O15 0.500000 0.000000 0.000000
#
# Coordination Sequence:
#
# PCOD9074298 Si02
#       7
#     2   2   2   2   2   2   2
#     4  12  25  43  78 104 132 191 233 287 349 407
#     4  11  22  46  72  98 144 180 233 285 343 416
#     4  10  23  46  70  96 150 183 223 299 337 417
#     4  10  23  43  71 105 134 184 231 289 348 401
#     4  10  22  46  68 101 145 178 229 290 342 415
#     4  11  24  47  70 103 143 185 238 277 351 419
#     4  12  25  44  71 105 140 182 231 292 345 410
#
# _framework density 21.721367999999998
#
# number of rings (size 3 to 8) (size 9 to 14) (size 15 to 20)
#    0.000    1.143    4.286    0.857    2.000    2.857 
#    2.571    2.857    0.000    0.000    0.000    0.000 
#    0.000    0.000    0.000    0.000    0.000    0.000 
#
# Total GULP energy -78219.311800 kJ/mol
# GULP energy per Si atom -5587.093700 kJ/mol
# Density = 2.167193 g / cm^3
# Si number density = 21.721368 Si / 1000 Ang^3
#
#
#
# Elastic Constant Matrix: (Units=GPa)
#
#
# Indices 1 2 3 4 5 6 
#
# 1 75.6416 59.9195 35.8241 24.3824 -3.0346 -0.4417
# 2 59.9195 179.8305 57.2312 35.4802 1.9195 -4.5992
# 3 35.8241 57.2312 103.8802 29.1865 -8.6739 -6.0394
# 4 24.3824 35.4802 29.1865 51.4839 -5.4292 0.5423
# 5 -3.0346 1.9195 -8.6739 -5.4292 29.5853 4.6743
# 6 -0.4417 -4.5992 -6.0394 0.5423 4.6743 30.3430
#
#
#
# Elastic Compliance Matrix: (Units=1/GPa)
#
#
# Indices 1 2 3 4 5 6 
#
# 1 0.019896 -0.004881 -0.002962 -0.004276 0.000878 -0.001098
# 2 -0.004881 0.008500 -0.002454 -0.002420 -0.002396 0.001141
# 3 -0.002962 -0.002454 0.013555 -0.004323 0.002730 0.001940
# 4 -0.004276 -0.002420 -0.004323 0.025969 0.003581 -0.002305
# 5 0.000878 -0.002396 0.002730 0.003581 0.036368 -0.005474
# 6 -0.001098 0.001141 0.001940 -0.002305 -0.005474 0.034384
#
#
# Mechanical properties :
#
#
# Convention : Reuss Voigt Hill
#
# Bulk Modulus (GPa) = 46.81728 73.92243 60.36986
# Shear Modulus (GPa) = 30.05082 36.04096 33.04589
#
# Velocity S-wave (km/s) = 3.72354 4.07780 3.90469
# Velocity P-wave (km/s) = 6.33140 7.50182 6.94132
#
# Compressibility (1/GPa) = 0.02135963
#
# Stress axis : x y z
#
# Youngs Moduli (GPa) = 50.26068 117.64487 73.77343
#
# Poissons Ratio (x) = 0.57419 0.21849
# Poissons Ratio (y) = 0.24531 0.18101
# Poissons Ratio (z) = 0.14885 0.28865
#
# Static dielectric constant tensor:
#      x y z
#    x 1.872770 0.008400 0.068370 
#    y 0.008400 1.788050 -0.060460 
#    z 0.068370 -0.060460 1.894500 
# 
# From -- ./inp_files/188982.got.cif
#   From: 2010.05.17/outbox.ucp.g08.bks.cvg/sg2_95_cif.got.tgz:188982.got - 2010.06.11 11:32:03.
