data_PCOD9074901
_publ_section_title
;
Structure prediction by ZEFSAII (Michael W. Deem and Ramdas Pophale) SiO2 
 PCOD9074901
Probable space group: P -1
;
_chemical_formula_sum "Si O2"
_cell_formula_units_Z 16
_cell_length_a 18.000000
_cell_length_b 9.000000
_cell_length_c 12.000000
_cell_angle_alpha 50.000000
_cell_angle_beta 130.000000
_cell_angle_gamma 150.000000
_cell_volume 725.531033
_symmetry_space_group_name_H-M "P -1"
_symmetry_group_IT_number 2
_symmetry_cell_setting 'triclinic'
loop_
_space_group_symop_operation_xyz
x,y,z
-x,-y,-z
loop_
_atom_site_type_symbol
_atom_site_label
_atom_site_fract_x
_atom_site_fract_y
_atom_site_fract_z
Si Si1 0.739218 0.784815 0.142218
Si Si2 0.878098 0.648236 0.021341
Si Si3 0.085986 0.654746 0.663290
Si Si4 0.842330 0.523770 0.383020
Si Si5 0.608202 0.638987 0.332296
Si Si6 0.506684 0.083577 0.591555
Si Si7 0.416862 0.620671 0.029549
Si Si8 0.712636 0.192266 0.910720
O O1 0.853189 0.774227 0.259378
O O2 0.655971 0.643439 0.250718
O O3 0.634015 0.576809 0.034044
O O4 0.779923 0.076567 0.027077
O O5 0.935649 0.522313 0.168920
O O6 0.725861 0.468819 0.030645
O O7 0.826609 0.533881 0.899936
O O8 0.000000 0.000000 0.000000
O O9 0.098445 0.513365 0.645374
O O10 0.949736 0.599013 0.546328
O O11 0.245709 0.015721 0.650527
O O12 0.662665 0.200514 0.382958
O O13 0.562571 0.392099 0.486974
O O14 0.464893 0.557852 0.208757
O O15 0.627792 0.136617 0.746666
O O16 0.500000 0.000000 0.500000
O O17 0.572924 0.964462 0.976047
#
# Coordination Sequence:
#
# PCOD9074901 Si02
#       8
#     2   2   2   2   2   2   2   2
#     4  11  20  43  71 100 127 180 222 272 337 415
#     4  12  26  44  66  98 136 178 231 283 330 396
#     4  11  25  48  63  96 136 186 222 269 341 413
#     4  11  25  41  72  93 139 180 220 274 344 403
#     4  11  24  40  71  99 131 170 229 273 337 402
#     4  12  23  43  68 111 134 169 222 296 335 392
#     4  11  21  42  72  94 130 178 220 274 335 406
#     4  11  23  42  73  98 133 176 231 272 337 408
#
# _framework density 22.052813
#
# number of rings (size 3 to 8) (size 9 to 14) (size 15 to 20)
#    0.000    0.750    6.250    2.625    3.500    3.000 
#    0.000    0.625    0.000    0.000    0.000    0.000 
#    0.000    0.000    0.000    0.000    0.000    0.000 
#
# Total GULP energy -89377.283086 kJ/mol
# GULP energy per Si atom -5586.080193 kJ/mol
# Density = 2.200262 g / cm^3
# Si number density = 22.052813 Si / 1000 Ang^3
#
#
#
# Elastic Constant Matrix: (Units=GPa)
#
#
# Indices 1 2 3 4 5 6 
#
# 1 59.4853 27.9383 37.3089 15.8461 20.8867 -11.7235
# 2 27.9383 105.3811 33.9809 -3.1853 23.0061 -30.1693
# 3 37.3089 33.9809 144.9478 0.4838 46.6074 -7.9650
# 4 15.8461 -3.1853 0.4838 33.8154 1.6617 0.4017
# 5 20.8867 23.0061 46.6074 1.6617 44.7355 2.7708
# 6 -11.7235 -30.1693 -7.9650 0.4017 2.7708 21.1059
#
#
#
# Elastic Compliance Matrix: (Units=1/GPa)
#
#
# Indices 1 2 3 4 5 6 
#
# 1 0.029594 0.000107 -0.003024 -0.013464 -0.011286 0.017188
# 2 0.000107 0.022211 0.001576 0.002365 -0.015331 0.034371
# 3 -0.003024 0.001576 0.011444 0.001905 -0.011789 0.006403
# 4 -0.013464 0.002365 0.001905 0.036030 0.002015 -0.004330
# 5 -0.011286 -0.015331 -0.011789 0.002015 0.050146 -0.039254
# 6 0.017188 0.034371 0.006403 -0.004330 -0.039254 0.113711
#
#
# Mechanical properties :
#
#
# Convention : Reuss Voigt Hill
#
# Bulk Modulus (GPa) = 16.51062 56.47448 36.49255
# Shear Modulus (GPa) = 17.48202 33.97043 25.72623
#
# Velocity S-wave (km/s) = 2.81861 3.92907 3.41922
# Velocity P-wave (km/s) = 4.25392 6.80057 5.67202
#
# Compressibility (1/GPa) = 0.06056706
#
# Stress axis : x y z
#
# Youngs Moduli (GPa) = 33.79025 45.02183 87.38104
#
# Poissons Ratio (x) = -0.00481 0.26424
# Poissons Ratio (y) = -0.00361 -0.13770
# Poissons Ratio (z) = 0.10218 -0.07095
#
# Static dielectric constant tensor:
#      x y z
#    x 1.815930 -0.027560 -0.018630 
#    y -0.027560 1.818750 0.026000 
#    z -0.018630 0.026000 1.884550 
# 
# From -- ./inp_files/461917.got.cif
#   From: 2010.05.17/outbox.ucp.g08.bks.cvg/sg2_231_cif.got.tgz:461917.got - 2010.06.11 11:32:03.
