data_PCOD9074095
_publ_section_title
;
Structure prediction by ZEFSAII (Michael W. Deem and Ramdas Pophale) SiO2 
 PCOD9074095
Probable space group: P -1
;
_chemical_formula_sum "Si O2"
_cell_formula_units_Z 16
_cell_length_a 9.000000
_cell_length_b 24.000000
_cell_length_c 12.000000
_cell_angle_alpha 30.000000
_cell_angle_beta 40.000000
_cell_angle_gamma 50.000000
_cell_volume 831.335389
_symmetry_space_group_name_H-M "P -1"
_symmetry_group_IT_number 2
_symmetry_cell_setting 'triclinic'
loop_
_space_group_symop_operation_xyz
x,y,z
-x,-y,-z
loop_
_atom_site_type_symbol
_atom_site_label
_atom_site_fract_x
_atom_site_fract_y
_atom_site_fract_z
Si Si1 0.787937 0.127752 0.568259
Si Si2 0.430646 0.975432 0.907813
Si Si3 0.731652 0.497493 0.205633
Si Si4 0.499174 0.674479 0.687216
Si Si5 0.741954 0.747519 0.840606
Si Si6 0.812388 0.827353 0.407460
Si Si7 0.333585 0.756965 0.218142
Si Si8 0.275744 0.502387 0.290353
O O1 0.670173 0.047581 0.677162
O O2 0.642393 0.238471 0.452578
O O3 0.052867 0.180867 0.333516
O O4 0.723192 0.053058 0.843898
O O5 0.280678 0.052029 0.780334
O O6 0.465136 0.851501 0.056850
O O7 0.689301 0.372115 0.500438
O O8 0.497694 0.512565 0.234931
O O9 0.755462 0.611858 0.067482
O O10 0.000000 0.500000 0.000000
O O11 0.665187 0.743214 0.557717
O O12 0.658001 0.606170 0.630998
O O13 0.326717 0.598189 0.999672
O O14 0.766982 0.792452 0.622104
O O15 0.488344 0.762664 0.008920
O O16 0.079700 0.803934 0.271768
O O17 0.000000 0.500000 0.500000
#
# Coordination Sequence:
#
# PCOD9074095 Si02
#       8
#     2   2   2   2   2   2   2   2
#     4  10  22  43  70  94 130 176 223 275 328 410
#     4  10  22  45  70  95 130 179 224 269 344 387
#     4  12  23  46  69  99 142 180 221 279 342 408
#     4  10  22  42  64  91 134 178 213 273 340 391
#     4  12  25  41  68 101 131 172 226 274 335 393
#     4  11  23  44  67  94 135 175 220 278 330 405
#     4  12  25  40  70  98 134 174 223 276 333 396
#     4  11  24  38  66  97 135 175 228 273 333 406
#
# _framework density 19.246143
#
# number of rings (size 3 to 8) (size 9 to 14) (size 15 to 20)
#    0.000    1.000    3.750    2.250    3.500    2.000 
#    0.000    0.000    0.000    0.000    0.000    0.000 
#    0.000    0.000    0.000    0.000    0.000    0.000 
#
# Total GULP energy -89104.648394 kJ/mol
# GULP energy per Si atom -5569.040525 kJ/mol
# Density = 1.920234 g / cm^3
# Si number density = 19.246143 Si / 1000 Ang^3
#
#
#
# Elastic Constant Matrix: (Units=GPa)
#
#
# Indices 1 2 3 4 5 6 
#
# 1 87.1081 24.6015 47.5574 5.1598 -8.6895 -14.3347
# 2 24.6015 83.4218 62.5370 19.9364 -1.7760 -4.6329
# 3 47.5574 62.5370 139.8982 -3.7188 -11.5047 -10.2004
# 4 5.1598 19.9364 -3.7188 51.9345 -5.9174 -6.5266
# 5 -8.6895 -1.7760 -11.5047 -5.9174 34.0428 -9.4234
# 6 -14.3347 -4.6329 -10.2004 -6.5266 -9.4234 22.8523
#
#
#
# Elastic Compliance Matrix: (Units=1/GPa)
#
#
# Indices 1 2 3 4 5 6 
#
# 1 0.016201 -0.001671 -0.003429 0.000871 0.006102 0.011058
# 2 -0.001671 0.022876 -0.011065 -0.011130 -0.006954 -0.007396
# 3 -0.003429 -0.011065 0.014497 0.007242 0.006607 0.006869
# 4 0.000871 -0.011130 0.007242 0.026855 0.010501 0.013523
# 5 0.006102 -0.006954 0.006607 0.010501 0.041704 0.025563
# 6 0.011058 -0.007396 0.006869 0.013523 0.025563 0.066666
#
#
# Mechanical properties :
#
#
# Convention : Reuss Voigt Hill
#
# Bulk Modulus (GPa) = 47.07428 64.42445 55.74937
# Shear Modulus (GPa) = 21.90971 33.48140 27.69555
#
# Velocity S-wave (km/s) = 3.37767 4.17543 3.79755
# Velocity P-wave (km/s) = 6.30268 7.53606 6.94680
#
# Compressibility (1/GPa) = 0.02124302
#
# Stress axis : x y z
#
# Youngs Moduli (GPa) = 61.72478 43.71434 68.98184
#
# Poissons Ratio (x) = 0.07306 0.23654
# Poissons Ratio (y) = 0.10317 0.76326
# Poissons Ratio (z) = 0.21166 0.48369
#
# Static dielectric constant tensor:
#      x y z
#    x 1.719630 0.032290 -0.010000 
#    y 0.032290 1.692990 -0.015010 
#    z -0.010000 -0.015010 1.686260 
# 
# From -- ./inp_files/406467.got.cif
#   From: 2010.05.17/outbox.ucp.g08.bks.cvg/sg2_204_cif.got.tgz:406467.got - 2010.06.11 11:32:03.
