data_PCOD9074021
_publ_section_title
;
Structure prediction by ZEFSAII (Michael W. Deem and Ramdas Pophale) SiO2 
 PCOD9074021
Probable space group: P -1
;
_chemical_formula_sum "Si O2"
_cell_formula_units_Z 14
_cell_length_a 9.000000
_cell_length_b 18.000000
_cell_length_c 6.000000
_cell_angle_alpha 80.000000
_cell_angle_beta 60.000000
_cell_angle_gamma 50.000000
_cell_volume 628.643806
_symmetry_space_group_name_H-M "P -1"
_symmetry_group_IT_number 2
_symmetry_cell_setting 'triclinic'
loop_
_space_group_symop_operation_xyz
x,y,z
-x,-y,-z
loop_
_atom_site_type_symbol
_atom_site_label
_atom_site_fract_x
_atom_site_fract_y
_atom_site_fract_z
Si Si1 0.332138 0.446462 0.830362
Si Si2 0.645870 0.128914 0.734080
Si Si3 0.972766 0.574135 0.658260
Si Si4 0.130181 0.639127 0.145239
Si Si5 0.849133 0.814289 0.932704
Si Si6 0.222391 0.743123 0.334536
Si Si7 0.999390 0.935942 0.844642
O O1 0.582903 0.353381 0.615586
O O2 0.186760 0.511570 0.692858
O O3 0.229145 0.399278 0.045771
O O4 0.296352 0.525881 0.989143
O O5 0.697520 0.193171 0.796751
O O6 0.747679 0.129780 0.419186
O O7 0.821504 0.017220 0.752862
O O8 0.404120 0.152200 0.912013
O O9 0.000000 0.500000 0.500000
O O10 0.981415 0.645454 0.457552
O O11 0.233408 0.686752 0.139060
O O12 0.979673 0.709799 0.015263
O O13 0.901094 0.879063 0.996643
O O14 0.981871 0.800237 0.611305
O O15 0.000000 0.000000 0.000000
#
# Coordination Sequence:
#
# PCOD9074021 Si02
#       7
#     2   2   2   2   2   2   2
#     4  10  22  41  63  91 133 178 228 273 317 379
#     4  10  24  43  68  97 132 166 213 269 328 393
#     4   9  21  38  63  89 121 175 226 272 326 375
#     4  11  23  40  61  97 132 177 226 266 329 381
#     4  11  25  42  66 101 133 169 216 270 329 393
#     4  11  25  40  65  95 133 176 219 273 322 385
#     4  10  22  46  71  98 127 168 212 265 332 399
#
# _framework density 22.270163
#
# number of rings (size 3 to 8) (size 9 to 14) (size 15 to 20)
#    0.000    1.714    0.000    2.571    8.000    6.286 
#    2.571    0.000    0.000    0.000    0.000    0.000 
#    0.000    0.000    0.000    0.000    0.000    0.000 
#
# Total GULP energy -77973.591518 kJ/mol
# GULP energy per Si atom -5569.542251 kJ/mol
# Density = 2.221948 g / cm^3
# Si number density = 22.270163 Si / 1000 Ang^3
#
#
#
# Elastic Constant Matrix: (Units=GPa)
#
#
# Indices 1 2 3 4 5 6 
#
# 1 131.3907 32.8611 31.5806 13.3550 -29.0075 28.7051
# 2 32.8611 101.1196 19.2734 -9.0006 -18.9215 18.7149
# 3 31.5806 19.2734 65.3588 -5.0708 -24.1458 -3.4018
# 4 13.3550 -9.0006 -5.0708 37.0396 5.1811 -4.0089
# 5 -29.0075 -18.9215 -24.1458 5.1811 46.7116 1.1158
# 6 28.7051 18.7149 -3.4018 -4.0089 1.1158 47.7216
#
#
#
# Elastic Compliance Matrix: (Units=1/GPa)
#
#
# Indices 1 2 3 4 5 6 
#
# 1 0.013002 -0.001289 -0.004632 -0.007410 0.006181 -0.008413
# 2 -0.001289 0.012177 -0.001892 0.002312 0.002994 -0.004011
# 3 -0.004632 -0.001892 0.021150 0.003723 0.006753 0.005190
# 4 -0.007410 0.002312 0.003723 0.032227 -0.005474 0.006652
# 5 0.006181 0.002994 0.006753 -0.005474 0.030691 -0.005588
# 6 -0.008413 -0.004011 0.005190 0.006652 -0.005588 0.028648
#
#
# Mechanical properties :
#
#
# Convention : Reuss Voigt Hill
#
# Bulk Modulus (GPa) = 32.56788 51.69993 42.13390
# Shear Modulus (GPa) = 30.53373 40.57149 35.55261
#
# Velocity S-wave (km/s) = 3.70680 4.27287 3.99986
# Velocity P-wave (km/s) = 5.74249 6.89989 6.34763
#
# Compressibility (1/GPa) = 0.03070510
#
# Stress axis : x y z
#
# Youngs Moduli (GPa) = 76.90980 82.12293 47.28166
#
# Poissons Ratio (x) = 0.10582 0.21900
# Poissons Ratio (y) = 0.09910 0.08943
# Poissons Ratio (z) = 0.35624 0.15534
#
# Static dielectric constant tensor:
#      x y z
#    x 1.892530 0.003880 0.017030 
#    y 0.003880 1.851460 0.020690 
#    z 0.017030 0.020690 1.864610 
# 
# From -- ./inp_files/47330.got.cif
#   From: 2010.05.17/outbox.ucp.g08.bks.cvg/sg2_24_cif.got.tgz:47330.got - 2010.06.11 11:32:03.
