data_PCOD9074643
_publ_section_title
;
Structure prediction by ZEFSAII (Michael W. Deem and Ramdas Pophale) SiO2 
 PCOD9074643
Probable space group: P -1
;
_chemical_formula_sum "Si O2"
_cell_formula_units_Z 14
_cell_length_a 27.000000
_cell_length_b 27.000000
_cell_length_c 15.000000
_cell_angle_alpha 160.000000
_cell_angle_beta 160.000000
_cell_angle_gamma 10.000000
_cell_volume 630.401208
_symmetry_space_group_name_H-M "P -1"
_symmetry_group_IT_number 2
_symmetry_cell_setting 'triclinic'
loop_
_space_group_symop_operation_xyz
x,y,z
-x,-y,-z
loop_
_atom_site_type_symbol
_atom_site_label
_atom_site_fract_x
_atom_site_fract_y
_atom_site_fract_z
Si Si1 0.748036 0.467461 0.042591
Si Si2 0.836527 0.452050 0.580807
Si Si3 0.603490 0.770733 0.042574
Si Si4 0.108529 0.269684 0.917487
Si Si5 0.738738 0.109631 0.751822
Si Si6 0.305272 0.994390 0.312377
Si Si7 0.217835 0.924782 0.791724
O O1 0.987489 0.231491 0.130599
O O2 0.558851 0.757182 0.264100
O O3 0.993412 0.234400 0.984569
O O4 0.453523 0.655979 0.810599
O O5 0.803384 0.650915 0.840482
O O6 0.544659 0.624130 0.341632
O O7 0.103551 0.170199 0.493219
O O8 0.939415 0.339227 0.666518
O O9 0.665056 0.870738 0.366135
O O10 0.908785 0.453735 0.979692
O O11 0.405609 0.949194 0.919606
O O12 0.430688 0.819161 0.902028
O O13 0.648739 0.155454 0.779337
O O14 0.000000 0.000000 0.000000
O O15 0.000000 0.000000 0.500000
#
# Coordination Sequence:
#
# PCOD9074643 Si02
#       7
#     2   2   2   2   2   2   2
#     4  10  24  43  68  94 126 166 209 265 313 383
#     4  11  22  42  65  93 135 165 218 261 308 369
#     4  12  23  41  70  92 128 167 212 268 317 371
#     4  11  22  40  67  98 123 170 216 267 305 368
#     4  12  24  43  63  95 137 173 205 259 316 373
#     4  11  22  42  66  95 127 164 218 255 309 378
#     4  11  25  47  65  94 130 164 204 266 328 381
#
# _framework density 22.208079000000001
#
# number of rings (size 3 to 8) (size 9 to 14) (size 15 to 20)
#    0.000    0.857    2.857    4.286    0.000    5.714 
#   15.429    0.000    0.000    0.000    0.000    0.000 
#    0.000    0.000    0.000    0.000    0.000    0.000 
#
# Total GULP energy -77980.006385 kJ/mol
# GULP energy per Si atom -5570.000456 kJ/mol
# Density = 2.215753 g / cm^3
# Si number density = 22.208079 Si / 1000 Ang^3
#
#
#
# Elastic Constant Matrix: (Units=GPa)
#
#
# Indices 1 2 3 4 5 6 
#
# 1 80.8536 -1.7076 38.4750 -14.2251 -18.5139 0.4224
# 2 -1.7076 114.5462 5.9750 -21.8053 -14.3025 7.3781
# 3 38.4750 5.9750 75.4695 -34.5887 -13.1554 7.6220
# 4 -14.2251 -21.8053 -34.5887 42.3828 3.3516 -14.9146
# 5 -18.5139 -14.3025 -13.1554 3.3516 38.1562 -11.8354
# 6 0.4224 7.3781 7.6220 -14.9146 -11.8354 51.6650
#
#
#
# Elastic Compliance Matrix: (Units=1/GPa)
#
#
# Indices 1 2 3 4 5 6 
#
# 1 0.017978 0.001561 -0.007956 0.000711 0.007337 0.002690
# 2 0.001561 0.010898 0.003291 0.009018 0.005765 0.001869
# 3 -0.007956 0.003291 0.028202 0.022753 0.006157 0.003413
# 4 0.000711 0.009018 0.022753 0.050558 0.010995 0.012463
# 5 0.007337 0.005765 0.006157 0.010995 0.036078 0.009647
# 6 0.002690 0.001869 0.003413 0.012463 0.009647 0.024371
#
#
# Mechanical properties :
#
#
# Convention : Reuss Voigt Hill
#
# Bulk Modulus (GPa) = 19.65800 39.59489 29.62645
# Shear Modulus (GPa) = 26.14378 41.64926 33.89652
#
# Velocity S-wave (km/s) = 3.43478 4.33530 3.91105
# Velocity P-wave (km/s) = 4.95997 6.55191 5.81071
#
# Compressibility (1/GPa) = 0.05086986
#
# Stress axis : x y z
#
# Youngs Moduli (GPa) = 55.62373 91.76139 35.45805
#
# Poissons Ratio (x) = -0.14326 0.28210
# Poissons Ratio (y) = -0.08684 -0.11668
# Poissons Ratio (z) = 0.44253 -0.30194
#
# Static dielectric constant tensor:
#      x y z
#    x 1.811820 0.041560 -0.003830 
#    y 0.041560 1.846080 0.036130 
#    z -0.003830 0.036130 1.857480 
# 
# From -- ./inp_files/544608.got.cif
#   From: 2010.05.17/outbox.ucp.g08.bks.cvg/sg2_273_cif.got.tgz:544608.got - 2010.06.11 11:32:03.
