data_PCOD9074563
_publ_section_title
;
Structure prediction by ZEFSAII (Michael W. Deem and Ramdas Pophale) SiO2 
 PCOD9074563
Probable space group: P -1
;
_chemical_formula_sum "Si O2"
_cell_formula_units_Z 16
_cell_length_a 9.000000
_cell_length_b 15.000000
_cell_length_c 15.000000
_cell_angle_alpha 30.000000
_cell_angle_beta 100.000000
_cell_angle_gamma 80.000000
_cell_volume 750.794245
_symmetry_space_group_name_H-M "P -1"
_symmetry_group_IT_number 2
_symmetry_cell_setting 'triclinic'
loop_
_space_group_symop_operation_xyz
x,y,z
-x,-y,-z
loop_
_atom_site_type_symbol
_atom_site_label
_atom_site_fract_x
_atom_site_fract_y
_atom_site_fract_z
Si Si1 0.911749 0.643475 0.486044
Si Si2 0.416849 0.983872 0.412740
Si Si3 0.756148 0.538768 0.719054
Si Si4 0.336492 0.281844 0.765930
Si Si5 0.988397 0.327979 0.093211
Si Si6 0.325208 0.805626 0.020764
Si Si7 0.224494 0.758816 0.734880
Si Si8 0.465857 0.309190 0.049141
O O1 0.803957 0.655505 0.552569
O O2 0.803836 0.603994 0.434251
O O3 0.152574 0.419809 0.700499
O O4 0.842577 0.904998 0.236269
O O5 0.564155 0.741219 0.583855
O O6 0.500000 0.000000 0.500000
O O7 0.203302 0.065540 0.344872
O O8 0.381929 0.179805 0.173840
O O9 0.743936 0.345664 0.849388
O O10 0.941154 0.399709 0.925147
O O11 0.491705 0.309395 0.791327
O O12 0.500000 0.000000 0.000000
O O13 0.801767 0.369949 0.078769
O O14 0.000000 0.500000 0.000000
O O15 0.420993 0.762848 0.969878
O O16 0.378003 0.774422 0.781699
O O17 0.302039 0.591132 0.802806
O O18 0.000000 0.000000 0.500000
#
# Coordination Sequence:
#
# PCOD9074563 Si02
#       8
#     2   2   2   2   2   2   2   2
#     4  10  23  46  73 100 130 171 208 261 341 396
#     4  12  24  41  62  86 130 181 222 273 322 368
#     4  12  26  42  65  98 135 175 222 270 319 387
#     4   9  22  46  76 101 131 165 206 267 334 404
#     4  12  24  39  56  88 123 170 230 266 316 375
#     4  11  24  43  65 101 135 164 220 273 319 397
#     4  11  24  38  59  85 124 176 222 276 328 367
#     4  11  23  40  58  90 127 167 227 272 317 385
#
# _framework density 21.310765
#
# number of rings (size 3 to 8) (size 9 to 14) (size 15 to 20)
#    0.000    1.000    5.000    0.750    5.250    2.500 
#    0.000    5.625    0.000    0.000    0.000    0.000 
#    0.000    0.000    0.000    0.000    0.000    0.000 
#
# Total GULP energy -89164.268230 kJ/mol
# GULP energy per Si atom -5572.766764 kJ/mol
# Density = 2.126226 g / cm^3
# Si number density = 21.310765 Si / 1000 Ang^3
#
#
#
# Elastic Constant Matrix: (Units=GPa)
#
#
# Indices 1 2 3 4 5 6 
#
# 1 100.5500 13.3693 31.8486 -15.5319 14.4055 10.7336
# 2 13.3693 61.6590 20.2737 -23.9087 14.5068 9.6587
# 3 31.8486 20.2737 74.3437 -28.2226 20.2400 11.2075
# 4 -15.5319 -23.9087 -28.2226 32.3126 -3.7686 9.3384
# 5 14.4055 14.5068 20.2400 -3.7686 31.3215 -11.5256
# 6 10.7336 9.6587 11.2075 9.3384 -11.5256 41.4412
#
#
#
# Elastic Compliance Matrix: (Units=1/GPa)
#
#
# Indices 1 2 3 4 5 6 
#
# 1 0.028220 0.070185 0.070688 0.144943 -0.113058 -0.106890
# 2 0.070185 0.323739 0.319381 0.627713 -0.480549 -0.455107
# 3 0.070688 0.319381 0.359659 0.664100 -0.510141 -0.481544
# 4 0.144943 0.627713 0.664100 1.299585 -0.971051 -0.926363
# 5 -0.113058 -0.480549 -0.510141 -0.971051 0.782693 0.715749
# 6 -0.106890 -0.455107 -0.481544 -0.926363 0.715749 0.695930
#
#
# Mechanical properties :
#
#
# Convention : Reuss Voigt Hill
#
# Bulk Modulus (GPa) = 0.61270 40.83732 20.72501
# Shear Modulus (GPa) = 1.60598 32.41914 17.01256
#
# Velocity S-wave (km/s) = 0.86904 3.90456 2.82850
# Velocity P-wave (km/s) = 1.13803 6.28743 4.51813
#
# Compressibility (1/GPa) = 1.63212624
#
# Stress axis : x y z
#
# Youngs Moduli (GPa) = 35.43536 3.08891 2.78041
#
# Poissons Ratio (x) = -0.21679 -0.19654
# Poissons Ratio (y) = -2.48702 -0.88801
# Poissons Ratio (z) = -2.50487 -0.98654
#
# Static dielectric constant tensor:
#      x y z
#    x 1.781970 -0.002060 -0.012920 
#    y -0.002060 1.790940 -0.003190 
#    z -0.012920 -0.003190 1.831280 
# 
# From -- ./inp_files/299699.got.cif
#   From: 2010.05.17/outbox.ucp.g08.bks.cvg/sg2_150_cif.got.tgz:299699.got - 2010.06.11 11:32:03.
