data_PCOD9074303
_publ_section_title
;
Structure prediction by ZEFSAII (Michael W. Deem and Ramdas Pophale) SiO2 
 PCOD9074303
Probable space group: P -1
;
_chemical_formula_sum "Si O2"
_cell_formula_units_Z 15
_cell_length_a 24.000000
_cell_length_b 12.000000
_cell_length_c 6.000000
_cell_angle_alpha 90.000000
_cell_angle_beta 70.000000
_cell_angle_gamma 30.000000
_cell_volume 630.239816
_symmetry_space_group_name_H-M "P -1"
_symmetry_group_IT_number 2
_symmetry_cell_setting 'triclinic'
loop_
_space_group_symop_operation_xyz
x,y,z
-x,-y,-z
loop_
_atom_site_type_symbol
_atom_site_label
_atom_site_fract_x
_atom_site_fract_y
_atom_site_fract_z
Si Si1 0.682449 0.366473 0.544394
Si Si2 0.427019 0.922150 0.604176
Si Si3 0.100219 0.114784 0.063171
Si Si4 0.758314 0.937644 0.886661
Si Si5 0.500000 0.500000 0.000000
Si Si6 0.637242 0.770708 0.991429
Si Si7 0.774771 0.719340 0.518000
Si Si8 0.156386 0.796987 0.289266
O O1 0.580469 0.606265 0.501579
O O2 0.573754 0.498076 0.873834
O O3 0.800063 0.237861 0.520697
O O4 0.771034 0.111824 0.303372
O O5 0.379559 0.012699 0.413909
O O6 0.296385 0.061780 0.867856
O O7 0.409877 0.073239 0.734205
O O8 0.114469 0.199551 0.197042
O O9 0.933222 0.414219 0.181217
O O10 0.131699 0.947712 0.163794
O O11 0.785620 0.820145 0.624541
O O12 0.618459 0.263659 0.036677
O O13 0.759265 0.643247 0.710166
O O14 0.712238 0.522145 0.947300
O O15 0.500000 0.000000 0.000000
O O16 0.000000 0.000000 0.500000
#
# Coordination Sequence:
#
# PCOD9074303 Si02
#       8
#     2   2   2   2   1   2   2   2
#     4  11  26  44  74 108 137 187 236 289 361 414
#     4  10  25  43  69 103 133 181 233 291 344 427
#     4  12  27  44  71 107 140 188 234 290 355 423
#     4  10  24  43  71 100 139 183 225 288 359 416
#     4  10  22  46  70 102 144 174 230 298 346 424
#     4  11  24  46  69  97 136 188 237 286 349 405
#     4  11  26  45  69 100 144 184 232 287 355 422
#     4  12  26  48  70  99 148 189 234 296 347 416
#
# _framework density 23.800464000000002
#
# number of rings (size 3 to 8) (size 9 to 14) (size 15 to 20)
#    0.000    1.067    4.000    0.400    7.467    3.733 
#    0.000    0.000    0.000    0.000    0.000    0.000 
#    0.000    0.000    0.000    0.000    0.000    0.000 
#
# Total GULP energy -83539.010816 kJ/mol
# GULP energy per Si atom -5569.267388 kJ/mol
# Density = 2.374629 g / cm^3
# Si number density = 23.800464 Si / 1000 Ang^3
#
#
#
# Elastic Constant Matrix: (Units=GPa)
#
#
# Indices 1 2 3 4 5 6 
#
# 1 145.0798 60.2329 31.5084 8.6531 8.2844 -8.8123
# 2 60.2329 118.7813 36.9169 3.3609 -13.9561 8.9535
# 3 31.5084 36.9169 28.7478 18.3313 11.7582 9.6568
# 4 8.6531 3.3609 18.3313 28.4216 3.4002 -10.2736
# 5 8.2844 -13.9561 11.7582 3.4002 33.4760 4.0303
# 6 -8.8123 8.9535 9.6568 -10.2736 4.0303 38.1730
#
#
#
# Elastic Compliance Matrix: (Units=1/GPa)
#
#
# Indices 1 2 3 4 5 6 
#
# 1 0.008575 -0.011703 0.020998 -0.014406 -0.012535 -0.003141
# 2 -0.011703 -0.010285 0.085701 -0.061076 -0.020932 -0.036197
# 3 0.020998 0.085701 -0.316394 0.215093 0.106399 0.111441
# 4 -0.014406 -0.061076 0.215093 -0.105402 -0.079105 -0.063429
# 5 -0.012535 -0.020932 0.106399 -0.079105 0.000478 -0.046241
# 6 -0.003141 -0.036197 0.111441 -0.063429 -0.046241 -0.006419
#
#
# Mechanical properties :
#
#
# Convention : Reuss Voigt Hill
#
# Bulk Modulus (GPa) = -7.80575 61.10281 26.64853
# Shear Modulus (GPa) = -7.55124 30.94416 11.69646
#
# Velocity S-wave (km/s) = -1.78315 3.60967 2.21925
# Velocity P-wave (km/s) = 2.74341 6.56518 4.21754
#
# Compressibility (1/GPa) = -0.12811063
#
# Stress axis : x y z
#
# Youngs Moduli (GPa) = 116.61261 -97.22688 -3.16062
#
# Poissons Ratio (x) = -1.13785 0.06637
# Poissons Ratio (y) = 1.36472 0.27087
# Poissons Ratio (z) = -2.44863 8.33248
#
# Static dielectric constant tensor:
#      x y z
#    x 1.809170 -0.099180 0.004560 
#    y -0.099180 1.856830 0.056980 
#    z 0.004560 0.056980 2.042710 
# 
# From -- ./inp_files/71806.got.cif
#   From: 2010.05.17/outbox.ucp.g08.bks.cvg/sg2_36_cif.got.tgz:71806.got - 2010.06.11 11:32:03.
