data_PCOD9074940
_publ_section_title
;
Structure prediction by ZEFSAII (Michael W. Deem and Ramdas Pophale) SiO2 
 PCOD9074940
Probable space group: P -1
;
_chemical_formula_sum "Si O2"
_cell_formula_units_Z 10
_cell_length_a 9.000000
_cell_length_b 9.000000
_cell_length_c 15.000000
_cell_angle_alpha 120.000000
_cell_angle_beta 30.000000
_cell_angle_gamma 100.000000
_cell_volume 421.291581
_symmetry_space_group_name_H-M "P -1"
_symmetry_group_IT_number 2
_symmetry_cell_setting 'triclinic'
loop_
_space_group_symop_operation_xyz
x,y,z
-x,-y,-z
loop_
_atom_site_type_symbol
_atom_site_label
_atom_site_fract_x
_atom_site_fract_y
_atom_site_fract_z
Si Si1 0.155292 0.428030 0.110783
Si Si2 0.998465 0.615671 0.428669
Si Si3 0.732112 0.016133 0.805267
Si Si4 0.189762 0.757551 0.861252
Si Si5 0.803568 0.289245 0.959729
O O1 0.082289 0.599307 0.274792
O O2 0.871229 0.376012 0.215326
O O3 0.478438 0.204802 0.921948
O O4 0.194386 0.526630 0.031635
O O5 0.620546 0.640451 0.622371
O O6 0.358963 0.400219 0.218061
O O7 0.938231 0.805441 0.574606
O O8 0.974201 0.075529 0.748676
O O9 0.500000 0.000000 0.000000
O O10 0.035923 0.766675 0.041975
O O11 0.000000 0.000000 0.000000
#
# Coordination Sequence:
#
# PCOD9074940 Si02
#       5
#     2   2   2   2   2
#     4  11  25  42  66  99 134 164 214 274 323 375
#     4  11  23  43  72  92 126 177 218 257 321 387
#     4  11  21  41  67  97 128 166 223 260 311 386
#     4  12  23  46  66  94 133 173 214 265 320 387
#     4  11  25  43  68  98 130 168 217 269 320 379
#
# _framework density 23.736529000000001
#
# number of rings (size 3 to 8) (size 9 to 14) (size 15 to 20)
#    0.000    0.800    4.000    4.200    2.800    3.200 
#    3.600    1.000    0.000    0.000    0.000    0.000 
#    0.000    0.000    0.000    0.000    0.000    0.000 
#
# Total GULP energy -55768.372980 kJ/mol
# GULP energy per Si atom -5576.837298 kJ/mol
# Density = 2.368250 g / cm^3
# Si number density = 23.736529 Si / 1000 Ang^3
#
#
#
# Elastic Constant Matrix: (Units=GPa)
#
#
# Indices 1 2 3 4 5 6 
#
# 1 139.4704 49.4305 34.1067 13.7064 31.9736 -3.7982
# 2 49.4305 155.5147 37.4578 10.9553 20.0271 -16.4780
# 3 34.1067 37.4578 44.8578 9.4151 26.0546 14.7285
# 4 13.7064 10.9553 9.4151 16.8002 17.7277 11.2340
# 5 31.9736 20.0271 26.0546 17.7277 29.8806 2.3723
# 6 -3.7982 -16.4780 14.7285 11.2340 2.3723 60.0148
#
#
#
# Elastic Compliance Matrix: (Units=1/GPa)
#
#
# Indices 1 2 3 4 5 6 
#
# 1 0.003995 0.022301 -0.114679 -0.205648 0.197605 0.065203
# 2 0.022301 -0.083869 0.429737 0.804465 -0.800106 -0.246038
# 3 -0.114679 0.429737 -2.014295 -3.795934 3.750455 1.167368
# 4 -0.205648 0.804465 -3.795934 -6.927418 6.929027 2.162265
# 5 0.197605 -0.800106 3.750455 6.929027 -6.851848 -2.153768
# 6 0.065203 -0.246038 1.167368 2.162265 -2.153768 -0.652865
#
#
# Mechanical properties :
#
#
# Convention : Reuss Voigt Hill
#
# Bulk Modulus (GPa) = -0.70450 64.64810 31.97180
# Shear Modulus (GPa) = -0.28290 35.92898 17.82304
#
# Velocity S-wave (km/s) = -0.34560 3.89480 2.74317
# Velocity P-wave (km/s) = 0.67579 6.89353 4.85098
#
# Compressibility (1/GPa) = -1.41945189
#
# Stress axis : x y z
#
# Youngs Moduli (GPa) = 250.30337 -11.92331 -0.49645
#
# Poissons Ratio (x) = 0.26590 -0.05693
# Poissons Ratio (y) = -5.58189 0.21334
# Poissons Ratio (z) = 28.70466 5.12389
#
# Static dielectric constant tensor:
#      x y z
#    x 1.877290 -0.002920 0.090050 
#    y -0.002920 1.929700 -0.110410 
#    z 0.090050 -0.110410 2.072960 
# 
# From -- ./inp_files/143692.got.cif
#   From: 2010.05.17/outbox.ucp.g08.bks.cvg/sg2_72_cif.got.tgz:143692.got - 2010.06.11 11:32:03.
