data_PCOD9074220
_publ_section_title
;
Structure prediction by ZEFSAII (Michael W. Deem and Ramdas Pophale) SiO2 
 PCOD9074220
Probable space group: P -1
;
_chemical_formula_sum "Si O2"
_cell_formula_units_Z 16
_cell_length_a 24.000000
_cell_length_b 9.000000
_cell_length_c 9.000000
_cell_angle_alpha 50.000000
_cell_angle_beta 150.000000
_cell_angle_gamma 120.000000
_cell_volume 736.400153
_symmetry_space_group_name_H-M "P -1"
_symmetry_group_IT_number 2
_symmetry_cell_setting 'triclinic'
loop_
_space_group_symop_operation_xyz
x,y,z
-x,-y,-z
loop_
_atom_site_type_symbol
_atom_site_label
_atom_site_fract_x
_atom_site_fract_y
_atom_site_fract_z
Si Si1 0.220362 0.222010 0.081813
Si Si2 0.341371 0.974413 0.268846
Si Si3 0.669676 0.115100 0.241363
Si Si4 0.687897 0.384341 0.383481
Si Si5 0.934529 0.360276 0.833231
Si Si6 0.006417 0.924855 0.393265
Si Si7 0.604129 0.834576 0.013536
Si Si8 0.836572 0.341552 0.299540
O O1 0.303729 0.155385 0.178999
O O2 0.249292 0.047581 0.376816
O O3 0.094912 0.202249 0.758845
O O4 0.221103 0.436554 0.011921
O O5 0.286683 0.789104 0.322562
O O6 0.472762 0.885402 0.637593
O O7 0.322733 0.062707 0.004621
O O8 0.624755 0.276621 0.168503
O O9 0.739946 0.231770 0.217974
O O10 0.608124 0.964826 0.092365
O O11 0.806095 0.407359 0.565577
O O12 0.637089 0.595143 0.209502
O O13 0.922468 0.369946 0.618193
O O14 0.000000 0.500000 0.000000
O O15 0.983581 0.132586 0.121125
O O16 0.104723 0.784200 0.621666
O O17 0.000000 0.000000 0.500000
#
# Coordination Sequence:
#
# PCOD9074220 Si02
#       8
#     2   2   2   2   2   2   2   2
#     4  11  23  45  63  91 132 168 213 274 324 383
#     4  10  22  44  66  98 134 161 225 272 320 401
#     4  10  24  42  66  96 130 170 220 268 327 391
#     4  10  22  44  64  94 138 167 220 270 325 390
#     4  11  23  41  66  96 131 178 216 271 332 387
#     4  12  25  40  63  96 129 170 221 267 323 395
#     4  11  24  40  72  97 125 181 213 272 338 383
#     4  11  24  43  64  92 132 170 218 274 322 394
#
# _framework density 21.727318
#
# number of rings (size 3 to 8) (size 9 to 14) (size 15 to 20)
#    0.000    1.250    3.750    3.375    3.500    4.000 
#    0.000    5.625    0.000    0.000    0.000    0.000 
#    0.000    0.000    0.000    0.000    0.000    0.000 
#
# Total GULP energy -89087.220534 kJ/mol
# GULP energy per Si atom -5567.951283 kJ/mol
# Density = 2.167787 g / cm^3
# Si number density = 21.727318 Si / 1000 Ang^3
#
#
#
# Elastic Constant Matrix: (Units=GPa)
#
#
# Indices 1 2 3 4 5 6 
#
# 1 42.6612 13.2073 -19.3210 1.1464 7.9099 9.1143
# 2 13.2073 145.3761 25.9381 -22.2902 -5.4827 -19.7114
# 3 -19.3210 25.9381 9.9719 -9.6846 8.5883 13.4512
# 4 1.1464 -22.2902 -9.6846 36.5829 -10.3486 -8.3229
# 5 7.9099 -5.4827 8.5883 -10.3486 28.9649 -7.6385
# 6 9.1143 -19.7114 13.4512 -8.3229 -7.6385 18.9211
#
#
#
# Elastic Compliance Matrix: (Units=1/GPa)
#
#
# Indices 1 2 3 4 5 6 
#
# 1 0.010597 0.004648 -0.014567 0.004309 0.007841 0.015154
# 2 0.004648 0.004412 0.009835 0.003100 -0.003475 -0.004673
# 3 -0.014567 0.009835 0.001123 0.020847 0.022064 0.034542
# 4 0.004309 0.003100 0.020847 0.038703 0.008889 0.006947
# 5 0.007841 -0.003475 0.022064 0.008889 0.026079 -0.008645
# 6 0.015154 -0.004673 0.034542 0.006947 -0.008645 0.015692
#
#
# Mechanical properties :
#
#
# Convention : Reuss Voigt Hill
#
# Bulk Modulus (GPa) = 62.64487 26.40644 44.52565
# Shear Modulus (GPa) = 48.97346 28.77277 38.87311
#
# Velocity S-wave (km/s) = 4.75279 3.64300 4.23441
# Velocity P-wave (km/s) = 7.68203 5.46582 6.66666
#
# Compressibility (1/GPa) = 0.01596300
#
# Stress axis : x y z
#
# Youngs Moduli (GPa) = 94.36729 226.63507 890.75828
#
# Poissons Ratio (x) = -1.05332 12.97596
# Poissons Ratio (y) = -0.43859 -8.76080
# Poissons Ratio (z) = 1.37468 -2.22901
#
# Static dielectric constant tensor:
#      x y z
#    x 1.844380 -0.005540 -0.047550 
#    y -0.005540 1.862270 0.048670 
#    z -0.047550 0.048670 1.844320 
# 
# From -- ./inp_files/352067.got.cif
#   From: 2010.05.17/outbox.ucp.g08.bks.cvg/sg2_177_cif.got.tgz:352067.got - 2010.06.11 11:32:03.
