data_PCOD9074992
_publ_section_title
;
Structure prediction by ZEFSAII (Michael W. Deem and Ramdas Pophale) SiO2 
 PCOD9074992
Probable space group: P -1
;
_chemical_formula_sum "Si O2"
_cell_formula_units_Z 12
_cell_length_a 14.609909
_cell_length_b 12.360014
_cell_length_c 5.541247
_cell_angle_alpha 77.772450
_cell_angle_beta 105.487886
_cell_angle_gamma 152.925827
_cell_volume 438.122274
_symmetry_space_group_name_H-M "P -1"
_symmetry_group_IT_number 2
_symmetry_cell_setting 'triclinic'
loop_
_space_group_symop_operation_xyz
x,y,z
-x,-y,-z
loop_
_atom_site_type_symbol
_atom_site_label
_atom_site_fract_x
_atom_site_fract_y
_atom_site_fract_z
Si Si1 0.745554 0.758228 0.021029
Si Si2 0.638103 0.303681 0.600229
Si Si3 0.311834 0.702256 0.859154
Si Si4 0.302692 0.375793 0.448079
Si Si5 0.118088 0.740843 0.726684
Si Si6 0.889362 0.153288 0.826986
O O1 0.814424 0.785052 0.318469
O O2 0.500000 0.500000 0.000000
O O3 0.800204 0.743026 0.830559
O O4 0.809371 0.947954 0.910973
O O5 0.558388 0.178676 0.347657
O O6 0.639648 0.437566 0.553731
O O7 0.871941 0.500176 0.667299
O O8 0.562128 0.178823 0.861022
O O9 0.180035 0.677872 0.774776
O O10 0.136821 0.425499 0.863758
O O11 0.500000 0.500000 0.500000
O O12 0.186097 0.879049 0.470924
O O13 0.175652 0.849200 0.975666
#
# Coordination Sequence:
#
# PCOD9074992 Si02
#       6
#     2   2   2   2   2   2
#     4  10  21  37  54  75 102 144 188 223 258 305
#     4  10  18  32  53  79 109 142 173 215 266 318
#     4  10  19  33  53  84 113 138 169 214 269 327
#     4  10  21  37  54  75 102 144 188 223 258 305
#     4  10  19  33  53  84 113 138 169 214 269 327
#     4  10  18  32  53  79 109 142 173 215 266 318
#
# _framework density 27.389612
#
# number of rings (size 3 to 8) (size 9 to 14) (size 15 to 20)
#    0.000    2.000    0.000    7.000    0.000    0.000 
#    0.000   20.000    0.000    0.000    0.000  158.667 
#    0.000    0.000    0.000    0.000    0.000    0.000 
#
# Total GULP energy -67312.486745 kJ/mol
# GULP energy per Si atom -5609.373895 kJ/mol
# Density = 2.732727 g / cm^3
# Si number density = 27.389612 Si / 1000 Ang^3
#
#
#
# Elastic Constant Matrix: (Units=GPa)
#
#
# Indices 1 2 3 4 5 6 
#
# 1 125.6313 33.4309 67.4295 -1.8342 -11.3042 -17.0023
# 2 33.4309 110.3809 35.2707 -17.6661 10.0613 -0.2353
# 3 67.4295 35.2707 304.5346 -3.6576 -33.1544 -17.6873
# 4 -1.8342 -17.6661 -3.6576 53.8801 -8.9764 -1.4328
# 5 -11.3042 10.0613 -33.1544 -8.9764 66.8469 -7.2258
# 6 -17.0023 -0.2353 -17.6873 -1.4328 -7.2258 50.9433
#
#
#
# Elastic Compliance Matrix: (Units=1/GPa)
#
#
# Indices 1 2 3 4 5 6 
#
# 1 0.010082 -0.002745 -0.001565 -0.000311 0.001628 0.003031
# 2 -0.002745 0.010883 -0.000954 0.002983 -0.002331 -0.001444
# 3 -0.001565 -0.000954 0.004035 0.000279 0.002044 0.001172
# 4 -0.000311 0.002983 0.000279 0.019973 0.002418 0.000912
# 5 0.001628 -0.002331 0.002044 0.002418 0.017332 0.003769
# 6 0.003031 -0.001444 0.001172 0.000912 0.003769 0.021602
#
#
# Mechanical properties :
#
#
# Convention : Reuss Voigt Hill
#
# Bulk Modulus (GPa) = 69.10540 90.31210 79.70875
# Shear Modulus (GPa) = 50.37299 61.29509 55.83404
#
# Velocity S-wave (km/s) = 4.29316 4.73577 4.51989
# Velocity P-wave (km/s) = 7.06118 7.93398 7.51027
#
# Compressibility (1/GPa) = 0.01447065
#
# Stress axis : x y z
#
# Youngs Moduli (GPa) = 99.18235 91.88777 247.84796
#
# Poissons Ratio (x) = 0.25226 0.38787
# Poissons Ratio (y) = 0.27229 0.23654
# Poissons Ratio (z) = 0.15521 0.08770
#
# Static dielectric constant tensor:
#      x y z
#    x 1.987750 -0.037820 -0.096410 
#    y -0.037820 2.012090 -0.067440 
#    z -0.096410 -0.067440 2.111080 
# 
# From -- ./inp_files/20182.got.cif
#   From: 2010.05.17/outbox.cif.g08.bks.cpg/sg2_11_cif.got.tgz:20182.got - 2010.06.03 11:33:40.
