data_PCOD9074725
_publ_section_title
;
Structure prediction by ZEFSAII (Michael W. Deem and Ramdas Pophale) SiO2 
 PCOD9074725
Probable space group: P -1
;
_chemical_formula_sum "Si O2"
_cell_formula_units_Z 16
_cell_length_a 12.000000
_cell_length_b 21.000000
_cell_length_c 18.000000
_cell_angle_alpha 160.000000
_cell_angle_beta 30.000000
_cell_angle_gamma 150.000000
_cell_volume 738.640068
_symmetry_space_group_name_H-M "P -1"
_symmetry_group_IT_number 2
_symmetry_cell_setting 'triclinic'
loop_
_space_group_symop_operation_xyz
x,y,z
-x,-y,-z
loop_
_atom_site_type_symbol
_atom_site_label
_atom_site_fract_x
_atom_site_fract_y
_atom_site_fract_z
Si Si1 0.375186 0.513363 0.165325
Si Si2 0.541906 0.863137 0.218340
Si Si3 0.020552 0.799049 0.490991
Si Si4 0.831839 0.051237 0.756203
Si Si5 0.668613 0.756113 0.395861
Si Si6 0.327836 0.598894 0.752202
Si Si7 0.541236 0.652577 0.847819
Si Si8 0.969196 0.253401 0.403632
O O1 0.511883 0.686238 0.334129
O O2 0.135956 0.563240 0.338392
O O3 0.500000 0.500000 0.000000
O O4 0.368203 0.308495 0.984758
O O5 0.303677 0.873136 0.405585
O O6 0.750200 0.061419 0.309607
O O7 0.474737 0.798635 0.102172
O O8 0.947365 0.789828 0.609742
O O9 0.918513 0.570179 0.279270
O O10 0.909763 0.918369 0.627943
O O11 0.068403 0.178540 0.716994
O O12 0.676090 0.920777 0.636006
O O13 0.718997 0.201474 0.027787
O O14 0.577021 0.559402 0.281280
O O15 0.500000 0.500000 0.500000
O O16 0.437726 0.654211 0.829303
O O17 0.821465 0.709245 0.735508
#
# Coordination Sequence:
#
# PCOD9074725 Si02
#       8
#     2   2   2   2   2   2   2   2
#     4  11  24  44  70 104 144 186 236 295 349 414
#     4  11  26  44  72 105 141 189 240 294 352 425
#     4  12  25  46  73 108 141 184 241 298 352 424
#     4  11  26  44  76 105 140 188 240 294 353 431
#     4  10  24  46  71 110 139 187 236 295 357 424
#     4  12  26  47  70 105 148 188 233 296 365 420
#     4  11  25  48  68 104 148 185 234 299 358 425
#     4  12  26  46  72 103 145 190 241 289 356 427
#
# _framework density 21.661429999999999
#
# number of rings (size 3 to 8) (size 9 to 14) (size 15 to 20)
#    0.000    0.750    3.750    3.000    7.000    3.500 
#    2.250    0.000    0.000    0.000    0.000    0.000 
#    0.000    0.000    0.000    0.000    0.000    0.000 
#
# Total GULP energy -89307.045744 kJ/mol
# GULP energy per Si atom -5581.690359 kJ/mol
# Density = 2.161213 g / cm^3
# Si number density = 21.661430 Si / 1000 Ang^3
#
#
#
# Elastic Constant Matrix: (Units=GPa)
#
#
# Indices 1 2 3 4 5 6 
#
# 1 94.9087 13.1464 21.2808 21.8916 2.0634 -19.7612
# 2 13.1464 58.2122 -5.6311 24.3567 -2.0842 -1.7004
# 3 21.2808 -5.6311 75.6199 26.8754 0.8266 -13.5335
# 4 21.8916 24.3567 26.8754 30.1908 -8.1438 8.8836
# 5 2.0634 -2.0842 0.8266 -8.1438 22.1495 1.9730
# 6 -19.7612 -1.7004 -13.5335 8.8836 1.9730 32.2624
#
#
#
# Elastic Compliance Matrix: (Units=1/GPa)
#
#
# Indices 1 2 3 4 5 6 
#
# 1 0.004954 -0.018610 -0.019266 0.037330 0.013759 -0.017149
# 2 -0.018610 -0.011794 -0.029844 0.071920 0.032307 -0.046319
# 3 -0.019266 -0.029844 -0.019233 0.076901 0.031949 -0.044571
# 4 0.037330 0.071920 0.076901 -0.172756 -0.072981 0.110947
# 5 0.013759 0.032307 0.031949 -0.072981 0.015076 0.042706
# 6 -0.017149 -0.046319 -0.044571 0.110947 0.042706 -0.033808
#
#
# Mechanical properties :
#
#
# Convention : Reuss Voigt Hill
#
# Bulk Modulus (GPa) = -6.19142 31.81479 12.81169
# Shear Modulus (GPa) = -36.77616 30.25018 -3.26299
#
# Velocity S-wave (km/s) = -4.12487 3.74103 -1.22867
# Velocity P-wave (km/s) = 5.05476 5.77751 1.97851
#
# Compressibility (1/GPa) = -0.16151382
#
# Stress axis : x y z
#
# Youngs Moduli (GPa) = 201.85360 -84.79004 -51.99341
#
# Poissons Ratio (x) = -1.57795 -1.00173
# Poissons Ratio (y) = 3.75650 -1.55169
# Poissons Ratio (z) = 3.88900 -2.53047
#
# Static dielectric constant tensor:
#      x y z
#    x 1.853010 0.044380 0.002770 
#    y 0.044380 1.780010 0.026440 
#    z 0.002770 0.026440 1.851630 
# 
# From -- ./inp_files/570777.got.cif
#   From: 2010.05.17/outbox.ucp.g08.bks.cvg/sg2_286_cif.got.tgz:570777.got - 2010.06.11 11:32:03.
