data_PCOD9074624
_publ_section_title
;
Structure prediction by ZEFSAII (Michael W. Deem and Ramdas Pophale) SiO2 
 PCOD9074624
Probable space group: P -1
;
_chemical_formula_sum "Si O2"
_cell_formula_units_Z 13
_cell_length_a 12.000000
_cell_length_b 9.000000
_cell_length_c 6.000000
_cell_angle_alpha 70.000000
_cell_angle_beta 90.000000
_cell_angle_gamma 70.000000
_cell_volume 567.155293
_symmetry_space_group_name_H-M "P -1"
_symmetry_group_IT_number 2
_symmetry_cell_setting 'triclinic'
loop_
_space_group_symop_operation_xyz
x,y,z
-x,-y,-z
loop_
_atom_site_type_symbol
_atom_site_label
_atom_site_fract_x
_atom_site_fract_y
_atom_site_fract_z
Si Si1 0.308311 0.148661 0.894670
Si Si2 0.475573 0.878391 0.377746
Si Si3 0.000000 0.000000 0.000000
Si Si4 0.310023 0.702505 0.619993
Si Si5 0.869456 0.625102 0.871548
Si Si6 0.233722 0.639522 0.154689
Si Si7 0.143434 0.060067 0.584346
O O1 0.408376 0.196827 0.739949
O O2 0.241122 0.076091 0.751833
O O3 0.212072 0.300919 0.950057
O O4 0.373881 0.001453 0.149698
O O5 0.430853 0.743759 0.567804
O O6 0.500000 0.000000 0.500000
O O7 0.968195 0.929507 0.271254
O O8 0.120201 0.818562 0.055009
O O9 0.293537 0.631283 0.407563
O O10 0.203579 0.886454 0.541278
O O11 0.301762 0.631261 0.911948
O O12 0.809219 0.519983 0.778431
O O13 0.882402 0.784645 0.664251
O O14 0.000000 0.500000 0.000000
#
# Coordination Sequence:
#
# PCOD9074624 Si02
#       7
#     2   2   1   2   2   2   2
#     4  11  23  42  72 109 141 188 250 305 367 440
#     4  11  21  41  78 109 137 187 251 313 361 444
#     4  10  24  42  70 100 134 198 240 312 350 438
#     4  11  24  46  71 109 143 192 243 317 360 446
#     4  12  28  46  72 107 149 204 241 307 367 457
#     4  11  28  44  70 105 155 189 250 299 384 430
#     4  11  24  45  74 104 147 186 261 295 378 436
#
# _framework density 22.921412
#
# number of rings (size 3 to 8) (size 9 to 14) (size 15 to 20)
#    0.000    0.923    3.077    2.769    8.615    2.462 
#    0.000    1.538    0.000    0.000    0.000    0.000 
#    0.000    0.000    0.000    0.000    0.000    0.000 
#
# Total GULP energy -72473.340048 kJ/mol
# GULP energy per Si atom -5574.872311 kJ/mol
# Density = 2.286924 g / cm^3
# Si number density = 22.921412 Si / 1000 Ang^3
#
#
#
# Elastic Constant Matrix: (Units=GPa)
#
#
# Indices 1 2 3 4 5 6 
#
# 1 80.5828 37.2426 33.3289 33.3820 -24.5724 -15.5412
# 2 37.2426 55.1266 21.5277 21.1798 -10.0079 -6.4017
# 3 33.3289 21.5277 123.7679 30.2872 -23.1012 -12.6466
# 4 33.3820 21.1798 30.2872 42.2288 -2.4762 0.6974
# 5 -24.5724 -10.0079 -23.1012 -2.4762 66.0259 12.2784
# 6 -15.5412 -6.4017 -12.6466 0.6974 12.2784 39.7865
#
#
#
# Elastic Compliance Matrix: (Units=1/GPa)
#
#
# Indices 1 2 3 4 5 6 
#
# 1 0.027221 -0.010158 0.000490 -0.016499 0.006776 0.007352
# 2 -0.010158 0.027273 -0.000752 -0.005124 -0.000162 0.000321
# 3 0.000490 -0.000752 0.010786 -0.007612 0.003057 0.002689
# 4 -0.016499 -0.005124 -0.007612 0.044522 -0.006327 -0.008517
# 5 0.006776 -0.000162 0.003057 -0.006327 0.018869 -0.002120
# 6 0.007352 0.000321 0.002689 -0.008517 -0.002120 0.029716
#
#
# Mechanical properties :
#
#
# Convention : Reuss Voigt Hill
#
# Bulk Modulus (GPa) = 22.50203 49.29731 35.89967
# Shear Modulus (GPa) = 25.76777 40.76678 33.26727
#
# Velocity S-wave (km/s) = 3.35652 4.22186 3.81381
# Velocity P-wave (km/s) = 4.98597 6.73195 5.92365
#
# Compressibility (1/GPa) = 0.04444043
#
# Stress axis : x y z
#
# Youngs Moduli (GPa) = 36.73672 36.66610 92.70917
#
# Poissons Ratio (x) = 0.37247 -0.04545
# Poissons Ratio (y) = 0.37319 0.06969
# Poissons Ratio (z) = -0.01801 0.02756
#
# Static dielectric constant tensor:
#      x y z
#    x 1.915360 0.027470 0.000650 
#    y 0.027470 1.844880 -0.002850 
#    z 0.000650 -0.002850 1.862710 
# 
# From -- ./inp_files/24289.got.cif
#   From: 2010.05.17/outbox.ucp.g08.bks.cvg/sg2_13_cif.got.tgz:24289.got - 2010.06.11 11:32:03.
