data_PCOD9074038
_publ_section_title
;
Structure prediction by ZEFSAII (Michael W. Deem and Ramdas Pophale) SiO2 
 PCOD9074038
Probable space group: P -1
;
_chemical_formula_sum "Si O2"
_cell_formula_units_Z 16
_cell_length_a 9.000000
_cell_length_b 18.000000
_cell_length_c 21.000000
_cell_angle_alpha 20.000000
_cell_angle_beta 50.000000
_cell_angle_gamma 60.000000
_cell_volume 818.070593
_symmetry_space_group_name_H-M "P -1"
_symmetry_group_IT_number 2
_symmetry_cell_setting 'triclinic'
loop_
_space_group_symop_operation_xyz
x,y,z
-x,-y,-z
loop_
_atom_site_type_symbol
_atom_site_label
_atom_site_fract_x
_atom_site_fract_y
_atom_site_fract_z
Si Si1 0.425686 0.070468 0.396372
Si Si2 0.682891 0.396293 0.255259
Si Si3 0.423078 0.929336 0.181886
Si Si4 0.768160 0.207446 0.076543
Si Si5 0.533973 0.742620 0.435621
Si Si6 0.069836 0.123666 0.154729
Si Si7 0.748196 0.363564 0.664930
Si Si8 0.706324 0.661894 0.685577
O O1 0.606671 0.159658 0.220299
O O2 0.346049 0.264656 0.288668
O O3 0.500000 0.000000 0.500000
O O4 0.267778 0.822110 0.609205
O O5 0.621270 0.352877 0.382544
O O6 0.488299 0.396458 0.264218
O O7 0.866074 0.654808 0.993683
O O8 0.455598 0.799000 0.342523
O O9 0.311276 0.747544 0.300753
O O10 0.270092 0.061913 0.135090
O O11 0.634597 0.138386 0.925594
O O12 0.977198 0.198514 0.057183
O O13 0.686202 0.997116 0.217216
O O14 0.777346 0.445846 0.849160
O O15 0.643580 0.556223 0.547048
O O16 0.891190 0.890923 0.420975
O O17 0.000000 0.500000 0.500000
#
# Coordination Sequence:
#
# PCOD9074038 Si02
#       8
#     2   2   2   2   2   2   2   2
#     4   9  18  42  62  88 132 172 211 270 316 366
#     4  10  22  41  65  91 133 167 213 266 313 375
#     4  11  26  42  68  97 131 165 208 262 317 383
#     4  11  23  38  69  93 127 177 216 259 320 375
#     4  11  22  45  67  94 132 169 206 260 320 375
#     4  12  23  41  64  97 126 167 215 266 312 379
#     4  11  25  46  68  95 131 165 207 261 318 380
#     4  11  23  42  64  91 129 175 215 263 323 371
#
# _framework density 19.558214
#
# number of rings (size 3 to 8) (size 9 to 14) (size 15 to 20)
#    0.000    1.250    5.000    2.250    1.750    1.000 
#    0.000    0.625    0.000    0.000    0.000    0.000 
#    0.000    0.000    0.000    0.000    0.000    0.000 
#
# Total GULP energy -89269.985758 kJ/mol
# GULP energy per Si atom -5579.374110 kJ/mol
# Density = 1.951370 g / cm^3
# Si number density = 19.558214 Si / 1000 Ang^3
#
#
#
# Elastic Constant Matrix: (Units=GPa)
#
#
# Indices 1 2 3 4 5 6 
#
# 1 106.4681 29.8226 53.4259 -2.7590 9.2490 18.2995
# 2 29.8226 76.9198 9.4132 -18.9708 4.2457 21.1029
# 3 53.4259 9.4132 110.0411 -22.5495 1.6854 12.5383
# 4 -2.7590 -18.9708 -22.5495 39.0363 1.7813 4.1582
# 5 9.2490 4.2457 1.6854 1.7813 41.6470 -4.7814
# 6 18.2995 21.1029 12.5383 4.1582 -4.7814 35.4058
#
#
#
# Elastic Compliance Matrix: (Units=1/GPa)
#
#
# Indices 1 2 3 4 5 6 
#
# 1 0.015383 -0.006148 -0.008101 -0.006371 -0.002302 -0.000980
# 2 -0.006148 0.022879 0.006055 0.015940 -0.003612 -0.014963
# 3 -0.008101 0.006055 0.015759 0.012202 -0.000728 -0.006534
# 4 -0.006371 0.015940 0.012202 0.041868 -0.004335 -0.016032
# 5 -0.002302 -0.003612 -0.000728 -0.004335 0.025980 0.007618
# 6 -0.000980 -0.014963 -0.006534 -0.016032 0.007618 0.042894
#
#
# Mechanical properties :
#
#
# Convention : Reuss Voigt Hill
#
# Bulk Modulus (GPa) = 26.57359 53.19471 39.88415
# Shear Modulus (GPa) = 25.81345 36.60231 31.20788
#
# Velocity S-wave (km/s) = 3.63688 4.33072 3.99888
# Velocity P-wave (km/s) = 5.59038 7.22939 6.46206
#
# Compressibility (1/GPa) = 0.03763135
#
# Stress axis : x y z
#
# Youngs Moduli (GPa) = 65.00584 43.70779 63.45597
#
# Poissons Ratio (x) = 0.26873 0.51408
# Poissons Ratio (y) = 0.39967 -0.38420
# Poissons Ratio (z) = 0.52664 -0.26463
#
# Static dielectric constant tensor:
#      x y z
#    x 1.676880 -0.013450 -0.019270 
#    y -0.013450 1.704070 0.002030 
#    z -0.019270 0.002030 1.724390 
# 
# From -- ./inp_files/337808.got.cif
#   From: 2010.05.17/outbox.ucp.g08.bks.cvg/sg2_169_cif.got.tgz:337808.got - 2010.06.11 11:32:03.
