data_PCOD9074244
_publ_section_title
;
Structure prediction by ZEFSAII (Michael W. Deem and Ramdas Pophale) SiO2 
 PCOD9074244
Probable space group: P -1
;
_chemical_formula_sum "Si O2"
_cell_formula_units_Z 16
_cell_length_a 5.645109
_cell_length_b 28.370916
_cell_length_c 18.443899
_cell_angle_alpha 165.069667
_cell_angle_beta 92.929901
_cell_angle_gamma 95.820938
_cell_volume 615.833628
_symmetry_space_group_name_H-M "P -1"
_symmetry_group_IT_number 2
_symmetry_cell_setting 'triclinic'
loop_
_space_group_symop_operation_xyz
x,y,z
-x,-y,-z
loop_
_atom_site_type_symbol
_atom_site_label
_atom_site_fract_x
_atom_site_fract_y
_atom_site_fract_z
Si Si1 0.191266 0.765897 0.871699
Si Si2 0.140783 0.357942 0.785548
Si Si3 0.302083 0.242724 0.084355
Si Si4 0.840963 0.307819 0.399300
Si Si5 0.376787 0.491656 0.223591
Si Si6 0.826958 0.239655 0.749400
Si Si7 0.883159 0.684275 0.430963
Si Si8 0.455614 0.751429 0.047918
O O1 0.512983 0.853168 0.031891
O O2 0.000000 0.500000 0.500000
O O3 0.024042 0.856292 0.042441
O O4 0.216271 0.822249 0.869742
O O5 0.015576 0.207206 0.485444
O O6 0.009385 0.232481 0.674746
O O7 0.500000 0.500000 0.000000
O O8 0.000000 0.500000 0.000000
O O9 0.500000 0.500000 0.500000
O O10 0.345924 0.263650 0.030340
O O11 0.925170 0.247792 0.389433
O O12 0.118615 0.551756 0.738643
O O13 0.593109 0.343553 0.468246
O O14 0.465505 0.325909 0.994959
O O15 0.045885 0.331309 0.956642
O O16 0.591997 0.657701 0.411003
O O17 0.541720 0.997831 0.405898
O O18 0.784339 0.436103 0.035096
#
# Coordination Sequence:
#
# PCOD9074244 Si02
#       8
#     2   2   2   2   2   2   2   2
#     4  10  18  32  50  71 100 134 172 210 255 298
#     4  10  19  38  57  72  99 137 182 222 250 294
#     4  10  19  33  50  71 101 138 172 210 251 303
#     4  10  20  31  50  75 107 136 173 213 257 313
#     4  10  19  32  48  73 107 143 171 203 256 311
#     4  10  21  34  50  75 104 143 172 214 261 301
#     4   9  20  34  51  74 101 137 178 217 252 302
#     4  11  21  31  48  76 110 139 172 209 259 320
#
# _framework density 25.981045000000002
#
# number of rings (size 3 to 8) (size 9 to 14) (size 15 to 20)
#    0.000    2.000    3.750    1.875    1.750    5.500 
#    0.000    0.000    0.000    0.000    0.000    1.750 
#    0.000    0.000    0.000    0.000    0.000    0.000 
#
# Total GULP energy -89129.897458 kJ/mol
# GULP energy per Si atom -5570.618591 kJ/mol
# Density = 2.592191 g / cm^3
# Si number density = 25.981045 Si / 1000 Ang^3
#
#
#
# Elastic Constant Matrix: (Units=GPa)
#
#
# Indices 1 2 3 4 5 6 
#
# 1 140.1117 34.2377 13.4821 -1.1260 -2.0736 23.6760
# 2 34.2377 161.6416 4.5872 -19.9885 -4.7702 32.9539
# 3 13.4821 4.5872 25.1286 13.5426 -1.4504 1.1614
# 4 -1.1260 -19.9885 13.5426 35.2629 4.4251 -3.8161
# 5 -2.0736 -4.7702 -1.4504 4.4251 25.1992 -8.8473
# 6 23.6760 32.9539 1.1614 -3.8161 -8.8473 49.7840
#
#
#
# Elastic Compliance Matrix: (Units=1/GPa)
#
#
# Indices 1 2 3 4 5 6 
#
# 1 0.008399 -0.000767 -0.005132 0.001585 -0.001245 -0.003466
# 2 -0.000767 0.008099 -0.004054 0.005793 -0.001435 -0.004712
# 3 -0.005132 -0.004054 0.057037 -0.024973 0.007613 0.003232
# 4 0.001585 0.005793 -0.024973 0.042092 -0.008400 -0.002272
# 5 -0.001245 -0.001435 0.007613 -0.008400 0.044236 0.008582
# 6 -0.003466 -0.004712 0.003232 -0.002272 0.008582 0.026130
#
#
# Mechanical properties :
#
#
# Convention : Reuss Voigt Hill
#
# Bulk Modulus (GPa) = 18.64688 47.94399 33.29544
# Shear Modulus (GPa) = 22.34384 40.35419 31.34901
#
# Velocity S-wave (km/s) = 2.93577 3.94536 3.47740
# Velocity P-wave (km/s) = 4.32254 6.26482 5.38202
#
# Compressibility (1/GPa) = 0.05362826
#
# Stress axis : x y z
#
# Youngs Moduli (GPa) = 119.06880 123.47394 17.53236
#
# Poissons Ratio (x) = 0.09475 0.08997
# Poissons Ratio (y) = 0.09137 0.07108
# Poissons Ratio (z) = 0.61105 0.50057
#
# Static dielectric constant tensor:
#      x y z
#    x 2.042090 -0.029230 -0.054670 
#    y -0.029230 2.127910 -0.054410 
#    z -0.054670 -0.054410 2.088250 
# 
# From -- ./inp_files/66794.got.cif
#   From: 2010.05.17/outbox.cif.g08.bks.cpg/sg2_34_cif.got.tgz:66794.got - 2010.06.03 11:33:40.
