data_PCOD9074537
_publ_section_title
;
Structure prediction by ZEFSAII (Michael W. Deem and Ramdas Pophale) SiO2 
 PCOD9074537
Probable space group: P -1
;
_chemical_formula_sum "Si O2"
_cell_formula_units_Z 14
_cell_length_a 12.000000
_cell_length_b 6.000000
_cell_length_c 24.000000
_cell_angle_alpha 70.000000
_cell_angle_beta 30.000000
_cell_angle_gamma 90.000000
_cell_volume 630.239816
_symmetry_space_group_name_H-M "P -1"
_symmetry_group_IT_number 2
_symmetry_cell_setting 'triclinic'
loop_
_space_group_symop_operation_xyz
x,y,z
-x,-y,-z
loop_
_atom_site_type_symbol
_atom_site_label
_atom_site_fract_x
_atom_site_fract_y
_atom_site_fract_z
Si Si1 0.184841 0.414112 0.695770
Si Si2 0.660715 0.231549 0.799248
Si Si3 0.670836 0.333901 0.501048
Si Si4 0.868414 0.436975 0.934743
Si Si5 0.656634 0.756413 0.959095
Si Si6 0.649382 0.768453 0.175002
Si Si7 0.646438 0.204032 0.230149
O O1 0.450773 0.412871 0.592972
O O2 0.292692 0.674612 0.580756
O O3 0.055978 0.420012 0.809460
O O4 0.900249 0.118391 0.811549
O O5 0.558924 0.286992 0.896771
O O6 0.524809 0.284625 0.801440
O O7 0.005350 0.427511 0.633206
O O8 0.459912 0.864486 0.908077
O O9 0.513748 0.016873 0.628163
O O10 0.014436 0.534120 0.923768
O O11 0.868048 0.710632 0.899000
O O12 0.500000 0.500000 0.000000
O O13 0.558457 0.426486 0.249172
O O14 0.595033 0.955338 0.227079
O O15 0.000000 0.000000 0.000000
#
# Coordination Sequence:
#
# PCOD9074537 Si02
#       7
#     2   2   2   2   2   2   2
#     4  10  23  45  70 101 150 193 236 290 373 444
#     4  11  26  44  72 107 146 185 247 307 360 428
#     4  11  24  47  68 108 148 193 230 304 376 436
#     4  11  22  44  73 102 139 193 249 293 353 441
#     4  11  22  42  71 108 137 188 246 297 353 442
#     4  12  26  48  78 106 138 197 254 305 361 426
#     4  12  26  47  76 105 145 193 248 299 362 444
#
# _framework density 22.213766
#
# number of rings (size 3 to 8) (size 9 to 14) (size 15 to 20)
#    0.000    0.857    2.857    3.857    2.000    4.000 
#   15.429    0.000    0.000    0.000    0.000    0.000 
#    0.000    0.000    0.000    0.000    0.000    0.000 
#
# Total GULP energy -77953.279497 kJ/mol
# GULP energy per Si atom -5568.091393 kJ/mol
# Density = 2.216321 g / cm^3
# Si number density = 22.213766 Si / 1000 Ang^3
#
#
#
# Elastic Constant Matrix: (Units=GPa)
#
#
# Indices 1 2 3 4 5 6 
#
# 1 136.5457 54.5282 45.7897 -15.7569 -13.5626 -18.2090
# 2 54.5282 128.7264 35.3622 -13.2843 8.9428 -4.3506
# 3 45.7897 35.3622 120.8788 -7.8598 -20.4765 -5.8866
# 4 -15.7569 -13.2843 -7.8598 27.3044 -10.1281 -2.5009
# 5 -13.5626 8.9428 -20.4765 -10.1281 46.9795 -13.2576
# 6 -18.2090 -4.3506 -5.8866 -2.5009 -13.2576 43.6558
#
#
#
# Elastic Compliance Matrix: (Units=1/GPa)
#
#
# Indices 1 2 3 4 5 6 
#
# 1 0.012033 -0.004228 -0.001179 0.007992 0.007513 0.007178
# 2 -0.004228 0.010481 -0.002457 -0.000160 -0.005053 -0.002594
# 3 -0.001179 -0.002457 0.010963 0.004004 0.006609 0.002978
# 4 0.007992 -0.000160 0.004004 0.050264 0.018397 0.012324
# 5 0.007513 -0.005053 0.006609 0.018397 0.035606 0.015388
# 6 0.007178 -0.002594 0.002978 0.012324 0.015388 0.031423
#
#
# Mechanical properties :
#
#
# Convention : Reuss Voigt Hill
#
# Bulk Modulus (GPa) = 56.34286 73.05678 64.69982
# Shear Modulus (GPa) = 28.99957 40.28599 34.64278
#
# Velocity S-wave (km/s) = 3.61706 4.26321 3.95336
# Velocity P-wave (km/s) = 6.54700 7.56259 7.07304
#
# Compressibility (1/GPa) = 0.01774848
#
# Stress axis : x y z
#
# Youngs Moduli (GPa) = 83.10351 95.40827 91.21220
#
# Poissons Ratio (x) = 0.40337 0.10758
# Poissons Ratio (y) = 0.35134 0.22415
# Poissons Ratio (z) = 0.09802 0.23446
#
# Static dielectric constant tensor:
#      x y z
#    x 1.967390 -0.055710 0.117730 
#    y -0.055710 1.844000 -0.037400 
#    z 0.117730 -0.037400 1.896990 
# 
# From -- ./inp_files/609161.got.cif
#   From: 2010.05.17/outbox.ucp.g08.bks.cvg/sg2_305_cif.got.tgz:609161.got - 2010.06.11 11:32:03.
