data_PCOD9074055
_publ_section_title
;
Structure prediction by ZEFSAII (Michael W. Deem and Ramdas Pophale) SiO2 
 PCOD9074055
Probable space group: P -1
;
_chemical_formula_sum "Si O2"
_cell_formula_units_Z 16
_cell_length_a 12.000000
_cell_length_b 6.000000
_cell_length_c 18.000000
_cell_angle_alpha 110.000000
_cell_angle_beta 130.000000
_cell_angle_gamma 50.000000
_cell_volume 754.912344
_symmetry_space_group_name_H-M "P -1"
_symmetry_group_IT_number 2
_symmetry_cell_setting 'triclinic'
loop_
_space_group_symop_operation_xyz
x,y,z
-x,-y,-z
loop_
_atom_site_type_symbol
_atom_site_label
_atom_site_fract_x
_atom_site_fract_y
_atom_site_fract_z
Si Si1 0.067360 0.190368 0.462283
Si Si2 0.120929 0.495768 0.893250
Si Si3 0.950415 0.889087 0.722073
Si Si4 0.606339 0.353575 0.952047
Si Si5 0.274962 0.927770 0.816079
Si Si6 0.665136 0.339858 0.765211
Si Si7 0.264201 0.834928 0.642947
Si Si8 0.232848 0.192610 0.133307
O O1 0.000000 0.500000 0.500000
O O2 0.903566 0.167858 0.406220
O O3 0.103895 0.164710 0.387225
O O4 0.228830 0.967003 0.560879
O O5 0.265164 0.156999 0.894217
O O6 0.223250 0.636115 0.975266
O O7 0.023252 0.639582 0.788120
O O8 0.976480 0.575345 0.904856
O O9 0.783986 0.173232 0.724021
O O10 0.108910 0.923525 0.772934
O O11 0.684911 0.019669 0.928032
O O12 0.454207 0.597173 0.858803
O O13 0.500000 0.500000 0.000000
O O14 0.264846 0.012776 0.734525
O O15 0.452506 0.520940 0.684433
O O16 0.717066 0.074266 0.815553
O O17 0.699156 0.595970 0.819981
#
# Coordination Sequence:
#
# PCOD9074055 Si02
#       8
#     2   2   2   2   2   2   2   2
#     4  10  22  41  66  99 131 174 221 280 339 406
#     4  11  23  42  65  93 134 182 222 281 340 400
#     4  10  22  42  64  96 133 174 226 273 342 400
#     4  12  25  40  65 103 129 179 233 283 337 402
#     4  11  21  42  64  95 132 176 227 281 334 403
#     4  11  24  45  71 100 134 186 223 279 340 406
#     4  10  23  39  67  96 134 169 228 270 344 390
#     4  11  26  46  67  99 140 183 227 278 343 403
#
# _framework density 21.194514000000002
#
# number of rings (size 3 to 8) (size 9 to 14) (size 15 to 20)
#    0.000    1.250    3.750    1.500    3.500    1.500 
#    0.000    3.125    0.000    0.000    0.000    0.000 
#    0.000    0.000    0.000    0.000    0.000    0.000 
#
# Total GULP energy -89180.920855 kJ/mol
# GULP energy per Si atom -5573.807553 kJ/mol
# Density = 2.114627 g / cm^3
# Si number density = 21.194514 Si / 1000 Ang^3
#
#
#
# Elastic Constant Matrix: (Units=GPa)
#
#
# Indices 1 2 3 4 5 6 
#
# 1 61.5980 0.3071 20.8122 -8.8253 -27.6154 -10.4124
# 2 0.3071 115.1091 29.7846 13.0007 -11.8409 -21.7892
# 3 20.8122 29.7846 70.8469 2.3692 -24.5162 -13.2379
# 4 -8.8253 13.0007 2.3692 35.4353 -10.7256 1.5305
# 5 -27.6154 -11.8409 -24.5162 -10.7256 24.5050 4.9648
# 6 -10.4124 -21.7892 -13.2379 1.5305 4.9648 41.1282
#
#
#
# Elastic Compliance Matrix: (Units=1/GPa)
#
#
# Indices 1 2 3 4 5 6 
#
# 1 0.083087 0.003618 0.023756 0.060737 0.143501 0.011015
# 2 0.003618 0.011180 -0.003182 -0.001893 0.004382 0.005356
# 3 0.023756 -0.003182 0.031816 0.024953 0.066857 0.005570
# 4 0.060737 -0.001893 0.024953 0.080625 0.126958 0.004079
# 5 0.143501 0.004382 0.066857 0.126958 0.323782 0.016361
# 6 0.011015 0.005356 0.005570 0.004079 0.016361 0.029606
#
#
# Mechanical properties :
#
#
# Convention : Reuss Voigt Hill
#
# Bulk Modulus (GPa) = 5.73176 38.81797 22.27487
# Shear Modulus (GPa) = 8.77396 33.32371 21.04883
#
# Velocity S-wave (km/s) = 2.03684 3.96950 3.15481
# Velocity P-wave (km/s) = 2.87086 6.27408 4.87883
#
# Compressibility (1/GPa) = 0.17446645
#
# Stress axis : x y z
#
# Youngs Moduli (GPa) = 12.03551 89.44880 31.43065
#
# Poissons Ratio (x) = -0.32366 -0.74666
# Poissons Ratio (y) = -0.04355 0.10002
# Poissons Ratio (z) = -0.28591 0.28466
#
# Static dielectric constant tensor:
#      x y z
#    x 1.763170 0.050380 -0.048260 
#    y 0.050380 1.844910 -0.025520 
#    z -0.048260 -0.025520 1.887410 
# 
# From -- ./inp_files/37608.got.cif
#   From: 2010.05.17/outbox.ucp.g08.bks.cvg/sg2_19_cif.got.tgz:37608.got - 2010.06.11 11:32:03.
