data_PCOD9074304
_publ_section_title
;
Structure prediction by ZEFSAII (Michael W. Deem and Ramdas Pophale) SiO2 
 PCOD9074304
Probable space group: P -1
;
_chemical_formula_sum "Si O2"
_cell_formula_units_Z 14
_cell_length_a 9.000000
_cell_length_b 12.000000
_cell_length_c 9.000000
_cell_angle_alpha 40.000000
_cell_angle_beta 100.000000
_cell_angle_gamma 100.000000
_cell_volume 614.029152
_symmetry_space_group_name_H-M "P -1"
_symmetry_group_IT_number 2
_symmetry_cell_setting 'triclinic'
loop_
_space_group_symop_operation_xyz
x,y,z
-x,-y,-z
loop_
_atom_site_type_symbol
_atom_site_label
_atom_site_fract_x
_atom_site_fract_y
_atom_site_fract_z
Si Si1 0.108352 0.346992 0.003395
Si Si2 0.950919 0.674070 0.654428
Si Si3 0.459998 0.793704 0.233226
Si Si4 0.640178 0.492165 0.703293
Si Si5 0.975896 0.994805 0.824247
Si Si6 0.350873 0.891713 0.417886
Si Si7 0.543025 0.728799 0.873907
O O1 0.027257 0.298185 0.195237
O O2 0.285888 0.315859 0.088961
O O3 0.035817 0.206040 0.019367
O O4 0.079736 0.546556 0.754160
O O5 0.800854 0.548944 0.738166
O O6 0.914471 0.853968 0.383906
O O7 0.589415 0.656191 0.428401
O O8 0.358441 0.687201 0.204817
O O9 0.370601 0.793878 0.369587
O O10 0.500000 0.000000 0.000000
O O11 0.526534 0.430563 0.878416
O O12 0.823225 0.066324 0.651313
O O13 0.000000 0.000000 0.000000
O O14 0.429502 0.782445 0.669770
O O15 0.435416 0.085267 0.226844
#
# Coordination Sequence:
#
# PCOD9074304 Si02
#       7
#     2   2   2   2   2   2   2
#     4  10  25  47  72  98 139 179 233 286 341 415
#     4  11  26  45  68 105 134 187 226 283 348 408
#     4  11  24  43  66 101 139 184 227 282 350 408
#     4  11  26  41  72 102 140 177 234 289 339 417
#     4  11  27  46  69 100 141 186 227 285 350 419
#     4  10  23  43  72  96 135 183 230 286 341 409
#     4  10  22  46  70 105 129 179 237 286 340 400
#
# _framework density 22.800219999999999
#
# number of rings (size 3 to 8) (size 9 to 14) (size 15 to 20)
#    0.000    1.429    1.429    1.286   10.000    2.857 
#    2.571    0.000    0.000    0.000    0.000    0.000 
#    0.000    0.000    0.000    0.000    0.000    0.000 
#
# Total GULP energy -78086.376009 kJ/mol
# GULP energy per Si atom -5577.598286 kJ/mol
# Density = 2.274833 g / cm^3
# Si number density = 22.800220 Si / 1000 Ang^3
#
#
#
# Elastic Constant Matrix: (Units=GPa)
#
#
# Indices 1 2 3 4 5 6 
#
# 1 52.5355 41.0649 -0.8804 5.5470 4.4739 13.8182
# 2 41.0649 100.9336 28.7374 -15.9200 -5.1121 -8.6672
# 3 -0.8804 28.7374 97.9306 -4.1823 -0.6100 18.1373
# 4 5.5470 -15.9200 -4.1823 22.0214 -4.8119 -4.9480
# 5 4.4739 -5.1121 -0.6100 -4.8119 25.3080 -8.9173
# 6 13.8182 -8.6672 18.1373 -4.9480 -8.9173 18.3610
#
#
#
# Elastic Compliance Matrix: (Units=1/GPa)
#
#
# Indices 1 2 3 4 5 6 
#
# 1 -0.007169 0.014225 -0.010446 0.023957 0.022466 0.039796
# 2 0.014225 -0.003645 0.006166 -0.015739 -0.017027 -0.031027
# 3 -0.010446 0.006166 0.006541 0.013528 0.010406 0.013010
# 4 0.023957 -0.015739 0.013528 0.016492 -0.019382 -0.043791
# 5 0.022466 -0.017027 0.010406 -0.019382 0.017392 -0.032001
# 6 0.039796 -0.031027 0.013010 -0.043791 -0.032001 -0.030327
#
#
# Mechanical properties :
#
#
# Convention : Reuss Voigt Hill
#
# Bulk Modulus (GPa) = 64.03751 43.24928 53.64340
# Shear Modulus (GPa) = -324.71922 25.30327 -149.70797
#
# Velocity S-wave (km/s) = -11.94690 3.33495 -8.11192
# Velocity P-wave (km/s) = 12.73410 5.81715 8.00994
#
# Compressibility (1/GPa) = 0.01561585
#
# Stress axis : x y z
#
# Youngs Moduli (GPa) = -139.48271 -274.38567 152.87733
#
# Poissons Ratio (x) = 3.90309 1.59697
# Poissons Ratio (y) = 1.98412 -0.94257
# Poissons Ratio (z) = -1.45705 1.69173
#
# Static dielectric constant tensor:
#      x y z
#    x 2.022420 0.024480 0.028720 
#    y 0.024480 1.899330 0.005510 
#    z 0.028720 0.005510 1.896000 
# 
# From -- ./inp_files/183854.got.cif
#   From: 2010.05.17/outbox.ucp.g08.bks.cvg/sg2_92_cif.got.tgz:183854.got - 2010.06.11 11:32:03.
