data_PCOD9074585
_publ_section_title
;
Structure prediction by ZEFSAII (Michael W. Deem and Ramdas Pophale) SiO2 
 PCOD9074585
Probable space group: P -1
;
_chemical_formula_sum "Si O2"
_cell_formula_units_Z 16
_cell_length_a 9.000000
_cell_length_b 12.000000
_cell_length_c 12.000000
_cell_angle_alpha 120.000000
_cell_angle_beta 90.000000
_cell_angle_gamma 50.000000
_cell_volume 752.153660
_symmetry_space_group_name_H-M "P -1"
_symmetry_group_IT_number 2
_symmetry_cell_setting 'triclinic'
loop_
_space_group_symop_operation_xyz
x,y,z
-x,-y,-z
loop_
_atom_site_type_symbol
_atom_site_label
_atom_site_fract_x
_atom_site_fract_y
_atom_site_fract_z
Si Si1 0.014159 0.986775 0.318243
Si Si2 0.373274 0.285037 0.176438
Si Si3 0.233509 0.287704 0.929308
Si Si4 0.761882 0.995979 0.507208
Si Si5 0.713069 0.738195 0.340615
Si Si6 0.130354 0.075977 0.926286
Si Si7 0.999625 0.666438 0.757621
Si Si8 0.728054 0.421041 0.503747
O O1 0.860333 0.210985 0.437968
O O2 0.227788 0.914719 0.341249
O O3 0.925073 0.940668 0.383805
O O4 0.991790 0.939867 0.170772
O O5 0.291937 0.461912 0.337129
O O6 0.248018 0.237636 0.203900
O O7 0.633616 0.121315 0.124214
O O8 0.333072 0.296213 0.045702
O O9 0.344222 0.213716 0.767972
O O10 0.188793 0.170206 0.907721
O O11 0.000000 0.500000 0.000000
O O12 0.796277 0.820538 0.431317
O O13 0.510428 0.160011 0.546509
O O14 0.885267 0.517547 0.259812
O O15 0.998685 0.206814 0.102118
O O16 0.131112 0.606982 0.613263
O O17 0.500000 0.500000 0.500000
#
# Coordination Sequence:
#
# PCOD9074585 Si02
#       8
#     2   2   2   2   2   2   2   2
#     4  11  23  43  63  94 138 177 213 266 342 391
#     4  11  24  43  69 100 130 178 223 276 332 392
#     4  11  21  39  68  94 129 166 217 275 329 379
#     4  10  24  39  68  96 132 173 222 271 328 397
#     4  11  21  42  67 101 126 171 227 277 322 386
#     4  11  23  42  67 100 136 174 218 277 334 399
#     4  11  24  42  69  97 132 172 227 274 328 390
#     4  12  25  44  66  94 136 176 217 273 331 402
#
# _framework density 21.272248999999999
#
# number of rings (size 3 to 8) (size 9 to 14) (size 15 to 20)
#    0.000    1.000    5.000    3.375    0.000    2.500 
#    2.250    0.625    0.000    0.000    0.000    0.000 
#    0.000    0.000    0.000    0.000    0.000    0.000 
#
# Total GULP energy -89189.494886 kJ/mol
# GULP energy per Si atom -5574.343430 kJ/mol
# Density = 2.122383 g / cm^3
# Si number density = 21.272249 Si / 1000 Ang^3
#
#
#
# Elastic Constant Matrix: (Units=GPa)
#
#
# Indices 1 2 3 4 5 6 
#
# 1 112.5852 13.5747 36.0384 -10.1745 28.2715 -13.7014
# 2 13.5747 64.1615 9.7214 -5.7285 11.0448 -6.0984
# 3 36.0384 9.7214 113.5509 -10.2644 47.3436 -13.3424
# 4 -10.1745 -5.7285 -10.2644 34.3056 -6.5339 12.9900
# 5 28.2715 11.0448 47.3436 -6.5339 53.8737 -4.7365
# 6 -13.7014 -6.0984 -13.3424 12.9900 -4.7365 13.6659
#
#
#
# Elastic Compliance Matrix: (Units=1/GPa)
#
#
# Indices 1 2 3 4 5 6 
#
# 1 0.011457 -0.000675 -0.000519 -0.001862 -0.004692 0.010822
# 2 -0.000675 0.016789 0.000965 -0.000383 -0.003370 0.006953
# 3 -0.000519 0.000965 0.015502 -0.002820 -0.012720 0.013317
# 4 -0.001862 -0.000383 -0.002820 0.046559 0.005021 -0.047307
# 5 -0.004692 -0.003370 -0.012720 0.005021 0.032433 -0.012159
# 6 0.010822 0.006953 0.013317 -0.047307 -0.012159 0.140883
#
#
# Mechanical properties :
#
#
# Convention : Reuss Voigt Hill
#
# Bulk Modulus (GPa) = 23.10036 45.44074 34.27055
# Shear Modulus (GPa) = 17.95262 35.76658 26.85960
#
# Velocity S-wave (km/s) = 2.90823 4.10490 3.55725
# Velocity P-wave (km/s) = 4.70744 6.62381 5.74608
#
# Compressibility (1/GPa) = 0.04328937
#
# Stress axis : x y z
#
# Youngs Moduli (GPa) = 87.28562 59.56201 64.50862
#
# Poissons Ratio (x) = 0.04021 0.03345
# Poissons Ratio (y) = 0.05893 -0.06222
# Poissons Ratio (z) = 0.04526 -0.05745
#
# Static dielectric constant tensor:
#      x y z
#    x 1.797580 -0.080040 -0.002920 
#    y -0.080040 1.874710 0.005170 
#    z -0.002920 0.005170 1.848280 
# 
# From -- ./inp_files/392838.got.cif
#   From: 2010.05.17/outbox.ucp.g08.bks.cvg/sg2_197_cif.got.tgz:392838.got - 2010.06.11 11:32:03.
