data_PCOD9074411
_publ_section_title
;
Structure prediction by ZEFSAII (Michael W. Deem and Ramdas Pophale) SiO2 
 PCOD9074411
Probable space group: P -1
;
_chemical_formula_sum "Si O2"
_cell_formula_units_Z 16
_cell_length_a 12.000000
_cell_length_b 9.000000
_cell_length_c 12.000000
_cell_angle_alpha 120.000000
_cell_angle_beta 130.000000
_cell_angle_gamma 50.000000
_cell_volume 752.153660
_symmetry_space_group_name_H-M "P -1"
_symmetry_group_IT_number 2
_symmetry_cell_setting 'triclinic'
loop_
_space_group_symop_operation_xyz
x,y,z
-x,-y,-z
loop_
_atom_site_type_symbol
_atom_site_label
_atom_site_fract_x
_atom_site_fract_y
_atom_site_fract_z
Si Si1 0.722870 0.973661 0.152062
Si Si2 0.741207 0.233441 0.863000
Si Si3 0.365490 0.324860 0.098558
Si Si4 0.244785 0.082008 0.586528
Si Si5 0.614290 0.700091 0.404477
Si Si6 0.532646 0.681496 0.586612
Si Si7 0.916908 0.073641 0.139180
Si Si8 0.080870 0.641626 0.607497
O O1 0.731517 0.918397 0.266684
O O2 0.543119 0.169535 0.100267
O O3 0.849284 0.026010 0.190037
O O4 0.743257 0.780098 0.032463
O O5 0.699968 0.459470 0.912537
O O6 0.576809 0.231063 0.715266
O O7 0.787481 0.135153 0.977934
O O8 0.905217 0.100343 0.846660
O O9 0.386811 0.323883 0.244906
O O10 0.322752 0.185135 0.594360
O O11 0.049541 0.178320 0.480561
O O12 0.347706 0.861399 0.532241
O O13 0.628183 0.704037 0.549021
O O14 0.733720 0.474614 0.362012
O O15 0.500000 0.500000 0.500000
O O16 0.928585 0.270068 0.244644
O O17 0.000000 0.500000 0.500000
#
# Coordination Sequence:
#
# PCOD9074411 Si02
#       8
#     2   2   2   2   2   2   2   2
#     4  10  24  44  68 100 131 176 225 275 331 388
#     4  11  25  43  70  97 134 180 221 270 339 392
#     4  10  23  42  67  99 133 175 226 269 329 400
#     4  10  24  44  68  98 135 173 221 276 334 392
#     4  11  23  43  70  99 127 182 219 271 332 395
#     4  11  22  40  64 102 134 172 221 268 334 398
#     4  11  26  44  66  99 139 172 223 277 330 401
#     4  10  24  43  66 102 130 174 221 275 333 390
#
# _framework density 21.272248999999999
#
# number of rings (size 3 to 8) (size 9 to 14) (size 15 to 20)
#    0.000    1.500    1.250    1.875   10.500    4.000 
#    4.500    0.000    0.000    0.000    0.000    0.000 
#    0.000    0.000    0.000    0.000    0.000    0.000 
#
# Total GULP energy -89188.024549 kJ/mol
# GULP energy per Si atom -5574.251534 kJ/mol
# Density = 2.122383 g / cm^3
# Si number density = 21.272249 Si / 1000 Ang^3
#
#
#
# Elastic Constant Matrix: (Units=GPa)
#
#
# Indices 1 2 3 4 5 6 
#
# 1 95.3649 53.3125 41.6500 -0.9377 -9.1415 19.3564
# 2 53.3125 114.3658 43.4275 -9.8782 -9.7588 -9.0112
# 3 41.6500 43.4275 71.9494 4.5056 -4.7972 3.0505
# 4 -0.9377 -9.8782 4.5056 27.8056 -2.9921 3.1630
# 5 -9.1415 -9.7588 -4.7972 -2.9921 24.0733 0.0454
# 6 19.3564 -9.0112 3.0505 3.1630 0.0454 28.2506
#
#
#
# Elastic Compliance Matrix: (Units=1/GPa)
#
#
# Indices 1 2 3 4 5 6 
#
# 1 0.022201 -0.008798 -0.006622 0.001078 0.003711 -0.017429
# 2 -0.008798 0.016562 -0.005532 0.005515 0.002935 0.011286
# 3 -0.006622 -0.005532 0.021310 -0.005905 -0.001247 0.001135
# 4 0.001078 0.005515 -0.005905 0.039930 0.006437 -0.002823
# 5 0.003711 0.002935 -0.001247 0.006437 0.044695 -0.002264
# 6 -0.017429 0.011286 0.001135 -0.002823 -0.002264 0.051136
#
#
# Mechanical properties :
#
#
# Convention : Reuss Voigt Hill
#
# Bulk Modulus (GPa) = 55.04160 62.05111 58.54635
# Shear Modulus (GPa) = 20.50925 25.57857 23.04391
#
# Velocity S-wave (km/s) = 3.10842 3.47138 3.29490
# Velocity P-wave (km/s) = 6.23009 6.73057 6.48516
#
# Compressibility (1/GPa) = 0.01816808
#
# Stress axis : x y z
#
# Youngs Moduli (GPa) = 45.04399 60.38073 46.92742
#
# Poissons Ratio (x) = 0.53122 0.31077
# Poissons Ratio (y) = 0.39629 0.25959
# Poissons Ratio (z) = 0.29830 0.33400
#
# Static dielectric constant tensor:
#      x y z
#    x 1.693400 -0.044420 0.016460 
#    y -0.044420 1.777900 0.067920 
#    z 0.016460 0.067920 1.940520 
# 
# From -- ./inp_files/332275.got.cif
#   From: 2010.05.17/outbox.ucp.g08.bks.cvg/sg2_167_cif.got.tgz:332275.got - 2010.06.11 11:32:03.
