data_PCOD9074726
_publ_section_title
;
Structure prediction by ZEFSAII (Michael W. Deem and Ramdas Pophale) SiO2 
 PCOD9074726
Probable space group: P -1
;
_chemical_formula_sum "Si O2"
_cell_formula_units_Z 14
_cell_length_a 9.000000
_cell_length_b 15.000000
_cell_length_c 18.000000
_cell_angle_alpha 20.000000
_cell_angle_beta 110.000000
_cell_angle_gamma 100.000000
_cell_volume 693.573286
_symmetry_space_group_name_H-M "P -1"
_symmetry_group_IT_number 2
_symmetry_cell_setting 'triclinic'
loop_
_space_group_symop_operation_xyz
x,y,z
-x,-y,-z
loop_
_atom_site_type_symbol
_atom_site_label
_atom_site_fract_x
_atom_site_fract_y
_atom_site_fract_z
Si Si1 0.916704 0.347625 0.951537
Si Si2 0.837285 0.939276 0.546402
Si Si3 0.387133 0.081603 0.596105
Si Si4 0.283698 0.871811 0.452134
Si Si5 0.091910 0.207745 0.842672
Si Si6 0.797482 0.873946 0.247460
Si Si7 0.584047 0.822546 0.989303
O O1 0.837654 0.117087 0.107151
O O2 0.883103 0.591949 0.819361
O O3 0.794644 0.603976 0.668611
O O4 0.126679 0.115074 0.182157
O O5 0.687891 0.084693 0.341876
O O6 0.776504 0.050469 0.532660
O O7 0.000000 0.000000 0.500000
O O8 0.530894 0.126784 0.535681
O O9 0.494989 0.926088 0.810799
O O10 0.331962 0.531805 0.712518
O O11 0.169829 0.144813 0.821130
O O12 0.939797 0.548737 0.554376
O O13 0.249489 0.129131 0.991801
O O14 0.000000 0.000000 0.000000
O O15 0.588097 0.987967 0.137205
#
# Coordination Sequence:
#
# PCOD9074726 Si02
#       7
#     2   2   2   2   2   2   2
#     4  10  24  46  71  98 148 182 233 285 348 403
#     4  10  25  44  70 104 142 189 234 286 339 407
#     4  10  27  42  69 105 139 183 230 286 341 408
#     4  12  24  45  74  98 143 189 236 279 344 408
#     4  11  28  46  75 103 138 179 230 288 353 420
#     4  11  25  48  72 103 139 181 233 284 348 416
#     4  12  26  45  75 104 140 182 230 288 348 416
#
# _framework density 20.185321999999999
#
# number of rings (size 3 to 8) (size 9 to 14) (size 15 to 20)
#    0.857    0.286    2.857    1.286    8.000    1.143 
#    0.000    0.000    0.000    0.000    0.000    0.000 
#    0.000    0.000    0.000    0.000    0.000    0.000 
#
# Total GULP energy -77950.055975 kJ/mol
# GULP energy per Si atom -5567.861141 kJ/mol
# Density = 2.013938 g / cm^3
# Si number density = 20.185322 Si / 1000 Ang^3
#
#
#
# Elastic Constant Matrix: (Units=GPa)
#
#
# Indices 1 2 3 4 5 6 
#
# 1 106.2499 57.8169 28.5865 8.4957 16.5585 14.2633
# 2 57.8169 87.2231 29.1191 10.8473 10.1124 13.6335
# 3 28.5865 29.1191 112.0298 6.1481 33.6019 2.3228
# 4 8.4957 10.8473 6.1481 49.9907 7.6777 8.4586
# 5 16.5585 10.1124 33.6019 7.6777 33.0961 3.8674
# 6 14.2633 13.6335 2.3228 8.4586 3.8674 51.7383
#
#
#
# Elastic Compliance Matrix: (Units=1/GPa)
#
#
# Indices 1 2 3 4 5 6 
#
# 1 0.015520 -0.009542 -0.000058 0.000414 -0.004713 -0.001477
# 2 -0.009542 0.019145 -0.003281 -0.002233 0.003022 -0.002128
# 3 -0.000058 -0.003281 0.013679 0.000878 -0.013189 0.001109
# 4 0.000414 -0.002233 0.000878 0.021551 -0.005099 -0.002707
# 5 -0.004713 0.003022 -0.013189 -0.005099 0.046403 -0.001540
# 6 -0.001477 -0.002128 0.001109 -0.002707 -0.001540 0.020804
#
#
# Mechanical properties :
#
#
# Convention : Reuss Voigt Hill
#
# Bulk Modulus (GPa) = 44.28647 59.61644 51.95145
# Shear Modulus (GPa) = 29.34408 39.63037 34.48722
#
# Velocity S-wave (km/s) = 3.81692 4.43575 4.13792
# Velocity P-wave (km/s) = 6.43527 7.47216 6.97302
#
# Compressibility (1/GPa) = 0.02258026
#
# Stress axis : x y z
#
# Youngs Moduli (GPa) = 64.43475 52.23210 73.10619
#
# Poissons Ratio (x) = 0.49840 0.00426
# Poissons Ratio (y) = 0.61484 0.23989
# Poissons Ratio (z) = 0.00375 0.17139
#
# Static dielectric constant tensor:
#      x y z
#    x 1.732760 -0.005360 -0.010330 
#    y -0.005360 1.728920 0.017920 
#    z -0.010330 0.017920 1.725780 
# 
# From -- ./inp_files/561090.got.cif
#   From: 2010.05.17/outbox.ucp.g08.bks.cvg/sg2_281_cif.got.tgz:561090.got - 2010.06.11 11:32:03.
