data_PCOD9074363
_publ_section_title
;
Structure prediction by ZEFSAII (Michael W. Deem and Ramdas Pophale) SiO2 
 PCOD9074363
Probable space group: P -1
;
_chemical_formula_sum "Si O2"
_cell_formula_units_Z 14
_cell_length_a 21.000000
_cell_length_b 12.000000
_cell_length_c 21.000000
_cell_angle_alpha 160.000000
_cell_angle_beta 160.000000
_cell_angle_gamma 30.000000
_cell_volume 612.476904
_symmetry_space_group_name_H-M "P -1"
_symmetry_group_IT_number 2
_symmetry_cell_setting 'triclinic'
loop_
_space_group_symop_operation_xyz
x,y,z
-x,-y,-z
loop_
_atom_site_type_symbol
_atom_site_label
_atom_site_fract_x
_atom_site_fract_y
_atom_site_fract_z
Si Si1 0.900548 0.739007 0.134037
Si Si2 0.919608 0.292195 0.152655
Si Si3 0.603974 0.103377 0.484656
Si Si4 0.094012 0.242787 0.494349
Si Si5 0.555521 0.306560 0.763162
Si Si6 0.755959 0.574631 0.658645
Si Si7 0.281616 0.702961 0.664999
O O1 0.104704 0.640038 0.290508
O O2 0.808442 0.977250 0.225092
O O3 0.758602 0.402443 0.814152
O O4 0.939207 0.942438 0.213143
O O5 0.859879 0.535615 0.281000
O O6 0.131026 0.404222 0.390807
O O7 0.780431 0.354249 0.998770
O O8 0.879423 0.919045 0.937886
O O9 0.421761 0.296162 0.402889
O O10 0.725287 0.902859 0.442763
O O11 0.523835 0.839878 0.322109
O O12 0.000000 0.500000 0.500000
O O13 0.472497 0.633526 0.841061
O O14 0.500000 0.000000 0.500000
O O15 0.694193 0.372010 0.427038
#
# Coordination Sequence:
#
# PCOD9074363 Si02
#       7
#     2   2   2   2   2   2   2
#     4  11  25  41  65  95 131 176 213 268 330 382
#     4  10  23  40  70  96 129 173 221 270 316 384
#     4  11  24  42  67  94 137 171 214 274 316 386
#     4  11  24  47  70  94 125 175 229 267 326 386
#     4  11  22  41  66 103 128 171 219 262 327 380
#     4  11  23  39  62 101 129 173 213 261 338 379
#     4  11  22  40  64  96 138 173 215 264 319 392
#
# _framework density 22.858004999999999
#
# number of rings (size 3 to 8) (size 9 to 14) (size 15 to 20)
#    0.000    1.143    2.857    4.714    2.000    5.714 
#    0.000    4.286    0.000    0.000    0.000    0.000 
#    0.000    0.000    0.000    0.000    0.000    0.000 
#
# Total GULP energy -78242.045064 kJ/mol
# GULP energy per Si atom -5588.717505 kJ/mol
# Density = 2.280598 g / cm^3
# Si number density = 22.858005 Si / 1000 Ang^3
#
#
#
# Elastic Constant Matrix: (Units=GPa)
#
#
# Indices 1 2 3 4 5 6 
#
# 1 60.6891 17.3093 5.5364 7.9299 3.0224 -32.7614
# 2 17.3093 170.9963 14.0948 -0.0197 -2.6843 -20.6240
# 3 5.5364 14.0948 56.6007 8.0262 5.7112 5.4874
# 4 7.9299 -0.0197 8.0262 31.2507 -6.6727 -4.2093
# 5 3.0224 -2.6843 5.7112 -6.6727 28.7058 8.6925
# 6 -32.7614 -20.6240 5.4874 -4.2093 8.6925 48.5637
#
#
#
# Elastic Compliance Matrix: (Units=1/GPa)
#
#
# Indices 1 2 3 4 5 6 
#
# 1 0.029916 -0.000324 -0.003013 -0.006151 -0.010596 0.021748
# 2 -0.000324 0.006384 -0.002021 0.001070 0.000455 0.002732
# 3 -0.003013 -0.002021 0.020163 -0.005888 -0.003735 -0.005011
# 4 -0.006151 0.001070 -0.005888 0.037204 0.011110 -0.001794
# 5 -0.010596 0.000455 -0.003735 0.011110 0.043357 -0.013331
# 6 0.021748 0.002732 -0.005011 -0.001794 -0.013331 0.039220
#
#
# Mechanical properties :
#
#
# Convention : Reuss Voigt Hill
#
# Bulk Modulus (GPa) = 21.85851 40.24077 31.04964
# Shear Modulus (GPa) = 24.72708 38.46040 31.59374
#
# Velocity S-wave (km/s) = 3.29259 4.10638 3.72179
# Velocity P-wave (km/s) = 4.90290 6.33451 5.66411
#
# Compressibility (1/GPa) = 0.04574877
#
# Stress axis : x y z
#
# Youngs Moduli (GPa) = 33.42694 156.63541 49.59572
#
# Poissons Ratio (x) = 0.05075 0.14941
# Poissons Ratio (y) = 0.01083 0.10022
# Poissons Ratio (z) = 0.10070 0.31651
#
# Static dielectric constant tensor:
#      x y z
#    x 1.896220 0.061910 -0.045170 
#    y 0.061910 1.860750 -0.054730 
#    z -0.045170 -0.054730 1.899500 
# 
# From -- ./inp_files/281553.got.cif
#   From: 2010.05.17/outbox.ucp.g08.bks.cvg/sg2_141_cif.got.tgz:281553.got - 2010.06.11 11:32:03.
