data_PCOD9074632
_publ_section_title
;
Structure prediction by ZEFSAII (Michael W. Deem and Ramdas Pophale) SiO2 
 PCOD9074632
Probable space group: P -1
;
_chemical_formula_sum "Si O2"
_cell_formula_units_Z 16
_cell_length_a 18.000000
_cell_length_b 9.000000
_cell_length_c 12.000000
_cell_angle_alpha 120.000000
_cell_angle_beta 50.000000
_cell_angle_gamma 150.000000
_cell_volume 736.400153
_symmetry_space_group_name_H-M "P -1"
_symmetry_group_IT_number 2
_symmetry_cell_setting 'triclinic'
loop_
_space_group_symop_operation_xyz
x,y,z
-x,-y,-z
loop_
_atom_site_type_symbol
_atom_site_label
_atom_site_fract_x
_atom_site_fract_y
_atom_site_fract_z
Si Si1 0.469507 0.693126 0.626187
Si Si2 0.543818 0.589574 0.735150
Si Si3 0.014296 0.227870 0.056390
Si Si4 0.298903 0.963736 0.679191
Si Si5 0.565741 0.414683 0.944157
Si Si6 0.845278 0.571066 0.252579
Si Si7 0.142485 0.108784 0.326952
Si Si8 0.372886 0.826426 0.955670
O O1 0.519710 0.611574 0.635580
O O2 0.288210 0.460349 0.645547
O O3 0.435617 0.787697 0.787009
O O4 0.624273 0.950984 0.487776
O O5 0.733728 0.833161 0.693640
O O6 0.455585 0.277563 0.709642
O O7 0.427348 0.541228 0.910846
O O8 0.853642 0.114412 0.199542
O O9 0.078432 0.354843 0.915807
O O10 0.183611 0.528846 0.071734
O O11 0.000000 0.000000 0.000000
O O12 0.250769 0.722341 0.701229
O O13 0.725903 0.604210 0.780256
O O14 0.408566 0.059061 0.951156
O O15 0.500000 0.500000 0.000000
O O16 0.014082 0.834739 0.262271
O O17 0.000000 0.000000 0.500000
O O18 0.500000 0.000000 0.000000
#
# Coordination Sequence:
#
# PCOD9074632 Si02
#       8
#     2   2   2   2   2   2   2   2
#     4  11  25  46  72 105 145 186 237 294 369 422
#     4  11  24  47  71 100 142 196 236 284 362 434
#     4  11  27  47  72 105 145 188 246 296 354 429
#     4  12  25  43  74 104 143 184 240 302 361 418
#     4  10  24  42  73  97 140 186 239 283 358 419
#     4  11  26  44  70 105 144 184 241 293 358 428
#     4  11  26  43  71 104 145 179 240 295 357 413
#     4  11  24  45  72 101 143 188 240 290 355 432
#
# _framework density 21.727318
#
# number of rings (size 3 to 8) (size 9 to 14) (size 15 to 20)
#    0.000    1.000    1.250    4.125   14.000    1.000 
#    0.000    1.250    0.000    0.000    0.000    0.000 
#    0.000    0.000    0.000    0.000    0.000    0.000 
#
# Total GULP energy -89081.029688 kJ/mol
# GULP energy per Si atom -5567.564355 kJ/mol
# Density = 2.167787 g / cm^3
# Si number density = 21.727318 Si / 1000 Ang^3
#
#
#
# Elastic Constant Matrix: (Units=GPa)
#
#
# Indices 1 2 3 4 5 6 
#
# 1 139.4422 50.9215 24.0540 -14.1591 -1.1068 12.7943
# 2 50.9215 109.7326 6.0035 -18.9986 -1.3422 6.2165
# 3 24.0540 6.0035 131.8842 -41.5423 4.4977 11.7641
# 4 -14.1591 -18.9986 -41.5423 33.4481 3.2936 2.7684
# 5 -1.1068 -1.3422 4.4977 3.2936 47.2284 -7.2275
# 6 12.7943 6.2165 11.7641 2.7684 -7.2275 48.0356
#
#
#
# Elastic Compliance Matrix: (Units=1/GPa)
#
#
# Indices 1 2 3 4 5 6 
#
# 1 0.009011 -0.004014 -0.001307 0.000043 -0.000021 -0.001566
# 2 -0.004014 0.012677 0.003646 0.010326 -0.001143 -0.002231
# 3 -0.001307 0.003646 0.014784 0.020689 -0.003616 -0.005481
# 4 0.000043 0.010326 0.020689 0.063173 -0.007800 -0.011229
# 5 -0.000021 -0.001143 -0.003616 -0.007800 0.022781 0.004916
# 6 -0.001566 -0.002231 -0.005481 -0.011229 0.004916 0.024253
#
#
# Mechanical properties :
#
#
# Convention : Reuss Voigt Hill
#
# Bulk Modulus (GPa) = 30.19211 60.33522 45.26367
# Shear Modulus (GPa) = 31.04264 45.74775 38.39520
#
# Velocity S-wave (km/s) = 3.78397 4.59359 4.20830
# Velocity P-wave (km/s) = 5.74607 7.48094 6.67015
#
# Compressibility (1/GPa) = 0.03312123
#
# Stress axis : x y z
#
# Youngs Moduli (GPa) = 110.98097 78.88593 67.64177
#
# Poissons Ratio (x) = 0.31664 0.08838
# Poissons Ratio (y) = 0.44547 -0.24660
# Poissons Ratio (z) = 0.14501 -0.28760
#
# Static dielectric constant tensor:
#      x y z
#    x 1.957050 -0.029330 0.036640 
#    y -0.029330 1.915090 0.080250 
#    z 0.036640 0.080250 1.859260 
# 
# From -- ./inp_files/274706.got.cif
#   From: 2010.05.17/outbox.ucp.g08.bks.cvg/sg2_138_cif.got.tgz:274706.got - 2010.06.11 11:32:03.
