data_PCOD9074179
_publ_section_title
;
Structure prediction by ZEFSAII (Michael W. Deem and Ramdas Pophale) SiO2 
 PCOD9074179
Probable space group: P -1
;
_chemical_formula_sum "Si O2"
_cell_formula_units_Z 15
_cell_length_a 9.000000
_cell_length_b 15.000000
_cell_length_c 15.000000
_cell_angle_alpha 150.000000
_cell_angle_beta 110.000000
_cell_angle_gamma 50.000000
_cell_volume 642.379314
_symmetry_space_group_name_H-M "P -1"
_symmetry_group_IT_number 2
_symmetry_cell_setting 'triclinic'
loop_
_space_group_symop_operation_xyz
x,y,z
-x,-y,-z
loop_
_atom_site_type_symbol
_atom_site_label
_atom_site_fract_x
_atom_site_fract_y
_atom_site_fract_z
Si Si1 0.997545 0.734452 0.947023
Si Si2 0.769213 0.310866 0.207722
Si Si3 0.969195 0.582032 0.166216
Si Si4 0.546268 0.619213 0.915050
Si Si5 0.213854 0.903783 0.403375
Si Si6 0.180598 0.455723 0.438458
Si Si7 0.090338 0.055476 0.304293
Si Si8 0.500000 0.000000 0.000000
O O1 0.065419 0.547861 0.881914
O O2 0.760481 0.863819 0.965716
O O3 0.984409 0.953466 0.163099
O O4 0.182747 0.593586 0.781469
O O5 0.555410 0.364748 0.184936
O O6 0.725697 0.454553 0.410918
O O7 0.000000 0.000000 0.000000
O O8 0.220074 0.468846 0.135568
O O9 0.768061 0.902067 0.401023
O O10 0.000000 0.500000 0.000000
O O11 0.594066 0.404659 0.801360
O O12 0.329315 0.893370 0.157316
O O13 0.152479 0.969343 0.344235
O O14 0.000000 0.000000 0.500000
O O15 0.000000 0.500000 0.500000
O O16 0.072351 0.639075 0.486485
O O17 0.391741 0.150309 0.201131
#
# Coordination Sequence:
#
# PCOD9074179 Si02
#       8
#     2   2   2   2   2   2   2   1
#     4  11  24  42  70 102 142 184 245 291 362 428
#     4  11  23  48  72 102 144 191 243 297 355 437
#     4  11  25  44  69 105 146 178 240 303 352 434
#     4  10  23  44  76  96 142 191 235 289 374 415
#     4  10  22  43  67 102 138 179 236 292 354 428
#     4  12  26  46  72 105 152 184 247 306 356 436
#     4  11  24  47  71  99 138 190 234 301 354 439
#     4  12  28  40  70 106 144 192 240 290 374 414
#
# _framework density 23.35069
#
# number of rings (size 3 to 8) (size 9 to 14) (size 15 to 20)
#    0.000    1.067    4.000    2.800    3.733    4.800 
#    0.000    3.333    0.000    0.000    0.000    0.000 
#    0.000    0.000    0.000    0.000    0.000    0.000 
#
# Total GULP energy -83525.281883 kJ/mol
# GULP energy per Si atom -5568.352126 kJ/mol
# Density = 2.329754 g / cm^3
# Si number density = 23.350690 Si / 1000 Ang^3
#
#
#
# Elastic Constant Matrix: (Units=GPa)
#
#
# Indices 1 2 3 4 5 6 
#
# 1 60.5714 6.7483 35.3638 29.6424 -1.4577 17.7013
# 2 6.7483 84.0885 9.4518 -6.1663 8.9164 7.9504
# 3 35.3638 9.4518 30.6510 -39.0960 4.3220 -8.0852
# 4 29.6424 -6.1663 -39.0960 18.1012 7.8281 2.6960
# 5 -1.4577 8.9164 4.3220 7.8281 24.5040 13.3230
# 6 17.7013 7.9504 -8.0852 2.6960 13.3230 43.9741
#
#
#
# Elastic Compliance Matrix: (Units=1/GPa)
#
#
# Indices 1 2 3 4 5 6 
#
# 1 0.005729 -0.000092 0.008678 0.011414 -0.004843 0.000073
# 2 -0.000092 0.012797 -0.002455 0.001033 -0.003641 -0.001688
# 3 0.008678 -0.002455 0.001198 -0.015506 0.008588 -0.004480
# 4 0.011414 0.001033 -0.015506 0.001419 0.008119 -0.010179
# 5 -0.004843 -0.003641 0.008588 0.008119 0.042779 -0.009272
# 6 0.000073 -0.001688 -0.004480 -0.010179 -0.009272 0.025626
#
#
# Mechanical properties :
#
#
# Convention : Reuss Voigt Hill
#
# Bulk Modulus (GPa) = 31.26228 30.93763 31.09996
# Shear Modulus (GPa) = 56.85091 25.56565 41.20828
#
# Velocity S-wave (km/s) = 4.93958 3.31245 4.20546
# Velocity P-wave (km/s) = 6.77863 5.28277 6.07690
#
# Compressibility (1/GPa) = 0.03198743
#
# Stress axis : x y z
#
# Youngs Moduli (GPa) = 174.53793 78.14339 834.42514
#
# Poissons Ratio (x) = 0.00717 -7.24142
# Poissons Ratio (y) = 0.01601 2.04875
# Poissons Ratio (z) = -1.51470 0.19186
#
# Static dielectric constant tensor:
#      x y z
#    x 1.809500 0.007010 0.035040 
#    y 0.007010 1.824740 0.004720 
#    z 0.035040 0.004720 1.959100 
# 
# From -- ./inp_files/505886.got.cif
#   From: 2010.05.17/outbox.ucp.g08.bks.cvg/sg2_253_cif.got.tgz:505886.got - 2010.06.11 11:32:03.
