data_PCOD9074098
_publ_section_title
;
Structure prediction by ZEFSAII (Michael W. Deem and Ramdas Pophale) SiO2 
 PCOD9074098
Probable space group: P -1
;
_chemical_formula_sum "Si O2"
_cell_formula_units_Z 16
_cell_length_a 18.000000
_cell_length_b 9.000000
_cell_length_c 6.000000
_cell_angle_alpha 80.000000
_cell_angle_beta 130.000000
_cell_angle_gamma 90.000000
_cell_volume 725.212580
_symmetry_space_group_name_H-M "P -1"
_symmetry_group_IT_number 2
_symmetry_cell_setting 'triclinic'
loop_
_space_group_symop_operation_xyz
x,y,z
-x,-y,-z
loop_
_atom_site_type_symbol
_atom_site_label
_atom_site_fract_x
_atom_site_fract_y
_atom_site_fract_z
Si Si1 0.565020 0.159573 0.922079
Si Si2 0.266141 0.687877 0.997527
Si Si3 0.601263 0.802853 0.070525
Si Si4 0.973405 0.852598 0.737210
Si Si5 0.844270 0.023469 0.047233
Si Si6 0.585136 0.603172 0.670968
Si Si7 0.804702 0.754032 0.750010
Si Si8 0.087331 0.563783 0.771374
O O1 0.510500 0.186671 0.048641
O O2 0.471035 0.238106 0.578929
O O3 0.659831 0.244226 0.046274
O O4 0.598316 0.983496 0.964848
O O5 0.232591 0.824793 0.076839
O O6 0.160852 0.643982 0.734839
O O7 0.326433 0.521014 0.221672
O O8 0.698565 0.765097 0.423961
O O9 0.613496 0.666727 0.948019
O O10 0.892355 0.803138 0.757380
O O11 0.068311 0.935079 0.957402
O O12 0.032252 0.696843 0.786324
O O13 0.905833 0.958960 0.401122
O O14 0.794781 0.883283 0.891887
O O15 0.500000 0.500000 0.500000
O O16 0.848080 0.582756 0.952974
O O17 0.000000 0.500000 0.500000
#
# Coordination Sequence:
#
# PCOD9074098 Si02
#       8
#     2   2   2   2   2   2   2   2
#     4  10  23  46  68  96 135 173 220 278 340 399
#     4  10  23  41  68  94 130 181 215 276 334 389
#     4  11  25  41  70 106 129 171 228 275 332 408
#     4  10  22  42  65  94 133 183 224 274 334 393
#     4  10  22  43  64  95 137 175 229 274 330 398
#     4  10  23  44  69  96 135 177 216 270 339 399
#     4  12  24  41  68 101 136 175 227 283 333 394
#     4  11  23  42  67  98 134 180 226 275 334 399
#
# _framework density 22.062495999999999
#
# number of rings (size 3 to 8) (size 9 to 14) (size 15 to 20)
#    0.000    1.500    1.250    2.625    1.750    9.000 
#    2.250    6.250    0.000    0.000    0.000    0.000 
#    0.000    0.000    0.000    0.000    0.000    0.000 
#
# Total GULP energy -89073.983102 kJ/mol
# GULP energy per Si atom -5567.123944 kJ/mol
# Density = 2.201228 g / cm^3
# Si number density = 22.062496 Si / 1000 Ang^3
#
#
#
# Elastic Constant Matrix: (Units=GPa)
#
#
# Indices 1 2 3 4 5 6 
#
# 1 136.5563 46.2100 22.2365 -4.8806 32.4008 19.2313
# 2 46.2100 130.6263 62.0036 -14.4249 19.2291 -26.6935
# 3 22.2365 62.0036 78.2143 -6.5775 29.9344 -5.6627
# 4 -4.8806 -14.4249 -6.5775 38.6066 0.4080 15.2195
# 5 32.4008 19.2291 29.9344 0.4080 26.7891 -5.5726
# 6 19.2313 -26.6935 -5.6627 15.2195 -5.5726 52.6129
#
#
#
# Elastic Compliance Matrix: (Units=1/GPa)
#
#
# Indices 1 2 3 4 5 6 
#
# 1 0.024299 -0.016308 0.024308 0.010673 -0.049770 -0.022898
# 2 -0.016308 0.025308 -0.029296 -0.006548 0.038900 0.021662
# 3 0.024308 -0.029296 0.059180 0.015012 -0.081032 -0.030305
# 4 0.010673 -0.006548 0.015012 0.035119 -0.029447 -0.018885
# 5 -0.049770 0.038900 -0.081032 -0.029447 0.172239 0.055969
# 6 -0.022898 0.021662 -0.030305 -0.018885 0.055969 0.046497
#
#
# Mechanical properties :
#
#
# Convention : Reuss Voigt Hill
#
# Bulk Modulus (GPa) = 15.10720 67.36631 41.23676
# Shear Modulus (GPa) = 11.70141 37.93149 24.81645
#
# Velocity S-wave (km/s) = 2.30549 4.15091 3.35748
# Velocity P-wave (km/s) = 3.73488 7.31943 5.81048
#
# Compressibility (1/GPa) = 0.06619361
#
# Stress axis : x y z
#
# Youngs Moduli (GPa) = 41.15457 39.51381 16.89755
#
# Poissons Ratio (x) = 0.64439 -0.41074
# Poissons Ratio (y) = 0.67115 0.49503
# Poissons Ratio (z) = -1.00038 1.15761
#
# Static dielectric constant tensor:
#      x y z
#    x 1.914470 0.041760 -0.095960 
#    y 0.041760 1.849970 -0.005720 
#    z -0.095960 -0.005720 1.855960 
# 
# From -- ./inp_files/106802.got.cif
#   From: 2010.05.17/outbox.ucp.g08.bks.cvg/sg2_54_cif.got.tgz:106802.got - 2010.06.11 11:32:03.
