data_PCOD9074322
_publ_section_title
;
Structure prediction by ZEFSAII (Michael W. Deem and Ramdas Pophale) SiO2 
 PCOD9074322
Probable space group: P -1
;
_chemical_formula_sum "Si O2"
_cell_formula_units_Z 16
_cell_length_a 12.219095
_cell_length_b 5.212031
_cell_length_c 18.601182
_cell_angle_alpha 103.267139
_cell_angle_beta 66.340207
_cell_angle_gamma 65.342570
_cell_volume 866.809778
_symmetry_space_group_name_H-M "P -1"
_symmetry_group_IT_number 2
_symmetry_cell_setting 'triclinic'
loop_
_space_group_symop_operation_xyz
x,y,z
-x,-y,-z
loop_
_atom_site_type_symbol
_atom_site_label
_atom_site_fract_x
_atom_site_fract_y
_atom_site_fract_z
Si Si1 0.210613 0.160185 0.184174
Si Si2 0.502297 0.496094 0.411909
Si Si3 0.940044 0.268496 0.448854
Si Si4 0.423838 0.816608 0.991439
Si Si5 0.091337 0.284200 0.641250
Si Si6 0.607017 0.879789 0.393857
Si Si7 0.752845 0.228280 0.599669
Si Si8 0.362924 0.522764 0.201110
O O1 0.295952 0.316723 0.195203
O O2 0.043049 0.441665 0.258210
O O3 0.265425 0.853194 0.201638
O O4 0.261870 0.036658 0.080851
O O5 0.500000 0.500000 0.500000
O O6 0.620706 0.551698 0.354993
O O7 0.350328 0.767995 0.433289
O O8 0.532409 0.149294 0.369207
O O9 0.913584 0.531324 0.416975
O O10 0.821008 0.396571 0.551778
O O11 0.929262 0.997080 0.393027
O O12 0.099856 0.089251 0.429698
O O13 0.475013 0.681887 0.888830
O O14 0.500000 0.500000 0.000000
O O15 0.500000 0.000000 0.000000
O O16 0.243060 0.164140 0.631030
O O17 0.500000 0.000000 0.500000
O O18 0.652917 0.395824 0.705907
#
# Coordination Sequence:
#
# PCOD9074322 Si02
#       8
#     2   2   2   2   2   2   2   2
#     4  10  18  32  50  77 102 131 160 201 257 309
#     4  10  21  36  50  66  92 134 181 211 240 281
#     4  11  24  32  50  78 106 136 165 204 268 302
#     4   8  16  29  49  69 102 130 157 195 246 310
#     4  12  20  37  53  75 106 134 172 214 249 309
#     4  10  20  34  51  67  92 134 176 212 241 279
#     4  11  22  36  52  74 106 138 171 212 252 306
#     4  10  19  33  48  76 103 132 163 200 252 312
#
# _framework density 18.458490000000001
#
# number of rings (size 3 to 8) (size 9 to 14) (size 15 to 20)
#    0.000    1.750    2.500    3.750    0.000    5.000 
#    0.000    0.000    0.000    0.000    0.000    1.750 
#    0.000    0.000    0.000    0.000    0.000    0.000 
#
# Total GULP energy -89136.570091 kJ/mol
# GULP energy per Si atom -5571.035631 kJ/mol
# Density = 1.841648 g / cm^3
# Si number density = 18.458490 Si / 1000 Ang^3
#
#
#
# Elastic Constant Matrix: (Units=GPa)
#
#
# Indices 1 2 3 4 5 6 
#
# 1 70.6463 36.1132 17.1239 0.6323 -2.0934 -6.4811
# 2 36.1132 87.5293 9.7573 0.2988 -4.3778 18.5503
# 3 17.1239 9.7573 143.1925 5.3594 -14.9743 -10.3580
# 4 0.6323 0.2988 5.3594 17.7167 -0.0251 -2.8229
# 5 -2.0934 -4.3778 -14.9743 -0.0251 15.3850 1.0961
# 6 -6.4811 18.5503 -10.3580 -2.8229 1.0961 38.2306
#
#
#
# Elastic Compliance Matrix: (Units=1/GPa)
#
#
# Indices 1 2 3 4 5 6 
#
# 1 0.020296 -0.010032 -0.001417 0.001156 -0.002045 0.008069
# 2 -0.010032 0.018107 -0.000313 -0.001569 0.004251 -0.010809
# 3 -0.001417 -0.000313 0.008169 -0.002126 0.007541 0.001752
# 4 0.001156 -0.001569 -0.002126 0.057821 -0.002600 0.004725
# 5 -0.002045 0.004251 0.007541 -0.002600 0.073455 -0.002664
# 6 0.008069 -0.010809 0.001752 0.004725 -0.002664 0.033670
#
#
# Mechanical properties :
#
#
# Convention : Reuss Voigt Hill
#
# Bulk Modulus (GPa) = 43.38612 47.48410 45.43511
# Shear Modulus (GPa) = 20.59939 30.15802 25.37870
#
# Velocity S-wave (km/s) = 3.34426 4.04645 3.71200
# Velocity P-wave (km/s) = 6.20224 6.90017 6.56049
#
# Compressibility (1/GPa) = 0.02304885
#
# Stress axis : x y z
#
# Youngs Moduli (GPa) = 49.27092 55.22578 122.41010
#
# Poissons Ratio (x) = 0.55403 0.17346
# Poissons Ratio (y) = 0.49429 0.03830
# Poissons Ratio (z) = 0.06982 0.01728
#
# Static dielectric constant tensor:
#      x y z
#    x 1.694250 0.062020 0.025430 
#    y 0.062020 1.713150 0.061870 
#    z 0.025430 0.061870 1.720170 
# 
# From -- ./inp_files/82008.got.cif
#   From: 2010.05.17/outbox.cif.g08.bks.cpg/sg2_42_cif.got.tgz:82008.got - 2010.06.03 11:33:40.
