data_PCOD9074522
_publ_section_title
;
Structure prediction by ZEFSAII (Michael W. Deem and Ramdas Pophale) SiO2 
 PCOD9074522
Probable space group: P -1
;
_chemical_formula_sum "Si O2"
_cell_formula_units_Z 16
_cell_length_a 15.000000
_cell_length_b 15.000000
_cell_length_c 15.000000
_cell_angle_alpha 20.000000
_cell_angle_beta 40.000000
_cell_angle_gamma 40.000000
_cell_volume 725.414092
_symmetry_space_group_name_H-M "P -1"
_symmetry_group_IT_number 2
_symmetry_cell_setting 'triclinic'
loop_
_space_group_symop_operation_xyz
x,y,z
-x,-y,-z
loop_
_atom_site_type_symbol
_atom_site_label
_atom_site_fract_x
_atom_site_fract_y
_atom_site_fract_z
Si Si1 0.677804 0.697615 0.671598
Si Si2 0.246794 0.195675 0.778365
Si Si3 0.254017 0.966921 0.187741
Si Si4 0.935827 0.353979 0.908443
Si Si5 0.615186 0.164896 0.145401
Si Si6 0.458387 0.523271 0.349146
Si Si7 0.652791 0.935782 0.785219
Si Si8 0.935798 0.902838 0.478093
O O1 0.809374 0.521806 0.788441
O O2 0.551866 0.817956 0.724345
O O3 0.693992 0.949966 0.361513
O O4 0.631104 0.468052 0.863002
O O5 0.327589 0.438648 0.475039
O O6 0.078301 0.256022 0.833671
O O7 0.324691 0.962196 0.873777
O O8 0.256729 0.114645 0.951729
O O9 0.370938 0.693721 0.336884
O O10 0.090614 0.945606 0.351468
O O11 0.303099 0.104526 0.107055
O O12 0.969137 0.590176 0.722588
O O13 0.903451 0.111288 0.222457
O O14 0.555704 0.232947 0.569332
O O15 0.560113 0.707155 0.054893
O O16 0.795690 0.934103 0.618840
#
# Coordination Sequence:
#
# PCOD9074522 Si02
#       8
#     2   2   2   2   2   2   2   2
#     4  10  23  45  67 101 134 176 212 282 326 417
#     4  11  26  43  70 101 136 184 218 284 335 406
#     4  11  25  47  68  96 143 178 231 283 340 396
#     4  11  24  44  70  98 140 174 229 269 344 400
#     4  10  24  43  69  99 138 169 223 267 348 392
#     4  12  25  44  64 101 134 178 230 286 332 399
#     4  12  27  42  70  99 133 186 234 281 337 394
#     4  11  25  45  66 102 135 184 225 283 334 401
#
# _framework density 22.056367999999999
#
# number of rings (size 3 to 8) (size 9 to 14) (size 15 to 20)
#    0.000    1.000    2.500    2.625    5.250    2.000 
#    4.500    3.125    0.000    0.000    0.000    0.000 
#    0.000    0.000    0.000    0.000    0.000    0.000 
#
# Total GULP energy -89394.570165 kJ/mol
# GULP energy per Si atom -5587.160635 kJ/mol
# Density = 2.200617 g / cm^3
# Si number density = 22.056368 Si / 1000 Ang^3
#
#
#
# Elastic Constant Matrix: (Units=GPa)
#
#
# Indices 1 2 3 4 5 6 
#
# 1 52.4449 41.9838 13.9332 16.0259 8.9683 -12.6504
# 2 41.9838 167.4128 43.6042 16.4824 -1.5326 -14.4530
# 3 13.9332 43.6042 128.9095 2.8207 2.0225 -4.5184
# 4 16.0259 16.4824 2.8207 38.2780 -6.5142 -3.4533
# 5 8.9683 -1.5326 2.0225 -6.5142 32.8080 -1.2990
# 6 -12.6504 -14.4530 -4.5184 -3.4533 -1.2990 29.8282
#
#
#
# Elastic Compliance Matrix: (Units=1/GPa)
#
#
# Indices 1 2 3 4 5 6 
#
# 1 0.031459 -0.005930 -0.000671 -0.011636 -0.010807 0.008549
# 2 -0.005930 0.008170 -0.002105 -0.000418 0.002096 0.001168
# 3 -0.000671 -0.002105 0.008537 0.000503 -0.000340 0.000032
# 4 -0.011636 -0.000418 0.000503 0.032693 0.009588 -0.000859
# 5 -0.010807 0.002096 -0.000340 0.009588 0.035419 -0.000967
# 6 0.008549 0.001168 0.000032 -0.000859 -0.000967 0.037580
#
#
# Mechanical properties :
#
#
# Convention : Reuss Voigt Hill
#
# Bulk Modulus (GPa) = 32.51561 60.86771 46.69166
# Shear Modulus (GPa) = 27.54495 36.79925 32.17210
#
# Velocity S-wave (km/s) = 3.53773 4.08906 3.82335
# Velocity P-wave (km/s) = 5.60905 7.06755 6.38011
#
# Compressibility (1/GPa) = 0.03075446
#
# Stress axis : x y z
#
# Youngs Moduli (GPa) = 31.78773 122.40117 117.13076
#
# Poissons Ratio (x) = 0.72581 0.07855
# Poissons Ratio (y) = 0.18849 0.24660
# Poissons Ratio (z) = 0.02132 0.25770
#
# Static dielectric constant tensor:
#      x y z
#    x 1.895990 -0.018600 -0.012800 
#    y -0.018600 1.796360 0.006030 
#    z -0.012800 0.006030 1.802130 
# 
# From -- ./inp_files/533999.got.cif
#   From: 2010.05.17/outbox.ucp.g08.bks.cvg/sg2_267_cif.got.tgz:533999.got - 2010.06.11 11:32:03.
