data_PCOD9074015
_publ_section_title
;
Structure prediction by ZEFSAII (Michael W. Deem and Ramdas Pophale) SiO2 
 PCOD9074015
Probable space group: P -1
;
_chemical_formula_sum "Si O2"
_cell_formula_units_Z 14
_cell_length_a 9.000000
_cell_length_b 9.000000
_cell_length_c 18.000000
_cell_angle_alpha 60.000000
_cell_angle_beta 110.000000
_cell_angle_gamma 150.000000
_cell_volume 617.235917
_symmetry_space_group_name_H-M "P -1"
_symmetry_group_IT_number 2
_symmetry_cell_setting 'triclinic'
loop_
_space_group_symop_operation_xyz
x,y,z
-x,-y,-z
loop_
_atom_site_type_symbol
_atom_site_label
_atom_site_fract_x
_atom_site_fract_y
_atom_site_fract_z
Si Si1 0.704501 0.612412 0.439460
Si Si2 0.734614 0.380661 0.851410
Si Si3 0.586231 0.436353 0.948458
Si Si4 0.732157 0.868988 0.248939
Si Si5 0.667013 0.985494 0.570769
Si Si6 0.979354 0.231333 0.923639
Si Si7 0.431342 0.584054 0.777911
O O1 0.500000 0.500000 0.500000
O O2 0.817938 0.876087 0.342585
O O3 0.975563 0.718460 0.462958
O O4 0.469865 0.301321 0.424048
O O5 0.538094 0.247653 0.923369
O O6 0.588405 0.332564 0.765729
O O7 0.799078 0.243162 0.886365
O O8 0.037996 0.768252 0.823632
O O9 0.631971 0.651311 0.852568
O O10 0.829498 0.601126 0.009147
O O11 0.274258 0.152096 0.013630
O O12 0.713917 0.691686 0.233628
O O13 0.500000 0.000000 0.500000
O O14 0.589480 0.869314 0.675436
O O15 0.182498 0.419197 0.836163
#
# Coordination Sequence:
#
# PCOD9074015 Si02
#       7
#     2   2   2   2   2   2   2
#     4  11  23  42  69  96 125 167 217 263 318 392
#     4  11  22  40  61  88 124 165 208 262 308 361
#     4  11  22  39  59  88 125 167 208 255 308 373
#     4  10  22  41  62  87 123 168 206 250 318 379
#     4  11  25  45  68  98 131 166 208 271 333 377
#     4  12  24  37  61  94 123 164 214 259 306 366
#     4  10  24  42  64  89 126 167 208 254 315 384
#
# _framework density 22.681764999999999
#
# number of rings (size 3 to 8) (size 9 to 14) (size 15 to 20)
#    0.000    1.143    0.000    7.714    0.000    8.000 
#    0.000    0.000    0.000    0.000    0.000    0.000 
#    0.000    0.000    0.000    0.000    0.000    0.000 
#
# Total GULP energy -78017.991105 kJ/mol
# GULP energy per Si atom -5572.713650 kJ/mol
# Density = 2.263014 g / cm^3
# Si number density = 22.681765 Si / 1000 Ang^3
#
#
#
# Elastic Constant Matrix: (Units=GPa)
#
#
# Indices 1 2 3 4 5 6 
#
# 1 132.3854 -2.1196 64.3663 13.1974 3.5287 21.1064
# 2 -2.1196 65.0633 10.0848 -0.6566 -0.5560 22.5321
# 3 64.3663 10.0848 165.2270 14.6247 -3.9851 8.9108
# 4 13.1974 -0.6566 14.6247 35.8769 4.3334 7.4536
# 5 3.5287 -0.5560 -3.9851 4.3334 42.0884 1.8329
# 6 21.1064 22.5321 8.9108 7.4536 1.8329 32.5550
#
#
#
# Elastic Compliance Matrix: (Units=1/GPa)
#
#
# Indices 1 2 3 4 5 6 
#
# 1 0.011033 0.003970 -0.004056 -0.000436 -0.000835 -0.008644
# 2 0.003970 0.022164 -0.002236 0.003605 0.000167 -0.018137
# 3 -0.004056 -0.002236 0.007877 -0.002426 0.001197 0.002509
# 4 -0.000436 0.003605 -0.002426 0.031221 -0.002989 -0.008528
# 5 -0.000835 0.000167 0.001197 -0.002989 0.024278 -0.000584
# 6 -0.008644 -0.018137 0.002509 -0.008528 -0.000584 0.050173
#
#
# Mechanical properties :
#
#
# Convention : Reuss Voigt Hill
#
# Bulk Modulus (GPa) = 27.44965 56.37096 41.91030
# Shear Modulus (GPa) = 30.57460 41.46034 36.01747
#
# Velocity S-wave (km/s) = 3.67547 4.28005 3.98923
# Velocity P-wave (km/s) = 5.49003 7.02368 6.30367
#
# Compressibility (1/GPa) = 0.03643034
#
# Stress axis : x y z
#
# Youngs Moduli (GPa) = 90.63720 45.11727 126.95185
#
# Poissons Ratio (x) = -0.17911 0.51489
# Poissons Ratio (y) = -0.35983 0.28390
# Poissons Ratio (z) = 0.36760 0.10089
#
# Static dielectric constant tensor:
#      x y z
#    x 1.917440 0.079970 -0.039530 
#    y 0.079970 1.922130 -0.065700 
#    z -0.039530 -0.065700 1.920330 
# 
# From -- ./inp_files/217951.got.cif
#   From: 2010.05.17/outbox.ucp.g08.bks.cvg/sg2_109_cif.got.tgz:217951.got - 2010.06.11 11:32:03.
