data_PCOD9074772
_publ_section_title
;
Structure prediction by ZEFSAII (Michael W. Deem and Ramdas Pophale) SiO2 
 PCOD9074772
Probable space group: P -1
;
_chemical_formula_sum "Si O2"
_cell_formula_units_Z 16
_cell_length_a 12.000000
_cell_length_b 15.000000
_cell_length_c 9.000000
_cell_angle_alpha 100.000000
_cell_angle_beta 90.000000
_cell_angle_gamma 150.000000
_cell_volume 759.581896
_symmetry_space_group_name_H-M "P -1"
_symmetry_group_IT_number 2
_symmetry_cell_setting 'triclinic'
loop_
_space_group_symop_operation_xyz
x,y,z
-x,-y,-z
loop_
_atom_site_type_symbol
_atom_site_label
_atom_site_fract_x
_atom_site_fract_y
_atom_site_fract_z
Si Si1 0.887394 0.834500 0.055445
Si Si2 0.356648 0.693306 0.447169
Si Si3 0.463513 0.452753 0.754526
Si Si4 0.124596 0.828174 0.169066
Si Si5 0.819404 0.102621 0.471640
Si Si6 0.020115 0.433137 0.099985
Si Si7 0.689769 0.530400 0.490139
Si Si8 0.346102 0.849832 0.713515
O O1 0.725929 0.726868 0.180655
O O2 0.082019 0.900149 0.130138
O O3 0.699629 0.647648 0.898242
O O4 0.000000 0.000000 0.000000
O O5 0.232982 0.600147 0.261247
O O6 0.284707 0.558272 0.512095
O O7 0.292830 0.736509 0.554453
O O8 0.631621 0.895309 0.466228
O O9 0.524932 0.438089 0.603193
O O10 0.390695 0.493447 0.678951
O O11 0.094885 0.797421 0.338855
O O12 0.387768 0.979684 0.190273
O O13 0.962516 0.645694 0.020208
O O14 0.693968 0.084989 0.357110
O O15 0.054237 0.240834 0.427440
O O16 0.810318 0.272118 0.174320
O O17 0.000000 0.500000 0.000000
#
# Coordination Sequence:
#
# PCOD9074772 Si02
#       8
#     2   2   2   2   2   2   2   2
#     4  11  25  46  70  98 140 181 226 284 354 401
#     4  11  24  41  69 100 129 183 227 266 340 411
#     4  10  25  46  67 101 132 175 233 292 334 401
#     4  11  24  44  67  99 138 182 222 284 343 406
#     4  11  23  44  70  97 138 178 224 278 336 409
#     4  12  24  40  64 103 142 179 222 276 340 412
#     4  11  23  44  73  96 134 176 232 287 335 394
#     4  11  24  43  67  97 142 177 223 276 334 415
#
# _framework density 21.064219999999999
#
# number of rings (size 3 to 8) (size 9 to 14) (size 15 to 20)
#    0.000    1.000    2.500    4.500    5.250    1.000 
#    4.500    2.500    0.000    0.000    0.000    0.000 
#    0.000    0.000    0.000    0.000    0.000    0.000 
#
# Total GULP energy -89203.311811 kJ/mol
# GULP energy per Si atom -5575.206988 kJ/mol
# Density = 2.101628 g / cm^3
# Si number density = 21.064220 Si / 1000 Ang^3
#
#
#
# Elastic Constant Matrix: (Units=GPa)
#
#
# Indices 1 2 3 4 5 6 
#
# 1 60.4758 17.0944 24.2897 -7.1499 31.5768 -10.3109
# 2 17.0944 111.2261 31.7373 -30.1980 7.4447 -4.2352
# 3 24.2897 31.7373 118.9818 -11.3663 16.2158 -2.1381
# 4 -7.1499 -30.1980 -11.3663 46.4582 -4.3660 8.2442
# 5 31.5768 7.4447 16.2158 -4.3660 41.0086 -6.2935
# 6 -10.3109 -4.2352 -2.1381 8.2442 -6.2935 37.2857
#
#
#
# Elastic Compliance Matrix: (Units=1/GPa)
#
#
# Indices 1 2 3 4 5 6 
#
# 1 0.029867 -0.002379 -0.002564 -0.000320 -0.020913 0.004383
# 2 -0.002379 0.011765 -0.002158 0.007005 0.001173 -0.000796
# 3 -0.002564 -0.002158 0.009757 0.000584 -0.001550 -0.000785
# 4 -0.000320 0.007005 0.000584 0.027160 0.000850 -0.005121
# 5 -0.020913 0.001173 -0.001550 0.000850 0.041135 0.001016
# 6 0.004383 -0.000796 -0.000785 -0.005121 0.001016 0.029200
#
#
# Mechanical properties :
#
#
# Convention : Reuss Voigt Hill
#
# Bulk Modulus (GPa) = 26.89103 48.54739 37.71921
# Shear Modulus (GPa) = 28.49313 39.45466 33.97390
#
# Velocity S-wave (km/s) = 3.68187 4.33259 4.02042
# Velocity P-wave (km/s) = 5.55597 6.93727 6.28469
#
# Compressibility (1/GPa) = 0.03718712
#
# Stress axis : x y z
#
# Youngs Moduli (GPa) = 33.48183 84.99844 102.49530
#
# Poissons Ratio (x) = 0.20220 0.26283
# Poissons Ratio (y) = 0.07965 0.22113
# Poissons Ratio (z) = 0.08586 0.18339
#
# Static dielectric constant tensor:
#      x y z
#    x 1.835660 0.049170 -0.005770 
#    y 0.049170 1.791740 0.036440 
#    z -0.005770 0.036440 1.752120 
# 
# From -- ./inp_files/273408.got.cif
#   From: 2010.05.17/outbox.ucp.g08.bks.cvg/sg2_137_cif.got.tgz:273408.got - 2010.06.11 11:32:03.
