data_PCOD9074789
_publ_section_title
;
Structure prediction by ZEFSAII (Michael W. Deem and Ramdas Pophale) SiO2 
 PCOD9074789
Probable space group: P -1
;
_chemical_formula_sum "Si O2"
_cell_formula_units_Z 16
_cell_length_a 11.204516
_cell_length_b 9.346062
_cell_length_c 7.595922
_cell_angle_alpha 92.293103
_cell_angle_beta 100.560938
_cell_angle_gamma 70.180927
_cell_volume 735.428844
_symmetry_space_group_name_H-M "P -1"
_symmetry_group_IT_number 2
_symmetry_cell_setting 'triclinic'
loop_
_space_group_symop_operation_xyz
x,y,z
-x,-y,-z
loop_
_atom_site_type_symbol
_atom_site_label
_atom_site_fract_x
_atom_site_fract_y
_atom_site_fract_z
Si Si1 0.961697 0.598879 0.765953
Si Si2 0.570817 0.489632 0.734133
Si Si3 0.661678 0.613403 0.283284
Si Si4 0.439706 0.895791 0.213200
Si Si5 0.708794 0.205298 0.546524
Si Si6 0.788826 0.540996 0.962433
Si Si7 0.904748 0.356034 0.516106
Si Si8 0.457416 0.832926 0.802310
O O1 0.968565 0.434282 0.680270
O O2 0.076599 0.572783 0.932660
O O3 0.993276 0.691208 0.618156
O O4 0.826805 0.643259 0.832056
O O5 0.445444 0.466966 0.782358
O O6 0.609621 0.379483 0.569555
O O7 0.545790 0.667526 0.750749
O O8 0.706311 0.437860 0.872300
O O9 0.569809 0.776483 0.332643
O O10 0.718916 0.638374 0.114297
O O11 0.780585 0.499899 0.418529
O O12 0.323037 0.886873 0.303359
O O13 0.468671 0.050614 0.214121
O O14 0.429742 0.842069 0.005523
O O15 0.844797 0.231695 0.560307
O O16 0.668161 0.141900 0.352831
#
# Coordination Sequence:
#
# PCOD9074789 Si02
#       8
#     2   2   2   2   2   2   2   2
#     4   9  20  32  48  81 115 145 187 236 286 324
#     4  11  20  31  59  88 118 143 184 234 295 342
#     4  10  20  33  56  88 115 144 180 241 288 346
#     4  10  24  36  55  82 127 158 182 221 287 362
#     4  11  22  35  57  85 116 154 182 238 286 334
#     4  10  18  32  52  79 118 145 182 234 291 334
#     4  10  19  34  53  79 118 144 188 237 285 329
#     4  11  22  39  51  86 127 152 188 222 282 364
#
# _framework density 21.756014
#
# number of rings (size 3 to 8) (size 9 to 14) (size 15 to 20)
#    0.000    1.750    3.750    1.125    3.500    0.000 
#    0.000    0.000    0.000    0.000    0.000   15.750 
#    0.000    0.000    0.000    0.000    0.000    0.000 
#
# Total GULP energy -89125.274111 kJ/mol
# GULP energy per Si atom -5570.329632 kJ/mol
# Density = 2.170650 g / cm^3
# Si number density = 21.756014 Si / 1000 Ang^3
#
#
#
# Elastic Constant Matrix: (Units=GPa)
#
#
# Indices 1 2 3 4 5 6 
#
# 1 114.3287 17.8696 34.0672 -7.0171 -14.4154 39.2459
# 2 17.8696 73.5756 21.2399 3.3797 0.3111 30.1867
# 3 34.0672 21.2399 107.9112 3.8426 0.1466 22.5025
# 4 -7.0171 3.3797 3.8426 24.7914 14.7417 -4.2082
# 5 -14.4154 0.3111 0.1466 14.7417 40.0077 -9.0048
# 6 39.2459 30.1867 22.5025 -4.2082 -9.0048 31.6607
#
#
#
# Elastic Compliance Matrix: (Units=1/GPa)
#
#
# Indices 1 2 3 4 5 6 
#
# 1 0.017636 0.007796 -0.001116 -0.000856 0.000185 -0.028563
# 2 0.007796 0.027429 0.000238 -0.005725 -0.003810 -0.037830
# 3 -0.001116 0.000238 0.011236 -0.002683 -0.001147 -0.007512
# 4 -0.000856 -0.005725 -0.002683 0.053554 -0.017616 0.010535
# 5 0.000185 -0.003810 -0.001147 -0.017616 0.034198 0.011604
# 6 -0.028563 -0.037830 -0.007512 0.010535 0.011604 0.113099
#
#
# Mechanical properties :
#
#
# Convention : Reuss Voigt Hill
#
# Bulk Modulus (GPa) = 14.25779 49.12987 31.69383
# Shear Modulus (GPa) = 18.74794 34.13456 26.44125
#
# Velocity S-wave (km/s) = 2.93872 3.96532 3.48997
# Velocity P-wave (km/s) = 4.25235 6.60275 5.55332
#
# Compressibility (1/GPa) = 0.07013708
#
# Stress axis : x y z
#
# Youngs Moduli (GPa) = 56.70150 36.45738 89.00010
#
# Poissons Ratio (x) = -0.28422 0.09931
# Poissons Ratio (y) = -0.44205 -0.02114
# Poissons Ratio (z) = 0.06327 -0.00866
#
# Static dielectric constant tensor:
#      x y z
#    x 1.874410 -0.023920 0.019940 
#    y -0.023920 1.812380 -0.057510 
#    z 0.019940 -0.057510 1.938890 
# 
# From -- ./inp_files/239828.got.cif
#   From: 2010.05.17/outbox.cif.g08.bks.cpg/sg2_120_cif.got.tgz:239828.got - 2010.06.03 11:33:40.
