data_PCOD9074009
_publ_section_title
;
Structure prediction by ZEFSAII (Michael W. Deem and Ramdas Pophale) SiO2 
 PCOD9074009
Probable space group: P -1
;
_chemical_formula_sum "Si O2"
_cell_formula_units_Z 16
_cell_length_a 9.000000
_cell_length_b 12.000000
_cell_length_c 15.000000
_cell_angle_alpha 130.000000
_cell_angle_beta 70.000000
_cell_angle_gamma 140.000000
_cell_volume 759.581896
_symmetry_space_group_name_H-M "P -1"
_symmetry_group_IT_number 2
_symmetry_cell_setting 'triclinic'
loop_
_space_group_symop_operation_xyz
x,y,z
-x,-y,-z
loop_
_atom_site_type_symbol
_atom_site_label
_atom_site_fract_x
_atom_site_fract_y
_atom_site_fract_z
Si Si1 0.100298 0.126050 0.291923
Si Si2 0.362057 0.235061 0.726966
Si Si3 0.625076 0.167468 0.141129
Si Si4 0.091055 0.828847 0.435256
Si Si5 0.603754 0.485576 0.270817
Si Si6 0.183570 0.497290 0.456396
Si Si7 0.654287 0.944312 0.683462
Si Si8 0.852597 0.469596 0.716615
O O1 0.326751 0.287054 0.261166
O O2 0.091111 0.285036 0.407975
O O3 0.176039 0.061568 0.315456
O O4 0.818991 0.891759 0.216264
O O5 0.381381 0.407033 0.765448
O O6 0.618379 0.344439 0.758215
O O7 0.248967 0.051137 0.576659
O O8 0.667159 0.359672 0.193622
O O9 0.456082 0.050115 0.204522
O O10 0.890924 0.296389 0.179468
O O11 0.500000 0.000000 0.000000
O O12 0.115036 0.679271 0.386957
O O13 0.813428 0.687957 0.400722
O O14 0.205322 0.889483 0.342906
O O15 0.423633 0.708136 0.565161
O O16 0.213562 0.498517 0.345806
O O17 0.000000 0.500000 0.500000
#
# Coordination Sequence:
#
# PCOD9074009 Si02
#       8
#     2   2   2   2   2   2   2   2
#     4  11  24  35  60  91 135 175 202 240 315 388
#     4  12  22  34  60  95 135 164 197 251 317 384
#     4  10  24  46  68  86 118 172 223 266 314 363
#     4  11  22  36  58  98 135 169 202 247 317 388
#     4  10  22  41  59  88 129 164 214 256 299 381
#     4  12  22  35  56  97 134 168 199 252 317 387
#     4  11  22  37  65  89 128 166 216 251 316 376
#     4  11  23  38  58  93 138 160 204 264 311 372
#
# _framework density 21.064219999999999
#
# number of rings (size 3 to 8) (size 9 to 14) (size 15 to 20)
#    0.000    1.000    5.000    1.875    7.000    0.000 
#    0.000    3.125    0.000    3.000    0.000    0.000 
#    0.000    0.000    0.000    0.000    0.000    0.000 
#
# Total GULP energy -89146.894915 kJ/mol
# GULP energy per Si atom -5571.680932 kJ/mol
# Density = 2.101628 g / cm^3
# Si number density = 21.064220 Si / 1000 Ang^3
#
#
#
# Elastic Constant Matrix: (Units=GPa)
#
#
# Indices 1 2 3 4 5 6 
#
# 1 26.2896 11.4042 -11.3447 -13.1498 -13.2697 14.5680
# 2 11.4042 118.7391 25.0605 -9.2510 4.1489 17.9880
# 3 -11.3447 25.0605 50.7849 -2.2911 9.6388 -7.2037
# 4 -13.1498 -9.2510 -2.2911 3.4835 -8.9161 1.6902
# 5 -13.2697 4.1489 9.6388 -8.9161 1.8357 -2.1851
# 6 14.5680 17.9880 -7.2037 1.6902 -2.1851 34.9915
#
#
#
# Elastic Compliance Matrix: (Units=1/GPa)
#
#
# Indices 1 2 3 4 5 6 
#
# 1 0.017868 -0.003932 0.010902 -0.022755 -0.034770 -0.004246
# 2 -0.003932 0.011631 -0.006543 0.004912 -0.003838 -0.006166
# 3 0.010902 -0.006543 0.028651 0.008207 -0.012778 0.003528
# 4 -0.022755 0.004912 0.008207 0.029167 -0.073911 0.002614
# 5 -0.034770 -0.003838 -0.012778 -0.073911 0.033360 0.019472
# 6 -0.004246 -0.006166 0.003528 0.002614 0.019472 0.035332
#
#
# Mechanical properties :
#
#
# Convention : Reuss Voigt Hill
#
# Bulk Modulus (GPa) = 16.94741 27.33930 22.14336
# Shear Modulus (GPa) = 28.60048 19.44172 24.02110
#
# Velocity S-wave (km/s) = 3.68880 3.04134 3.38061
# Velocity P-wave (km/s) = 5.11918 5.03391 5.07672
#
# Compressibility (1/GPa) = 0.05900606
#
# Stress axis : x y z
#
# Youngs Moduli (GPa) = 55.96454 85.97533 34.90309
#
# Poissons Ratio (x) = 0.33805 -0.38053
# Poissons Ratio (y) = 0.22005 0.22836
# Poissons Ratio (z) = -0.61014 0.56250
#
# Static dielectric constant tensor:
#      x y z
#    x 1.701200 -0.036870 0.037560 
#    y -0.036870 1.718390 0.110550 
#    z 0.037560 0.110550 1.627290 
# 
# From -- ./inp_files/272447.got.cif
#   From: 2010.05.17/outbox.ucp.g08.bks.cvg/sg2_137_cif.got.tgz:272447.got - 2010.06.11 11:32:03.
