data_PCOD9074506
_publ_section_title
;
Structure prediction by ZEFSAII (Michael W. Deem and Ramdas Pophale) SiO2 
 PCOD9074506
Probable space group: P -1
;
_chemical_formula_sum "Si O2"
_cell_formula_units_Z 14
_cell_length_a 9.000000
_cell_length_b 12.000000
_cell_length_c 9.000000
_cell_angle_alpha 120.000000
_cell_angle_beta 130.000000
_cell_angle_gamma 60.000000
_cell_volume 621.029576
_symmetry_space_group_name_H-M "P -1"
_symmetry_group_IT_number 2
_symmetry_cell_setting 'triclinic'
loop_
_space_group_symop_operation_xyz
x,y,z
-x,-y,-z
loop_
_atom_site_type_symbol
_atom_site_label
_atom_site_fract_x
_atom_site_fract_y
_atom_site_fract_z
Si Si1 0.710079 0.995573 0.553796
Si Si2 0.863838 0.244477 0.918988
Si Si3 0.637834 0.071799 0.229504
Si Si4 0.408028 0.510643 0.273260
Si Si5 0.833737 0.486456 0.498456
Si Si6 0.105842 0.793326 0.731984
Si Si7 0.735274 0.701625 0.830789
O O1 0.775680 0.125274 0.731870
O O2 0.724367 0.988842 0.377918
O O3 0.500000 0.000000 0.500000
O O4 0.874228 0.871695 0.645978
O O5 0.759522 0.368948 0.827043
O O6 0.833415 0.252511 0.087111
O O7 0.099541 0.216252 0.006547
O O8 0.777316 0.116694 0.225631
O O9 0.480843 0.202876 0.287395
O O10 0.500000 0.000000 0.000000
O O11 0.500000 0.500000 0.500000
O O12 0.605834 0.516297 0.313167
O O13 0.321535 0.380873 0.122315
O O14 0.878449 0.330036 0.451933
O O15 0.832801 0.585440 0.698527
O O16 0.000000 0.500000 0.500000
#
# Coordination Sequence:
#
# PCOD9074506 Si02
#       7
#     2   2   2   2   2   2   2
#     4  12  27  48  76 103 145 193 244 302 362 424
#     4  12  25  45  74 104 144 191 240 300 361 424
#     4  12  26  51  75 105 142 190 245 303 357 434
#     4  10  23  44  70 103 140 189 237 288 358 423
#     4  11  23  45  72 103 150 185 238 293 357 428
#     4  12  26  46  70 111 144 188 245 294 360 434
#     4  11  23  46  72 106 143 188 238 295 361 427
#
# _framework density 22.543209999999998
#
# number of rings (size 3 to 8) (size 9 to 14) (size 15 to 20)
#    0.000    0.571    2.857    5.571    4.000    0.571 
#    2.571    0.000    0.000    0.000    0.000    0.000 
#    0.000    0.000    0.000    0.000    0.000    0.000 
#
# Total GULP energy -78048.079467 kJ/mol
# GULP energy per Si atom -5574.862819 kJ/mol
# Density = 2.249190 g / cm^3
# Si number density = 22.543210 Si / 1000 Ang^3
#
#
#
# Elastic Constant Matrix: (Units=GPa)
#
#
# Indices 1 2 3 4 5 6 
#
# 1 111.3015 -24.2438 39.8380 -12.7071 25.7709 -3.2975
# 2 -24.2438 65.7690 29.5265 -15.0347 -1.9999 -7.1948
# 3 39.8380 29.5265 89.9740 1.5467 -2.7114 14.4545
# 4 -12.7071 -15.0347 1.5467 43.4703 10.9951 3.2123
# 5 25.7709 -1.9999 -2.7114 10.9951 45.8221 -2.9452
# 6 -3.2975 -7.1948 14.4545 3.2123 -2.9452 31.7630
#
#
#
# Elastic Compliance Matrix: (Units=1/GPa)
#
#
# Indices 1 2 3 4 5 6 
#
# 1 0.049977 0.050073 -0.045108 0.040559 -0.036423 0.029579
# 2 0.050073 0.071717 -0.053690 0.048015 -0.037316 0.037561
# 3 -0.045108 -0.053690 0.056060 -0.039643 0.033591 -0.035232
# 4 0.040559 0.048015 -0.039643 0.060229 -0.035990 0.023699
# 5 -0.036423 -0.037316 0.033591 -0.035990 0.050066 -0.019238
# 6 0.029579 0.037561 -0.035232 0.023699 -0.019238 0.054915
#
#
# Mechanical properties :
#
#
# Convention : Reuss Voigt Hill
#
# Bulk Modulus (GPa) = 12.45254 39.69844 26.07549
# Shear Modulus (GPa) = 10.70246 39.00600 24.85423
#
# Velocity S-wave (km/s) = 2.18125 4.16417 3.32402
# Velocity P-wave (km/s) = 3.44668 6.38503 5.13070
#
# Compressibility (1/GPa) = 0.08030491
#
# Stress axis : x y z
#
# Youngs Moduli (GPa) = 20.00911 13.94369 17.83800
#
# Poissons Ratio (x) = -0.69821 0.80463
# Poissons Ratio (y) = -1.00193 0.95773
# Poissons Ratio (z) = 0.90257 0.74864
#
# Static dielectric constant tensor:
#      x y z
#    x 2.613970 -0.102380 0.638490 
#    y -0.102380 1.980180 -0.028440 
#    z 0.638490 -0.028440 2.431690 
# 
# From -- ./inp_files/190437.got.cif
#   From: 2010.05.17/outbox.ucp.g08.bks.cvg/sg2_96_cif.got.tgz:190437.got - 2010.06.11 11:32:03.
