data_PCOD9074252
_publ_section_title
;
Structure prediction by ZEFSAII (Michael W. Deem and Ramdas Pophale) SiO2 
 PCOD9074252
Probable space group: P -1
;
_chemical_formula_sum "Si O2"
_cell_formula_units_Z 14
_cell_length_a 9.000000
_cell_length_b 15.000000
_cell_length_c 12.000000
_cell_angle_alpha 130.000000
_cell_angle_beta 120.000000
_cell_angle_gamma 30.000000
_cell_volume 613.666794
_symmetry_space_group_name_H-M "P -1"
_symmetry_group_IT_number 2
_symmetry_cell_setting 'triclinic'
loop_
_space_group_symop_operation_xyz
x,y,z
-x,-y,-z
loop_
_atom_site_type_symbol
_atom_site_label
_atom_site_fract_x
_atom_site_fract_y
_atom_site_fract_z
Si Si1 0.106342 0.804988 0.672077
Si Si2 0.384754 0.644798 0.410865
Si Si3 0.083655 0.607762 0.134782
Si Si4 0.427515 0.145286 0.672320
Si Si5 0.484498 0.808045 0.906695
Si Si6 0.229666 0.418162 0.615800
Si Si7 0.107944 0.253918 0.090496
O O1 0.160632 0.779807 0.539373
O O2 0.302350 0.584325 0.607403
O O3 0.261183 0.831297 0.805189
O O4 0.754536 0.999811 0.723851
O O5 0.256334 0.624760 0.258372
O O6 0.463706 0.723141 0.447490
O O7 0.299843 0.375328 0.065151
O O8 0.796799 0.757018 0.231159
O O9 0.003992 0.676681 0.027736
O O10 0.285466 0.311498 0.661801
O O11 0.500000 0.000000 0.500000
O O12 0.696507 0.735100 0.826566
O O13 0.295028 0.035530 0.025266
O O14 0.000000 0.500000 0.500000
O O15 0.130946 0.593710 0.779575
#
# Coordination Sequence:
#
# PCOD9074252 Si02
#       7
#     2   2   2   2   2   2   2
#     4  10  22  44  71 104 146 185 246 293 365 418
#     4  10  23  44  72 101 145 190 237 303 354 430
#     4  11  24  48  74 107 149 193 243 294 366 433
#     4  12  25  44  73 111 143 188 240 304 363 429
#     4  10  23  44  73 104 143 199 234 298 357 434
#     4  12  27  46  72 108 142 183 248 306 362 434
#     4  11  25  47  74 103 150 193 243 294 373 429
#
# _framework density 22.813683000000001
#
# number of rings (size 3 to 8) (size 9 to 14) (size 15 to 20)
#    0.000    1.143    2.857    2.143    4.000    6.857 
#    0.000    2.143    0.000    0.000    0.000    0.000 
#    0.000    0.000    0.000    0.000    0.000    0.000 
#
# Total GULP energy -78114.035686 kJ/mol
# GULP energy per Si atom -5579.573978 kJ/mol
# Density = 2.276176 g / cm^3
# Si number density = 22.813683 Si / 1000 Ang^3
#
#
#
# Elastic Constant Matrix: (Units=GPa)
#
#
# Indices 1 2 3 4 5 6 
#
# 1 89.5931 33.2496 36.9331 -11.4234 -5.8863 -9.7008
# 2 33.2496 134.4446 48.1139 -3.0408 -1.7969 -2.0601
# 3 36.9331 48.1139 92.0196 -5.3536 -16.2534 -6.3893
# 4 -11.4234 -3.0408 -5.3536 43.0452 8.0423 6.7965
# 5 -5.8863 -1.7969 -16.2534 8.0423 39.7294 -4.8447
# 6 -9.7008 -2.0601 -6.3893 6.7965 -4.8447 40.6410
#
#
#
# Elastic Compliance Matrix: (Units=1/GPa)
#
#
# Indices 1 2 3 4 5 6 
#
# 1 0.014265 -0.001832 -0.004476 0.002783 -0.000104 0.002131
# 2 -0.001832 0.009509 -0.004625 0.000105 -0.001867 -0.000922
# 3 -0.004476 -0.004625 0.016279 -0.001001 0.006255 0.002169
# 4 0.002783 0.000105 -0.001001 0.025626 -0.005723 -0.004456
# 5 -0.000104 -0.001867 0.006255 -0.005723 0.029438 0.005330
# 6 0.002131 -0.000922 0.002169 -0.004456 0.005330 0.026789
#
#
# Mechanical properties :
#
#
# Convention : Reuss Voigt Hill
#
# Bulk Modulus (GPa) = 54.98037 61.40559 58.19298
# Shear Modulus (GPa) = 33.37024 37.86718 35.61871
#
# Velocity S-wave (km/s) = 3.82871 4.07854 3.95560
# Velocity P-wave (km/s) = 6.61040 7.01098 6.81364
#
# Compressibility (1/GPa) = 0.01818831
#
# Stress axis : x y z
#
# Youngs Moduli (GPa) = 70.10002 105.15986 61.42878
#
# Poissons Ratio (x) = 0.19264 0.27497
# Poissons Ratio (y) = 0.12841 0.28408
# Poissons Ratio (z) = 0.31379 0.48632
#
# Static dielectric constant tensor:
#      x y z
#    x 1.957970 -0.311100 -0.088190 
#    y -0.311100 2.996440 0.497410 
#    z -0.088190 0.497410 2.064430 
# 
# From -- ./inp_files/184426.got.cif
#   From: 2010.05.17/outbox.ucp.g08.bks.cvg/sg2_93_cif.got.tgz:184426.got - 2010.06.11 11:32:03.
