data_PCOD9074583
_publ_section_title
;
Structure prediction by ZEFSAII (Michael W. Deem and Ramdas Pophale) SiO2 
 PCOD9074583
Probable space group: P -1
;
_chemical_formula_sum "Si O2"
_cell_formula_units_Z 14
_cell_length_a 12.686409
_cell_length_b 19.607179
_cell_length_c 9.014784
_cell_angle_alpha 39.409596
_cell_angle_beta 149.128304
_cell_angle_gamma 148.376066
_cell_volume 595.997185
_symmetry_space_group_name_H-M "P -1"
_symmetry_group_IT_number 2
_symmetry_cell_setting 'triclinic'
loop_
_space_group_symop_operation_xyz
x,y,z
-x,-y,-z
loop_
_atom_site_type_symbol
_atom_site_label
_atom_site_fract_x
_atom_site_fract_y
_atom_site_fract_z
Si Si1 0.963904 0.330174 0.995579
Si Si2 0.519577 0.417313 0.828988
Si Si3 0.181909 0.654545 0.505424
Si Si4 0.278153 0.927683 0.668622
Si Si5 0.958032 0.267335 0.511720
Si Si6 0.713046 0.917081 0.334788
Si Si7 0.655663 0.345868 0.819461
O O1 0.786489 0.278417 0.725553
O O2 0.884637 0.411518 0.864114
O O3 0.248527 0.431677 0.116163
O O4 0.903465 0.205458 0.225685
O O5 0.554821 0.400015 0.726189
O O6 0.241388 0.368186 0.623160
O O7 0.586664 0.333162 0.152695
O O8 0.059208 0.702218 0.390856
O O9 0.000000 0.500000 0.500000
O O10 0.159056 0.880556 0.440470
O O11 0.282163 0.043690 0.555039
O O12 0.551701 0.957492 0.979447
O O13 0.766369 0.289002 0.159212
O O14 0.571712 0.766559 0.367088
O O15 0.000000 0.000000 0.500000
#
# Coordination Sequence:
#
# PCOD9074583 Si02
#       7
#     2   2   2   2   2   2   2
#     4   9  18  32  48  73 104 127 159 204 243 280
#     4  10  18  32  52  70 100 137 162 192 240 293
#     4   9  19  33  47  67 101 137 165 195 233 287
#     4   9  19  32  50  75  98 121 161 209 240 281
#     4   9  18  32  48  72  96 129 167 193 238 291
#     4   9  16  31  52  72  95 124 159 200 249 289
#     4   9  19  32  51  75  97 123 162 209 243 281
#
# _framework density 23.490044999999999
#
# number of rings (size 3 to 8) (size 9 to 14) (size 15 to 20)
#    0.000    3.143    0.000    1.286    0.000    5.714 
#    0.000   14.286    0.000   21.429    0.000   54.000 
#    0.000    0.000    0.000    0.000    0.000    0.000 
#
# Total GULP energy -77995.299954 kJ/mol
# GULP energy per Si atom -5571.092854 kJ/mol
# Density = 2.343658 g / cm^3
# Si number density = 23.490045 Si / 1000 Ang^3
#
#
#
# Elastic Constant Matrix: (Units=GPa)
#
#
# Indices 1 2 3 4 5 6 
#
# 1 144.6348 14.8117 27.8291 13.9418 -16.0834 -36.7821
# 2 14.8117 61.8420 7.7279 26.7061 3.1996 -22.0554
# 3 27.8291 7.7279 65.3874 18.8854 -0.0502 -0.8410
# 4 13.9418 26.7061 18.8854 32.4819 8.0558 0.0658
# 5 -16.0834 3.1996 -0.0502 8.0558 44.2092 11.0873
# 6 -36.7821 -22.0554 -0.8410 0.0658 11.0873 30.5280
#
#
#
# Elastic Compliance Matrix: (Units=1/GPa)
#
#
# Indices 1 2 3 4 5 6 
#
# 1 0.014419 0.012969 -0.002900 -0.015329 0.000442 0.026535
# 2 0.012969 0.056793 0.004013 -0.053655 -0.004265 0.058432
# 3 -0.002900 0.004013 0.020118 -0.014091 0.001373 -0.000509
# 4 -0.015329 -0.053655 -0.014091 0.090811 -0.004134 -0.056315
# 5 0.000442 -0.004265 0.001373 -0.004134 0.026924 -0.012280
# 6 0.026535 0.058432 -0.000509 -0.056315 -0.012280 0.111510
#
#
# Mechanical properties :
#
#
# Convention : Reuss Voigt Hill
#
# Bulk Modulus (GPa) = 8.36867 41.40019 24.88443
# Shear Modulus (GPa) = 15.04926 36.21020 25.62973
#
# Velocity S-wave (km/s) = 2.53388 3.93047 3.30675
# Velocity P-wave (km/s) = 3.48298 6.18554 5.01957
#
# Compressibility (1/GPa) = 0.11949332
#
# Stress axis : x y z
#
# Youngs Moduli (GPa) = 69.35393 17.60787 49.70709
#
# Poissons Ratio (x) = -0.22836 0.14417
# Poissons Ratio (y) = -0.89948 -0.19948
# Poissons Ratio (z) = 0.20116 -0.07066
#
# Static dielectric constant tensor:
#      x y z
#    x 1.976650 -0.071140 0.016600 
#    y -0.071140 1.973390 -0.042640 
#    z 0.016600 -0.042640 1.920980 
# 
# From -- ./inp_files/282943.got.cif
#   From: 2010.05.17/outbox.cif.g08.bks.cpg/sg2_142_cif.got.tgz:282943.got - 2010.06.03 11:33:40.
