data_PCOD9074190
_publ_section_title
;
Structure prediction by ZEFSAII (Michael W. Deem and Ramdas Pophale) SiO2 
 PCOD9074190
Probable space group: P -1
;
_chemical_formula_sum "Si O2"
_cell_formula_units_Z 16
_cell_length_a 18.000000
_cell_length_b 12.000000
_cell_length_c 9.000000
_cell_angle_alpha 80.000000
_cell_angle_beta 130.000000
_cell_angle_gamma 140.000000
_cell_volume 729.599496
_symmetry_space_group_name_H-M "P -1"
_symmetry_group_IT_number 2
_symmetry_cell_setting 'triclinic'
loop_
_space_group_symop_operation_xyz
x,y,z
-x,-y,-z
loop_
_atom_site_type_symbol
_atom_site_label
_atom_site_fract_x
_atom_site_fract_y
_atom_site_fract_z
Si Si1 0.182537 0.197502 0.490735
Si Si2 0.837771 0.572186 0.709866
Si Si3 0.293722 0.649165 0.721051
Si Si4 0.460067 0.359962 0.597541
Si Si5 0.781124 0.673645 0.184941
Si Si6 0.515473 0.167660 0.612438
Si Si7 0.152234 0.738482 0.062602
Si Si8 0.683880 0.159019 0.055449
O O1 0.181124 0.315213 0.374347
O O2 0.282554 0.211300 0.508638
O O3 0.286723 0.334546 0.748174
O O4 0.979138 0.936386 0.335004
O O5 0.767107 0.428774 0.509162
O O6 0.713367 0.399904 0.726355
O O7 0.062947 0.771082 0.968022
O O8 0.214086 0.455180 0.741538
O O9 0.529129 0.905150 0.958830
O O10 0.228150 0.692412 0.720545
O O11 0.500000 0.500000 0.500000
O O12 0.434436 0.208692 0.538432
O O13 0.642560 0.545095 0.898461
O O14 0.564113 0.138530 0.822127
O O15 0.361179 0.948888 0.359558
O O16 0.175103 0.740123 0.916416
O O17 0.000000 0.500000 0.000000
#
# Coordination Sequence:
#
# PCOD9074190 Si02
#       8
#     2   2   2   2   2   2   2   2
#     4  10  24  44  69  96 133 172 220 268 324 390
#     4  11  23  43  66  97 132 173 217 269 324 393
#     4  10  22  43  68  93 133 171 215 274 325 375
#     4  12  25  41  70 100 130 175 214 267 335 387
#     4  10  23  47  66  95 136 173 216 274 319 387
#     4  12  24  44  66  97 138 170 218 270 323 392
#     4  12  25  40  69  97 129 178 216 267 333 383
#     4  11  22  43  69  95 129 174 217 273 321 386
#
# _framework density 21.929839999999999
#
# number of rings (size 3 to 8) (size 9 to 14) (size 15 to 20)
#    0.000    1.000    5.000    1.500    1.750    3.000 
#    6.750    0.000    0.000    0.000    0.000    0.000 
#    0.000    0.000    0.000    0.000    0.000    0.000 
#
# Total GULP energy -89326.086778 kJ/mol
# GULP energy per Si atom -5582.880424 kJ/mol
# Density = 2.187993 g / cm^3
# Si number density = 21.929840 Si / 1000 Ang^3
#
#
#
# Elastic Constant Matrix: (Units=GPa)
#
#
# Indices 1 2 3 4 5 6 
#
# 1 117.7076 3.9018 18.9399 18.7210 6.4135 7.3007
# 2 3.9018 73.6573 1.2361 16.9241 -4.4982 6.9677
# 3 18.9399 1.2361 50.7017 7.8911 -7.7687 -7.3126
# 4 18.7210 16.9241 7.8911 32.1812 -3.5639 -7.4699
# 5 6.4135 -4.4982 -7.7687 -3.5639 26.2521 5.6988
# 6 7.3007 6.9677 -7.3126 -7.4699 5.6988 34.0831
#
#
#
# Elastic Compliance Matrix: (Units=1/GPa)
#
#
# Indices 1 2 3 4 5 6 
#
# 1 0.010772 0.001414 -0.004106 -0.007451 -0.003639 -0.004502
# 2 0.001414 0.016778 0.000212 -0.010929 0.002520 -0.006504
# 3 -0.004106 0.000212 0.023164 -0.001655 0.006732 0.004318
# 4 -0.007451 -0.010929 -0.001655 0.044849 0.002759 0.012843
# 5 -0.003639 0.002520 0.006732 0.002759 0.042832 -0.004849
# 6 -0.004502 -0.006504 0.004318 0.012843 -0.004849 0.036186
#
#
# Mechanical properties :
#
#
# Convention : Reuss Voigt Hill
#
# Bulk Modulus (GPa) = 21.85590 32.24692 27.05141
# Shear Modulus (GPa) = 25.66849 33.03585 29.35217
#
# Velocity S-wave (km/s) = 3.42494 3.88549 3.66246
# Velocity P-wave (km/s) = 5.06243 5.90473 5.49973
#
# Compressibility (1/GPa) = 0.04575424
#
# Stress axis : x y z
#
# Youngs Moduli (GPa) = 92.83367 59.60112 43.17134
#
# Poissons Ratio (x) = -0.08428 0.17724
# Poissons Ratio (y) = -0.13127 -0.00914
# Poissons Ratio (z) = 0.38113 -0.01262
#
# Static dielectric constant tensor:
#      x y z
#    x 1.837030 -0.170300 -0.009940 
#    y -0.170300 1.115410 -0.331440 
#    z -0.009940 -0.331440 1.740240 
# 
# From -- ./inp_files/77975.got.cif
#   From: 2010.05.17/outbox.ucp.g08.bks.cvg/sg2_39_cif.got.tgz:77975.got - 2010.06.11 11:32:03.
