data_PCOD9074150
_publ_section_title
;
Structure prediction by ZEFSAII (Michael W. Deem and Ramdas Pophale) SiO2 
 PCOD9074150
Probable space group: P -1
;
_chemical_formula_sum "Si O2"
_cell_formula_units_Z 16
_cell_length_a 9.000000
_cell_length_b 18.000000
_cell_length_c 9.000000
_cell_angle_alpha 150.000000
_cell_angle_beta 90.000000
_cell_angle_gamma 90.000000
_cell_volume 729.000000
_symmetry_space_group_name_H-M "P -1"
_symmetry_group_IT_number 2
_symmetry_cell_setting 'triclinic'
loop_
_space_group_symop_operation_xyz
x,y,z
-x,-y,-z
loop_
_atom_site_type_symbol
_atom_site_label
_atom_site_fract_x
_atom_site_fract_y
_atom_site_fract_z
Si Si1 0.998499 0.567089 0.870504
Si Si2 0.932963 0.693986 0.772156
Si Si3 0.583616 0.629481 0.638179
Si Si4 0.007352 0.984370 0.794621
Si Si5 0.753876 0.768511 0.340361
Si Si6 0.507160 0.657655 0.351765
Si Si7 0.497024 0.827255 0.217009
Si Si8 0.749850 0.261829 0.702332
O O1 0.985394 0.402304 0.522022
O O2 0.997737 0.662285 0.881126
O O3 0.150442 0.595706 0.008958
O O4 0.863829 0.629432 0.076017
O O5 0.761177 0.639192 0.675288
O O6 0.951324 0.862633 0.018706
O O7 0.500000 0.500000 0.500000
O O8 0.538419 0.623755 0.460367
O O9 0.506598 0.771827 0.954866
O O10 0.854571 0.913294 0.611465
O O11 0.133391 0.868127 0.546767
O O12 0.000000 0.000000 0.000000
O O13 0.644618 0.749551 0.445627
O O14 0.645927 0.774929 0.210367
O O15 0.352478 0.730120 0.429069
O O16 0.500000 0.500000 0.000000
O O17 0.360418 0.769024 0.213632
O O18 0.500000 0.000000 0.500000
#
# Coordination Sequence:
#
# PCOD9074150 Si02
#       8
#     2   2   2   2   2   2   2   2
#     4  10  22  42  71  97 137 173 231 280 339 401
#     4  11  23  41  69 103 133 176 231 286 335 401
#     4  12  24  44  71  99 135 176 231 282 339 404
#     4  11  25  44  68  99 143 180 228 277 349 412
#     4  10  23  44  66  99 134 180 224 277 346 404
#     4  11  24  44  72 100 141 178 228 289 339 407
#     4  11  23  40  65  97 133 177 226 275 337 400
#     4  10  24  44  65 100 134 179 223 277 345 402
#
# _framework density 21.947873999999999
#
# number of rings (size 3 to 8) (size 9 to 14) (size 15 to 20)
#    0.000    1.250    1.250    4.500    1.750    3.000 
#    2.250    6.250    0.000    0.000    0.000    0.000 
#    0.000    0.000    0.000    0.000    0.000    0.000 
#
# Total GULP energy -89465.587293 kJ/mol
# GULP energy per Si atom -5591.599206 kJ/mol
# Density = 2.189792 g / cm^3
# Si number density = 21.947874 Si / 1000 Ang^3
#
#
#
# Elastic Constant Matrix: (Units=GPa)
#
#
# Indices 1 2 3 4 5 6 
#
# 1 123.0629 41.9909 22.5145 -4.1753 20.7508 1.2906
# 2 41.9909 87.3917 30.2478 -10.4881 15.0673 -2.5105
# 3 22.5145 30.2478 94.7426 -5.7989 2.2103 2.5846
# 4 -4.1753 -10.4881 -5.7989 43.0084 0.8482 4.7666
# 5 20.7508 15.0673 2.2103 0.8482 19.4077 5.6817
# 6 1.2906 -2.5105 2.5846 4.7666 5.6817 2.7683
#
#
#
# Elastic Compliance Matrix: (Units=1/GPa)
#
#
# Indices 1 2 3 4 5 6 
#
# 1 0.005361 -0.019296 0.009301 0.015595 0.059546 -0.177752
# 2 -0.019296 -0.029354 0.026248 0.046781 0.186167 -0.504785
# 3 0.009301 0.026248 -0.007960 -0.028378 -0.126167 0.334716
# 4 0.015595 0.046781 -0.028378 -0.017176 -0.189709 0.480596
# 5 0.059546 0.186167 -0.126167 -0.189709 -0.765251 2.156176
# 6 -0.177752 -0.504785 0.334716 0.480596 2.156176 -5.579189
#
#
# Mechanical properties :
#
#
# Convention : Reuss Voigt Hill
#
# Bulk Modulus (GPa) = 1809.57533 54.96708 932.27120
# Shear Modulus (GPa) = -0.77810 27.06646 13.14418
#
# Velocity S-wave (km/s) = -0.59606 3.51553 2.44986
# Velocity P-wave (km/s) = 28.73680 6.44805 20.82524
#
# Compressibility (1/GPa) = 0.00055262
#
# Stress axis : x y z
#
# Youngs Moduli (GPa) = 186.52871 -34.06671 -125.62623
#
# Poissons Ratio (x) = -0.65736 1.16846
# Poissons Ratio (y) = 3.59931 3.29745
# Poissons Ratio (z) = -1.73491 0.89419
#
# Static dielectric constant tensor:
#      x y z
#    x 1.850460 -0.066110 0.005810 
#    y -0.066110 1.856250 -0.023220 
#    z 0.005810 -0.023220 1.822410 
# 
# From -- ./inp_files/184214.got.cif
#   From: 2010.05.17/outbox.ucp.g08.bks.cvg/sg2_93_cif.got.tgz:184214.got - 2010.06.11 11:32:03.
