data_PCOD9074770
_publ_section_title
;
Structure prediction by ZEFSAII (Michael W. Deem and Ramdas Pophale) SiO2 
 PCOD9074770
Probable space group: P -1
;
_chemical_formula_sum "Si O2"
_cell_formula_units_Z 13
_cell_length_a 15.000000
_cell_length_b 12.000000
_cell_length_c 9.000000
_cell_angle_alpha 50.000000
_cell_angle_beta 150.000000
_cell_angle_gamma 140.000000
_cell_volume 519.584618
_symmetry_space_group_name_H-M "P -1"
_symmetry_group_IT_number 2
_symmetry_cell_setting 'triclinic'
loop_
_space_group_symop_operation_xyz
x,y,z
-x,-y,-z
loop_
_atom_site_type_symbol
_atom_site_label
_atom_site_fract_x
_atom_site_fract_y
_atom_site_fract_z
Si Si1 0.387103 0.486249 0.694024
Si Si2 0.439131 0.025326 0.050974
Si Si3 0.974977 0.822120 0.918847
Si Si4 0.995607 0.862723 0.457426
Si Si5 0.500000 0.500000 0.500000
Si Si6 0.889932 0.295664 0.503609
Si Si7 0.651106 0.188464 0.640273
O O1 0.187314 0.288005 0.579390
O O2 0.502630 0.517672 0.675875
O O3 0.344087 0.639102 0.525167
O O4 0.500000 0.500000 0.000000
O O5 0.636930 0.207825 0.235605
O O6 0.209022 0.994817 0.744441
O O7 0.500000 0.000000 0.000000
O O8 0.427078 0.870857 0.255723
O O9 0.725842 0.688311 0.654802
O O10 0.050402 0.016777 0.813807
O O11 0.038569 0.794516 0.198300
O O12 0.111375 0.766208 0.070566
O O13 0.060074 0.756124 0.536110
O O14 0.000000 0.500000 0.500000
O O15 0.500000 0.000000 0.500000
#
# Coordination Sequence:
#
# PCOD9074770 Si02
#       7
#     2   2   2   2   1   2   2
#     4  12  29  55  84 123 170 220 283 353 426 505
#     4  10  25  45  75 115 157 210 270 342 412 489
#     4  12  27  48  79 119 166 216 277 341 425 503
#     4  11  26  48  77 115 167 214 274 349 424 495
#     4  12  32  48  82 126 162 218 284 346 416 504
#     4  11  24  45  79 118 161 218 281 343 423 501
#     4  12  26  50  83 116 161 220 276 336 424 504
#
# _framework density 25.019985999999999
#
# number of rings (size 3 to 8) (size 9 to 14) (size 15 to 20)
#    0.000    0.615    1.538    4.154    6.462    7.385 
#    0.000    0.000    0.000    0.000    0.000    0.000 
#    0.000    0.000    0.000    0.000    0.000    0.000 
#
# Total GULP energy -72412.071170 kJ/mol
# GULP energy per Si atom -5570.159321 kJ/mol
# Density = 2.496304 g / cm^3
# Si number density = 25.019986 Si / 1000 Ang^3
#
#
#
# Elastic Constant Matrix: (Units=GPa)
#
#
# Indices 1 2 3 4 5 6 
#
# 1 159.2541 74.7141 36.6223 -5.2310 -20.9952 27.1664
# 2 74.7141 222.1255 88.7934 -22.0709 10.5177 28.0223
# 3 36.6223 88.7934 101.2749 -8.8380 -9.1697 10.1955
# 4 -5.2310 -22.0709 -8.8380 46.5136 1.5343 5.7675
# 5 -20.9952 10.5177 -9.1697 1.5343 25.8620 1.2924
# 6 27.1664 28.0223 10.1955 5.7675 1.2924 46.7262
#
#
#
# Elastic Compliance Matrix: (Units=1/GPa)
#
#
# Indices 1 2 3 4 5 6 
#
# 1 0.009753 -0.003675 0.000965 -0.000307 0.009969 -0.003915
# 2 -0.003675 0.009926 -0.007737 0.003434 -0.009853 -0.002279
# 3 0.000965 -0.007737 0.017147 -0.000653 0.010041 0.000140
# 4 -0.000307 0.003434 -0.000653 0.023638 -0.003051 -0.004572
# 5 0.009969 -0.009853 0.010041 -0.003051 0.054669 -0.003213
# 6 -0.003915 -0.002279 0.000140 -0.004572 -0.003213 0.025667
#
#
# Mechanical properties :
#
#
# Convention : Reuss Voigt Hill
#
# Bulk Modulus (GPa) = 62.76489 98.10158 80.43324
# Shear Modulus (GPa) = 29.93934 42.65534 36.29734
#
# Velocity S-wave (km/s) = 3.46297 4.13346 3.81298
# Velocity P-wave (km/s) = 6.41326 7.87878 7.18349
#
# Compressibility (1/GPa) = 0.01593247
#
# Stress axis : x y z
#
# Youngs Moduli (GPa) = 102.52732 100.74259 58.32074
#
# Poissons Ratio (x) = 0.37024 -0.05629
# Poissons Ratio (y) = 0.37680 0.45123
# Poissons Ratio (z) = -0.09895 0.77944
#
# Static dielectric constant tensor:
#      x y z
#    x 2.179060 -0.042100 -0.012330 
#    y -0.042100 1.943170 0.090880 
#    z -0.012330 0.090880 2.159290 
# 
# From -- ./inp_files/160206.got.cif
#   From: 2010.05.17/outbox.ucp.g08.bks.cvg/sg2_81_cif.got.tgz:160206.got - 2010.06.11 11:32:03.
