data_PCOD9074977
_publ_section_title
;
Structure prediction by ZEFSAII (Michael W. Deem and Ramdas Pophale) SiO2 
 PCOD9074977
Probable space group: P -1
;
_chemical_formula_sum "Si O2"
_cell_formula_units_Z 16
_cell_length_a 9.000000
_cell_length_b 15.000000
_cell_length_c 9.000000
_cell_angle_alpha 80.000000
_cell_angle_beta 110.000000
_cell_angle_gamma 140.000000
_cell_volume 725.993766
_symmetry_space_group_name_H-M "P -1"
_symmetry_group_IT_number 2
_symmetry_cell_setting 'triclinic'
loop_
_space_group_symop_operation_xyz
x,y,z
-x,-y,-z
loop_
_atom_site_type_symbol
_atom_site_label
_atom_site_fract_x
_atom_site_fract_y
_atom_site_fract_z
Si Si1 0.635839 0.288002 0.209082
Si Si2 0.825625 0.697066 0.751041
Si Si3 0.842040 0.759007 0.396543
Si Si4 0.346956 0.006033 0.349181
Si Si5 0.553662 0.267905 0.849598
Si Si6 0.151738 0.477543 0.294256
Si Si7 0.292653 0.869964 0.070964
Si Si8 0.302637 0.512767 0.661907
O O1 0.774681 0.441651 0.263764
O O2 0.869378 0.325783 0.248164
O O3 0.476290 0.158710 0.307392
O O4 0.511144 0.249009 0.018052
O O5 0.873710 0.760288 0.585778
O O6 0.711486 0.550400 0.711207
O O7 0.592823 0.644201 0.756625
O O8 0.040221 0.773590 0.920216
O O9 0.645827 0.752673 0.290643
O O10 0.796302 0.635392 0.344398
O O11 0.094750 0.907656 0.377090
O O12 0.286414 0.928036 0.198153
O O13 0.500000 0.000000 0.500000
O O14 0.800630 0.424831 0.835531
O O15 0.609290 0.188753 0.844680
O O16 0.247978 0.532546 0.476901
O O17 0.500000 0.000000 0.000000
#
# Coordination Sequence:
#
# PCOD9074977 Si02
#       8
#     2   2   2   2   2   2   2   2
#     4  12  27  43  68 106 146 180 237 296 347 413
#     4  11  22  47  72 103 140 185 230 295 344 420
#     4  11  25  47  74 105 144 184 234 289 351 422
#     4  12  28  49  71 103 144 189 236 287 351 425
#     4  12  25  43  72 103 139 182 237 286 350 410
#     4  11  21  45  69 104 140 185 232 290 349 416
#     4  12  26  47  71 100 143 190 234 286 355 414
#     4  11  24  43  72 104 142 182 236 290 355 407
#
# _framework density 22.038757
#
# number of rings (size 3 to 8) (size 9 to 14) (size 15 to 20)
#    0.000    0.500    5.000    3.750    5.250    2.000 
#    0.000    1.875    0.000    0.000    0.000    0.000 
#    0.000    0.000    0.000    0.000    0.000    0.000 
#
# Total GULP energy -89160.414308 kJ/mol
# GULP energy per Si atom -5572.525894 kJ/mol
# Density = 2.198860 g / cm^3
# Si number density = 22.038757 Si / 1000 Ang^3
#
#
#
# Elastic Constant Matrix: (Units=GPa)
#
#
# Indices 1 2 3 4 5 6 
#
# 1 50.6105 15.2738 26.6961 0.1342 28.3878 8.4505
# 2 15.2738 96.6059 12.5854 -30.1319 18.4585 15.4247
# 3 26.6961 12.5854 95.9226 3.9330 23.0868 -3.9476
# 4 0.1342 -30.1319 3.9330 38.5276 -4.9078 1.7821
# 5 28.3878 18.4585 23.0868 -4.9078 33.3535 -2.6308
# 6 8.4505 15.4247 -3.9476 1.7821 -2.6308 34.6734
#
#
#
# Elastic Compliance Matrix: (Units=1/GPa)
#
#
# Indices 1 2 3 4 5 6 
#
# 1 0.045617 0.002695 -0.004262 -0.001843 -0.038873 -0.015657
# 2 0.002695 0.017799 -0.001686 0.013304 -0.009824 -0.010196
# 3 -0.004262 -0.001686 0.013277 -0.003426 -0.004889 0.003106
# 4 -0.001843 0.013304 -0.003426 0.037256 0.001455 -0.007663
# 5 -0.038873 -0.009824 -0.004889 0.001455 0.073585 0.018796
# 6 -0.015657 -0.010196 0.003106 -0.007663 0.018796 0.039366
#
#
# Mechanical properties :
#
#
# Convention : Reuss Voigt Hill
#
# Bulk Modulus (GPa) = 14.24738 39.13885 26.69312
# Shear Modulus (GPa) = 19.47025 33.88315 26.67670
#
# Velocity S-wave (km/s) = 2.97552 3.92527 3.48292
# Velocity P-wave (km/s) = 4.27594 6.19203 5.32095
#
# Compressibility (1/GPa) = 0.07018837
#
# Stress axis : x y z
#
# Youngs Moduli (GPa) = 21.92176 56.18155 75.31615
#
# Poissons Ratio (x) = -0.15143 0.32099
# Poissons Ratio (y) = -0.05909 0.12699
# Poissons Ratio (z) = 0.09343 0.09473
#
# Static dielectric constant tensor:
#      x y z
#    x 1.848140 0.003740 -0.049560 
#    y 0.003740 1.852960 0.036830 
#    z -0.049560 0.036830 1.952570 
# 
# From -- ./inp_files/207093.got.cif
#   From: 2010.05.17/outbox.ucp.g08.bks.cvg/sg2_104_cif.got.tgz:207093.got - 2010.06.11 11:32:03.
