data_PCOD9074754
_publ_section_title
;
Structure prediction by ZEFSAII (Michael W. Deem and Ramdas Pophale) SiO2 
 PCOD9074754
Probable space group: P -1
;
_chemical_formula_sum "Si O2"
_cell_formula_units_Z 16
_cell_length_a 12.000000
_cell_length_b 12.000000
_cell_length_c 9.000000
_cell_angle_alpha 50.000000
_cell_angle_beta 50.000000
_cell_angle_gamma 70.000000
_cell_volume 754.912344
_symmetry_space_group_name_H-M "P -1"
_symmetry_group_IT_number 2
_symmetry_cell_setting 'triclinic'
loop_
_space_group_symop_operation_xyz
x,y,z
-x,-y,-z
loop_
_atom_site_type_symbol
_atom_site_label
_atom_site_fract_x
_atom_site_fract_y
_atom_site_fract_z
Si Si1 0.174839 0.548361 0.608813
Si Si2 0.019379 0.951769 0.193343
Si Si3 0.307909 0.786308 0.065648
Si Si4 0.459777 0.067968 0.822722
Si Si5 0.125978 0.311206 0.281815
Si Si6 0.831623 0.773854 0.024163
Si Si7 0.405783 0.614012 0.570171
Si Si8 0.630677 0.443456 0.022425
O O1 0.290226 0.653436 0.317197
O O2 0.239656 0.570259 0.699337
O O3 0.022279 0.611574 0.668847
O O4 0.163218 0.372314 0.754771
O O5 0.162536 0.865229 0.141396
O O6 0.898241 0.834903 0.472092
O O7 0.041846 0.098004 0.148965
O O8 0.000000 0.000000 0.000000
O O9 0.319743 0.698752 0.978234
O O10 0.434131 0.924267 0.861898
O O11 0.577321 0.210235 0.595787
O O12 0.313732 0.150078 0.882610
O O13 0.500000 0.000000 0.000000
O O14 0.166489 0.266103 0.118080
O O15 0.239381 0.427870 0.169617
O O16 0.500000 0.500000 0.500000
O O17 0.437250 0.588135 0.733172
O O18 0.500000 0.500000 0.000000
#
# Coordination Sequence:
#
# PCOD9074754 Si02
#       8
#     2   2   2   2   2   2   2   2
#     4  11  22  41  74  97 131 169 232 277 332 405
#     4  10  25  43  66  97 139 177 210 273 346 410
#     4  10  25  43  63 102 130 175 223 272 341 396
#     4  11  23  41  69  94 137 175 221 276 333 393
#     4  11  25  44  67 101 131 176 226 286 332 392
#     4  11  23  42  70 100 129 177 228 277 333 399
#     4  12  23  44  72 101 128 181 225 273 337 397
#     4  12  28  43  68  99 136 174 230 282 335 402
#
# _framework density 21.194514000000002
#
# number of rings (size 3 to 8) (size 9 to 14) (size 15 to 20)
#    0.000    1.000    3.750    1.500    5.250    2.500 
#    2.250    0.000    0.000    0.000    0.000    0.000 
#    0.000    0.000    0.000    0.000    0.000    0.000 
#
# Total GULP energy -89136.185034 kJ/mol
# GULP energy per Si atom -5571.011565 kJ/mol
# Density = 2.114627 g / cm^3
# Si number density = 21.194514 Si / 1000 Ang^3
#
#
#
# Elastic Constant Matrix: (Units=GPa)
#
#
# Indices 1 2 3 4 5 6 
#
# 1 74.4869 39.4472 11.7482 -18.4054 14.8130 13.7484
# 2 39.4472 153.9117 60.7399 -36.8714 -4.5427 40.0132
# 3 11.7482 60.7399 61.8378 -32.7916 26.0640 14.9078
# 4 -18.4054 -36.8714 -32.7916 42.8035 0.7744 1.8250
# 5 14.8130 -4.5427 26.0640 0.7744 33.5982 -8.5593
# 6 13.7484 40.0132 14.9078 1.8250 -8.5593 45.3306
#
#
#
# Elastic Compliance Matrix: (Units=1/GPa)
#
#
# Indices 1 2 3 4 5 6 
#
# 1 -0.001417 0.007053 -0.041925 -0.028060 0.038946 0.016476
# 2 0.007053 0.008369 0.017833 0.025168 -0.021611 -0.020485
# 3 -0.041925 0.017833 -0.083767 -0.070601 0.099251 0.046106
# 4 -0.028060 0.025168 -0.070601 -0.023582 0.077479 0.025092
# 5 0.038946 -0.021611 0.099251 0.077479 -0.080228 -0.043645
# 6 0.016476 -0.020485 0.046106 0.025092 -0.043645 0.010731
#
#
# Mechanical properties :
#
#
# Convention : Reuss Voigt Hill
#
# Bulk Modulus (GPa) = -9.01763 57.12301 24.05269
# Shear Modulus (GPa) = -28.93852 36.23319 3.64734
#
# Velocity S-wave (km/s) = -3.69911 4.13916 1.31325
# Velocity P-wave (km/s) = 4.74431 7.06073 3.69766
#
# Compressibility (1/GPa) = -0.11089391
#
# Stress axis : x y z
#
# Youngs Moduli (GPa) = -705.83571 119.48917 -11.93784
#
# Poissons Ratio (x) = -0.84273 -0.50050
# Poissons Ratio (y) = 4.97807 0.21289
# Poissons Ratio (z) = -29.59227 -2.13085
#
# Static dielectric constant tensor:
#      x y z
#    x 1.791330 0.053080 -0.081330 
#    y 0.053080 1.735210 -0.082770 
#    z -0.081330 -0.082770 1.996200 
# 
# From -- ./inp_files/261430.got.cif
#   From: 2010.05.17/outbox.ucp.g08.bks.cvg/sg2_131_cif.got.tgz:261430.got - 2010.06.11 11:32:03.
