data_PCOD9074866
_publ_section_title
;
Structure prediction by ZEFSAII (Michael W. Deem and Ramdas Pophale) SiO2 
 PCOD9074866
Probable space group: P -1
;
_chemical_formula_sum "Si O2"
_cell_formula_units_Z 14
_cell_length_a 15.000000
_cell_length_b 27.000000
_cell_length_c 27.000000
_cell_angle_alpha 170.000000
_cell_angle_beta 160.000000
_cell_angle_gamma 20.000000
_cell_volume 630.401208
_symmetry_space_group_name_H-M "P -1"
_symmetry_group_IT_number 2
_symmetry_cell_setting 'triclinic'
loop_
_space_group_symop_operation_xyz
x,y,z
-x,-y,-z
loop_
_atom_site_type_symbol
_atom_site_label
_atom_site_fract_x
_atom_site_fract_y
_atom_site_fract_z
Si Si1 0.344297 0.657142 0.366177
Si Si2 0.761809 0.235643 0.886387
Si Si3 0.736365 0.822433 0.221456
Si Si4 0.454997 0.406397 0.274737
Si Si5 0.346311 0.092498 0.587495
Si Si6 0.358584 0.163091 0.136016
Si Si7 0.155589 0.604602 0.057269
O O1 0.521241 0.564099 0.415097
O O2 0.047127 0.836597 0.405881
O O3 0.427911 0.856285 0.563460
O O4 0.291194 0.368207 0.028901
O O5 0.778789 0.010338 0.628198
O O6 0.044875 0.317815 0.119398
O O7 0.656682 0.080079 0.725681
O O8 0.500000 0.500000 0.000000
O O9 0.686847 0.618719 0.039447
O O10 0.162934 0.339356 0.046874
O O11 0.641574 0.096703 0.081040
O O12 0.468965 0.623914 0.541694
O O13 0.207215 0.420253 0.852540
O O14 0.274222 0.885221 0.388498
O O15 0.500000 0.000000 0.000000
#
# Coordination Sequence:
#
# PCOD9074866 Si02
#       7
#     2   2   2   2   2   2   2
#     4   9  17  32  50  81 118 160 188 236 294 363
#     4  11  25  43  64  84 119 162 209 248 293 348
#     4   9  17  29  54  81 119 152 194 237 298 347
#     4  11  23  37  58  88 128 158 197 243 309 360
#     4  11  23  37  62  83 118 156 201 254 290 348
#     4  12  26  40  62  89 123 161 199 246 306 354
#     4  11  20  36  58  94 122 155 195 255 299 352
#
# _framework density 22.208079000000001
#
# number of rings (size 3 to 8) (size 9 to 14) (size 15 to 20)
#    0.000    1.429    1.429    4.714    4.000    4.571 
#    0.000    0.000    0.000    0.000    0.000   20.000 
#    0.000    0.000    0.000    0.000    0.000    0.000 
#
# Total GULP energy -78063.862750 kJ/mol
# GULP energy per Si atom -5575.990196 kJ/mol
# Density = 2.215753 g / cm^3
# Si number density = 22.208079 Si / 1000 Ang^3
#
#
#
# Elastic Constant Matrix: (Units=GPa)
#
#
# Indices 1 2 3 4 5 6 
#
# 1 63.2405 47.5360 31.0702 -2.4487 12.8186 16.7179
# 2 47.5360 75.2942 25.9584 9.2879 11.1209 11.9764
# 3 31.0702 25.9584 107.8794 4.9120 3.8906 6.0389
# 4 -2.4487 9.2879 4.9120 28.7165 2.8842 9.5279
# 5 12.8186 11.1209 3.8906 2.8842 44.1778 2.3537
# 6 16.7179 11.9764 6.0389 9.5279 2.3537 24.9396
#
#
#
# Elastic Compliance Matrix: (Units=1/GPa)
#
#
# Indices 1 2 3 4 5 6 
#
# 1 0.047096 -0.025019 -0.006876 0.022553 -0.006856 -0.025860
# 2 -0.025019 0.029414 0.000322 -0.014403 0.000339 0.008039
# 3 -0.006876 0.000322 0.011133 -0.003720 0.001012 0.003085
# 4 0.022553 -0.014403 -0.003720 0.051276 -0.004528 -0.026463
# 5 -0.006856 0.000339 0.001012 -0.004528 0.024555 0.003601
# 6 -0.025860 0.008039 0.003085 -0.026463 0.003601 0.062594
#
#
# Mechanical properties :
#
#
# Convention : Reuss Voigt Hill
#
# Bulk Modulus (GPa) = 40.82303 50.61590 45.71946
# Shear Modulus (GPa) = 16.81357 29.02340 22.91849
#
# Velocity S-wave (km/s) = 2.75452 3.61901 3.21594
# Velocity P-wave (km/s) = 5.34214 6.34855 5.86696
#
# Compressibility (1/GPa) = 0.02449598
#
# Stress axis : x y z
#
# Youngs Moduli (GPa) = 21.23328 33.99782 89.82515
#
# Poissons Ratio (x) = 0.85059 0.61763
# Poissons Ratio (y) = 0.53123 -0.02889
# Poissons Ratio (z) = 0.14600 -0.01093
#
# Static dielectric constant tensor:
#      x y z
#    x 1.962050 0.059560 0.056900 
#    y 0.059560 1.802070 0.044540 
#    z 0.056900 0.044540 1.865960 
# 
# From -- ./inp_files/620004.got.cif
#   From: 2010.05.17/outbox.ucp.g08.bks.cvg/sg2_311_cif.got.tgz:620004.got - 2010.06.11 11:32:03.
