data_PCOD9074557
_publ_section_title
;
Structure prediction by ZEFSAII (Michael W. Deem and Ramdas Pophale) SiO2 
 PCOD9074557
Probable space group: P -1
;
_chemical_formula_sum "Si O2"
_cell_formula_units_Z 16
_cell_length_a 15.000000
_cell_length_b 12.000000
_cell_length_c 12.000000
_cell_angle_alpha 120.000000
_cell_angle_beta 150.000000
_cell_angle_gamma 80.000000
_cell_volume 748.962810
_symmetry_space_group_name_H-M "P -1"
_symmetry_group_IT_number 2
_symmetry_cell_setting 'triclinic'
loop_
_space_group_symop_operation_xyz
x,y,z
-x,-y,-z
loop_
_atom_site_type_symbol
_atom_site_label
_atom_site_fract_x
_atom_site_fract_y
_atom_site_fract_z
Si Si1 0.210362 0.498428 0.699408
Si Si2 0.187014 0.258740 0.261175
Si Si3 0.134324 0.162208 0.801440
Si Si4 0.849716 0.459762 0.590845
Si Si5 0.798664 0.065497 0.574763
Si Si6 0.703266 0.749692 0.385562
Si Si7 0.306339 0.523415 0.157050
Si Si8 0.406338 0.747605 0.580490
O O1 0.260732 0.563679 0.659793
O O2 0.190608 0.332982 0.598514
O O3 0.000000 0.500000 0.500000
O O4 0.444656 0.616819 0.074095
O O5 0.143263 0.392765 0.282004
O O6 0.167126 0.191168 0.328208
O O7 0.438219 0.341506 0.533559
O O8 0.992558 0.130204 0.907113
O O9 0.936676 0.137647 0.647712
O O10 0.262634 0.351641 0.002393
O O11 0.330398 0.166494 0.077707
O O12 0.000000 0.000000 0.500000
O O13 0.707793 0.317111 0.454105
O O14 0.096086 0.505639 0.865079
O O15 0.653655 0.133221 0.467644
O O16 0.692933 0.877558 0.369807
O O17 0.305894 0.590003 0.313937
#
# Coordination Sequence:
#
# PCOD9074557 Si02
#       8
#     2   2   2   2   2   2   2   2
#     4  10  23  46  68  96 130 185 228 272 337 402
#     4  11  22  43  70  98 127 176 231 284 330 392
#     4  12  28  41  65 101 140 181 218 279 344 403
#     4  11  22  37  72  97 127 171 230 276 325 407
#     4  12  25  44  66 100 142 173 224 283 340 402
#     4  10  25  43  68  96 135 177 227 280 336 399
#     4  12  22  43  70  99 135 178 232 276 331 409
#     4  12  24  43  68 102 133 180 224 272 347 401
#
# _framework density 21.362876
#
# number of rings (size 3 to 8) (size 9 to 14) (size 15 to 20)
#    0.000    0.750    5.000    2.625    1.750    4.500 
#    0.000    0.625    0.000    0.000    0.000    0.000 
#    0.000    0.000    0.000    0.000    0.000    0.000 
#
# Total GULP energy -89123.942899 kJ/mol
# GULP energy per Si atom -5570.246431 kJ/mol
# Density = 2.131425 g / cm^3
# Si number density = 21.362876 Si / 1000 Ang^3
#
#
#
# Elastic Constant Matrix: (Units=GPa)
#
#
# Indices 1 2 3 4 5 6 
#
# 1 22.0839 28.0396 20.3364 -0.2702 15.0175 -26.3455
# 2 28.0396 128.5891 26.4850 -7.1248 5.9660 -17.9237
# 3 20.3364 26.4850 95.5208 -9.4101 -16.3215 -19.1010
# 4 -0.2702 -7.1248 -9.4101 33.6306 -5.9423 10.4441
# 5 15.0175 5.9660 -16.3215 -5.9423 32.8141 -10.5227
# 6 -26.3455 -17.9237 -19.1010 10.4441 -10.5227 34.9167
#
#
#
# Elastic Compliance Matrix: (Units=1/GPa)
#
#
# Indices 1 2 3 4 5 6 
#
# 1 -0.186852 0.018951 0.030650 0.058069 0.072556 -0.109993
# 2 0.018951 0.006765 -0.005266 -0.005810 -0.009124 0.013879
# 3 0.030650 -0.005266 0.010318 -0.006715 -0.000166 0.028025
# 4 0.058069 -0.005810 -0.006715 0.015560 -0.017289 0.027294
# 5 0.072556 -0.009124 -0.000166 -0.017289 0.014831 0.059612
# 6 -0.109993 0.013879 0.028025 0.027294 0.059612 -0.022096
#
#
# Mechanical properties :
#
#
# Convention : Reuss Voigt Hill
#
# Bulk Modulus (GPa) = -12.33029 43.99064 15.83017
# Shear Modulus (GPa) = -18.03908 31.69447 6.82769
#
# Velocity S-wave (km/s) = -2.90903 3.85596 1.78969
# Velocity P-wave (km/s) = 4.13130 6.36093 3.42007
#
# Compressibility (1/GPa) = -0.08110108
#
# Stress axis : x y z
#
# Youngs Moduli (GPa) = -5.35183 147.81973 96.91708
#
# Poissons Ratio (x) = -2.80131 -2.97046
# Poissons Ratio (y) = 0.10142 0.51041
# Poissons Ratio (z) = 0.16403 0.77849
#
# Static dielectric constant tensor:
#      x y z
#    x 1.845110 0.027660 -0.054570 
#    y 0.027660 1.771090 0.049360 
#    z -0.054570 0.049360 1.798320 
# 
# From -- ./inp_files/428652.got.cif
#   From: 2010.05.17/outbox.ucp.g08.bks.cvg/sg2_215_cif.got.tgz:428652.got - 2010.06.11 11:32:03.
