data_PCOD9074097
_publ_section_title
;
Structure prediction by ZEFSAII (Michael W. Deem and Ramdas Pophale) SiO2 
 PCOD9074097
Probable space group: P -1
;
_chemical_formula_sum "Si O2"
_cell_formula_units_Z 16
_cell_length_a 15.000000
_cell_length_b 9.000000
_cell_length_c 15.000000
_cell_angle_alpha 60.000000
_cell_angle_beta 40.000000
_cell_angle_gamma 40.000000
_cell_volume 817.999524
_symmetry_space_group_name_H-M "P -1"
_symmetry_group_IT_number 2
_symmetry_cell_setting 'triclinic'
loop_
_space_group_symop_operation_xyz
x,y,z
-x,-y,-z
loop_
_atom_site_type_symbol
_atom_site_label
_atom_site_fract_x
_atom_site_fract_y
_atom_site_fract_z
Si Si1 0.404301 0.184925 0.099492
Si Si2 0.815098 0.775478 0.573241
Si Si3 0.686884 0.222890 0.918604
Si Si4 0.607101 0.531322 0.478162
Si Si5 0.522816 0.974955 0.382001
Si Si6 0.137136 0.728891 0.076510
Si Si7 0.980022 0.011467 0.405116
Si Si8 0.712114 0.145865 0.221529
O O1 0.293332 0.176103 0.265005
O O2 0.253273 0.457853 0.096134
O O3 0.586755 0.124579 0.021956
O O4 0.500000 0.000000 0.000000
O O5 0.000000 0.500000 0.500000
O O6 0.671075 0.868091 0.573335
O O7 0.892099 0.903074 0.477916
O O8 0.830072 0.156884 0.906271
O O9 0.500000 0.500000 0.000000
O O10 0.814110 0.140572 0.756149
O O11 0.500000 0.500000 0.500000
O O12 0.625148 0.705917 0.370158
O O13 0.816281 0.286093 0.418872
O O14 0.458067 0.667203 0.634918
O O15 0.500000 0.000000 0.500000
O O16 0.632747 0.056034 0.249887
O O17 0.229301 0.737210 0.915398
O O18 0.909008 0.907141 0.185898
O O19 0.000000 0.000000 0.500000
#
# Coordination Sequence:
#
# PCOD9074097 Si02
#       8
#     2   2   2   2   2   2   2   2
#     4  11  25  41  67  98 143 174 222 289 347 394
#     4  12  26  43  70 102 135 180 233 279 334 414
#     4  10  22  42  65  87 132 176 218 268 333 402
#     4  11  23  42  67  93 140 171 217 284 345 393
#     4  10  24  42  67  97 134 175 226 281 340 398
#     4  10  22  42  67  92 130 182 230 266 332 418
#     4  12  27  41  69 104 135 174 226 279 347 398
#     4  10  23  40  69  94 127 180 231 271 330 411
#
# _framework density 19.559913999999999
#
# number of rings (size 3 to 8) (size 9 to 14) (size 15 to 20)
#    0.000    1.250    1.250    3.750   14.000    1.000 
#    0.000    0.000    0.000    5.250    0.000    0.000 
#    0.000    0.000    0.000    0.000    0.000    0.000 
#
# Total GULP energy -89308.027349 kJ/mol
# GULP energy per Si atom -5581.751709 kJ/mol
# Density = 1.951539 g / cm^3
# Si number density = 19.559914 Si / 1000 Ang^3
#
#
#
# Elastic Constant Matrix: (Units=GPa)
#
#
# Indices 1 2 3 4 5 6 
#
# 1 96.7227 31.9814 -0.7885 14.9509 -10.0603 -6.0784
# 2 31.9814 120.2547 25.4001 11.2205 -4.8708 -10.3440
# 3 -0.7885 25.4001 123.9023 20.6758 0.8004 0.2045
# 4 14.9509 11.2205 20.6758 30.9317 3.1741 -1.8608
# 5 -10.0603 -4.8708 0.8004 3.1741 40.4936 0.0130
# 6 -6.0784 -10.3440 0.2045 -1.8608 0.0130 39.4536
#
#
#
# Elastic Compliance Matrix: (Units=1/GPa)
#
#
# Indices 1 2 3 4 5 6 
#
# 1 0.012733 -0.002938 0.001753 -0.006546 0.003288 0.000873
# 2 -0.002938 0.009772 -0.001898 -0.000787 0.000544 0.002082
# 3 0.001753 -0.001898 0.009579 -0.006652 0.000540 -0.000591
# 4 -0.006546 -0.000787 -0.006652 0.040761 -0.004785 0.000744
# 5 0.003288 0.000544 0.000540 -0.004785 0.025942 0.000412
# 6 0.000873 0.002082 -0.000591 0.000744 0.000412 0.026065
#
#
# Mechanical properties :
#
#
# Convention : Reuss Voigt Hill
#
# Bulk Modulus (GPa) = 38.58131 50.45174 44.51652
# Shear Modulus (GPa) = 35.80225 41.12823 38.46524
#
# Velocity S-wave (km/s) = 4.28295 4.59047 4.43937
# Velocity P-wave (km/s) = 6.65024 7.34480 7.00613
#
# Compressibility (1/GPa) = 0.02591929
#
# Stress axis : x y z
#
# Youngs Moduli (GPa) = 78.53580 102.32987 104.39896
#
# Poissons Ratio (x) = 0.30060 -0.18299
# Poissons Ratio (y) = 0.23070 0.19811
# Poissons Ratio (z) = -0.13766 0.19418
#
# Static dielectric constant tensor:
#      x y z
#    x 1.812820 0.076340 0.059190 
#    y 0.076340 1.741440 0.001400 
#    z 0.059190 0.001400 1.724910 
# 
# From -- ./inp_files/528246.got.cif
#   From: 2010.05.17/outbox.ucp.g08.bks.cvg/sg2_265_cif.got.tgz:528246.got - 2010.06.11 11:32:03.
