data_PCOD9074684
_publ_section_title
;
Structure prediction by ZEFSAII (Michael W. Deem and Ramdas Pophale) SiO2 
 PCOD9074684
Probable space group: P -1
;
_chemical_formula_sum "Si O2"
_cell_formula_units_Z 16
_cell_length_a 9.000000
_cell_length_b 24.000000
_cell_length_c 9.000000
_cell_angle_alpha 150.000000
_cell_angle_beta 60.000000
_cell_angle_gamma 130.000000
_cell_volume 736.400153
_symmetry_space_group_name_H-M "P -1"
_symmetry_group_IT_number 2
_symmetry_cell_setting 'triclinic'
loop_
_space_group_symop_operation_xyz
x,y,z
-x,-y,-z
loop_
_atom_site_type_symbol
_atom_site_label
_atom_site_fract_x
_atom_site_fract_y
_atom_site_fract_z
Si Si1 0.045495 0.048598 0.913022
Si Si2 0.720657 0.101260 0.096868
Si Si3 0.887353 0.295924 0.721741
Si Si4 0.404184 0.602162 0.931293
Si Si5 0.234443 0.314677 0.257604
Si Si6 0.684427 0.471648 0.875030
Si Si7 0.155574 0.708251 0.761583
Si Si8 0.269253 0.896985 0.395821
O O1 0.144219 0.971335 0.610072
O O2 0.177124 0.199815 0.142550
O O3 0.844502 0.027522 0.889794
O O4 0.000000 0.000000 0.000000
O O5 0.837013 0.235076 0.440905
O O6 0.711436 0.155720 0.067948
O O7 0.500000 0.000000 0.000000
O O8 0.786323 0.162133 0.549100
O O9 0.765115 0.370228 0.981497
O O10 0.115133 0.395714 0.875935
O O11 0.344347 0.453806 0.599247
O O12 0.608536 0.686363 0.940179
O O13 0.399279 0.618853 0.148245
O O14 0.058906 0.320076 0.261577
O O15 0.766432 0.394136 0.547950
O O16 0.500000 0.500000 0.000000
O O17 0.185257 0.761464 0.036835
O O18 0.500000 0.000000 0.500000
#
# Coordination Sequence:
#
# PCOD9074684 Si02
#       8
#     2   2   2   2   2   2   2   2
#     4  11  24  46  73 104 145 190 248 294 359 442
#     4  11  24  44  74 105 139 196 245 294 361 440
#     4  12  24  46  76 105 147 196 243 303 369 437
#     4  11  23  46  76 104 144 188 246 296 371 441
#     4  10  24  44  74 107 141 192 236 305 368 431
#     4  12  27  44  75 108 145 194 251 304 369 439
#     4  11  25  46  69 103 151 182 249 302 367 438
#     4  12  28  45  72 108 150 193 240 310 370 430
#
# _framework density 21.727318
#
# number of rings (size 3 to 8) (size 9 to 14) (size 15 to 20)
#    0.000    0.750    3.750    3.375    1.750    8.500 
#    0.000    0.000    0.000    0.000    0.000    0.000 
#    0.000    0.000    0.000    0.000    0.000    0.000 
#
# Total GULP energy -89074.569243 kJ/mol
# GULP energy per Si atom -5567.160578 kJ/mol
# Density = 2.167787 g / cm^3
# Si number density = 21.727318 Si / 1000 Ang^3
#
#
#
# Elastic Constant Matrix: (Units=GPa)
#
#
# Indices 1 2 3 4 5 6 
#
# 1 134.6190 36.5595 39.4425 3.4501 -37.2370 27.1517
# 2 36.5595 103.7905 3.9363 12.5181 -10.4024 20.1726
# 3 39.4425 3.9363 100.4103 -12.0874 -26.8116 15.3875
# 4 3.4501 12.5181 -12.0874 34.1410 -1.1627 -6.7934
# 5 -37.2370 -10.4024 -26.8116 -1.1627 45.9608 0.6238
# 6 27.1517 20.1726 15.3875 -6.7934 0.6238 46.4141
#
#
#
# Elastic Compliance Matrix: (Units=1/GPa)
#
#
# Indices 1 2 3 4 5 6 
#
# 1 0.012036 -0.001918 -0.001751 -0.002051 0.008326 -0.006039
# 2 -0.001918 0.012027 0.000928 -0.004855 0.001657 -0.005146
# 3 -0.001751 0.000928 0.013428 0.004162 0.006775 -0.003313
# 4 -0.002051 -0.004855 0.004162 0.034143 0.000437 0.006922
# 5 0.008326 0.001657 0.006775 0.000437 0.032953 -0.008216
# 6 -0.006039 -0.005146 -0.003313 0.006922 -0.008216 0.029536
#
#
# Mechanical properties :
#
#
# Convention : Reuss Voigt Hill
#
# Bulk Modulus (GPa) = 31.23922 55.41069 43.32495
# Shear Modulus (GPa) = 33.27245 42.56197 37.91721
#
# Velocity S-wave (km/s) = 3.91751 4.43076 4.18202
# Velocity P-wave (km/s) = 5.90522 7.19261 6.58047
#
# Compressibility (1/GPa) = 0.03201104
#
# Stress axis : x y z
#
# Youngs Moduli (GPa) = 83.08567 83.14766 74.46864
#
# Poissons Ratio (x) = 0.15944 0.13039
# Poissons Ratio (y) = 0.15932 -0.06914
# Poissons Ratio (z) = 0.14548 -0.07720
#
# Static dielectric constant tensor:
#      x y z
#    x 1.821710 0.008260 -0.007850 
#    y 0.008260 1.876290 -0.063140 
#    z -0.007850 -0.063140 1.815360 
# 
# From -- ./inp_files/226781.got.cif
#   From: 2010.05.17/outbox.ucp.g08.bks.cvg/sg2_114_cif.got.tgz:226781.got - 2010.06.11 11:32:03.
