data_PCOD9074208
_publ_section_title
;
Structure prediction by ZEFSAII (Michael W. Deem and Ramdas Pophale) SiO2 
 PCOD9074208
Probable space group: P -1
;
_chemical_formula_sum "Si O2"
_cell_formula_units_Z 14
_cell_length_a 12.000000
_cell_length_b 9.000000
_cell_length_c 9.000000
_cell_angle_alpha 120.000000
_cell_angle_beta 70.000000
_cell_angle_gamma 70.000000
_cell_volume 614.029152
_symmetry_space_group_name_H-M "P -1"
_symmetry_group_IT_number 2
_symmetry_cell_setting 'triclinic'
loop_
_space_group_symop_operation_xyz
x,y,z
-x,-y,-z
loop_
_atom_site_type_symbol
_atom_site_label
_atom_site_fract_x
_atom_site_fract_y
_atom_site_fract_z
Si Si1 0.227033 0.568416 0.078323
Si Si2 0.695712 0.320518 0.612082
Si Si3 0.213094 0.268549 0.168639
Si Si4 0.888794 0.390028 0.378731
Si Si5 0.431540 0.767432 0.782443
Si Si6 0.129183 0.805851 0.958504
Si Si7 0.495121 0.802407 0.436969
O O1 0.280881 0.658761 0.217750
O O2 0.194052 0.426326 0.122223
O O3 0.106623 0.770185 0.122552
O O4 0.369978 0.395012 0.822995
O O5 0.841425 0.266073 0.433647
O O6 0.554632 0.562789 0.729870
O O7 0.659745 0.154676 0.521216
O O8 0.203766 0.378015 0.381345
O O9 0.065351 0.280604 0.245815
O O10 0.363826 0.016947 0.972671
O O11 0.842714 0.401888 0.238283
O O12 0.500902 0.733980 0.570653
O O13 0.279914 0.785605 0.861677
O O14 0.000000 0.000000 0.000000
O O15 0.500000 0.000000 0.500000
#
# Coordination Sequence:
#
# PCOD9074208 Si02
#       7
#     2   2   2   2   2   2   2
#     4  11  25  45  68 101 144 176 231 286 344 400
#     4  11  24  45  71 101 141 185 221 286 346 413
#     4  10  23  45  68 103 138 181 227 286 339 405
#     4  10  22  43  71  96 139 180 229 274 347 409
#     4  12  23  43  71 100 138 184 230 272 351 417
#     4  12  24  44  72  95 134 193 233 278 341 416
#     4  12  23  41  69 108 138 175 228 288 342 405
#
# _framework density 22.800219999999999
#
# number of rings (size 3 to 8) (size 9 to 14) (size 15 to 20)
#    0.000    0.857    5.714    1.714    0.000    2.857 
#    2.571    2.857    6.286    0.000    0.000    0.000 
#    0.000    0.000    0.000    0.000    0.000    0.000 
#
# Total GULP energy -78106.768728 kJ/mol
# GULP energy per Si atom -5579.054909 kJ/mol
# Density = 2.274833 g / cm^3
# Si number density = 22.800220 Si / 1000 Ang^3
#
#
#
# Elastic Constant Matrix: (Units=GPa)
#
#
# Indices 1 2 3 4 5 6 
#
# 1 129.7705 58.3389 27.8344 -11.1177 14.1108 12.9166
# 2 58.3389 145.4607 31.8888 -11.9606 14.3648 -5.5842
# 3 27.8344 31.8888 99.8942 -11.7950 21.1167 -15.4557
# 4 -11.1177 -11.9606 -11.7950 23.5340 -0.2138 10.0879
# 5 14.1108 14.3648 21.1167 -0.2138 37.1480 -13.2631
# 6 12.9166 -5.5842 -15.4557 10.0879 -13.2631 41.5037
#
#
#
# Elastic Compliance Matrix: (Units=1/GPa)
#
#
# Indices 1 2 3 4 5 6 
#
# 1 0.011428 -0.003578 -0.001492 0.006043 -0.004785 -0.007592
# 2 -0.003578 0.008861 -0.001259 0.001691 -0.000940 0.001126
# 3 -0.001492 -0.001259 0.012800 0.004002 -0.005350 0.002379
# 4 0.006043 0.001691 0.004002 0.055473 -0.011037 -0.017173
# 5 -0.004785 -0.000940 -0.005350 -0.011037 0.037037 0.013889
# 6 -0.007592 0.001126 0.002379 -0.017173 0.013889 0.036107
#
#
# Mechanical properties :
#
#
# Convention : Reuss Voigt Hill
#
# Bulk Modulus (GPa) = 48.94560 67.91662 58.43111
# Shear Modulus (GPa) = 27.59789 37.57470 32.58630
#
# Velocity S-wave (km/s) = 3.48289 4.06396 3.78459
# Velocity P-wave (km/s) = 6.13904 7.20232 6.69183
#
# Compressibility (1/GPa) = 0.02043085
#
# Stress axis : x y z
#
# Youngs Moduli (GPa) = 87.50293 112.85463 78.12676
#
# Poissons Ratio (x) = 0.40384 0.11653
# Poissons Ratio (y) = 0.31312 0.09837
# Poissons Ratio (z) = 0.13051 0.14209
#
# Static dielectric constant tensor:
#      x y z
#    x 1.914480 0.009460 0.055210 
#    y 0.009460 1.839550 0.078450 
#    z 0.055210 0.078450 1.990780 
# 
# From -- ./inp_files/245414.got.cif
#   From: 2010.05.17/outbox.ucp.g08.bks.cvg/sg2_123_cif.got.tgz:245414.got - 2010.06.11 11:32:03.
