data_PCOD9074370
_publ_section_title
;
Structure prediction by ZEFSAII (Michael W. Deem and Ramdas Pophale) SiO2 
 PCOD9074370
Probable space group: P -1
;
_chemical_formula_sum "Si O2"
_cell_formula_units_Z 16
_cell_length_a 24.000000
_cell_length_b 18.000000
_cell_length_c 15.000000
_cell_angle_alpha 20.000000
_cell_angle_beta 30.000000
_cell_angle_gamma 20.000000
_cell_volume 749.971719
_symmetry_space_group_name_H-M "P -1"
_symmetry_group_IT_number 2
_symmetry_cell_setting 'triclinic'
loop_
_space_group_symop_operation_xyz
x,y,z
-x,-y,-z
loop_
_atom_site_type_symbol
_atom_site_label
_atom_site_fract_x
_atom_site_fract_y
_atom_site_fract_z
Si Si1 0.379600 0.327927 0.125508
Si Si2 0.360740 0.541870 0.104189
Si Si3 0.276367 0.930001 0.524418
Si Si4 0.359757 0.450596 0.538968
Si Si5 0.134798 0.165163 0.091454
Si Si6 0.158417 0.219297 0.541573
Si Si7 0.273106 0.352182 0.600798
Si Si8 0.218911 0.280783 0.029506
O O1 0.414068 0.350415 0.154492
O O2 0.276631 0.255641 0.350065
O O3 0.557084 0.013410 0.197123
O O4 0.292478 0.645658 0.832295
O O5 0.297199 0.455076 0.361405
O O6 0.500000 0.500000 0.000000
O O7 0.224838 0.903926 0.849447
O O8 0.453623 0.759890 0.506271
O O9 0.145557 0.195046 0.480897
O O10 0.257521 0.066064 0.300443
O O11 0.254597 0.543080 0.492825
O O12 0.271959 0.788588 0.315248
O O13 0.351418 0.266397 0.829102
O O14 0.172693 0.211124 0.084051
O O15 0.144506 0.343450 0.802556
O O16 0.949053 0.346384 0.138040
O O17 0.000000 0.500000 0.500000
#
# Coordination Sequence:
#
# PCOD9074370 Si02
#       8
#     2   2   2   2   2   2   2   2
#     4  11  22  41  63  88 130 161 210 267 307 367
#     4  11  23  38  65  95 120 166 219 255 310 376
#     4  11  23  41  64  92 123 168 211 254 314 383
#     4  11  21  40  65  90 125 161 212 256 306 378
#     4  10  23  41  62  92 126 160 204 263 314 376
#     4  11  26  43  61  93 132 165 211 263 317 373
#     4  11  21  37  64  91 119 163 209 258 309 366
#     4  10  24  41  61  94 128 159 207 258 320 373
#
# _framework density 21.334137999999999
#
# number of rings (size 3 to 8) (size 9 to 14) (size 15 to 20)
#    0.000    1.250    3.750    1.875    0.000    6.500 
#    0.000    0.000    0.000    0.000    0.000    0.000 
#    0.000    0.000    0.000    0.000    0.000    0.000 
#
# Total GULP energy -89269.835004 kJ/mol
# GULP energy per Si atom -5579.364688 kJ/mol
# Density = 2.128558 g / cm^3
# Si number density = 21.334138 Si / 1000 Ang^3
#
#
#
# Elastic Constant Matrix: (Units=GPa)
#
#
# Indices 1 2 3 4 5 6 
#
# 1 44.7558 6.4947 41.1439 -3.4605 8.5872 18.0250
# 2 6.4947 67.3868 5.6054 0.7817 -7.8161 18.6515
# 3 41.1439 5.6054 105.8957 10.8249 18.9880 25.4898
# 4 -3.4605 0.7817 10.8249 20.4997 12.7488 4.4806
# 5 8.5872 -7.8161 18.9880 12.7488 34.5894 5.1693
# 6 18.0250 18.6515 25.4898 4.4806 5.1693 20.2654
#
#
#
# Elastic Compliance Matrix: (Units=1/GPa)
#
#
# Indices 1 2 3 4 5 6 
#
# 1 0.054703 0.005943 -0.012680 0.031551 -0.010560 -0.042459
# 2 0.005943 0.023967 0.003074 0.001613 0.006629 -0.033259
# 3 -0.012680 0.003074 0.018260 -0.008440 -0.001226 -0.012340
# 4 0.031551 0.001613 -0.008440 0.083062 -0.028981 -0.029903
# 5 -0.010560 0.006629 -0.001226 -0.028981 0.044397 -0.000083
# 6 -0.042459 -0.033259 -0.012340 -0.029903 -0.000083 0.139874
#
#
# Mechanical properties :
#
#
# Convention : Reuss Voigt Hill
#
# Bulk Modulus (GPa) = 11.16004 36.05847 23.60925
# Shear Modulus (GPa) = 12.45466 26.05720 19.25593
#
# Velocity S-wave (km/s) = 2.41880 3.49862 3.00757
# Velocity P-wave (km/s) = 3.61154 5.76706 4.81156
#
# Compressibility (1/GPa) = 0.08960544
#
# Stress axis : x y z
#
# Youngs Moduli (GPa) = 18.28042 41.72446 54.76408
#
# Poissons Ratio (x) = -0.24799 0.69442
# Poissons Ratio (y) = -0.10865 -0.16836
# Poissons Ratio (z) = 0.23180 -0.12828
#
# Static dielectric constant tensor:
#      x y z
#    x 1.447040 -0.006980 0.431390 
#    y -0.006980 1.868700 -0.001140 
#    z 0.431390 -0.001140 1.128750 
# 
# From -- ./inp_files/37342.got.cif
#   From: 2010.05.17/outbox.ucp.g08.bks.cvg/sg2_19_cif.got.tgz:37342.got - 2010.06.11 11:32:03.
