data_PCOD9074699
_publ_section_title
;
Structure prediction by ZEFSAII (Michael W. Deem and Ramdas Pophale) SiO2 
 PCOD9074699
Probable space group: P -1
;
_chemical_formula_sum "Si O2"
_cell_formula_units_Z 16
_cell_length_a 18.000000
_cell_length_b 6.000000
_cell_length_c 12.000000
_cell_angle_alpha 130.000000
_cell_angle_beta 50.000000
_cell_angle_gamma 120.000000
_cell_volume 752.153660
_symmetry_space_group_name_H-M "P -1"
_symmetry_group_IT_number 2
_symmetry_cell_setting 'triclinic'
loop_
_space_group_symop_operation_xyz
x,y,z
-x,-y,-z
loop_
_atom_site_type_symbol
_atom_site_label
_atom_site_fract_x
_atom_site_fract_y
_atom_site_fract_z
Si Si1 0.640419 0.233751 0.995760
Si Si2 0.932496 0.662103 0.760056
Si Si3 0.296995 0.837891 0.496183
Si Si4 0.115248 0.359231 0.563588
Si Si5 0.791543 0.185297 0.649126
Si Si6 0.067155 0.271478 0.823031
Si Si7 0.449432 0.423925 0.143023
Si Si8 0.779199 0.735082 0.131418
O O1 0.535780 0.345629 0.116274
O O2 0.706842 0.427710 0.085275
O O3 0.704102 0.280852 0.836959
O O4 0.622141 0.881374 0.910444
O O5 0.870959 0.483530 0.663269
O O6 0.010377 0.453656 0.662509
O O7 0.852271 0.749881 0.956472
O O8 0.001290 0.962146 0.757400
O O9 0.205508 0.580346 0.503580
O O10 0.264877 0.978311 0.455335
O O11 0.392418 0.679113 0.329723
O O12 0.289469 0.031022 0.677733
O O13 0.119565 0.403406 0.705860
O O14 0.146665 0.036207 0.416255
O O15 0.142003 0.240384 0.838431
O O16 0.000000 0.500000 0.000000
O O17 0.500000 0.500000 0.000000
#
# Coordination Sequence:
#
# PCOD9074699 Si02
#       8
#     2   2   2   2   2   2   2   2
#     4  10  24  45  69  94 128 163 214 265 331 392
#     4  11  24  41  62  93 137 177 223 255 309 379
#     4  12  24  41  69  96 131 162 222 270 323 380
#     4  12  22  39  63  93 130 178 216 265 307 372
#     4  11  23  40  65  98 127 174 219 266 314 380
#     4  12  23  39  62  89 133 182 214 257 315 368
#     4  11  23  46  73  95 122 165 209 272 334 389
#     4  11  23  44  63  96 134 171 212 263 316 383
#
# _framework density 21.272248999999999
#
# number of rings (size 3 to 8) (size 9 to 14) (size 15 to 20)
#    0.000    0.750    6.250    1.500    0.000    4.500 
#    2.250    0.625    0.000    0.000    0.000    0.000 
#    0.000    0.000    0.000    0.000    0.000    0.000 
#
# Total GULP energy -89140.755145 kJ/mol
# GULP energy per Si atom -5571.297197 kJ/mol
# Density = 2.122383 g / cm^3
# Si number density = 21.272249 Si / 1000 Ang^3
#
#
#
# Elastic Constant Matrix: (Units=GPa)
#
#
# Indices 1 2 3 4 5 6 
#
# 1 16.0851 21.2121 35.1240 4.4554 -11.6778 8.3729
# 2 21.2121 29.0057 -0.8669 11.6459 -3.6604 13.5364
# 3 35.1240 -0.8669 135.6950 7.9621 -34.9047 1.2667
# 4 4.4554 11.6459 7.9621 32.5886 -6.7694 0.9838
# 5 -11.6778 -3.6604 -34.9047 -6.7694 36.4103 12.8656
# 6 8.3729 13.5364 1.2667 0.9838 12.8656 25.1622
#
#
#
# Elastic Compliance Matrix: (Units=1/GPa)
#
#
# Indices 1 2 3 4 5 6 
#
# 1 -0.090710 0.089455 0.028646 -0.023411 0.011636 -0.024416
# 2 0.089455 -0.014228 -0.017180 0.002835 0.023024 -0.033131
# 3 0.028646 -0.017180 0.003334 0.004626 0.014332 -0.007966
# 4 -0.023411 0.002835 0.004626 0.031999 0.001796 0.003863
# 5 0.011636 0.023024 0.014332 0.001796 0.065431 -0.050505
# 6 -0.024416 -0.033131 -0.007966 0.003863 -0.050505 0.091764
#
#
# Mechanical properties :
#
#
# Convention : Reuss Voigt Hill
#
# Bulk Modulus (GPa) = 9.97622 32.41382 21.19502
# Shear Modulus (GPa) = -61.85178 27.18667 -17.33256
#
# Velocity S-wave (km/s) = -5.39809 3.57884 -2.85756
# Velocity P-wave (km/s) = 5.84402 5.68754 0.94985
#
# Compressibility (1/GPa) = 0.10023833
#
# Stress axis : x y z
#
# Youngs Moduli (GPa) = -11.02417 -70.28482 299.91125
#
# Poissons Ratio (x) = 6.28734 -8.59126
# Poissons Ratio (y) = 0.98617 5.15261
# Poissons Ratio (z) = 0.31580 -1.20752
#
# Static dielectric constant tensor:
#      x y z
#    x 1.767100 -0.048690 -0.024360 
#    y -0.048690 1.855090 -0.015820 
#    z -0.024360 -0.015820 1.817240 
# 
# From -- ./inp_files/48940.got.cif
#   From: 2010.05.17/outbox.ucp.g08.bks.cvg/sg2_25_cif.got.tgz:48940.got - 2010.06.11 11:32:03.
