data_PCOD9074251
_publ_section_title
;
Structure prediction by ZEFSAII (Michael W. Deem and Ramdas Pophale) SiO2 
 PCOD9074251
Probable space group: P -1
;
_chemical_formula_sum "Si O2"
_cell_formula_units_Z 14
_cell_length_a 12.000000
_cell_length_b 9.000000
_cell_length_c 9.000000
_cell_angle_alpha 130.000000
_cell_angle_beta 100.000000
_cell_angle_gamma 60.000000
_cell_volume 628.643806
_symmetry_space_group_name_H-M "P -1"
_symmetry_group_IT_number 2
_symmetry_cell_setting 'triclinic'
loop_
_space_group_symop_operation_xyz
x,y,z
-x,-y,-z
loop_
_atom_site_type_symbol
_atom_site_label
_atom_site_fract_x
_atom_site_fract_y
_atom_site_fract_z
Si Si1 0.351067 0.948121 0.568790
Si Si2 0.868159 0.378313 0.420504
Si Si3 0.193936 0.496916 0.935035
Si Si4 0.922332 0.733009 0.831210
Si Si5 0.387783 0.914834 0.904329
Si Si6 0.384009 0.484097 0.748066
Si Si7 0.150162 0.797939 0.396216
O O1 0.385681 0.879050 0.704966
O O2 0.488987 0.772022 0.401508
O O3 0.245593 0.891249 0.439990
O O4 0.271962 0.225088 0.743875
O O5 0.902896 0.545102 0.622579
O O6 0.735314 0.501143 0.370855
O O7 0.826327 0.271467 0.471480
O O8 0.998174 0.210800 0.242740
O O9 0.301205 0.554215 0.927844
O O10 0.044057 0.618463 0.907098
O O11 0.172108 0.594881 0.161128
O O12 0.770442 0.912758 0.969284
O O13 0.422163 0.674132 0.834524
O O14 0.500000 0.000000 0.000000
O O15 0.000000 0.000000 0.500000
#
# Coordination Sequence:
#
# PCOD9074251 Si02
#       7
#     2   2   2   2   2   2   2
#     4  12  26  47  71 106 149 194 244 300 362 432
#     4  10  22  44  71 104 140 188 240 298 356 432
#     4  11  27  48  74 110 149 192 241 302 365 431
#     4  10  23  44  74 104 142 186 245 296 364 425
#     4  12  26  44  77 107 143 191 246 303 363 433
#     4  11  26  48  73 106 146 195 247 295 365 434
#     4  12  26  43  74 106 148 189 243 296 369 428
#
# _framework density 22.270163
#
# number of rings (size 3 to 8) (size 9 to 14) (size 15 to 20)
#    0.000    0.857    1.429    4.286    6.000    3.429 
#    2.571    0.000    0.000    0.000    0.000    0.000 
#    0.000    0.000    0.000    0.000    0.000    0.000 
#
# Total GULP energy -78023.283172 kJ/mol
# GULP energy per Si atom -5573.091655 kJ/mol
# Density = 2.221948 g / cm^3
# Si number density = 22.270163 Si / 1000 Ang^3
#
#
#
# Elastic Constant Matrix: (Units=GPa)
#
#
# Indices 1 2 3 4 5 6 
#
# 1 163.6205 23.9789 46.1089 9.9637 -8.6143 -22.5029
# 2 23.9789 62.8400 20.2653 13.8453 -7.0051 -4.3301
# 3 46.1089 20.2653 97.7907 9.5106 -13.8358 -12.8531
# 4 9.9637 13.8453 9.5106 39.8761 -1.7058 -4.3021
# 5 -8.6143 -7.0051 -13.8358 -1.7058 59.2866 12.0135
# 6 -22.5029 -4.3301 -12.8531 -4.3021 12.0135 42.5725
#
#
#
# Elastic Compliance Matrix: (Units=1/GPa)
#
#
# Indices 1 2 3 4 5 6 
#
# 1 0.007586 -0.001746 -0.002840 -0.000299 -0.000395 0.003056
# 2 -0.001746 0.018671 -0.002409 -0.005488 0.001373 -0.000693
# 3 -0.002840 -0.002409 0.012642 -0.001235 0.001934 0.001400
# 4 -0.000299 -0.005488 -0.001235 0.027528 -0.000563 0.001852
# 5 -0.000395 0.001373 0.001934 -0.000563 0.018364 -0.004724
# 6 0.003056 -0.000693 0.001400 0.001852 -0.004724 0.026977
#
#
# Mechanical properties :
#
#
# Convention : Reuss Voigt Hill
#
# Bulk Modulus (GPa) = 40.14749 56.10639 48.12694
# Shear Modulus (GPa) = 37.29635 43.94024 40.61829
#
# Velocity S-wave (km/s) = 4.09678 4.44673 4.27533
# Velocity P-wave (km/s) = 6.35962 7.18420 6.78445
#
# Compressibility (1/GPa) = 0.02490816
#
# Stress axis : x y z
#
# Youngs Moduli (GPa) = 131.82865 53.55879 79.10182
#
# Poissons Ratio (x) = 0.09353 0.22464
# Poissons Ratio (y) = 0.23021 0.19056
# Poissons Ratio (z) = 0.37438 0.12902
#
# Static dielectric constant tensor:
#      x y z
#    x 1.853400 0.056640 -0.005730 
#    y 0.056640 2.208060 -0.115400 
#    z -0.005730 -0.115400 1.845220 
# 
# From -- ./inp_files/246027.got.cif
#   From: 2010.05.17/outbox.ucp.g08.bks.cvg/sg2_124_cif.got.tgz:246027.got - 2010.06.11 11:32:03.
