data_PCOD9074408
_publ_section_title
;
Structure prediction by ZEFSAII (Michael W. Deem and Ramdas Pophale) SiO2 
 PCOD9074408
Probable space group: P -1
;
_chemical_formula_sum "Si O2"
_cell_formula_units_Z 14
_cell_length_a 9.000000
_cell_length_b 9.000000
_cell_length_c 12.000000
_cell_angle_alpha 100.000000
_cell_angle_beta 120.000000
_cell_angle_gamma 50.000000
_cell_volume 628.643806
_symmetry_space_group_name_H-M "P -1"
_symmetry_group_IT_number 2
_symmetry_cell_setting 'triclinic'
loop_
_space_group_symop_operation_xyz
x,y,z
-x,-y,-z
loop_
_atom_site_type_symbol
_atom_site_label
_atom_site_fract_x
_atom_site_fract_y
_atom_site_fract_z
Si Si1 0.670209 0.188419 0.799275
Si Si2 0.884542 0.793424 0.320540
Si Si3 0.373454 0.432219 0.501746
Si Si4 0.021718 0.937561 0.717654
Si Si5 0.402596 0.951335 0.554249
Si Si6 0.431223 0.188272 0.931660
Si Si7 0.488325 0.440672 0.111417
O O1 0.489094 0.302220 0.642034
O O2 0.590727 0.152182 0.880689
O O3 0.677899 0.360461 0.855704
O O4 0.901568 0.001285 0.802805
O O5 0.810013 0.701981 0.200717
O O6 0.114378 0.621645 0.447395
O O7 0.925048 0.922202 0.281865
O O8 0.673399 0.935586 0.343612
O O9 0.500000 0.500000 0.500000
O O10 0.408446 0.285172 0.401129
O O11 0.254312 0.712185 0.767317
O O12 0.830952 0.987523 0.569157
O O13 0.500000 0.000000 0.500000
O O14 0.416274 0.314888 0.042274
O O15 0.500000 0.000000 0.000000
O O16 0.500000 0.500000 0.000000
#
# Coordination Sequence:
#
# PCOD9074408 Si02
#       7
#     2   2   2   2   2   2   2
#     4  10  23  43  69  94 132 167 221 277 322 391
#     4  12  23  41  71  94 139 172 214 272 330 390
#     4  11  23  41  68 104 129 168 222 263 338 400
#     4  11  22  41  68  98 127 176 214 265 340 386
#     4  11  25  41  66 103 133 168 214 272 334 396
#     4  11  24  44  64  95 130 179 220 272 319 381
#     4  10  23  42  67  92 127 173 229 264 319 382
#
# _framework density 22.270163
#
# number of rings (size 3 to 8) (size 9 to 14) (size 15 to 20)
#    0.000    1.143    4.286    3.000    2.000    6.857 
#    0.000    2.143    0.000    0.000    0.000    0.000 
#    0.000    0.000    0.000    0.000    0.000    0.000 
#
# Total GULP energy -78049.138832 kJ/mol
# GULP energy per Si atom -5574.938488 kJ/mol
# Density = 2.221948 g / cm^3
# Si number density = 22.270163 Si / 1000 Ang^3
#
#
#
# Elastic Constant Matrix: (Units=GPa)
#
#
# Indices 1 2 3 4 5 6 
#
# 1 87.4053 13.8479 8.3115 0.6085 -8.5489 7.9211
# 2 13.8479 87.6893 8.5958 16.0557 -0.5697 4.6514
# 3 8.3115 8.5958 53.6240 9.6538 -2.6219 2.1689
# 4 0.6085 16.0557 9.6538 37.2747 8.8686 -3.4762
# 5 -8.5489 -0.5697 -2.6219 8.8686 29.6811 4.6619
# 6 7.9211 4.6514 2.1689 -3.4762 4.6619 31.2541
#
#
#
# Elastic Compliance Matrix: (Units=1/GPa)
#
#
# Indices 1 2 3 4 5 6 
#
# 1 0.012539 -0.001543 -0.001250 -0.000545 0.004192 -0.003548
# 2 -0.001543 0.012965 -0.000541 -0.006120 0.001974 -0.002476
# 3 -0.001250 -0.000541 0.020284 -0.006059 0.003580 -0.002218
# 4 -0.000545 -0.006120 -0.006059 0.034631 -0.012281 0.007153
# 5 0.004192 0.001974 0.003580 -0.012281 0.040334 -0.008987
# 6 -0.003548 -0.002476 -0.002218 0.007153 -0.008987 0.035553
#
#
# Mechanical properties :
#
#
# Convention : Reuss Voigt Hill
#
# Bulk Modulus (GPa) = 25.56053 32.24767 28.90410
# Shear Modulus (GPa) = 28.40675 32.83956 30.62315
#
# Velocity S-wave (km/s) = 3.57536 3.84422 3.71222
# Velocity P-wave (km/s) = 5.34291 5.84941 5.60189
#
# Compressibility (1/GPa) = 0.03912282
#
# Stress axis : x y z
#
# Youngs Moduli (GPa) = 79.74828 77.12918 49.29919
#
# Poissons Ratio (x) = 0.11898 0.06161
# Poissons Ratio (y) = 0.12302 0.02666
# Poissons Ratio (z) = 0.09967 0.04171
#
# Static dielectric constant tensor:
#      x y z
#    x 1.783480 0.057890 0.054390 
#    y 0.057890 1.875880 0.066680 
#    z 0.054390 0.066680 1.877140 
# 
# From -- ./inp_files/186312.got.cif
#   From: 2010.05.17/outbox.ucp.g08.bks.cvg/sg2_94_cif.got.tgz:186312.got - 2010.06.11 11:32:03.
