data_PCOD9074824
_publ_section_title
;
Structure prediction by ZEFSAII (Michael W. Deem and Ramdas Pophale) SiO2 
 PCOD9074824
Probable space group: P -1
;
_chemical_formula_sum "Si O2"
_cell_formula_units_Z 15
_cell_length_a 9.000000
_cell_length_b 15.000000
_cell_length_c 15.000000
_cell_angle_alpha 150.000000
_cell_angle_beta 110.000000
_cell_angle_gamma 50.000000
_cell_volume 642.379314
_symmetry_space_group_name_H-M "P -1"
_symmetry_group_IT_number 2
_symmetry_cell_setting 'triclinic'
loop_
_space_group_symop_operation_xyz
x,y,z
-x,-y,-z
loop_
_atom_site_type_symbol
_atom_site_label
_atom_site_fract_x
_atom_site_fract_y
_atom_site_fract_z
Si Si1 0.000000 0.000000 0.500000
Si Si2 0.042597 0.747957 0.533963
Si Si3 0.298097 0.868101 0.677765
Si Si4 0.721717 0.734904 0.363599
Si Si5 0.149167 0.979795 0.088468
Si Si6 0.011512 0.662371 0.082164
Si Si7 0.460887 0.402524 0.670833
Si Si8 0.452091 0.840336 0.876240
O O1 0.079146 0.762517 0.249803
O O2 0.277452 0.806787 0.418740
O O3 0.074515 0.925912 0.665645
O O4 0.301749 0.459763 0.325520
O O5 0.883613 0.764867 0.451356
O O6 0.972694 0.808034 0.674973
O O7 0.517191 0.611574 0.444938
O O8 0.325438 0.860195 0.781456
O O9 0.235128 0.099036 0.812532
O O10 0.661724 0.672718 0.384865
O O11 0.500000 0.000000 0.500000
O O12 0.825509 0.514303 0.121346
O O13 0.307907 0.697742 0.923540
O O14 0.314846 0.957867 0.041463
O O15 0.000000 0.000000 0.000000
O O16 0.000000 0.500000 0.000000
O O17 0.500000 0.000000 0.000000
#
# Coordination Sequence:
#
# PCOD9074824 Si02
#       8
#     1   2   2   2   2   2   2   2
#     4  10  26  48  80 104 144 212 246 336 398 454
#     4  12  27  48  76 111 159 206 260 324 400 476
#     4  11  23  48  75 107 151 201 256 318 398 467
#     4  12  29  47  73 114 154 199 268 330 386 477
#     4  12  26  47  76 110 154 204 264 318 400 477
#     4  11  26  47  77 107 154 192 266 317 398 467
#     4  11  26  46  75 107 150 199 262 318 401 467
#     4  12  27  46  76 111 153 204 258 329 395 467
#
# _framework density 23.35069
#
# number of rings (size 3 to 8) (size 9 to 14) (size 15 to 20)
#    0.000    0.533    2.667    4.400   13.067    2.133 
#    0.000    0.000    0.000    0.000    0.000    0.000 
#    0.000    0.000    0.000    0.000    0.000    0.000 
#
# Total GULP energy -83530.387046 kJ/mol
# GULP energy per Si atom -5568.692470 kJ/mol
# Density = 2.329754 g / cm^3
# Si number density = 23.350690 Si / 1000 Ang^3
#
#
#
# Elastic Constant Matrix: (Units=GPa)
#
#
# Indices 1 2 3 4 5 6 
#
# 1 100.5395 43.9920 44.3309 -9.8338 1.6244 17.5335
# 2 43.9920 57.1592 17.0089 -5.1598 17.7088 6.3313
# 3 44.3309 17.0089 45.1101 -43.5072 -9.9510 -9.0073
# 4 -9.8338 -5.1598 -43.5072 43.7521 3.5017 -6.5447
# 5 1.6244 17.7088 -9.9510 3.5017 29.4858 -16.3043
# 6 17.5335 6.3313 -9.0073 -6.5447 -16.3043 30.0456
#
#
#
# Elastic Compliance Matrix: (Units=1/GPa)
#
#
# Indices 1 2 3 4 5 6 
#
# 1 0.013338 -0.018178 0.007867 0.008743 0.017103 0.009591
# 2 -0.018178 0.036328 0.009515 0.010859 -0.020540 -0.002975
# 3 0.007867 0.009515 -0.018107 -0.017516 -0.027056 -0.030522
# 4 0.008743 0.010859 -0.017516 0.006989 -0.028421 -0.026542
# 5 0.017103 -0.020540 -0.027056 -0.028421 0.040745 0.002156
# 6 0.009591 -0.002975 -0.030522 -0.026542 0.002156 0.014551
#
#
# Mechanical properties :
#
#
# Convention : Reuss Voigt Hill
#
# Bulk Modulus (GPa) = 33.37044 45.94137 39.65590
# Shear Modulus (GPa) = 47.42825 27.15517 37.29171
#
# Velocity S-wave (km/s) = 4.51169 3.41387 4.00062
# Velocity P-wave (km/s) = 6.43914 5.93773 6.19351
#
# Compressibility (1/GPa) = 0.02996664
#
# Stress axis : x y z
#
# Youngs Moduli (GPa) = 74.97585 27.52730 -55.22679
#
# Poissons Ratio (x) = 0.50040 0.43448
# Poissons Ratio (y) = 1.36292 0.52549
# Poissons Ratio (z) = -0.58986 -0.26193
#
# Static dielectric constant tensor:
#      x y z
#    x 1.922190 0.074200 -0.240390 
#    y 0.074200 1.973990 -0.210900 
#    z -0.240390 -0.210900 2.080450 
# 
# From -- ./inp_files/505893.got.cif
#   From: 2010.05.17/outbox.ucp.g08.bks.cvg/sg2_253_cif.got.tgz:505893.got - 2010.06.11 11:32:03.
