data_PCOD9074254
_publ_section_title
;
Structure prediction by ZEFSAII (Michael W. Deem and Ramdas Pophale) SiO2 
 PCOD9074254
Probable space group: P -1
;
_chemical_formula_sum "Si O2"
_cell_formula_units_Z 16
_cell_length_a 21.000000
_cell_length_b 18.000000
_cell_length_c 9.000000
_cell_angle_alpha 60.000000
_cell_angle_beta 50.000000
_cell_angle_gamma 20.000000
_cell_volume 818.070593
_symmetry_space_group_name_H-M "P -1"
_symmetry_group_IT_number 2
_symmetry_cell_setting 'triclinic'
loop_
_space_group_symop_operation_xyz
x,y,z
-x,-y,-z
loop_
_atom_site_type_symbol
_atom_site_label
_atom_site_fract_x
_atom_site_fract_y
_atom_site_fract_z
Si Si1 0.383982 0.182724 0.305144
Si Si2 0.356456 0.940376 0.742891
Si Si3 0.989080 0.426339 0.723998
Si Si4 0.771184 0.697253 0.055640
Si Si5 0.849170 0.180972 0.188196
Si Si6 0.588396 0.283348 0.653066
Si Si7 0.918135 0.926571 0.792881
Si Si8 0.630564 0.629657 0.348064
O O1 0.485430 0.138472 0.335679
O O2 0.209002 0.272588 0.506576
O O3 0.208708 0.413200 0.251723
O O4 0.585905 0.943457 0.146858
O O5 0.471828 0.788241 0.575689
O O6 0.114671 0.221225 0.797595
O O7 0.281672 0.937414 0.967350
O O8 0.849584 0.626015 0.839439
O O9 0.700804 0.663790 0.199733
O O10 0.000000 0.500000 0.000000
O O11 0.705845 0.237746 0.408813
O O12 0.645503 0.447927 0.197395
O O13 0.997032 0.083150 0.201675
O O14 0.000000 0.000000 0.000000
O O15 0.507541 0.277987 0.679600
O O16 0.786392 0.081177 0.684255
O O17 0.143154 0.649599 0.697532
#
# Coordination Sequence:
#
# PCOD9074254 Si02
#       8
#     2   2   2   2   2   2   2   2
#     4  11  24  39  60  88 118 166 222 267 312 370
#     4  12  23  40  61  89 127 164 211 263 314 364
#     4  11  23  39  59  85 119 164 215 268 313 366
#     4  12  21  40  62  83 121 169 211 264 320 364
#     4  10  22  44  71  96 126 160 198 249 305 371
#     4  10  24  43  65  96 128 160 203 249 305 376
#     4  11  24  41  65  96 127 164 202 249 312 376
#     4  11  24  40  61  89 129 163 206 260 310 368
#
# _framework density 19.558214
#
# number of rings (size 3 to 8) (size 9 to 14) (size 15 to 20)
#    0.000    1.000    3.750    2.625    1.750    2.500 
#    2.250    0.000    0.000    0.000    0.000    0.000 
#    0.000    0.000    0.000    0.000    0.000    0.000 
#
# Total GULP energy -89092.310663 kJ/mol
# GULP energy per Si atom -5568.269416 kJ/mol
# Density = 1.951370 g / cm^3
# Si number density = 19.558214 Si / 1000 Ang^3
#
#
#
# Elastic Constant Matrix: (Units=GPa)
#
#
# Indices 1 2 3 4 5 6 
#
# 1 143.3133 57.4520 15.6740 6.0169 11.3466 -9.4473
# 2 57.4520 94.5437 17.7333 14.0666 8.0645 -28.1011
# 3 15.6740 17.7333 80.7112 20.2441 11.4934 7.7092
# 4 6.0169 14.0666 20.2441 30.5050 10.1074 5.4224
# 5 11.3466 8.0645 11.4934 10.1074 40.0681 5.7241
# 6 -9.4473 -28.1011 7.7092 5.4224 5.7241 35.3409
#
#
#
# Elastic Compliance Matrix: (Units=1/GPa)
#
#
# Indices 1 2 3 4 5 6 
#
# 1 0.009604 -0.006891 -0.000525 0.002630 -0.001421 -0.002971
# 2 -0.006891 0.022305 -0.002567 -0.009831 -0.001933 0.018275
# 3 -0.000525 -0.002567 0.015617 -0.007931 -0.001217 -0.004174
# 4 0.002630 -0.009831 -0.007931 0.046253 -0.006527 -0.011423
# 5 -0.001421 -0.001933 -0.001217 -0.006527 0.028497 -0.005265
# 6 -0.002971 0.018275 -0.004174 -0.011423 -0.005265 0.045549
#
#
# Mechanical properties :
#
#
# Convention : Reuss Voigt Hill
#
# Bulk Modulus (GPa) = 36.28265 55.58741 45.93503
# Shear Modulus (GPa) = 25.38366 36.36340 30.87353
#
# Velocity S-wave (km/s) = 3.60648 4.31657 3.97740
# Velocity P-wave (km/s) = 5.99447 7.30253 6.68059
#
# Compressibility (1/GPa) = 0.02756138
#
# Stress axis : x y z
#
# Youngs Moduli (GPa) = 104.12637 44.83214 64.03180
#
# Poissons Ratio (x) = 0.30892 0.03360
# Poissons Ratio (y) = 0.71750 0.16438
# Poissons Ratio (z) = 0.05463 0.11509
#
# Static dielectric constant tensor:
#      x y z
#    x 1.724710 -0.096500 0.039850 
#    y -0.096500 1.832120 -0.091770 
#    z 0.039850 -0.091770 1.803800 
# 
# From -- ./inp_files/348409.got.cif
#   From: 2010.05.17/outbox.ucp.g08.bks.cvg/sg2_175_cif.got.tgz:348409.got - 2010.06.11 11:32:03.
