data_PCOD9074266
_publ_section_title
;
Structure prediction by ZEFSAII (Michael W. Deem and Ramdas Pophale) SiO2 
 PCOD9074266
Probable space group: P -1
;
_chemical_formula_sum "Si O2"
_cell_formula_units_Z 14
_cell_length_a 9.000000
_cell_length_b 12.000000
_cell_length_c 24.000000
_cell_angle_alpha 20.000000
_cell_angle_beta 130.000000
_cell_angle_gamma 120.000000
_cell_volume 623.291880
_symmetry_space_group_name_H-M "P -1"
_symmetry_group_IT_number 2
_symmetry_cell_setting 'triclinic'
loop_
_space_group_symop_operation_xyz
x,y,z
-x,-y,-z
loop_
_atom_site_type_symbol
_atom_site_label
_atom_site_fract_x
_atom_site_fract_y
_atom_site_fract_z
Si Si1 0.951687 0.153899 0.645118
Si Si2 0.633968 0.577820 0.130993
Si Si3 0.945152 0.330072 0.789204
Si Si4 0.471196 0.615600 0.292288
Si Si5 0.654563 0.522357 0.980500
Si Si6 0.964928 0.875785 0.902348
Si Si7 0.415207 0.393340 0.268101
O O1 0.706938 0.315372 0.492153
O O2 0.000000 0.500000 0.500000
O O3 0.137963 0.846780 0.801337
O O4 0.967544 0.991701 0.785936
O O5 0.562268 0.494978 0.213144
O O6 0.888239 0.492522 0.237663
O O7 0.504220 0.395262 0.149226
O O8 0.542815 0.981263 0.892957
O O9 0.690893 0.506569 0.654762
O O10 0.972565 0.172255 0.807719
O O11 0.000000 0.000000 0.000000
O O12 0.393832 0.643877 0.197431
O O13 0.500000 0.500000 0.000000
O O14 0.754393 0.800674 0.891785
O O15 0.176945 0.520033 0.128513
O O16 0.500000 0.000000 0.500000
#
# Coordination Sequence:
#
# PCOD9074266 Si02
#       7
#     2   2   2   2   2   2   2
#     4  12  26  45  73 108 142 186 239 287 351 427
#     4  11  23  45  72 101 137 190 233 289 353 413
#     4  10  22  44  75  99 138 184 236 286 349 409
#     4  11  23  45  73 101 141 182 239 288 344 422
#     4  12  26  45  72 102 147 185 229 291 363 410
#     4  12  25  46  72 101 144 189 228 291 363 408
#     4  12  25  42  71 101 139 187 240 285 346 423
#
# _framework density 22.461386999999998
#
# number of rings (size 3 to 8) (size 9 to 14) (size 15 to 20)
#    0.000    0.571    5.714    3.429    4.000    0.571 
#    0.000    0.714    0.000    0.000    0.000    0.000 
#    0.000    0.000    0.000    0.000    0.000    0.000 
#
# Total GULP energy -78047.030362 kJ/mol
# GULP energy per Si atom -5574.787883 kJ/mol
# Density = 2.241026 g / cm^3
# Si number density = 22.461387 Si / 1000 Ang^3
#
#
#
# Elastic Constant Matrix: (Units=GPa)
#
#
# Indices 1 2 3 4 5 6 
#
# 1 160.1907 33.0605 45.4573 31.4469 19.9937 20.7113
# 2 33.0605 88.3624 27.6843 18.7507 9.0647 37.3181
# 3 45.4573 27.6843 60.5754 24.4785 -4.0485 2.4063
# 4 31.4469 18.7507 24.4785 12.4810 1.5733 11.1693
# 5 19.9937 9.0647 -4.0485 1.5733 23.8499 6.7027
# 6 20.7113 37.3181 2.4063 11.1693 6.7027 45.5169
#
#
#
# Elastic Compliance Matrix: (Units=1/GPa)
#
#
# Indices 1 2 3 4 5 6 
#
# 1 -0.004320 0.003511 -0.077755 0.198843 -0.011700 -0.043874
# 2 0.003511 0.022030 -0.002581 -0.024922 -0.006616 -0.012433
# 3 -0.077755 -0.002581 -0.300244 0.949384 0.003173 -0.180066
# 4 0.198843 -0.024922 0.949384 -2.739168 0.030801 0.547389
# 5 -0.011700 -0.006616 0.003173 0.030801 0.054150 -0.004952
# 6 -0.043874 -0.012433 -0.180066 0.547389 -0.004952 -0.071947
#
#
# Mechanical properties :
#
#
# Convention : Reuss Voigt Hill
#
# Bulk Modulus (GPa) = -2.29262 57.94806 27.82772
# Shear Modulus (GPa) = -1.64949 29.89798 14.12425
#
# Velocity S-wave (km/s) = -0.85788 3.65236 2.51036
# Velocity P-wave (km/s) = 1.41569 6.60616 4.56273
#
# Compressibility (1/GPa) = -0.43618141
#
# Stress axis : x y z
#
# Youngs Moduli (GPa) = -231.50118 45.39269 -3.33063
#
# Poissons Ratio (x) = -0.15940 -0.25897
# Poissons Ratio (y) = 0.81291 -0.00859
# Poissons Ratio (z) = -18.00036 0.11714
#
# Static dielectric constant tensor:
#      x y z
#    x 1.889060 -0.151210 0.053740 
#    y -0.151210 1.929600 -0.065330 
#    z 0.053740 -0.065330 1.855710 
# 
# From -- ./inp_files/607734.got.cif
#   From: 2010.05.17/outbox.ucp.g08.bks.cvg/sg2_304_cif.got.tgz:607734.got - 2010.06.11 11:32:03.
