data_PCOD9074470
_publ_section_title
;
Structure prediction by ZEFSAII (Michael W. Deem and Ramdas Pophale) SiO2 
 PCOD9074470
Probable space group: P -1
;
_chemical_formula_sum "Si O2"
_cell_formula_units_Z 16
_cell_length_a 9.000000
_cell_length_b 6.000000
_cell_length_c 21.000000
_cell_angle_alpha 130.000000
_cell_angle_beta 60.000000
_cell_angle_gamma 120.000000
_cell_volume 724.534506
_symmetry_space_group_name_H-M "P -1"
_symmetry_group_IT_number 2
_symmetry_cell_setting 'triclinic'
loop_
_space_group_symop_operation_xyz
x,y,z
-x,-y,-z
loop_
_atom_site_type_symbol
_atom_site_label
_atom_site_fract_x
_atom_site_fract_y
_atom_site_fract_z
Si Si1 0.519650 0.840421 0.888497
Si Si2 0.216402 0.596197 0.463822
Si Si3 0.810867 0.785011 0.475340
Si Si4 0.217304 0.554807 0.039094
Si Si5 0.200905 0.712232 0.721356
Si Si6 0.165116 0.325538 0.880937
Si Si7 0.203409 0.514283 0.184961
Si Si8 0.589927 0.818501 0.720794
O O1 0.312853 0.647305 0.900657
O O2 0.662365 0.668735 0.851331
O O3 0.554372 0.858957 0.809388
O O4 0.597002 0.181781 0.961600
O O5 0.275273 0.430629 0.484484
O O6 0.299096 0.425405 0.360549
O O7 0.000000 0.500000 0.500000
O O8 0.265785 0.957089 0.498650
O O9 0.823243 0.524071 0.374954
O O10 0.000000 0.000000 0.500000
O O11 0.215796 0.487101 0.101125
O O12 0.038324 0.667557 0.085542
O O13 0.195459 0.283752 0.942926
O O14 0.394200 0.723909 0.712673
O O15 0.008692 0.597861 0.776751
O O16 0.210597 0.070948 0.780038
O O17 0.281308 0.847785 0.260869
#
# Coordination Sequence:
#
# PCOD9074470 Si02
#       8
#     2   2   2   2   2   2   2   2
#     4  11  23  43  69  98 139 182 232 286 347 424
#     4  10  23  43  70 100 138 182 231 294 357 428
#     4  10  24  43  71 103 138 188 230 298 360 434
#     4  10  24  43  67  99 141 187 229 290 353 413
#     4  12  25  44  70 102 138 182 234 294 356 425
#     4  11  23  44  67 102 141 180 237 290 349 424
#     4  11  23  43  67  99 136 184 232 284 352 417
#     4  11  26  43  70 101 136 183 232 292 353 427
#
# _framework density 22.083144000000001
#
# number of rings (size 3 to 8) (size 9 to 14) (size 15 to 20)
#    0.000    1.250    2.500    2.625    5.250    4.000 
#    2.250    0.000    0.000    0.000    0.000    0.000 
#    0.000    0.000    0.000    0.000    0.000    0.000 
#
# Total GULP energy -89185.340371 kJ/mol
# GULP energy per Si atom -5574.083773 kJ/mol
# Density = 2.203288 g / cm^3
# Si number density = 22.083144 Si / 1000 Ang^3
#
#
#
# Elastic Constant Matrix: (Units=GPa)
#
#
# Indices 1 2 3 4 5 6 
#
# 1 99.4994 22.0761 5.0119 2.5971 5.7506 26.2298
# 2 22.0761 84.8874 2.4223 6.6369 8.7083 11.5731
# 3 5.0119 2.4223 72.8681 31.1841 11.6219 1.5521
# 4 2.5971 6.6369 31.1841 33.1719 5.1506 -4.5767
# 5 5.7506 8.7083 11.6219 5.1506 44.6596 -1.2222
# 6 26.2298 11.5731 1.5521 -4.5767 -1.2222 44.8914
#
#
#
# Elastic Compliance Matrix: (Units=1/GPa)
#
#
# Indices 1 2 3 4 5 6 
#
# 1 0.012435 -0.002044 0.000218 -0.001529 -0.001273 -0.006937
# 2 -0.002044 0.013228 0.002032 -0.004409 -0.002413 -0.002801
# 3 0.000218 0.002032 0.024311 -0.023175 -0.004187 -0.003968
# 4 -0.001529 -0.004409 -0.023175 0.053917 0.001098 0.008358
# 5 -0.001273 -0.002413 -0.004187 0.001098 0.024051 0.002277
# 6 -0.006937 -0.002801 -0.003968 0.008358 0.002277 0.028102
#
#
# Mechanical properties :
#
#
# Convention : Reuss Voigt Hill
#
# Bulk Modulus (GPa) = 19.84717 35.14173 27.49445
# Shear Modulus (GPa) = 28.99742 39.72757 34.36249
#
# Velocity S-wave (km/s) = 3.62761 4.24606 3.94896
# Velocity P-wave (km/s) = 5.15296 6.32350 5.76800
#
# Compressibility (1/GPa) = 0.05038501
#
# Stress axis : x y z
#
# Youngs Moduli (GPa) = 80.41802 75.59650 41.13344
#
# Poissons Ratio (x) = 0.15454 -0.00895
# Poissons Ratio (y) = 0.16440 -0.08359
# Poissons Ratio (z) = -0.01750 -0.15362
#
# Static dielectric constant tensor:
#      x y z
#    x 1.792480 -0.039950 0.007800 
#    y -0.039950 1.922430 -0.033210 
#    z 0.007800 -0.033210 1.825750 
# 
# From -- ./inp_files/49161.got.cif
#   From: 2010.05.17/outbox.ucp.g08.bks.cvg/sg2_25_cif.got.tgz:49161.got - 2010.06.11 11:32:03.
