data_PCOD9074461
_publ_section_title
;
Structure prediction by ZEFSAII (Michael W. Deem and Ramdas Pophale) SiO2 
 PCOD9074461
Probable space group: P -1
;
_chemical_formula_sum "Si O2"
_cell_formula_units_Z 16
_cell_length_a 7.619442
_cell_length_b 12.856541
_cell_length_c 17.745259
_cell_angle_alpha 146.345570
_cell_angle_beta 132.725118
_cell_angle_gamma 40.541582
_cell_volume 621.067099
_symmetry_space_group_name_H-M "P -1"
_symmetry_group_IT_number 2
_symmetry_cell_setting 'triclinic'
loop_
_space_group_symop_operation_xyz
x,y,z
-x,-y,-z
loop_
_atom_site_type_symbol
_atom_site_label
_atom_site_fract_x
_atom_site_fract_y
_atom_site_fract_z
Si Si1 0.025248 0.671036 0.184924
Si Si2 0.350785 0.590943 0.759657
Si Si3 0.826339 0.401602 0.130555
Si Si4 0.040299 0.227517 0.609992
Si Si5 0.489307 0.269047 0.406238
Si Si6 0.790753 0.240750 0.343836
Si Si7 0.196584 0.650630 0.067934
Si Si8 0.624017 0.857997 0.552871
O O1 0.335741 0.484637 0.174140
O O2 0.020703 0.767889 0.160508
O O3 0.969115 0.812564 0.327545
O O4 0.827212 0.568111 0.068392
O O5 0.173493 0.691246 0.843437
O O6 0.270064 0.730628 0.745358
O O7 0.344539 0.367973 0.604437
O O8 0.981746 0.539664 0.262471
O O9 0.509787 0.581671 0.131604
O O10 0.897902 0.262067 0.991018
O O11 0.771568 0.244257 0.506790
O O12 0.333087 0.049465 0.558740
O O13 0.578050 0.195810 0.302621
O O14 0.281792 0.519657 0.504180
O O15 0.384625 0.154994 0.365782
O O16 0.115620 0.114857 0.374060
#
# Coordination Sequence:
#
# PCOD9074461 Si02
#       8
#     2   2   2   2   2   2   2   2
#     4   9  16  30  52  75 106 128 174 221 270 313
#     4  10  18  32  51  76 106 144 176 212 254 316
#     4   9  18  30  52  80 106 128 175 224 275 310
#     4  11  20  33  51  82 110 144 173 210 264 325
#     4  10  20  35  54  72 110 149 185 216 248 300
#     4  10  21  36  50  74 108 151 186 216 245 303
#     4   8  16  31  48  78 104 125 166 236 279 296
#     4  11  22  35  50  79 119 149 170 212 259 313
#
# _framework density 25.762112999999999
#
# number of rings (size 3 to 8) (size 9 to 14) (size 15 to 20)
#    0.000    2.250    2.500    2.625    0.000    3.000 
#    2.250    0.000    0.000    0.000    0.000   33.250 
#    0.000    0.000    0.000    0.000    0.000    0.000 
#
# Total GULP energy -89493.638895 kJ/mol
# GULP energy per Si atom -5593.352431 kJ/mol
# Density = 2.570348 g / cm^3
# Si number density = 25.762113 Si / 1000 Ang^3
#
#
#
# Elastic Constant Matrix: (Units=GPa)
#
#
# Indices 1 2 3 4 5 6 
#
# 1 153.2949 28.2280 42.7298 -18.5697 -31.5978 9.0409
# 2 28.2280 47.7447 49.9281 -0.3665 -18.9420 -14.1188
# 3 42.7298 49.9281 48.8662 -33.9900 -19.6695 23.0409
# 4 -18.5697 -0.3665 -33.9900 26.6309 14.0929 -11.7776
# 5 -31.5978 -18.9420 -19.6695 14.0929 66.5011 -18.3798
# 6 9.0409 -14.1188 23.0409 -11.7776 -18.3798 36.5884
#
#
#
# Elastic Compliance Matrix: (Units=1/GPa)
#
#
# Indices 1 2 3 4 5 6 
#
# 1 0.008173 -0.002869 -0.001232 0.002846 0.001977 -0.000442
# 2 -0.002869 -0.000215 0.019732 0.021568 -0.001743 -0.005733
# 3 -0.001232 0.019732 -0.010731 -0.012168 0.008609 0.015084
# 4 0.002846 0.021568 -0.012168 0.034609 0.004489 0.028677
# 5 0.001977 -0.001743 0.008609 0.004489 0.018179 0.003994
# 6 -0.000442 -0.005733 0.015084 0.028677 0.003994 0.026967
#
#
# Mechanical properties :
#
#
# Convention : Reuss Voigt Hill
#
# Bulk Modulus (GPa) = 35.09917 54.63085 44.86501
# Shear Modulus (GPa) = 90.55246 34.54540 62.54893
#
# Velocity S-wave (km/s) = 5.93513 3.66585 4.93276
# Velocity P-wave (km/s) = 7.78599 6.25859 7.06369
#
# Compressibility (1/GPa) = 0.02849070
#
# Stress axis : x y z
#
# Youngs Moduli (GPa) = 122.34983 -4655.08902 -93.19080
#
# Poissons Ratio (x) = -13.35604 -0.11477
# Poissons Ratio (y) = 0.35104 1.83885
# Poissons Ratio (z) = 0.15067 91.85463
#
# Static dielectric constant tensor:
#      x y z
#    x 2.066840 0.080080 -0.081590 
#    y 0.080080 2.037310 -0.006830 
#    z -0.081590 -0.006830 2.071300 
# 
# From -- ./inp_files/220989.got.cif
#   From: 2010.05.17/outbox.cif.g08.bks.cpg/sg2_111_cif.got.tgz:220989.got - 2010.06.03 11:33:40.
