data_PCOD9074497
_publ_section_title
;
Structure prediction by ZEFSAII (Michael W. Deem and Ramdas Pophale) SiO2 
 PCOD9074497
Probable space group: P -1
;
_chemical_formula_sum "Si O2"
_cell_formula_units_Z 12
_cell_length_a 6.000000
_cell_length_b 6.000000
_cell_length_c 15.000000
_cell_angle_alpha 80.000000
_cell_angle_beta 80.000000
_cell_angle_gamma 80.000000
_cell_volume 517.952957
_symmetry_space_group_name_H-M "P -1"
_symmetry_group_IT_number 2
_symmetry_cell_setting 'triclinic'
loop_
_space_group_symop_operation_xyz
x,y,z
-x,-y,-z
loop_
_atom_site_type_symbol
_atom_site_label
_atom_site_fract_x
_atom_site_fract_y
_atom_site_fract_z
Si Si1 0.140729 0.641740 0.048497
Si Si2 0.441589 0.692154 0.872569
Si Si3 0.804002 0.592306 0.232467
Si Si4 0.297166 0.186939 0.460739
Si Si5 0.934388 0.366733 0.624013
Si Si6 0.630383 0.042601 0.721262
O O1 0.369745 0.507483 0.087603
O O2 0.965392 0.692692 0.140147
O O3 0.260370 0.789995 0.956028
O O4 0.000000 0.500000 0.000000
O O5 0.311846 0.594103 0.804111
O O6 0.597970 0.870238 0.813521
O O7 0.929066 0.499221 0.322813
O O8 0.609531 0.787974 0.270543
O O9 0.272646 0.461583 0.420265
O O10 0.302889 0.083674 0.367909
O O11 0.090106 0.223901 0.546414
O O12 0.500000 0.000000 0.500000
O O13 0.828045 0.195303 0.707278
#
# Coordination Sequence:
#
# PCOD9074497 Si02
#       6
#     2   2   2   2   2   2
#     4   9  20  42  68  98 135 186 230 284 336 412
#     4  10  23  44  68  97 141 182 231 285 347 409
#     4  11  22  42  68 101 137 182 234 283 340 416
#     4  11  24  49  70 101 138 187 232 288 347 413
#     4  11  26  46  71 103 140 180 237 289 341 417
#     4  12  24  42  68 104 137 180 230 291 347 411
#
# _framework density 23.168126999999998
#
# number of rings (size 3 to 8) (size 9 to 14) (size 15 to 20)
#    0.000    1.333    1.667    3.500    0.000    5.333 
#   12.000   11.667    0.000    0.000    0.000    0.000 
#    0.000    0.000    0.000    0.000    0.000    0.000 
#
# Total GULP energy -66815.710950 kJ/mol
# GULP energy per Si atom -5567.975912 kJ/mol
# Density = 2.311540 g / cm^3
# Si number density = 23.168127 Si / 1000 Ang^3
#
#
#
# Elastic Constant Matrix: (Units=GPa)
#
#
# Indices 1 2 3 4 5 6 
#
# 1 56.8954 22.0241 40.5370 7.8476 -26.4963 -10.6661
# 2 22.0241 69.7582 35.8369 2.1021 -17.6466 -23.8628
# 3 40.5370 35.8369 145.4908 9.1999 -34.0906 4.6428
# 4 7.8476 2.1021 9.1999 43.3063 -7.9964 -17.2645
# 5 -26.4963 -17.6466 -34.0906 -7.9964 40.9914 -8.3616
# 6 -10.6661 -23.8628 4.6428 -17.2645 -8.3616 30.9370
#
#
#
# Elastic Compliance Matrix: (Units=1/GPa)
#
#
# Indices 1 2 3 4 5 6 
#
# 1 0.053019 0.031776 -0.013285 0.034859 0.060120 0.080485
# 2 0.031776 0.067335 -0.016087 0.052403 0.069488 0.113332
# 3 -0.013285 -0.016087 0.013249 -0.014342 -0.013543 -0.030641
# 4 0.034859 0.052403 -0.014342 0.077353 0.072174 0.117265
# 5 0.060120 0.069488 -0.013543 0.072174 0.126768 0.150898
# 6 0.080485 0.113332 -0.030641 0.117265 0.150898 0.258312
#
#
# Mechanical properties :
#
#
# Convention : Reuss Voigt Hill
#
# Bulk Modulus (GPa) = 7.22491 52.10451 29.66471
# Shear Modulus (GPa) = 7.84478 34.63005 21.23742
#
# Velocity S-wave (km/s) = 1.84211 3.87037 3.03093
# Velocity P-wave (km/s) = 2.76582 6.52009 5.00806
#
# Compressibility (1/GPa) = 0.13841000
#
# Stress axis : x y z
#
# Youngs Moduli (GPa) = 18.86106 14.85108 75.47792
#
# Poissons Ratio (x) = -0.47190 1.00273
# Poissons Ratio (y) = -0.59932 1.21424
# Poissons Ratio (z) = 0.25057 0.23891
#
# Static dielectric constant tensor:
#      x y z
#    x 1.908400 0.013980 0.008160 
#    y 0.013980 1.913890 -0.062690 
#    z 0.008160 -0.062690 1.884910 
# 
# From -- ./inp_files/4641.got.cif
#   From: 2010.05.17/outbox.ucp.g08.bks.cvg/sg2_3_cif.got.tgz:4641.got - 2010.06.11 11:32:03.
