data_PCOD9074860
_publ_section_title
;
Structure prediction by ZEFSAII (Michael W. Deem and Ramdas Pophale) SiO2 
 PCOD9074860
Probable space group: P -1
;
_chemical_formula_sum "Si O2"
_cell_formula_units_Z 16
_cell_length_a 9.000000
_cell_length_b 15.000000
_cell_length_c 9.000000
_cell_angle_alpha 80.000000
_cell_angle_beta 70.000000
_cell_angle_gamma 130.000000
_cell_volume 732.374747
_symmetry_space_group_name_H-M "P -1"
_symmetry_group_IT_number 2
_symmetry_cell_setting 'triclinic'
loop_
_space_group_symop_operation_xyz
x,y,z
-x,-y,-z
loop_
_atom_site_type_symbol
_atom_site_label
_atom_site_fract_x
_atom_site_fract_y
_atom_site_fract_z
Si Si1 0.561008 0.967083 0.133838
Si Si2 0.554273 0.667331 0.989201
Si Si3 0.993802 0.723670 0.072135
Si Si4 0.116223 0.583506 0.207880
Si Si5 0.114272 0.037696 0.111825
Si Si6 0.282336 0.260028 0.613915
Si Si7 0.503864 0.525246 0.780366
Si Si8 0.694562 0.298423 0.560724
O O1 0.384656 0.841488 0.350084
O O2 0.658308 0.923137 0.022522
O O3 0.500000 0.000000 0.000000
O O4 0.768627 0.116898 0.100294
O O5 0.341284 0.642387 0.021673
O O6 0.440002 0.556295 0.193079
O O7 0.789917 0.825839 0.904768
O O8 0.616871 0.628769 0.846009
O O9 0.849136 0.730674 0.227020
O O10 0.787677 0.603444 0.063373
O O11 0.053817 0.656899 0.154525
O O12 0.201782 0.632330 0.333613
O O13 0.895389 0.415905 0.337328
O O14 0.936751 0.901860 0.315831
O O15 0.000000 0.000000 0.000000
O O16 0.412124 0.384749 0.419616
O O17 0.472846 0.270504 0.610168
#
# Coordination Sequence:
#
# PCOD9074860 Si02
#       8
#     2   2   2   2   2   2   2   2
#     4  11  20  33  55  92 120 145 189 246 307 345
#     4  11  24  43  59  84 126 157 204 237 303 359
#     4  11  22  36  62  90 119 154 200 251 290 356
#     4  11  22  36  61  89 121 153 190 255 301 346
#     4  11  20  37  64  88 116 155 189 252 296 352
#     4  11  23  37  61  92 119 150 207 246 296 348
#     4  11  25  40  59  86 118 169 197 246 290 358
#     4  11  21  35  57  92 118 152 187 252 305 334
#
# _framework density 21.846738999999999
#
# number of rings (size 3 to 8) (size 9 to 14) (size 15 to 20)
#    0.000    1.000    5.000    2.625    3.500    1.000 
#    0.000    0.000    0.000    0.750    0.000    0.000 
#    0.000    0.000    0.000    0.000    0.000    0.000 
#
# Total GULP energy -89096.354972 kJ/mol
# GULP energy per Si atom -5568.522186 kJ/mol
# Density = 2.179701 g / cm^3
# Si number density = 21.846739 Si / 1000 Ang^3
#
#
#
# Elastic Constant Matrix: (Units=GPa)
#
#
# Indices 1 2 3 4 5 6 
#
# 1 101.6019 22.9614 14.9144 -7.0806 16.6883 -11.2087
# 2 22.9614 147.8979 36.4059 -40.2922 12.9835 -9.4004
# 3 14.9144 36.4059 48.5333 -40.4396 17.1401 -2.7877
# 4 -7.0806 -40.2922 -40.4396 39.0546 -6.7925 5.6122
# 5 16.6883 12.9835 17.1401 -6.7925 23.1216 -13.4136
# 6 -11.2087 -9.4004 -2.7877 5.6122 -13.4136 18.5919
#
#
#
# Elastic Compliance Matrix: (Units=1/GPa)
#
#
# Indices 1 2 3 4 5 6 
#
# 1 0.011227 -0.000857 0.004876 0.004588 -0.011339 -0.002499
# 2 -0.000857 0.008626 -0.013525 -0.004981 0.010773 0.011093
# 3 0.004876 -0.013525 -0.172493 -0.184177 0.159645 0.141014
# 4 0.004588 -0.004981 -0.184177 -0.160210 0.173929 0.146478
# 5 -0.011339 0.010773 0.159645 0.173929 -0.067492 -0.078648
# 6 -0.002499 0.011093 0.141014 0.146478 -0.078648 -0.021927
#
#
# Mechanical properties :
#
#
# Convention : Reuss Voigt Hill
#
# Bulk Modulus (GPa) = -5.82578 49.62183 21.89802
# Shear Modulus (GPa) = -11.35137 31.07038 9.85950
#
# Velocity S-wave (km/s) = -2.28193 3.77529 2.12669
# Velocity P-wave (km/s) = 3.10087 6.46272 4.00945
#
# Compressibility (1/GPa) = -0.17165084
#
# Stress axis : x y z
#
# Youngs Moduli (GPa) = 89.07423 115.92740 -5.79733
#
# Poissons Ratio (x) = 0.09934 0.02827
# Poissons Ratio (y) = 0.07633 -0.07841
# Poissons Ratio (z) = -0.43437 1.56789
#
# Static dielectric constant tensor:
#      x y z
#    x 1.831070 0.037000 -0.046920 
#    y 0.037000 1.856540 -0.063120 
#    z -0.046920 -0.063120 1.831290 
# 
# From -- ./inp_files/206879.got.cif
#   From: 2010.05.17/outbox.ucp.g08.bks.cvg/sg2_104_cif.got.tgz:206879.got - 2010.06.11 11:32:03.
