data_PCOD9074280
_publ_section_title
;
Structure prediction by ZEFSAII (Michael W. Deem and Ramdas Pophale) SiO2 
 PCOD9074280
Probable space group: P -1
;
_chemical_formula_sum "Si O2"
_cell_formula_units_Z 14
_cell_length_a 12.000000
_cell_length_b 9.000000
_cell_length_c 6.000000
_cell_angle_alpha 80.000000
_cell_angle_beta 100.000000
_cell_angle_gamma 80.000000
_cell_volume 614.427936
_symmetry_space_group_name_H-M "P -1"
_symmetry_group_IT_number 2
_symmetry_cell_setting 'triclinic'
loop_
_space_group_symop_operation_xyz
x,y,z
-x,-y,-z
loop_
_atom_site_type_symbol
_atom_site_label
_atom_site_fract_x
_atom_site_fract_y
_atom_site_fract_z
Si Si1 0.231861 0.956287 0.785088
Si Si2 0.311707 0.442891 0.014696
Si Si3 0.618004 0.295129 0.778727
Si Si4 0.899475 0.642466 0.854230
Si Si5 0.785424 0.325762 0.454915
Si Si6 0.050033 0.234236 0.670534
Si Si7 0.416779 0.153078 0.836503
O O1 0.228816 0.831069 0.629282
O O2 0.100817 0.051151 0.731787
O O3 0.308575 0.085507 0.726297
O O4 0.292310 0.852383 0.041475
O O5 0.231735 0.537333 0.766613
O O6 0.376532 0.280052 0.980976
O O7 0.390127 0.561178 0.091802
O O8 0.223715 0.407913 0.181429
O O9 0.678659 0.354552 0.576535
O O10 0.500237 0.238315 0.697602
O O11 0.921813 0.704332 0.592018
O O12 0.897294 0.734119 0.071422
O O13 0.000000 0.500000 0.000000
O O14 0.911860 0.295150 0.618168
O O15 0.500000 0.000000 0.000000
#
# Coordination Sequence:
#
# PCOD9074280 Si02
#       7
#     2   2   2   2   2   2   2
#     4  10  24  44  65 103 139 187 237 293 358 422
#     4  11  23  43  68 103 140 182 239 293 361 425
#     4  10  24  43  70  96 142 184 238 296 356 423
#     4  12  25  43  72 105 148 188 237 292 358 429
#     4  11  25  42  67 102 142 186 233 293 358 434
#     4  12  26  43  72 108 145 192 238 294 357 431
#     4  10  22  45  70  98 137 184 244 298 355 422
#
# _framework density 22.785422000000001
#
# number of rings (size 3 to 8) (size 9 to 14) (size 15 to 20)
#    0.000    1.143    2.857    2.143    6.000    1.714 
#    0.000    2.857    0.000    0.000    0.000    0.000 
#    0.000    0.000    0.000    0.000    0.000    0.000 
#
# Total GULP energy -78067.025244 kJ/mol
# GULP energy per Si atom -5576.216089 kJ/mol
# Density = 2.273356 g / cm^3
# Si number density = 22.785422 Si / 1000 Ang^3
#
#
#
# Elastic Constant Matrix: (Units=GPa)
#
#
# Indices 1 2 3 4 5 6 
#
# 1 69.7845 7.0570 -12.8260 -2.3330 -22.9150 8.5354
# 2 7.0570 134.3358 4.7462 4.4942 0.5857 -14.8619
# 3 -12.8260 4.7462 47.8560 13.2768 -13.1962 5.8023
# 4 -2.3330 4.4942 13.2768 16.0890 1.2510 0.8698
# 5 -22.9150 0.5857 -13.1962 1.2510 36.8176 -0.2099
# 6 8.5354 -14.8619 5.8023 0.8698 -0.2099 44.7715
#
#
#
# Elastic Compliance Matrix: (Units=1/GPa)
#
#
# Indices 1 2 3 4 5 6 
#
# 1 0.025853 -0.002551 0.017551 -0.011375 0.022765 -0.007723
# 2 -0.002551 0.008081 -0.002446 -0.000599 -0.002553 0.003486
# 3 0.017551 -0.002446 0.044414 -0.035109 0.028023 -0.009100
# 4 -0.011375 -0.000599 -0.035109 0.091161 -0.022725 0.004642
# 5 0.022765 -0.002553 0.028023 -0.022725 0.052140 -0.008133
# 6 -0.007723 0.003486 -0.009100 0.004642 -0.008133 0.026016
#
#
# Mechanical properties :
#
#
# Convention : Reuss Voigt Hill
#
# Bulk Modulus (GPa) = 9.66586 27.77008 18.71797
# Shear Modulus (GPa) = 19.45213 36.40222 27.92717
#
# Velocity S-wave (km/s) = 2.92500 4.00135 3.50474
# Velocity P-wave (km/s) = 3.95712 5.79326 4.96088
#
# Compressibility (1/GPa) = 0.10345687
#
# Stress axis : x y z
#
# Youngs Moduli (GPa) = 38.68008 123.74323 22.51563
#
# Poissons Ratio (x) = 0.31571 -0.39518
# Poissons Ratio (y) = 0.09868 0.05506
# Poissons Ratio (z) = -0.67889 0.30262
#
# Static dielectric constant tensor:
#      x y z
#    x 1.889010 -0.001670 -0.031120 
#    y -0.001670 1.877460 0.063620 
#    z -0.031120 0.063620 1.877370 
# 
# From -- ./inp_files/27183.got.cif
#   From: 2010.05.17/outbox.ucp.g08.bks.cvg/sg2_14_cif.got.tgz:27183.got - 2010.06.11 11:32:03.
