data_PCOD9074026
_publ_section_title
;
Structure prediction by ZEFSAII (Michael W. Deem and Ramdas Pophale) SiO2 
 PCOD9074026
Probable space group: P -1
;
_chemical_formula_sum "Si O2"
_cell_formula_units_Z 14
_cell_length_a 18.000000
_cell_length_b 9.000000
_cell_length_c 15.000000
_cell_angle_alpha 130.000000
_cell_angle_beta 20.000000
_cell_angle_gamma 130.000000
_cell_volume 629.659215
_symmetry_space_group_name_H-M "P -1"
_symmetry_group_IT_number 2
_symmetry_cell_setting 'triclinic'
loop_
_space_group_symop_operation_xyz
x,y,z
-x,-y,-z
loop_
_atom_site_type_symbol
_atom_site_label
_atom_site_fract_x
_atom_site_fract_y
_atom_site_fract_z
Si Si1 0.293063 0.425444 0.885955
Si Si2 0.075201 0.014288 0.567279
Si Si3 0.653586 0.047527 0.175827
Si Si4 0.951928 0.685520 0.442902
Si Si5 0.959218 0.247979 0.061045
Si Si6 0.650160 0.713547 0.493294
Si Si7 0.619793 0.348576 0.626526
O O1 0.503138 0.532950 0.637283
O O2 0.389698 0.380558 0.855027
O O3 0.138480 0.587187 0.144312
O O4 0.146991 0.244728 0.927591
O O5 0.114397 0.157929 0.493066
O O6 0.256350 0.111675 0.473782
O O7 0.047171 0.798483 0.468811
O O8 0.841463 0.020175 0.881508
O O9 0.788957 0.095220 0.134607
O O10 0.523499 0.216929 0.352692
O O11 0.453674 0.866986 0.335220
O O12 0.742947 0.511565 0.617429
O O13 0.788479 0.344592 0.351801
O O14 0.132969 0.336399 0.822157
#
# Coordination Sequence:
#
# PCOD9074026 Si02
#       7
#     2   2   2   2   2   2   2
#     4  11  22  39  63  91 119 162 203 243 299 354
#     4  10  22  41  64  90 119 155 205 252 294 356
#     4  11  24  41  61  91 126 158 197 248 303 353
#     4  10  22  41  64  90 119 155 205 252 294 356
#     4  10  24  38  62  88 128 158 202 243 296 357
#     4  11  22  39  63  91 119 162 203 243 299 354
#     4  11  24  41  61  91 126 158 197 248 303 353
#
# _framework density 22.234248999999998
#
# number of rings (size 3 to 8) (size 9 to 14) (size 15 to 20)
#    0.000    1.429    2.857    1.714    0.000    9.143 
#    0.000    1.429    0.000    0.000    0.000    0.000 
#    0.000    0.000    0.000    0.000    0.000    0.000 
#
# Total GULP energy -77959.048260 kJ/mol
# GULP energy per Si atom -5568.503447 kJ/mol
# Density = 2.218364 g / cm^3
# Si number density = 22.234249 Si / 1000 Ang^3
#
#
#
# Elastic Constant Matrix: (Units=GPa)
#
#
# Indices 1 2 3 4 5 6 
#
# 1 86.2992 32.8523 10.3140 -13.0309 -4.7476 31.1437
# 2 32.8523 66.9806 17.0933 -13.7751 1.9503 23.3241
# 3 10.3140 17.0933 69.6799 -21.5592 -0.2015 11.8484
# 4 -13.0309 -13.7751 -21.5592 5.3040 24.8103 -14.2781
# 5 -4.7476 1.9503 -0.2015 24.8103 16.1553 8.3647
# 6 31.1437 23.3241 11.8484 -14.2781 8.3647 49.2091
#
#
#
# Elastic Compliance Matrix: (Units=1/GPa)
#
#
# Indices 1 2 3 4 5 6 
#
# 1 0.016936 -0.005112 0.001563 0.004912 0.001999 -0.007587
# 2 -0.005112 0.020134 -0.003666 -0.001813 0.002069 -0.006303
# 3 0.001563 -0.003666 0.014879 -0.003535 0.009336 -0.005446
# 4 0.004912 -0.001813 -0.003535 -0.017745 0.035373 -0.012560
# 5 0.001999 0.002069 0.009336 0.035373 0.005529 0.004830
# 6 -0.007587 -0.006303 -0.005446 -0.012560 0.004830 0.024957
#
#
# Mechanical properties :
#
#
# Convention : Reuss Voigt Hill
#
# Bulk Modulus (GPa) = 26.65280 38.16432 32.40856
# Shear Modulus (GPa) = 54.56995 24.98036 39.77516
#
# Velocity S-wave (km/s) = 4.95948 3.35551 4.23414
# Velocity P-wave (km/s) = 6.69392 5.67579 6.20577
#
# Compressibility (1/GPa) = 0.03751951
#
# Stress axis : x y z
#
# Youngs Moduli (GPa) = 59.04475 49.66678 67.21017
#
# Poissons Ratio (x) = 0.25389 -0.10502
# Poissons Ratio (y) = 0.30183 0.24637
# Poissons Ratio (z) = -0.09226 0.18206
#
# Static dielectric constant tensor:
#      x y z
#    x 1.850130 -0.026890 -0.009020 
#    y -0.026890 1.876920 0.023170 
#    z -0.009020 0.023170 1.786460 
# 
# From -- ./inp_files/55457.got.cif
#   From: 2010.05.17/outbox.ucp.g08.bks.cvg/sg2_28_cif.got.tgz:55457.got - 2010.06.11 11:32:03.
