data_PCOD9074337
_publ_section_title
;
Structure prediction by ZEFSAII (Michael W. Deem and Ramdas Pophale) SiO2 
 PCOD9074337
Probable space group: P -1
;
_chemical_formula_sum "Si O2"
_cell_formula_units_Z 16
_cell_length_a 15.000000
_cell_length_b 15.000000
_cell_length_c 15.000000
_cell_angle_alpha 140.000000
_cell_angle_beta 140.000000
_cell_angle_gamma 20.000000
_cell_volume 725.414092
_symmetry_space_group_name_H-M "P -1"
_symmetry_group_IT_number 2
_symmetry_cell_setting 'triclinic'
loop_
_space_group_symop_operation_xyz
x,y,z
-x,-y,-z
loop_
_atom_site_type_symbol
_atom_site_label
_atom_site_fract_x
_atom_site_fract_y
_atom_site_fract_z
Si Si1 0.488882 0.221390 0.732279
Si Si2 0.889351 0.652618 0.349497
Si Si3 0.104206 0.761374 0.367785
Si Si4 0.261983 0.958029 0.850629
Si Si5 0.607672 0.441566 0.398037
Si Si6 0.932037 0.216716 0.088505
Si Si7 0.811144 0.479844 0.019024
Si Si8 0.495888 0.210855 0.521881
O O1 0.283053 0.282571 0.658139
O O2 0.554107 0.148237 0.622988
O O3 0.307980 0.515398 0.830012
O O4 0.769877 0.972832 0.811417
O O5 0.196568 0.409960 0.426095
O O6 0.726056 0.934477 0.432633
O O7 0.859927 0.581865 0.186081
O O8 0.359563 0.571588 0.353796
O O9 0.239913 0.597187 0.439041
O O10 0.000000 0.000000 0.500000
O O11 0.851876 0.908659 0.235625
O O12 0.212246 0.834142 0.716705
O O13 0.551714 0.718060 0.938244
O O14 0.064211 0.219024 0.956250
O O15 0.505803 0.629514 0.388484
O O16 0.819299 0.356315 0.010819
O O17 0.000000 0.000000 0.000000
#
# Coordination Sequence:
#
# PCOD9074337 Si02
#       8
#     2   2   2   2   2   2   2   2
#     4  11  23  42  62  89 126 176 223 253 314 362
#     4  11  24  44  59  90 128 182 216 261 305 351
#     4   9  20  41  66  96 136 154 195 254 349 388
#     4  11  21  38  67  94 123 159 205 255 310 401
#     4  10  23  39  65 107 123 161 198 270 334 369
#     4  11  24  38  59  90 134 167 202 271 319 366
#     4  11  23  39  63  87 126 170 216 246 309 386
#     4  12  25  39  69  91 129 162 228 267 297 379
#
# _framework density 22.056367999999999
#
# number of rings (size 3 to 8) (size 9 to 14) (size 15 to 20)
#    0.000    1.250    1.250    5.625    7.000    0.000 
#    0.000    0.000    0.000    4.500    0.000    0.000 
#    0.000    0.000    0.000    0.000    0.000    0.000 
#
# Total GULP energy -89244.775706 kJ/mol
# GULP energy per Si atom -5577.798482 kJ/mol
# Density = 2.200617 g / cm^3
# Si number density = 22.056368 Si / 1000 Ang^3
#
#
#
# Elastic Constant Matrix: (Units=GPa)
#
#
# Indices 1 2 3 4 5 6 
#
# 1 10.0989 -6.4120 -4.9669 -4.3706 -5.9308 -7.0743
# 2 -6.4120 149.9999 18.5855 -9.5992 -12.8962 -4.3949
# 3 -4.9669 18.5855 39.2944 7.6934 -19.9615 -2.9003
# 4 -4.3706 -9.5992 7.6934 64.0143 0.6510 -5.8721
# 5 -5.9308 -12.8962 -19.9615 0.6510 26.3045 1.2574
# 6 -7.0743 -4.3949 -2.9003 -5.8721 1.2574 25.8803
#
#
#
# Elastic Compliance Matrix: (Units=1/GPa)
#
#
# Indices 1 2 3 4 5 6 
#
# 1 0.429709 0.022906 0.163077 0.023175 0.224892 0.133958
# 2 0.022906 0.008502 0.005606 0.002796 0.013120 0.008330
# 3 0.163077 0.005606 0.106594 0.002770 0.117835 0.052378
# 4 0.023175 0.002796 0.002770 0.018209 0.007728 0.010876
# 5 0.224892 0.013120 0.117835 0.007728 0.181045 0.069865
# 6 0.133958 0.008330 0.052378 0.010876 0.069865 0.081614
#
#
# Mechanical properties :
#
#
# Convention : Reuss Voigt Hill
#
# Bulk Modulus (GPa) = 1.07761 23.75626 12.41693
# Shear Modulus (GPa) = 6.65050 36.05227 21.35139
#
# Velocity S-wave (km/s) = 1.73833 4.04735 3.11471
# Velocity P-wave (km/s) = 2.12571 5.71274 4.31011
#
# Compressibility (1/GPa) = 0.92798335
#
# Stress axis : x y z
#
# Youngs Moduli (GPa) = 2.32716 117.61764 9.38135
#
# Poissons Ratio (x) = -2.69412 -1.52988
# Poissons Ratio (y) = -0.05331 -0.05260
# Poissons Ratio (z) = -0.37951 -0.65941
#
# Static dielectric constant tensor:
#      x y z
#    x 1.849290 0.004220 -0.010320 
#    y 0.004220 1.832970 0.002490 
#    z -0.010320 0.002490 1.892500 
# 
# From -- ./inp_files/534464.got.cif
#   From: 2010.05.17/outbox.ucp.g08.bks.cvg/sg2_268_cif.got.tgz:534464.got - 2010.06.11 11:32:03.
