data_PCOD9074418
_publ_section_title
;
Structure prediction by ZEFSAII (Michael W. Deem and Ramdas Pophale) SiO2 
 PCOD9074418
Probable space group: P -1
;
_chemical_formula_sum "Si O2"
_cell_formula_units_Z 16
_cell_length_a 9.280904
_cell_length_b 13.546674
_cell_length_c 16.559892
_cell_angle_alpha 29.399674
_cell_angle_beta 68.280884
_cell_angle_gamma 47.084300
_cell_volume 586.824919
_symmetry_space_group_name_H-M "P -1"
_symmetry_group_IT_number 2
_symmetry_cell_setting 'triclinic'
loop_
_space_group_symop_operation_xyz
x,y,z
-x,-y,-z
loop_
_atom_site_type_symbol
_atom_site_label
_atom_site_fract_x
_atom_site_fract_y
_atom_site_fract_z
Si Si1 0.200751 0.543138 0.068643
Si Si2 0.282240 0.670593 0.134116
Si Si3 0.697413 0.892030 0.193144
Si Si4 0.135680 0.152828 0.363531
Si Si5 0.114540 0.855797 0.711392
Si Si6 0.709454 0.576874 0.274490
Si Si7 0.706099 0.231869 0.712295
Si Si8 0.749988 0.573480 0.548213
O O1 0.274160 0.593323 0.937084
O O2 0.900446 0.877186 0.890398
O O3 0.257984 0.248859 0.266255
O O4 0.264727 0.576146 0.118488
O O5 0.388723 0.400143 0.369729
O O6 0.377080 0.800426 0.008520
O O7 0.000000 0.000000 0.000000
O O8 0.603622 0.870732 0.307260
O O9 0.002836 0.573710 0.363499
O O10 0.644030 0.824323 0.171448
O O11 0.863214 0.471892 0.237445
O O12 0.053460 0.136596 0.307547
O O13 0.234592 0.875142 0.602340
O O14 0.917666 0.218970 0.529484
O O15 0.458309 0.701845 0.230139
O O16 0.500000 0.500000 0.500000
O O17 0.833466 0.304345 0.665307
#
# Coordination Sequence:
#
# PCOD9074418 Si02
#       8
#     2   2   2   2   2   2   2   2
#     4  12  20  34  57  81 115 143 174 231 275 318
#     4  10  20  31  48  78 109 140 180 215 254 329
#     4  10  18  32  51  73 108 148 177 207 260 327
#     4   9  20  36  53  79 105 144 194 221 269 308
#     4   9  20  36  53  78 110 141 185 239 259 307
#     4  10  20  34  54  79 115 140 172 221 273 324
#     4  12  20  34  50  85 121 145 167 213 290 340
#     4  10  20  32  49  69 114 144 174 209 252 335
#
# _framework density 27.265374999999999
#
# number of rings (size 3 to 8) (size 9 to 14) (size 15 to 20)
#    0.750    1.000    5.000    1.875    1.750    0.500 
#    0.000    0.000    0.000    0.000    0.000    8.750 
#    0.000    0.000    0.000    0.000    0.000    0.000 
#
# Total GULP energy -89476.805999 kJ/mol
# GULP energy per Si atom -5592.300375 kJ/mol
# Density = 2.720332 g / cm^3
# Si number density = 27.265375 Si / 1000 Ang^3
#
#
#
# Elastic Constant Matrix: (Units=GPa)
#
#
# Indices 1 2 3 4 5 6 
#
# 1 116.9233 40.3710 49.4654 16.6253 -29.1012 37.2006
# 2 40.3710 133.2288 71.8373 33.1244 -29.5100 26.4862
# 3 49.4654 71.8373 201.6113 15.3942 -49.2700 38.4104
# 4 16.6253 33.1244 15.3942 63.5864 3.0218 -2.5114
# 5 -29.1012 -29.5100 -49.2700 3.0218 49.3078 4.5786
# 6 37.2006 26.4862 38.4104 -2.5114 4.5786 49.4594
#
#
#
# Elastic Compliance Matrix: (Units=1/GPa)
#
#
# Indices 1 2 3 4 5 6 
#
# 1 0.018375 0.002842 0.003527 -0.008816 0.018489 -0.020240
# 2 0.002842 0.013466 -0.000017 -0.008716 0.011258 -0.010820
# 3 0.003527 -0.000017 0.009977 -0.004434 0.013413 -0.011858
# 4 -0.008816 -0.008716 -0.004434 0.025202 -0.018038 0.017692
# 5 0.018489 0.011258 0.013413 -0.018038 0.055822 -0.036436
# 6 -0.020240 -0.010820 -0.011858 0.017692 -0.036436 0.054717
#
#
# Mechanical properties :
#
#
# Convention : Reuss Voigt Hill
#
# Bulk Modulus (GPa) = 18.34198 86.12342 52.23270
# Shear Modulus (GPa) = 27.31821 51.81006 39.56413
#
# Velocity S-wave (km/s) = 3.16877 4.36387 3.81343
# Velocity P-wave (km/s) = 4.48664 7.55294 6.21196
#
# Compressibility (1/GPa) = 0.05451975
#
# Stress axis : x y z
#
# Youngs Moduli (GPa) = 54.42314 74.26286 100.23545
#
# Poissons Ratio (x) = -0.21102 -0.35354
# Poissons Ratio (y) = -0.15465 0.00172
# Poissons Ratio (z) = -0.19196 0.00128
#
# Static dielectric constant tensor:
#      x y z
#    x 2.111000 -0.121430 0.046330 
#    y -0.121430 2.153690 0.045590 
#    z 0.046330 0.045590 2.257020 
# 
# From -- ./inp_files/569484.got.cif
#   From: 2010.05.17/outbox.cif.g08.bks.cpg/sg2_285_cif.got.tgz:569484.got - 2010.06.03 11:33:40.
