data_PCOD9074276
_publ_section_title
;
Structure prediction by ZEFSAII (Michael W. Deem and Ramdas Pophale) SiO2 
 PCOD9074276
Probable space group: P -1
;
_chemical_formula_sum "Si O2"
_cell_formula_units_Z 16
_cell_length_a 9.000000
_cell_length_b 15.000000
_cell_length_c 12.000000
_cell_angle_alpha 50.000000
_cell_angle_beta 70.000000
_cell_angle_gamma 110.000000
_cell_volume 728.972637
_symmetry_space_group_name_H-M "P -1"
_symmetry_group_IT_number 2
_symmetry_cell_setting 'triclinic'
loop_
_space_group_symop_operation_xyz
x,y,z
-x,-y,-z
loop_
_atom_site_type_symbol
_atom_site_label
_atom_site_fract_x
_atom_site_fract_y
_atom_site_fract_z
Si Si1 0.626261 0.879745 0.847029
Si Si2 0.209236 0.495501 0.379024
Si Si3 0.221851 0.589460 0.528482
Si Si4 0.772341 0.927467 0.196073
Si Si5 0.190418 0.235384 0.496696
Si Si6 0.525538 0.986266 0.366360
Si Si7 0.023545 0.549374 0.826686
Si Si8 0.522918 0.650902 0.880416
O O1 0.682655 0.801616 0.815527
O O2 0.499350 0.906693 0.780945
O O3 0.423083 0.714327 0.120076
O O4 0.891586 0.069556 0.679360
O O5 0.193392 0.474464 0.533711
O O6 0.270260 0.412681 0.364304
O O7 0.945216 0.398064 0.483028
O O8 0.515903 0.790504 0.300897
O O9 0.099510 0.496928 0.756491
O O10 0.744511 0.803414 0.383746
O O11 0.738048 0.022852 0.217451
O O12 0.000000 0.000000 0.000000
O O13 0.335081 0.247846 0.352922
O O14 0.260202 0.771036 0.582313
O O15 0.500000 0.000000 0.500000
O O16 0.000000 0.500000 0.000000
O O17 0.756265 0.456626 0.946605
O O18 0.500000 0.500000 0.000000
#
# Coordination Sequence:
#
# PCOD9074276 Si02
#       8
#     2   2   2   2   2   2   2   2
#     4  12  24  45  73 105 141 189 243 289 361 435
#     4  11  24  45  74 102 140 191 238 293 357 433
#     4  10  22  45  69  99 140 188 243 286 353 433
#     4  11  25  46  69 104 149 185 239 301 368 420
#     4  12  25  44  69 107 146 185 234 301 360 425
#     4  11  25  46  71 107 141 192 248 295 350 440
#     4  11  22  43  70  97 141 193 235 288 353 426
#     4  12  22  41  69 103 139 182 233 293 359 411
#
# _framework density 21.948698
#
# number of rings (size 3 to 8) (size 9 to 14) (size 15 to 20)
#    0.000    0.750    2.500    6.375    0.000    3.500 
#    2.250    6.250    0.000    0.000    0.000    0.000 
#    0.000    0.000    0.000    0.000    0.000    0.000 
#
# Total GULP energy -89105.651852 kJ/mol
# GULP energy per Si atom -5569.103241 kJ/mol
# Density = 2.189874 g / cm^3
# Si number density = 21.948698 Si / 1000 Ang^3
#
#
#
# Elastic Constant Matrix: (Units=GPa)
#
#
# Indices 1 2 3 4 5 6 
#
# 1 50.3595 28.0090 32.1593 10.2961 -1.4255 -13.5996
# 2 28.0090 130.1604 38.2013 21.7071 -5.6310 -6.5249
# 3 32.1593 38.2013 108.7973 15.1303 -17.5641 -1.8365
# 4 10.2961 21.7071 15.1303 40.3222 -11.1566 -1.1956
# 5 -1.4255 -5.6310 -17.5641 -11.1566 44.5893 7.0583
# 6 -13.5996 -6.5249 -1.8365 -1.1956 7.0583 37.6573
#
#
#
# Elastic Compliance Matrix: (Units=1/GPa)
#
#
# Indices 1 2 3 4 5 6 
#
# 1 0.030352 -0.003182 -0.007947 -0.004210 -0.005339 0.010890
# 2 -0.003182 0.009575 -0.002002 -0.003770 -0.000691 0.000422
# 3 -0.007947 -0.002002 0.013073 -0.000498 0.005079 -0.003547
# 4 -0.004210 -0.003770 -0.000498 0.029980 0.007102 -0.002577
# 5 -0.005339 -0.000691 0.005079 0.007102 0.026997 -0.006635
# 6 0.010890 0.000422 -0.003547 -0.002577 -0.006635 0.031550
#
#
# Mechanical properties :
#
#
# Convention : Reuss Voigt Hill
#
# Bulk Modulus (GPa) = 37.39950 54.00625 45.70288
# Shear Modulus (GPa) = 28.29627 37.24360 32.76993
#
# Velocity S-wave (km/s) = 3.59444 4.12375 3.86816
# Velocity P-wave (km/s) = 5.85689 6.87989 6.38890
#
# Compressibility (1/GPa) = 0.02673833
#
# Stress axis : x y z
#
# Youngs Moduli (GPa) = 32.94641 104.43898 76.49500
#
# Poissons Ratio (x) = 0.33233 0.60792
# Poissons Ratio (y) = 0.10484 0.15311
# Poissons Ratio (z) = 0.26183 0.20904
#
# Static dielectric constant tensor:
#      x y z
#    x 1.811460 0.021130 0.016080 
#    y 0.021130 2.014100 0.123020 
#    z 0.016080 0.123020 1.955510 
# 
# From -- ./inp_files/398587.got.cif
#   From: 2010.05.17/outbox.ucp.g08.bks.cvg/sg2_200_cif.got.tgz:398587.got - 2010.06.11 11:32:03.
