data_PCOD9074163
_publ_section_title
;
Structure prediction by ZEFSAII (Michael W. Deem and Ramdas Pophale) SiO2 
 PCOD9074163
Probable space group: P -1
;
_chemical_formula_sum "Si O2"
_cell_formula_units_Z 14
_cell_length_a 12.000000
_cell_length_b 24.000000
_cell_length_c 15.000000
_cell_angle_alpha 20.000000
_cell_angle_beta 140.000000
_cell_angle_gamma 150.000000
_cell_volume 709.376003
_symmetry_space_group_name_H-M "P -1"
_symmetry_group_IT_number 2
_symmetry_cell_setting 'triclinic'
loop_
_space_group_symop_operation_xyz
x,y,z
-x,-y,-z
loop_
_atom_site_type_symbol
_atom_site_label
_atom_site_fract_x
_atom_site_fract_y
_atom_site_fract_z
Si Si1 0.886785 0.305029 0.343995
Si Si2 0.494094 0.981824 0.718455
Si Si3 0.789748 0.283400 0.815002
Si Si4 0.003217 0.747129 0.706709
Si Si5 0.349048 0.566418 0.332687
Si Si6 0.680130 0.291729 0.530770
Si Si7 0.797597 0.906118 0.444471
O O1 0.643662 0.108431 0.533025
O O2 0.941604 0.251069 0.365663
O O3 0.083688 0.372303 0.433218
O O4 0.896546 0.507584 0.033967
O O5 0.619835 0.120221 0.676868
O O6 0.247032 0.914138 0.656970
O O7 0.443154 0.760615 0.030168
O O8 0.672156 0.344442 0.719264
O O9 0.692730 0.242153 0.716597
O O10 0.064044 0.489453 0.666194
O O11 0.784696 0.091067 0.133235
O O12 0.856073 0.815302 0.537450
O O13 0.500000 0.500000 0.500000
O O14 0.469981 0.290286 0.395083
O O15 0.000000 0.000000 0.500000
#
# Coordination Sequence:
#
# PCOD9074163 Si02
#       7
#     2   2   2   2   2   2   2
#     4  10  22  43  62  89 132 161 206 264 314 377
#     4  11  21  42  65  90 124 167 208 264 317 374
#     4  11  25  45  61  94 133 169 212 261 320 378
#     4  10  23  40  64  95 124 166 206 261 322 371
#     4  11  24  40  63  90 121 164 211 257 312 375
#     4  11  24  42  67  89 131 173 207 265 317 377
#     4  12  23  41  68  97 127 164 215 264 321 375
#
# _framework density 19.735655000000001
#
# number of rings (size 3 to 8) (size 9 to 14) (size 15 to 20)
#    0.000    1.143    4.286    1.714    2.000    2.286 
#    5.143    0.000    0.000    0.000    0.000    0.000 
#    0.000    0.000    0.000    0.000    0.000    0.000 
#
# Total GULP energy -78049.447968 kJ/mol
# GULP energy per Si atom -5574.960569 kJ/mol
# Density = 1.969074 g / cm^3
# Si number density = 19.735655 Si / 1000 Ang^3
#
#
#
# Elastic Constant Matrix: (Units=GPa)
#
#
# Indices 1 2 3 4 5 6 
#
# 1 136.5756 13.3106 41.9506 7.8125 16.0995 20.7561
# 2 13.3106 77.9015 5.4655 -0.4928 5.4261 9.8485
# 3 41.9506 5.4655 35.8708 1.6256 3.5956 26.8582
# 4 7.8125 -0.4928 1.6256 25.1933 8.2591 -1.8880
# 5 16.0995 5.4261 3.5956 8.2591 41.0136 -0.3249
# 6 20.7561 9.8485 26.8582 -1.8880 -0.3249 38.7292
#
#
#
# Elastic Compliance Matrix: (Units=1/GPa)
#
#
# Indices 1 2 3 4 5 6 
#
# 1 0.012889 -0.001529 -0.019878 -0.001289 -0.002798 0.007180
# 2 -0.001529 0.013619 0.003786 0.000663 -0.001709 -0.005252
# 3 -0.019878 0.003786 0.090728 -0.003497 -0.000371 -0.053402
# 4 -0.001289 0.000663 -0.003497 0.043314 -0.007958 0.004992
# 5 -0.002798 -0.001709 -0.000371 -0.007958 0.027358 0.002033
# 6 0.007180 -0.005252 -0.053402 0.004992 0.002033 0.060602
#
#
# Mechanical properties :
#
#
# Convention : Reuss Voigt Hill
#
# Bulk Modulus (GPa) = 12.19567 41.31127 26.75347
# Shear Modulus (GPa) = 16.07285 33.62863 24.85074
#
# Velocity S-wave (km/s) = 2.85688 4.13238 3.55234
# Velocity P-wave (km/s) = 4.13222 6.61411 5.51460
#
# Compressibility (1/GPa) = 0.08199628
#
# Stress axis : x y z
#
# Youngs Moduli (GPa) = 77.58568 73.42452 11.02192
#
# Poissons Ratio (x) = 0.11224 0.21909
# Poissons Ratio (y) = 0.11860 -0.04173
# Poissons Ratio (z) = 1.54221 -0.27798
#
# Static dielectric constant tensor:
#      x y z
#    x 1.717050 -0.001020 -0.037050 
#    y -0.001020 1.741650 -0.038850 
#    z -0.037050 -0.038850 1.711990 
# 
# From -- ./inp_files/415925.got.cif
#   From: 2010.05.17/outbox.ucp.g08.bks.cvg/sg2_208_cif.got.tgz:415925.got - 2010.06.11 11:32:03.
