data_PCOD9074420
_publ_section_title
;
Structure prediction by ZEFSAII (Michael W. Deem and Ramdas Pophale) SiO2 
 PCOD9074420
Probable space group: P -1
;
_chemical_formula_sum "Si O2"
_cell_formula_units_Z 16
_cell_length_a 9.000000
_cell_length_b 9.000000
_cell_length_c 24.000000
_cell_angle_alpha 130.000000
_cell_angle_beta 30.000000
_cell_angle_gamma 130.000000
_cell_volume 725.531033
_symmetry_space_group_name_H-M "P -1"
_symmetry_group_IT_number 2
_symmetry_cell_setting 'triclinic'
loop_
_space_group_symop_operation_xyz
x,y,z
-x,-y,-z
loop_
_atom_site_type_symbol
_atom_site_label
_atom_site_fract_x
_atom_site_fract_y
_atom_site_fract_z
Si Si1 0.398789 0.865012 0.945556
Si Si2 0.327362 0.446069 0.387446
Si Si3 0.691003 0.812941 0.145340
Si Si4 0.210705 0.447675 0.232755
Si Si5 0.332723 0.925266 0.679799
Si Si6 0.734093 0.885317 0.368153
Si Si7 0.754687 0.666251 0.487378
Si Si8 0.606923 0.952122 0.782311
O O1 0.560606 0.679937 0.848655
O O2 0.525178 0.992366 0.881357
O O3 0.036657 0.792398 0.035817
O O4 0.500000 0.000000 0.000000
O O5 0.578625 0.653018 0.355843
O O6 0.306776 0.344792 0.430039
O O7 0.387374 0.278767 0.285517
O O8 0.000000 0.500000 0.500000
O O9 0.442798 0.612969 0.161045
O O10 0.619638 0.902645 0.249200
O O11 0.640324 0.980566 0.159444
O O12 0.921943 0.271150 0.264574
O O13 0.056254 0.588060 0.356527
O O14 0.657288 0.867249 0.548329
O O15 0.206078 0.005159 0.684444
O O16 0.500000 0.000000 0.500000
O O17 0.047687 0.924285 0.310052
O O18 0.500000 0.500000 0.500000
#
# Coordination Sequence:
#
# PCOD9074420 Si02
#       8
#     2   2   2   2   2   2   2   2
#     4  12  25  54  74  95 143 185 241 300 348 410
#     4  12  25  43  68 105 149 186 227 287 346 424
#     4  12  27  44  76 101 136 187 238 289 351 412
#     4  11  24  44  74 102 139 183 234 281 349 416
#     4  11  24  45  68 107 144 184 227 286 349 423
#     4  12  25  42  70 103 149 192 228 280 360 422
#     4  10  23  42  69 104 150 179 221 288 347 422
#     4  12  27  47  69 109 140 181 239 296 350 419
#
# _framework density 22.052813
#
# number of rings (size 3 to 8) (size 9 to 14) (size 15 to 20)
#    0.000    0.500    5.000    3.000    8.750    0.500 
#    2.250    0.625    0.000    0.000    0.000    0.000 
#    0.000    0.000    0.000    0.000    0.000    0.000 
#
# Total GULP energy -89321.444171 kJ/mol
# GULP energy per Si atom -5582.590261 kJ/mol
# Density = 2.200262 g / cm^3
# Si number density = 22.052813 Si / 1000 Ang^3
#
#
#
# Elastic Constant Matrix: (Units=GPa)
#
#
# Indices 1 2 3 4 5 6 
#
# 1 94.5124 7.1000 44.7622 9.2609 -8.9458 -1.2033
# 2 7.1000 92.3245 25.9948 -13.4225 -27.4513 24.2229
# 3 44.7622 25.9948 111.6106 5.9577 -29.0527 1.3502
# 4 9.2609 -13.4225 5.9577 21.1552 -11.6963 -10.9439
# 5 -8.9458 -27.4513 -29.0527 -11.6963 38.9102 6.2374
# 6 -1.2033 24.2229 1.3502 -10.9439 6.2374 32.7384
#
#
#
# Elastic Compliance Matrix: (Units=1/GPa)
#
#
# Indices 1 2 3 4 5 6 
#
# 1 0.013996 -0.002761 -0.006103 -0.009080 -0.006168 0.000949
# 2 -0.002761 0.029090 0.001484 0.027411 0.032228 -0.018663
# 3 -0.006103 0.001484 0.013937 0.005003 0.011955 -0.002502
# 4 -0.009080 0.027411 0.005003 0.095394 0.049397 0.001656
# 5 -0.006168 0.032228 0.011955 0.049397 0.074355 -0.022219
# 6 0.000949 -0.018663 -0.002502 0.001656 -0.022219 0.049279
#
#
# Mechanical properties :
#
#
# Convention : Reuss Voigt Hill
#
# Bulk Modulus (GPa) = 23.66137 50.46238 37.06188
# Shear Modulus (GPa) = 16.39885 33.26679 24.83282
#
# Velocity S-wave (km/s) = 2.72989 3.88816 3.35932
# Velocity P-wave (km/s) = 4.54853 6.56424 5.64705
#
# Compressibility (1/GPa) = 0.04226298
#
# Stress axis : x y z
#
# Youngs Moduli (GPa) = 71.44773 34.37592 71.75285
#
# Poissons Ratio (x) = 0.09492 0.43788
# Poissons Ratio (y) = 0.19728 -0.10646
# Poissons Ratio (z) = 0.43602 -0.05100
#
# Static dielectric constant tensor:
#      x y z
#    x 1.870950 -0.022420 -0.023240 
#    y -0.022420 1.811490 -0.048690 
#    z -0.023240 -0.048690 1.843820 
# 
# From -- ./inp_files/225879.got.cif
#   From: 2010.05.17/outbox.ucp.g08.bks.cvg/sg2_113_cif.got.tgz:225879.got - 2010.06.11 11:32:03.
