data_PCOD9074667
_publ_section_title
;
Structure prediction by ZEFSAII (Michael W. Deem and Ramdas Pophale) SiO2 
 PCOD9074667
Probable space group: P -1
;
_chemical_formula_sum "Si O2"
_cell_formula_units_Z 16
_cell_length_a 9.000000
_cell_length_b 9.000000
_cell_length_c 12.000000
_cell_angle_alpha 100.000000
_cell_angle_beta 90.000000
_cell_angle_gamma 50.000000
_cell_volume 725.212580
_symmetry_space_group_name_H-M "P -1"
_symmetry_group_IT_number 2
_symmetry_cell_setting 'triclinic'
loop_
_space_group_symop_operation_xyz
x,y,z
-x,-y,-z
loop_
_atom_site_type_symbol
_atom_site_label
_atom_site_fract_x
_atom_site_fract_y
_atom_site_fract_z
Si Si1 0.196303 0.689367 0.024323
Si Si2 0.688772 0.371857 0.742529
Si Si3 0.826292 0.649341 0.431564
Si Si4 0.340763 0.379396 0.787576
Si Si5 0.902768 0.948539 0.404972
Si Si6 0.760026 0.993564 0.003829
Si Si7 0.545625 0.955351 0.832422
Si Si8 0.535183 0.724629 0.617850
O O1 0.307505 0.569818 0.122252
O O2 0.242545 0.834425 0.018614
O O3 0.254624 0.552789 0.899674
O O4 0.960638 0.834472 0.049392
O O5 0.536727 0.332923 0.734110
O O6 0.625505 0.527399 0.663894
O O7 0.917668 0.183639 0.698478
O O8 0.811034 0.576088 0.301825
O O9 0.844347 0.818407 0.432123
O O10 0.635894 0.703106 0.499134
O O11 0.000000 0.500000 0.500000
O O12 0.411171 0.185974 0.829768
O O13 0.697547 0.145439 0.381285
O O14 0.000000 0.000000 0.500000
O O15 0.733518 0.896646 0.887972
O O16 0.576351 0.075370 0.092102
O O17 0.583527 0.839130 0.706364
#
# Coordination Sequence:
#
# PCOD9074667 Si02
#       8
#     2   2   2   2   2   2   2   2
#     4  11  25  46  72 107 147 190 238 300 361 433
#     4  12  27  48  73 113 149 193 243 297 366 436
#     4  12  28  51  73 110 145 190 249 300 368 432
#     4  12  27  46  73 104 150 190 245 302 356 435
#     4  12  28  49  77 108 145 193 246 305 364 430
#     4  10  24  44  69 105 146 189 240 288 365 437
#     4  11  24  44  70 104 142 191 238 295 362 426
#     4  12  27  49  77 104 151 192 241 304 364 433
#
# _framework density 22.062495999999999
#
# number of rings (size 3 to 8) (size 9 to 14) (size 15 to 20)
#    0.000    0.500    3.750    3.000    8.750    2.500 
#    0.000    0.000    0.000    0.000    0.000    0.000 
#    0.000    0.000    0.000    0.000    0.000    0.000 
#
# Total GULP energy -89480.167868 kJ/mol
# GULP energy per Si atom -5592.510492 kJ/mol
# Density = 2.201228 g / cm^3
# Si number density = 22.062496 Si / 1000 Ang^3
#
#
#
# Elastic Constant Matrix: (Units=GPa)
#
#
# Indices 1 2 3 4 5 6 
#
# 1 122.5584 36.1186 52.2567 -0.1358 18.1322 3.1424
# 2 36.1186 38.3230 18.3948 -3.0104 0.8331 -13.3950
# 3 52.2567 18.3948 114.7101 -5.7539 29.3533 -4.0501
# 4 -0.1358 -3.0104 -5.7539 23.6994 -6.2298 2.1848
# 5 18.1322 0.8331 29.3533 -6.2298 44.8259 -6.7593
# 6 3.1424 -13.3950 -4.0501 2.1848 -6.7593 36.5686
#
#
#
# Elastic Compliance Matrix: (Units=1/GPa)
#
#
# Indices 1 2 3 4 5 6 
#
# 1 0.015312 -0.015763 -0.003556 -0.003407 -0.005291 -0.008258
# 2 -0.015763 0.049820 -0.002613 0.006625 0.011248 0.020997
# 3 -0.003556 -0.002613 0.012484 0.000986 -0.006635 -0.000554
# 4 -0.003407 0.006625 0.000986 0.044984 0.007080 0.001450
# 5 -0.005291 0.011248 -0.006635 0.007080 0.030946 0.009137
# 6 -0.008258 0.020997 -0.000554 0.001450 0.009137 0.037288
#
#
# Mechanical properties :
#
#
# Convention : Reuss Voigt Hill
#
# Bulk Modulus (GPa) = 29.62833 54.34798 41.98816
# Shear Modulus (GPa) = 20.32950 32.27354 26.30152
#
# Velocity S-wave (km/s) = 3.03883 3.82884 3.45648
# Velocity P-wave (km/s) = 5.07653 6.65085 5.91629
#
# Compressibility (1/GPa) = 0.03375148
#
# Stress axis : x y z
#
# Youngs Moduli (GPa) = 65.30852 20.07243 80.10090
#
# Poissons Ratio (x) = 0.31641 0.28486
# Poissons Ratio (y) = 1.02948 0.20927
# Poissons Ratio (z) = 0.23225 0.05244
#
# Static dielectric constant tensor:
#      x y z
#    x 1.761890 -0.013820 -0.009920 
#    y -0.013820 1.823280 0.033140 
#    z -0.009920 0.033140 1.873750 
# 
# From -- ./inp_files/382642.got.cif
#   From: 2010.05.17/outbox.ucp.g08.bks.cvg/sg2_192_cif.got.tgz:382642.got - 2010.06.11 11:32:03.
