data_PCOD9074174
_publ_section_title
;
Structure prediction by ZEFSAII (Michael W. Deem and Ramdas Pophale) SiO2 
 PCOD9074174
Probable space group: P -1
;
_chemical_formula_sum "Si O2"
_cell_formula_units_Z 16
_cell_length_a 12.000000
_cell_length_b 12.000000
_cell_length_c 12.000000
_cell_angle_alpha 80.000000
_cell_angle_beta 60.000000
_cell_angle_gamma 130.000000
_cell_volume 763.164900
_symmetry_space_group_name_H-M "P -1"
_symmetry_group_IT_number 2
_symmetry_cell_setting 'triclinic'
loop_
_space_group_symop_operation_xyz
x,y,z
-x,-y,-z
loop_
_atom_site_type_symbol
_atom_site_label
_atom_site_fract_x
_atom_site_fract_y
_atom_site_fract_z
Si Si1 0.378845 0.177199 0.985440
Si Si2 0.538858 0.590708 0.295640
Si Si3 0.701886 0.133455 0.970031
Si Si4 0.302350 0.110500 0.646655
Si Si5 0.835813 0.426252 0.281656
Si Si6 0.256289 0.594805 0.044818
Si Si7 0.937274 0.916177 0.416654
Si Si8 0.142804 0.369459 0.944918
O O1 0.316816 0.014706 0.976296
O O2 0.387050 0.281831 0.872740
O O3 0.632555 0.352484 0.899724
O O4 0.178708 0.056284 0.202377
O O5 0.604162 0.716942 0.348323
O O6 0.262336 0.335894 0.454420
O O7 0.706699 0.604372 0.211502
O O8 0.986181 0.376245 0.751213
O O9 0.500000 0.000000 0.000000
O O10 0.351368 0.795853 0.936567
O O11 0.547620 0.221423 0.481159
O O12 0.183270 0.072975 0.599642
O O13 0.096132 0.878190 0.850008
O O14 0.958648 0.394781 0.224154
O O15 0.901604 0.550637 0.117952
O O16 0.304652 0.534858 0.940682
O O17 0.000000 0.000000 0.500000
#
# Coordination Sequence:
#
# PCOD9074174 Si02
#       8
#     2   2   2   2   2   2   2   2
#     4  11  22  44  71  99 140 173 233 279 344 408
#     4  12  26  42  71 106 134 181 226 284 344 410
#     4   8  18  39  67  90 127 178 219 269 333 390
#     4  12  26  42  69 103 140 179 228 281 341 411
#     4  10  22  43  65  94 135 175 233 271 330 401
#     4   9  23  41  70  95 134 188 222 285 331 406
#     4  12  27  43  67 104 141 180 221 284 352 403
#     4  12  23  41  69  98 138 180 230 275 347 401
#
# _framework density 20.965325
#
# number of rings (size 3 to 8) (size 9 to 14) (size 15 to 20)
#    0.750    0.500    2.500    3.375    3.500    1.500 
#    0.000    1.875    0.000    0.000    0.000    0.000 
#    0.000    0.000    0.000    0.000    0.000    0.000 
#
# Total GULP energy -89159.254036 kJ/mol
# GULP energy per Si atom -5572.453377 kJ/mol
# Density = 2.091761 g / cm^3
# Si number density = 20.965325 Si / 1000 Ang^3
#
#
#
# Elastic Constant Matrix: (Units=GPa)
#
#
# Indices 1 2 3 4 5 6 
#
# 1 73.3854 6.0927 21.7076 3.2799 -8.4873 18.2159
# 2 6.0927 109.0589 24.5741 2.6690 2.8240 11.9450
# 3 21.7076 24.5741 87.3143 -9.7143 3.3570 9.6358
# 4 3.2799 2.6690 -9.7143 26.5944 3.2509 -0.5720
# 5 -8.4873 2.8240 3.3570 3.2509 25.4855 0.3859
# 6 18.2159 11.9450 9.6358 -0.5720 0.3859 35.1211
#
#
#
# Elastic Compliance Matrix: (Units=1/GPa)
#
#
# Indices 1 2 3 4 5 6 
#
# 1 0.018146 0.000917 -0.004671 -0.005119 0.007340 -0.008606
# 2 0.000917 0.010199 -0.003001 -0.002290 -0.000090 -0.003157
# 3 -0.004671 -0.003001 0.014385 0.006608 -0.003956 -0.000352
# 4 -0.005119 -0.002290 0.006608 0.041869 -0.007698 0.002387
# 5 0.007340 -0.000090 -0.003956 -0.007698 0.043245 -0.003292
# 6 -0.008606 -0.003157 -0.000352 0.002387 -0.003292 0.034182
#
#
# Mechanical properties :
#
#
# Convention : Reuss Voigt Hill
#
# Bulk Modulus (GPa) = 34.22546 41.61193 37.91870
# Shear Modulus (GPa) = 26.98665 31.93249 29.45957
#
# Velocity S-wave (km/s) = 3.59166 3.90694 3.75261
# Velocity P-wave (km/s) = 5.79312 6.34376 6.07468
#
# Compressibility (1/GPa) = 0.02921802
#
# Stress axis : x y z
#
# Youngs Moduli (GPa) = 55.10777 98.05344 69.51700
#
# Poissons Ratio (x) = -0.08988 0.32474
# Poissons Ratio (y) = -0.05051 0.20863
# Poissons Ratio (z) = 0.25743 0.29427
#
# Static dielectric constant tensor:
#      x y z
#    x 1.811090 0.013520 -0.048430 
#    y 0.013520 1.793590 0.003900 
#    z -0.048430 0.003900 1.789090 
# 
# From -- ./inp_files/428123.got.cif
#   From: 2010.05.17/outbox.ucp.g08.bks.cvg/sg2_215_cif.got.tgz:428123.got - 2010.06.11 11:32:03.
