data_PCOD9074271
_publ_section_title
;
Structure prediction by ZEFSAII (Michael W. Deem and Ramdas Pophale) SiO2 
 PCOD9074271
Probable space group: P -1
;
_chemical_formula_sum "Si O2"
_cell_formula_units_Z 16
_cell_length_a 23.456941
_cell_length_b 26.287370
_cell_length_c 10.906098
_cell_angle_alpha 44.277287
_cell_angle_beta 42.379610
_cell_angle_gamma 9.961754
_cell_volume 780.262293
_symmetry_space_group_name_H-M "P -1"
_symmetry_group_IT_number 2
_symmetry_cell_setting 'triclinic'
loop_
_space_group_symop_operation_xyz
x,y,z
-x,-y,-z
loop_
_atom_site_type_symbol
_atom_site_label
_atom_site_fract_x
_atom_site_fract_y
_atom_site_fract_z
Si Si1 0.750607 0.395547 0.508725
Si Si2 0.558388 0.847688 0.979380
Si Si3 0.111493 0.175547 0.524469
Si Si4 0.572979 0.054507 0.342258
Si Si5 0.187352 0.413883 0.711510
Si Si6 0.290580 0.914927 0.263141
Si Si7 0.120209 0.301886 0.740920
Si Si8 0.769032 0.261230 0.376029
O O1 0.464977 0.569941 0.656289
O O2 0.886786 0.305702 0.580174
O O3 0.061551 0.114593 0.407542
O O4 0.564647 0.622158 0.355747
O O5 0.658267 0.753038 0.125009
O O6 0.465323 0.845900 0.084246
O O7 0.878877 0.620429 0.798515
O O8 0.238455 0.167879 0.912023
O O9 0.968889 0.375908 0.375349
O O10 0.154583 0.136251 0.670010
O O11 0.498032 0.842179 0.437520
O O12 0.350992 0.180397 0.555964
O O13 0.277689 0.351590 0.244038
O O14 0.762841 0.852972 0.281487
O O15 0.033464 0.107249 0.229424
O O16 0.500000 0.500000 0.500000
O O17 0.000000 0.000000 0.500000
#
# Coordination Sequence:
#
# PCOD9074271 Si02
#       8
#     2   2   2   2   2   2   2   2
#     4  10  18  32  50  74 101 133 161 204 254 299
#     4  11  22  37  50  77 107 141 166 204 255 312
#     4  12  20  38  51  76 103 137 170 212 250 299
#     4  10  22  37  52  69  93 135 183 217 239 280
#     4  11  25  32  51  77 110 135 166 197 262 312
#     4  10  19  32  48  75 103 132 164 199 250 311
#     4  10  22  36  53  68  95 137 177 214 245 283
#     4   8  16  29  48  69  99 129 162 198 243 302
#
# _framework density 20.505924
#
# number of rings (size 3 to 8) (size 9 to 14) (size 15 to 20)
#    0.000    1.750    3.750    0.750    3.500    5.000 
#    0.000    0.000    0.000    0.000    0.000    1.750 
#    0.000    0.000    0.000    0.000    0.000    0.000 
#
# Total GULP energy -89341.440421 kJ/mol
# GULP energy per Si atom -5583.840026 kJ/mol
# Density = 2.045925 g / cm^3
# Si number density = 20.505924 Si / 1000 Ang^3
#
#
#
# Elastic Constant Matrix: (Units=GPa)
#
#
# Indices 1 2 3 4 5 6 
#
# 1 136.4315 46.4365 11.8223 4.6539 -15.6508 -38.6729
# 2 46.4365 92.4241 12.1759 -15.7847 -1.3392 -5.3309
# 3 11.8223 12.1759 19.3185 -12.6277 -1.9815 -11.9468
# 4 4.6539 -15.7847 -12.6277 29.3987 -7.5859 -2.6367
# 5 -15.6508 -1.3392 -1.9815 -7.5859 23.9366 1.8641
# 6 -38.6729 -5.3309 -11.9468 -2.6367 1.8641 49.8923
#
#
#
# Elastic Compliance Matrix: (Units=1/GPa)
#
#
# Indices 1 2 3 4 5 6 
#
# 1 0.012855 -0.006387 0.000697 -0.002660 0.006557 0.009063
# 2 -0.006387 0.015498 -0.003565 0.007200 -0.001032 -0.003730
# 3 0.000697 -0.003565 0.107910 0.052972 0.023803 0.027909
# 4 -0.002660 0.007200 0.052972 0.068420 0.023632 0.014124
# 5 0.006557 -0.001032 0.023803 0.023632 0.054697 0.009877
# 6 0.009063 -0.003730 0.027909 0.014124 0.009877 0.033730
#
#
# Mechanical properties :
#
#
# Convention : Reuss Voigt Hill
#
# Bulk Modulus (GPa) = 8.49233 43.22705 25.85969
# Shear Modulus (GPa) = 14.25026 32.49483 23.37254
#
# Velocity S-wave (km/s) = 2.63902 3.98509 3.37975
# Velocity P-wave (km/s) = 3.66555 6.50389 5.27906
#
# Compressibility (1/GPa) = 0.11775336
#
# Stress axis : x y z
#
# Youngs Moduli (GPa) = 77.78882 64.52398 9.26702
#
# Poissons Ratio (x) = 0.41213 -0.00646
# Poissons Ratio (y) = 0.49686 0.03304
# Poissons Ratio (z) = -0.05424 0.23002
#
# Static dielectric constant tensor:
#      x y z
#    x 1.786680 -0.027470 -0.001350 
#    y -0.027470 1.748580 0.005660 
#    z -0.001350 0.005660 1.714420 
# 
# From -- ./inp_files/368955.got.cif
#   From: 2010.05.17/outbox.cif.g08.bks.cpg/sg2_185_cif.got.tgz:368955.got - 2010.06.03 11:33:40.
