data_PCOD9074202
_publ_section_title
;
Structure prediction by ZEFSAII (Michael W. Deem and Ramdas Pophale) SiO2 
 PCOD9074202
Probable space group: P -1
;
_chemical_formula_sum "Si O2"
_cell_formula_units_Z 15
_cell_length_a 12.151414
_cell_length_b 11.736726
_cell_length_c 6.945306
_cell_angle_alpha 76.837917
_cell_angle_beta 119.734938
_cell_angle_gamma 65.536432
_cell_volume 654.881601
_symmetry_space_group_name_H-M "P -1"
_symmetry_group_IT_number 2
_symmetry_cell_setting 'triclinic'
loop_
_space_group_symop_operation_xyz
x,y,z
-x,-y,-z
loop_
_atom_site_type_symbol
_atom_site_label
_atom_site_fract_x
_atom_site_fract_y
_atom_site_fract_z
Si Si1 0.584532 0.349249 0.390457
Si Si2 0.000000 0.500000 0.000000
Si Si3 0.158290 0.811689 0.845191
Si Si4 0.047625 0.886189 0.298505
Si Si5 0.995355 0.662203 0.332928
Si Si6 0.496619 0.336429 0.755514
Si Si7 0.197946 0.342512 0.513055
Si Si8 0.241030 0.509436 0.961840
O O1 0.764388 0.208088 0.549470
O O2 0.541284 0.330771 0.572779
O O3 0.578715 0.494140 0.317141
O O4 0.430861 0.389926 0.122492
O O5 0.117691 0.320123 0.277120
O O6 0.829275 0.547097 0.939420
O O7 0.047889 0.864094 0.540057
O O8 0.219406 0.645580 0.001784
O O9 0.325663 0.782862 0.952728
O O10 0.062340 0.935397 0.880286
O O11 0.980433 0.801766 0.193416
O O12 0.062660 0.530190 0.284673
O O13 0.138257 0.572986 0.651603
O O14 0.845613 0.694683 0.309726
O O15 0.370821 0.302666 0.678039
#
# Coordination Sequence:
#
# PCOD9074202 Si02
#       8
#     2   1   2   2   2   2   2   2
#     4  10  19  30  53  76 106 126 171 205 261 290
#     4  10  18  32  52  72 106 130 164 208 256 296
#     4   9  21  33  52  76 106 132 171 203 259 288
#     4  10  19  36  51  76 103 140 165 209 244 309
#     4   9  19  30  52  75 102 131 173 200 254 293
#     4  10  19  32  49  79 102 132 165 218 245 300
#     4  10  18  32  49  78 102 130 166 214 246 301
#     4   9  18  32  51  81  98 134 160 213 250 299
#
# _framework density 22.904903999999998
#
# number of rings (size 3 to 8) (size 9 to 14) (size 15 to 20)
#    0.000    2.400    2.667    0.000    1.867    2.133 
#    0.000    0.667    0.000    0.800    0.000    0.000 
#    0.000    0.000    0.000    0.000    0.000    0.000 
#
# Total GULP energy -83560.519961 kJ/mol
# GULP energy per Si atom -5570.701331 kJ/mol
# Density = 2.285277 g / cm^3
# Si number density = 22.904904 Si / 1000 Ang^3
#
#
#
# Elastic Constant Matrix: (Units=GPa)
#
#
# Indices 1 2 3 4 5 6 
#
# 1 158.6480 35.0932 18.8169 -3.8582 24.9509 -3.7309
# 2 35.0932 78.2194 27.2675 -9.8714 20.7455 -7.1914
# 3 18.8169 27.2675 59.5761 6.9153 13.4566 -0.0237
# 4 -3.8582 -9.8714 6.9153 34.0172 -7.0196 6.6248
# 5 24.9509 20.7455 13.4566 -7.0196 46.5322 4.1079
# 6 -3.7309 -7.1914 -0.0237 6.6248 4.1079 27.3325
#
#
#
# Elastic Compliance Matrix: (Units=1/GPa)
#
#
# Indices 1 2 3 4 5 6 
#
# 1 0.007347 -0.002310 -0.000545 -0.000514 -0.002914 0.000957
# 2 -0.002310 0.018563 -0.007304 0.004880 -0.004547 0.004063
# 3 -0.000545 -0.007304 0.022092 -0.007595 -0.004027 0.000469
# 4 -0.000514 0.004880 -0.007595 0.035220 0.006341 -0.008282
# 5 -0.002914 -0.004547 -0.004027 0.006341 0.027848 -0.007320
# 6 0.000957 0.004063 0.000469 -0.008282 -0.007320 0.040894
#
#
# Mechanical properties :
#
#
# Convention : Reuss Voigt Hill
#
# Bulk Modulus (GPa) = 36.12300 50.97760 43.55030
# Shear Modulus (GPa) = 27.54669 35.92743 31.73706
#
# Velocity S-wave (km/s) = 3.47169 3.96479 3.72640
# Velocity P-wave (km/s) = 5.64582 6.57753 6.12940
#
# Compressibility (1/GPa) = 0.02768319
#
# Stress axis : x y z
#
# Youngs Moduli (GPa) = 136.10500 53.87138 45.26582
#
# Poissons Ratio (x) = 0.12446 0.02466
# Poissons Ratio (y) = 0.31446 0.33062
# Poissons Ratio (z) = 0.07416 0.39348
#
# Static dielectric constant tensor:
#      x y z
#    x 1.878520 -0.053200 -0.046070 
#    y -0.053200 2.047070 0.110140 
#    z -0.046070 0.110140 2.023780 
# 
# From -- ./inp_files/167551.got.cif
#   From: 2010.05.17/outbox.cif.g08.bks.cpg/sg2_84_cif.got.tgz:167551.got - 2010.06.03 11:33:40.
