data_PCOD9074763
_publ_section_title
;
Structure prediction by ZEFSAII (Michael W. Deem and Ramdas Pophale) SiO2 
 PCOD9074763
Probable space group: P -1
;
_chemical_formula_sum "Si O2"
_cell_formula_units_Z 16
_cell_length_a 9.000000
_cell_length_b 12.000000
_cell_length_c 15.000000
_cell_angle_alpha 130.000000
_cell_angle_beta 70.000000
_cell_angle_gamma 70.000000
_cell_volume 728.972637
_symmetry_space_group_name_H-M "P -1"
_symmetry_group_IT_number 2
_symmetry_cell_setting 'triclinic'
loop_
_space_group_symop_operation_xyz
x,y,z
-x,-y,-z
loop_
_atom_site_type_symbol
_atom_site_label
_atom_site_fract_x
_atom_site_fract_y
_atom_site_fract_z
Si Si1 0.187327 0.163122 0.582574
Si Si2 0.056425 0.360319 0.054068
Si Si3 0.510172 0.211309 0.120853
Si Si4 0.676728 0.285080 0.424487
Si Si5 0.906897 0.150701 0.009735
Si Si6 0.325264 0.018675 0.665070
Si Si7 0.587279 0.948958 0.814850
Si Si8 0.055634 0.701582 0.474404
O O1 0.457169 0.018827 0.413953
O O2 0.083612 0.391580 0.762499
O O3 0.044938 0.179924 0.541320
O O4 0.217407 0.048745 0.606941
O O5 0.929906 0.306519 0.095713
O O6 0.111290 0.254633 0.889361
O O7 0.339350 0.185732 0.940523
O O8 0.497314 0.152872 0.192018
O O9 0.219982 0.443713 0.279384
O O10 0.632670 0.280008 0.118175
O O11 0.636975 0.004521 0.923345
O O12 0.500000 0.500000 0.500000
O O13 0.555270 0.216185 0.441019
O O14 0.788283 0.304724 0.492985
O O15 0.922321 0.041334 0.200635
O O16 0.000000 0.000000 0.000000
O O17 0.825229 0.800754 0.628637
#
# Coordination Sequence:
#
# PCOD9074763 Si02
#       8
#     2   2   2   2   2   2   2   2
#     4  11  24  43  70  94 127 182 221 267 326 380
#     4  11  22  41  68  92 130 170 220 274 317 387
#     4  11  23  38  58  92 135 177 211 262 327 391
#     4  11  26  42  67  99 135 172 211 274 333 389
#     4  11  22  39  61  94 135 169 214 262 327 393
#     4  10  25  45  65  96 134 172 226 268 316 394
#     4  11  22  39  59  93 135 171 216 266 324 387
#     4  12  24  40  66  96 134 168 219 270 325 392
#
# _framework density 21.948698
#
# number of rings (size 3 to 8) (size 9 to 14) (size 15 to 20)
#    0.000    1.000    5.000    1.500    5.250    1.500 
#    0.000    0.000    0.000    2.250    0.000    0.000 
#    0.000    0.000    0.000    0.000    0.000    0.000 
#
# Total GULP energy -89072.414047 kJ/mol
# GULP energy per Si atom -5567.025878 kJ/mol
# Density = 2.189874 g / cm^3
# Si number density = 21.948698 Si / 1000 Ang^3
#
#
#
# Elastic Constant Matrix: (Units=GPa)
#
#
# Indices 1 2 3 4 5 6 
#
# 1 77.0525 17.2035 16.7350 -3.0218 13.0290 -7.6510
# 2 17.2035 67.4261 9.2071 -7.6144 11.9513 -13.2690
# 3 16.7350 9.2071 88.3494 -9.6484 -6.0079 4.2950
# 4 -3.0218 -7.6144 -9.6484 21.5699 -6.5630 8.1220
# 5 13.0290 11.9513 -6.0079 -6.5630 22.2683 -7.7585
# 6 -7.6510 -13.2690 4.2950 8.1220 -7.7585 38.3716
#
#
#
# Elastic Compliance Matrix: (Units=1/GPa)
#
#
# Indices 1 2 3 4 5 6 
#
# 1 0.015978 -0.001846 -0.004030 -0.003933 -0.009972 0.001815
# 2 -0.001846 0.017851 -0.002064 0.001317 -0.007168 0.004308
# 3 -0.004030 -0.002064 0.014011 0.008833 0.008738 -0.003188
# 4 -0.003933 0.001317 0.008833 0.059563 0.017945 -0.010297
# 5 -0.009972 -0.007168 0.008738 0.017945 0.063487 0.003593
# 6 0.001815 0.004308 -0.003188 -0.010297 0.003593 0.031175
#
#
# Mechanical properties :
#
#
# Convention : Reuss Voigt Hill
#
# Bulk Modulus (GPa) = 31.28872 35.45767 33.37320
# Shear Modulus (GPa) = 21.87252 29.08746 25.47999
#
# Velocity S-wave (km/s) = 3.16021 3.64434 3.41088
# Velocity P-wave (km/s) = 5.25378 5.82222 5.54529
#
# Compressibility (1/GPa) = 0.03196040
#
# Stress axis : x y z
#
# Youngs Moduli (GPa) = 62.58720 56.01986 71.37252
#
# Poissons Ratio (x) = 0.10340 0.28763
# Poissons Ratio (y) = 0.11553 0.14729
# Poissons Ratio (z) = 0.25223 0.11561
#
# Static dielectric constant tensor:
#      x y z
#    x -38.268130 -16.262740 20.786600 
#    y -16.262740 -4.554410 8.363810 
#    z 20.786600 8.363810 -8.956640 
# 
# From -- ./inp_files/272491.got.cif
#   From: 2010.05.17/outbox.ucp.g08.bks.cvg/sg2_137_cif.got.tgz:272491.got - 2010.06.11 11:32:03.
