data_PCOD9074273
_publ_section_title
;
Structure prediction by ZEFSAII (Michael W. Deem and Ramdas Pophale) SiO2 
 PCOD9074273
Probable space group: P -1
;
_chemical_formula_sum "Si O2"
_cell_formula_units_Z 16
_cell_length_a 9.000000
_cell_length_b 6.000000
_cell_length_c 18.000000
_cell_angle_alpha 50.000000
_cell_angle_beta 90.000000
_cell_angle_gamma 100.000000
_cell_volume 725.212580
_symmetry_space_group_name_H-M "P -1"
_symmetry_group_IT_number 2
_symmetry_cell_setting 'triclinic'
loop_
_space_group_symop_operation_xyz
x,y,z
-x,-y,-z
loop_
_atom_site_type_symbol
_atom_site_label
_atom_site_fract_x
_atom_site_fract_y
_atom_site_fract_z
Si Si1 0.531151 0.224692 0.609016
Si Si2 0.526675 0.180362 0.056178
Si Si3 0.761772 0.491451 0.680364
Si Si4 0.822603 0.126803 0.548644
Si Si5 0.718732 0.326795 0.872237
Si Si6 0.274513 0.893812 0.787414
Si Si7 0.968521 0.720969 0.337543
Si Si8 0.977985 0.640765 0.054670
O O1 0.500000 0.500000 0.500000
O O2 0.625066 0.342620 0.658616
O O3 0.651373 0.103703 0.584144
O O4 0.384269 0.990316 0.694416
O O5 0.625696 0.059525 0.145675
O O6 0.353310 0.984473 0.101606
O O7 0.500000 0.500000 0.000000
O O8 0.615174 0.244810 0.963547
O O9 0.712072 0.533983 0.756324
O O10 0.900549 0.322410 0.711161
O O11 0.827108 0.817606 0.576288
O O12 0.867123 0.403886 0.433432
O O13 0.937898 0.163038 0.611525
O O14 0.885769 0.431989 0.881457
O O15 0.181761 0.549126 0.871742
O O16 0.143496 0.083171 0.737587
O O17 0.000000 0.500000 0.000000
O O18 0.000000 0.000000 0.000000
#
# Coordination Sequence:
#
# PCOD9074273 Si02
#       8
#     2   2   2   2   2   2   2   2
#     4  11  24  47  71 107 154 197 261 325 387 476
#     4  11  25  45  73 103 148 199 257 323 400 475
#     4  11  24  42  72 106 147 206 254 315 401 468
#     4  10  22  45  69 104 149 202 253 316 391 469
#     4  11  25  44  69 105 145 198 256 317 394 474
#     4  12  24  49  75 112 151 204 262 330 402 469
#     4  10  23  43  72 104 152 197 256 316 392 478
#     4  12  28  51  77 113 157 205 266 334 400 471
#
# _framework density 22.062495999999999
#
# number of rings (size 3 to 8) (size 9 to 14) (size 15 to 20)
#    0.000    1.000    3.750    1.875    3.500    0.500 
#    4.500    0.000    0.000    0.000    0.000    0.000 
#    0.000    0.000    0.000    0.000    0.000    0.000 
#
# Total GULP energy -89091.710621 kJ/mol
# GULP energy per Si atom -5568.231914 kJ/mol
# Density = 2.201228 g / cm^3
# Si number density = 22.062496 Si / 1000 Ang^3
#
#
#
# Elastic Constant Matrix: (Units=GPa)
#
#
# Indices 1 2 3 4 5 6 
#
# 1 103.8532 31.8250 39.8528 -0.1824 -8.8742 2.9702
# 2 31.8250 50.8476 31.5269 -17.2271 5.4122 16.3442
# 3 39.8528 31.5269 138.0230 1.9034 -12.5604 -4.7315
# 4 -0.1824 -17.2271 1.9034 41.8202 7.8462 -3.7561
# 5 -8.8742 5.4122 -12.5604 7.8462 54.5367 -13.0452
# 6 2.9702 16.3442 -4.7315 -3.7561 -13.0452 23.1503
#
#
#
# Elastic Compliance Matrix: (Units=1/GPa)
#
#
# Indices 1 2 3 4 5 6 
#
# 1 0.015644 -0.020771 0.001910 -0.008977 0.010530 0.017525
# 2 -0.020771 0.091820 -0.022400 0.039308 -0.043625 -0.084944
# 3 0.001910 -0.022400 0.013955 -0.010123 0.012965 0.024085
# 4 -0.008977 0.039308 -0.010123 0.041552 -0.021863 -0.034247
# 5 0.010530 -0.043625 0.012965 -0.021863 0.043157 0.052870
# 6 0.017525 -0.084944 0.024085 -0.034247 0.052870 0.130076
#
#
# Mechanical properties :
#
#
# Convention : Reuss Voigt Hill
#
# Bulk Modulus (GPa) = 25.70823 55.45927 40.58375
# Shear Modulus (GPa) = 11.58234 36.53605 24.05919
#
# Velocity S-wave (km/s) = 2.29373 4.07384 3.30586
# Velocity P-wave (km/s) = 4.32350 6.87897 5.74512
#
# Compressibility (1/GPa) = 0.03889805
#
# Stress axis : x y z
#
# Youngs Moduli (GPa) = 63.92261 10.89083 71.65770
#
# Poissons Ratio (x) = 0.22622 -0.13689
# Poissons Ratio (y) = 1.32775 1.60512
# Poissons Ratio (z) = -0.12211 0.24395
#
# Static dielectric constant tensor:
#      x y z
#    x 1.834330 0.003510 -0.048680 
#    y 0.003510 1.882360 -0.006170 
#    z -0.048680 -0.006170 2.005270 
# 
# From -- ./inp_files/553172.got.cif
#   From: 2010.05.17/outbox.ucp.g08.bks.cvg/sg2_277_cif.got.tgz:553172.got - 2010.06.11 11:32:03.
