data_PCOD9075679
_publ_section_title
;
Structure prediction by ZEFSAII (Michael W. Deem and Ramdas Pophale) SiO2 
 PCOD9075679
Probable space group: P -1
;
_chemical_formula_sum "Si O2"
_cell_formula_units_Z 16
_cell_length_a 14.994969
_cell_length_b 23.658037
_cell_length_c 7.075038
_cell_angle_alpha 145.656772
_cell_angle_beta 142.883204
_cell_angle_gamma 33.025631
_cell_volume 725.189494
_symmetry_space_group_name_H-M "P -1"
_symmetry_group_IT_number 2
_symmetry_cell_setting 'triclinic'
loop_
_space_group_symop_operation_xyz
x,y,z
-x,-y,-z
loop_
_atom_site_type_symbol
_atom_site_label
_atom_site_fract_x
_atom_site_fract_y
_atom_site_fract_z
Si Si1 0.254242 0.127152 0.185308
Si Si2 0.181098 0.775481 0.631657
Si Si3 0.464417 0.829203 0.321982
Si Si4 0.602870 0.463306 0.768312
Si Si5 0.810557 0.901806 0.449109
Si Si6 0.922020 0.139336 0.726609
Si Si7 0.534562 0.857571 0.957469
Si Si8 0.541324 0.329594 0.632672
O O1 0.358481 0.194624 0.544487
O O2 0.215036 0.116927 0.868574
O O3 0.070950 0.169223 0.088202
O O4 0.387679 0.994189 0.119340
O O5 0.209671 0.647443 0.282033
O O6 0.130558 0.841806 0.530318
O O7 0.012686 0.851541 0.687400
O O8 0.365148 0.759114 0.951947
O O9 0.501266 0.838590 0.630332
O O10 0.313552 0.958532 0.351516
O O11 0.500000 0.500000 0.500000
O O12 0.540775 0.404234 0.658333
O O13 0.577048 0.576553 0.147648
O O14 0.720820 0.843470 0.248166
O O15 0.740644 0.239395 0.790520
O O16 0.000000 0.000000 0.500000
O O17 0.517195 0.760574 0.770182
#
# Coordination Sequence:
#
# PCOD9075679 Si02
#       8
#     2   2   2   2   2   2   2   2
#     4   8  15  28  49  79 114 148 177 216 276 346
#     4  10  19  32  52  77 110 147 184 230 278 328
#     4   9  16  28  50  81 116 147 177 221 281 336
#     4  10  22  39  56  80 110 147 200 241 268 327
#     4   8  16  28  48  81 114 141 181 224 274 342
#     4  10  18  32  54  80 112 142 184 228 278 345
#     4   9  15  29  53  80 109 145 183 223 274 342
#     4  10  20  35  62  82 105 155 192 226 288 331
#
# _framework density 22.063199000000001
#
# number of rings (size 3 to 8) (size 9 to 14) (size 15 to 20)
#    0.000    2.750    1.250    2.625    0.000    0.000 
#    2.250    1.250    0.000    4.500    0.000    0.000 
#    0.000    0.000    0.000    0.000    0.000    0.000 
#
# Total GULP energy -89225.203391 kJ/mol
# GULP energy per Si atom -5576.575212 kJ/mol
# Density = 2.201298 g / cm^3
# Si number density = 22.063199 Si / 1000 Ang^3
#
#
#
# Elastic Constant Matrix: (Units=GPa)
#
#
# Indices 1 2 3 4 5 6 
#
# 1 58.3044 19.9524 30.3513 -1.6926 13.7208 -4.0962
# 2 19.9524 83.0430 25.5680 3.5911 6.4950 8.8790
# 3 30.3513 25.5680 108.2387 -20.0313 16.4529 -8.4528
# 4 -1.6926 3.5911 -20.0313 22.6674 5.8887 -0.4648
# 5 13.7208 6.4950 16.4529 5.8887 37.5356 -6.8244
# 6 -4.0962 8.8790 -8.4528 -0.4648 -6.8244 36.4210
#
#
#
# Elastic Compliance Matrix: (Units=1/GPa)
#
#
# Indices 1 2 3 4 5 6 
#
# 1 0.022034 -0.003631 -0.004508 -0.000400 -0.005142 0.001348
# 2 -0.003631 0.014996 -0.004273 -0.006720 0.000750 -0.005001
# 3 -0.004508 -0.004273 0.015682 0.015929 -0.006408 0.003177
# 4 -0.000400 -0.006720 0.015929 0.063189 -0.014989 0.003288
# 5 -0.005142 0.000750 -0.006408 -0.014989 0.034276 0.003983
# 6 0.001348 -0.005001 0.003177 0.003288 0.003983 0.030353
#
#
# Mechanical properties :
#
#
# Convention : Reuss Voigt Hill
#
# Bulk Modulus (GPa) = 35.85510 44.59216 40.22363
# Shear Modulus (GPa) = 23.29388 30.90575 27.09982
#
# Velocity S-wave (km/s) = 3.25280 3.74676 3.50849
# Velocity P-wave (km/s) = 5.51307 6.24281 5.88925
#
# Compressibility (1/GPa) = 0.02789004
#
# Stress axis : x y z
#
# Youngs Moduli (GPa) = 45.38492 66.68255 63.76668
#
# Poissons Ratio (x) = 0.24211 0.28745
# Poissons Ratio (y) = 0.16478 0.27245
# Poissons Ratio (z) = 0.20459 0.28491
#
# Static dielectric constant tensor:
#      x y z
#    x 1.939490 0.001420 -0.037490 
#    y 0.001420 1.825490 0.009220 
#    z -0.037490 0.009220 1.881740 
# 
# From -- ./inp_files/338891.got.cif
#   From: 2010.05.17/outbox.cif.g08.bks.cpg/sg2_170_cif.got.tgz:338891.got - 2010.06.03 11:33:40.
