data_PCOD9075600
_publ_section_title
;
Structure prediction by ZEFSAII (Michael W. Deem and Ramdas Pophale) SiO2 
 PCOD9075600
Probable space group: P -1
;
_chemical_formula_sum "Si O2"
_cell_formula_units_Z 14
_cell_length_a 6.000000
_cell_length_b 12.000000
_cell_length_c 9.000000
_cell_angle_alpha 100.000000
_cell_angle_beta 100.000000
_cell_angle_gamma 90.000000
_cell_volume 628.156581
_symmetry_space_group_name_H-M "P -1"
_symmetry_group_IT_number 2
_symmetry_cell_setting 'triclinic'
loop_
_space_group_symop_operation_xyz
x,y,z
-x,-y,-z
loop_
_atom_site_type_symbol
_atom_site_label
_atom_site_fract_x
_atom_site_fract_y
_atom_site_fract_z
Si Si1 0.179017 0.989564 0.648992
Si Si2 0.980115 0.111642 0.929751
Si Si3 0.218303 0.744996 0.540974
Si Si4 0.452678 0.836138 0.287661
Si Si5 0.818419 0.650563 0.269137
Si Si6 0.373741 0.591779 0.786901
Si Si7 0.091183 0.351486 0.058526
O O1 0.175849 0.857975 0.657742
O O2 0.424216 0.041739 0.650358
O O3 0.000000 0.000000 0.500000
O O4 0.094341 0.072779 0.783239
O O5 0.733662 0.150562 0.858712
O O6 0.103179 0.216645 0.047288
O O7 0.000000 0.000000 0.000000
O O8 0.352701 0.792016 0.422567
O O9 0.340355 0.661187 0.646987
O O10 0.993609 0.688826 0.426964
O O11 0.635948 0.745502 0.243838
O O12 0.677713 0.539898 0.275944
O O13 0.941967 0.629407 0.119376
O O14 0.644217 0.604274 0.868661
O O15 0.146518 0.619211 0.873548
#
# Coordination Sequence:
#
# PCOD9075600 Si02
#       7
#     2   2   2   2   2   2   2
#     4  12  23  45  69 108 141 194 248 307 382 451
#     4  12  27  44  74 107 151 193 251 315 380 454
#     4  12  27  47  75 109 152 195 253 313 377 453
#     4  12  24  44  77 101 151 196 251 302 390 441
#     4  12  26  50  77 106 151 201 255 308 381 450
#     4  12  31  47  79 114 153 200 260 316 369 445
#     4  12  26  53  73 114 151 202 255 313 381 446
#
# _framework density 22.287437000000001
#
# number of rings (size 3 to 8) (size 9 to 14) (size 15 to 20)
#    0.000    0.000    5.714    3.429    6.000    1.143 
#    0.000    0.000    0.000    0.000    0.000    0.000 
#    0.000    0.000    0.000    0.000    0.000    0.000 
#
# Total GULP energy -78138.537036 kJ/mol
# GULP energy per Si atom -5581.324074 kJ/mol
# Density = 2.223671 g / cm^3
# Si number density = 22.287437 Si / 1000 Ang^3
#
#
#
# Elastic Constant Matrix: (Units=GPa)
#
#
# Indices 1 2 3 4 5 6 
#
# 1 103.9862 13.7056 40.5732 23.4233 22.1913 15.4234
# 2 13.7056 133.7658 37.4004 8.1957 31.1368 27.7203
# 3 40.5732 37.4004 26.6258 16.3099 7.3751 -10.5313
# 4 23.4233 8.1957 16.3099 32.8266 4.5393 17.4228
# 5 22.1913 31.1368 7.3751 4.5393 27.5979 6.4800
# 6 15.4234 27.7203 -10.5313 17.4228 6.4800 35.3090
#
#
#
# Elastic Compliance Matrix: (Units=1/GPa)
#
#
# Indices 1 2 3 4 5 6 
#
# 1 0.007998 -0.005389 0.013235 -0.017948 -0.004301 0.014330
# 2 -0.005389 0.002475 0.016961 -0.010760 -0.003922 0.011499
# 3 0.013235 0.016961 -0.029590 0.022415 -0.017142 -0.035836
# 4 -0.017948 -0.010760 0.022415 0.029860 0.014355 0.005605
# 5 -0.004301 -0.003922 -0.017142 0.014355 0.050201 -0.016451
# 6 0.014330 0.011499 -0.035836 0.005605 -0.016451 0.002600
#
#
# Mechanical properties :
#
#
# Convention : Reuss Voigt Hill
#
# Bulk Modulus (GPa) = 32.79066 49.74846 41.26956
# Shear Modulus (GPa) = 207.50518 30.65995 119.08256
#
# Velocity S-wave (km/s) = 9.65951 3.71301 7.31754
# Velocity P-wave (km/s) = 11.79631 6.38371 9.48432
#
# Compressibility (1/GPa) = 0.03049649
#
# Stress axis : x y z
#
# Youngs Moduli (GPa) = 125.02494 404.02985 -33.79495
#
# Poissons Ratio (x) = 2.17715 0.44726
# Poissons Ratio (y) = 0.67371 0.57318
# Poissons Ratio (z) = -1.65466 -6.85257
#
# Static dielectric constant tensor:
#      x y z
#    x 1.894390 0.033730 -0.104500 
#    y 0.033730 1.893050 0.021460 
#    z -0.104500 0.021460 1.865730 
# 
# From -- ./inp_files/45945.got.cif
#   From: 2010.05.17/outbox.ucp.g08.bks.cvg/sg2_23_cif.got.tgz:45945.got - 2010.06.11 11:32:03.
