data_PCOD9075055
_publ_section_title
;
Structure prediction by ZEFSAII (Michael W. Deem and Ramdas Pophale) SiO2 
 PCOD9075055
Probable space group: P -1
;
_chemical_formula_sum "Si O2"
_cell_formula_units_Z 16
_cell_length_a 9.000000
_cell_length_b 15.000000
_cell_length_c 9.000000
_cell_angle_alpha 100.000000
_cell_angle_beta 60.000000
_cell_angle_gamma 60.000000
_cell_volume 751.948787
_symmetry_space_group_name_H-M "P -1"
_symmetry_group_IT_number 2
_symmetry_cell_setting 'triclinic'
loop_
_space_group_symop_operation_xyz
x,y,z
-x,-y,-z
loop_
_atom_site_type_symbol
_atom_site_label
_atom_site_fract_x
_atom_site_fract_y
_atom_site_fract_z
Si Si1 0.691210 0.501070 0.836485
Si Si2 0.945318 0.120216 0.012763
Si Si3 0.242504 0.323677 0.545105
Si Si4 0.389195 0.941564 0.536288
Si Si5 0.882713 0.815967 0.811629
Si Si6 0.499653 0.747965 0.901607
Si Si7 0.719085 0.475682 0.459005
Si Si8 0.359460 0.967823 0.220160
O O1 0.609230 0.636407 0.929268
O O2 0.685792 0.490302 0.657951
O O3 0.966061 0.394585 0.723009
O O4 0.500000 0.500000 0.000000
O O5 0.148213 0.053676 0.771740
O O6 0.963115 0.171051 0.166783
O O7 0.697003 0.229234 0.093095
O O8 0.000000 0.000000 0.000000
O O9 0.433967 0.195853 0.510565
O O10 0.313880 0.283478 0.323470
O O11 0.261122 0.427337 0.583203
O O12 0.331517 0.942186 0.393378
O O13 0.500000 0.000000 0.500000
O O14 0.030922 0.669866 0.717176
O O15 0.816925 0.888690 0.708064
O O16 0.628846 0.904788 0.046530
O O17 0.362986 0.880857 0.083213
O O18 0.500000 0.500000 0.500000
#
# Coordination Sequence:
#
# PCOD9075055 Si02
#       8
#     2   2   2   2   2   2   2   2
#     4  11  26  44  69 100 137 178 226 286 340 406
#     4  12  23  44  69  98 136 177 219 282 341 407
#     4  11  24  48  70  95 140 185 227 276 345 414
#     4  12  27  43  70 101 138 179 228 284 346 393
#     4  11  22  42  69  97 132 173 228 268 340 406
#     4  11  23  45  70  96 133 181 226 272 349 403
#     4  11  25  43  73  99 133 184 228 273 338 418
#     4  11  24  40  68 100 129 174 223 284 327 403
#
# _framework density 21.278044999999999
#
# number of rings (size 3 to 8) (size 9 to 14) (size 15 to 20)
#    0.000    0.750    3.750    4.500    5.250    2.500 
#    0.000    1.875    0.000    0.000    0.000    0.000 
#    0.000    0.000    0.000    0.000    0.000    0.000 
#
# Total GULP energy -89260.198494 kJ/mol
# GULP energy per Si atom -5578.762406 kJ/mol
# Density = 2.122962 g / cm^3
# Si number density = 21.278045 Si / 1000 Ang^3
#
#
#
# Elastic Constant Matrix: (Units=GPa)
#
#
# Indices 1 2 3 4 5 6 
#
# 1 89.7936 23.3864 9.5395 4.8070 -8.2900 -10.0614
# 2 23.3864 153.3213 29.1789 18.0717 -1.0391 -7.8161
# 3 9.5395 29.1789 64.1550 -1.3852 -19.7982 -1.3584
# 4 4.8070 18.0717 -1.3852 40.9388 -0.7026 -5.6388
# 5 -8.2900 -1.0391 -19.7982 -0.7026 37.9167 7.2661
# 6 -10.0614 -7.8161 -1.3584 -5.6388 7.2661 42.5584
#
#
#
# Elastic Compliance Matrix: (Units=1/GPa)
#
#
# Indices 1 2 3 4 5 6 
#
# 1 0.012037 -0.001583 -0.000434 -0.000399 0.001941 0.002157
# 2 -0.001583 0.008007 -0.004261 -0.003406 -0.002597 0.000952
# 3 -0.000434 -0.004261 0.021056 0.002591 0.011171 -0.001777
# 4 -0.000399 -0.003406 0.002591 0.026453 0.001151 0.002671
# 5 0.001941 -0.002597 0.011171 0.001151 0.033586 -0.005243
# 6 0.002157 0.000952 -0.001777 0.002671 -0.005243 0.025374
#
#
# Mechanical properties :
#
#
# Convention : Reuss Voigt Hill
#
# Bulk Modulus (GPa) = 35.03426 47.94215 41.48821
# Shear Modulus (GPa) = 33.65098 40.62714 37.13906
#
# Velocity S-wave (km/s) = 3.98111 4.37435 4.18235
# Velocity P-wave (km/s) = 6.13458 6.93494 6.54700
#
# Compressibility (1/GPa) = 0.02854349
#
# Stress axis : x y z
#
# Youngs Moduli (GPa) = 83.07464 124.88758 47.49337
#
# Poissons Ratio (x) = 0.19776 0.02059
# Poissons Ratio (y) = 0.13155 0.20238
# Poissons Ratio (z) = 0.03602 0.53219
#
# Static dielectric constant tensor:
#      x y z
#    x 1.932800 0.043900 0.007250 
#    y 0.043900 1.769320 0.017200 
#    z 0.007250 0.017200 1.733000 
# 
# From -- ./inp_files/207587.got.cif
#   From: 2010.05.17/outbox.ucp.g08.bks.cvg/sg2_104_cif.got.tgz:207587.got - 2010.06.11 11:32:03.
