data_PCOD9075657
_publ_section_title
;
Structure prediction by ZEFSAII (Michael W. Deem and Ramdas Pophale) SiO2 
 PCOD9075657
Probable space group: P -1
;
_chemical_formula_sum "Si O2"
_cell_formula_units_Z 16
_cell_length_a 27.000000
_cell_length_b 15.000000
_cell_length_c 18.000000
_cell_angle_alpha 20.000000
_cell_angle_beta 160.000000
_cell_angle_gamma 160.000000
_cell_volume 746.015535
_symmetry_space_group_name_H-M "P -1"
_symmetry_group_IT_number 2
_symmetry_cell_setting 'triclinic'
loop_
_space_group_symop_operation_xyz
x,y,z
-x,-y,-z
loop_
_atom_site_type_symbol
_atom_site_label
_atom_site_fract_x
_atom_site_fract_y
_atom_site_fract_z
Si Si1 0.682510 0.798670 0.533242
Si Si2 0.156306 0.633242 0.415343
Si Si3 0.338137 0.204135 0.806190
Si Si4 0.674215 0.241398 0.593271
Si Si5 0.156075 0.952169 0.591932
Si Si6 0.294128 0.673475 0.744143
Si Si7 0.116331 0.842239 0.919455
Si Si8 0.025000 0.045056 0.910520
O O1 0.500000 0.500000 0.500000
O O2 0.732152 0.895032 0.442161
O O3 0.667379 0.032884 0.383697
O O4 0.855843 0.845188 0.781019
O O5 0.229936 0.579595 0.485914
O O6 0.248809 0.664273 0.599514
O O7 0.962849 0.388094 0.335118
O O8 0.158363 0.940613 0.161328
O O9 0.331081 0.511441 0.554583
O O10 0.262633 0.025830 0.761291
O O11 0.229302 0.006539 0.877681
O O12 0.531181 0.318542 0.005233
O O13 0.500000 0.000000 0.500000
O O14 0.770893 0.118634 0.878626
O O15 0.018242 0.054784 0.330884
O O16 0.128290 0.394780 0.762200
O O17 0.000000 0.500000 0.000000
O O18 0.000000 0.000000 0.000000
#
# Coordination Sequence:
#
# PCOD9075657 Si02
#       8
#     2   2   2   2   2   2   2   2
#     4  12  29  48  76 111 147 191 247 302 362 433
#     4  12  25  46  77 104 143 193 240 295 367 433
#     4  12  28  46  72 110 151 186 244 306 359 430
#     4  12  26  43  72 108 143 189 242 294 364 432
#     4  12  26  48  74 106 147 194 244 299 367 432
#     4  12  28  50  73 110 149 190 245 303 359 439
#     4  12  25  48  75 103 148 192 238 300 368 430
#     4  12  25  49  78 101 145 195 241 299 367 425
#
# _framework density 21.447275000000001
#
# number of rings (size 3 to 8) (size 9 to 14) (size 15 to 20)
#    0.000    0.000    5.000    4.500    7.000    2.500 
#    0.000    0.000    0.000    0.000    0.000    0.000 
#    0.000    0.000    0.000    0.000    0.000    0.000 
#
# Total GULP energy -89265.832429 kJ/mol
# GULP energy per Si atom -5579.114527 kJ/mol
# Density = 2.139846 g / cm^3
# Si number density = 21.447275 Si / 1000 Ang^3
#
#
#
# Elastic Constant Matrix: (Units=GPa)
#
#
# Indices 1 2 3 4 5 6 
#
# 1 146.1780 46.8664 24.7933 19.1642 -36.7377 -10.3857
# 2 46.8664 175.2258 34.3963 26.2910 -28.4772 -7.2179
# 3 24.7933 34.3963 89.6025 26.0110 -12.3719 -8.4620
# 4 19.1642 26.2910 26.0110 42.1269 -16.8409 -4.8245
# 5 -36.7377 -28.4772 -12.3719 -16.8409 42.8940 8.3055
# 6 -10.3857 -7.2179 -8.4620 -4.8245 8.3055 54.7388
#
#
#
# Elastic Compliance Matrix: (Units=1/GPa)
#
#
# Indices 1 2 3 4 5 6 
#
# 1 0.009087 -0.001109 -0.001120 -0.000056 0.006625 0.000395
# 2 -0.001109 0.006991 -0.001469 -0.001955 0.002514 -0.000069
# 3 -0.001120 -0.001469 0.014225 -0.007642 -0.001080 0.001283
# 4 -0.000056 -0.001955 -0.007642 0.033550 0.009613 0.000049
# 5 0.006625 0.002514 -0.001080 0.009613 0.034699 -0.002996
# 6 0.000395 -0.000069 0.001283 0.000049 -0.002996 0.018992
#
#
# Mechanical properties :
#
#
# Convention : Reuss Voigt Hill
#
# Bulk Modulus (GPa) = 43.65708 69.23538 56.44623
# Shear Modulus (GPa) = 37.71471 48.28194 42.99833
#
# Velocity S-wave (km/s) = 4.19798 4.74982 4.48240
# Velocity P-wave (km/s) = 6.62549 7.90144 7.29143
#
# Compressibility (1/GPa) = 0.02290579
#
# Stress axis : x y z
#
# Youngs Moduli (GPa) = 110.04775 143.04498 70.30119
#
# Poissons Ratio (x) = 0.15866 0.07876
# Poissons Ratio (y) = 0.12206 0.10326
# Poissons Ratio (z) = 0.12328 0.21010
#
# Static dielectric constant tensor:
#      x y z
#    x 1.810360 0.008840 0.083900 
#    y 0.008840 1.798830 -0.076480 
#    z 0.083900 -0.076480 1.915560 
# 
# From -- ./inp_files/135642.got.cif
#   From: 2010.05.17/outbox.ucp.g08.bks.cvg/sg2_68_cif.got.tgz:135642.got - 2010.06.11 11:32:03.
