data_PCOD9075924
_publ_section_title
;
Structure prediction by ZEFSAII (Michael W. Deem and Ramdas Pophale) SiO2 
 PCOD9075924
Probable space group: P -1
;
_chemical_formula_sum "Si O2"
_cell_formula_units_Z 14
_cell_length_a 11.466032
_cell_length_b 13.794172
_cell_length_c 13.876142
_cell_angle_alpha 141.293133
_cell_angle_beta 31.263068
_cell_angle_gamma 120.706054
_cell_volume 624.069283
_symmetry_space_group_name_H-M "P -1"
_symmetry_group_IT_number 2
_symmetry_cell_setting 'triclinic'
loop_
_space_group_symop_operation_xyz
x,y,z
-x,-y,-z
loop_
_atom_site_type_symbol
_atom_site_label
_atom_site_fract_x
_atom_site_fract_y
_atom_site_fract_z
Si Si1 0.113067 0.711359 0.888699
Si Si2 0.701423 0.816529 0.668742
Si Si3 0.032750 0.921867 0.807167
Si Si4 0.485725 0.010070 0.266694
Si Si5 0.449385 0.587830 0.741742
Si Si6 0.429092 0.186830 0.645252
Si Si7 0.182426 0.820105 0.291554
O O1 0.227925 0.641822 0.859520
O O2 0.344268 0.615965 0.575301
O O3 0.866781 0.685429 0.021050
O O4 0.022963 0.918379 0.103141
O O5 0.617952 0.678164 0.657246
O O6 0.988985 0.778219 0.455934
O O7 0.646674 0.857927 0.626527
O O8 0.500000 0.000000 0.000000
O O9 0.332565 0.779143 0.474717
O O10 0.791181 0.889828 0.940648
O O11 0.000000 0.000000 0.000000
O O12 0.366189 0.878955 0.261899
O O13 0.433477 0.137218 0.492259
O O14 0.332977 0.665860 0.987685
O O15 0.500000 0.000000 0.500000
O O16 0.000000 0.000000 0.500000
#
# Coordination Sequence:
#
# PCOD9075924 Si02
#       7
#     2   2   2   2   2   2   2
#     4  10  20  35  54  82 118 149 177 231 293 337
#     4  11  20  33  55  84 117 148 185 225 280 347
#     4   9  18  34  56  79 102 145 195 235 266 319
#     4  10  18  32  57  83 108 139 197 236 272 323
#     4  11  21  36  54  87 123 147 175 230 293 350
#     4   9  19  34  56  79 106 146 194 235 269 324
#     4  10  20  34  54  82 116 148 188 224 275 343
#
# _framework density 22.433406000000002
#
# number of rings (size 3 to 8) (size 9 to 14) (size 15 to 20)
#    0.000    2.000    4.286    1.714    0.000    0.000 
#    5.143    2.143    0.000    8.571    0.000    0.000 
#    0.000    0.000    0.000    0.000    0.000    0.000 
#
# Total GULP energy -78143.279272 kJ/mol
# GULP energy per Si atom -5581.662805 kJ/mol
# Density = 2.238235 g / cm^3
# Si number density = 22.433406 Si / 1000 Ang^3
#
#
#
# Elastic Constant Matrix: (Units=GPa)
#
#
# Indices 1 2 3 4 5 6 
#
# 1 31.7277 12.5095 30.1578 -7.8149 -17.1843 11.3351
# 2 12.5095 60.4958 19.8010 -29.1490 -18.9687 17.0059
# 3 30.1578 19.8010 125.6622 -26.8809 -20.5534 17.5174
# 4 -7.8149 -29.1490 -26.8809 35.6460 16.6983 -12.4833
# 5 -17.1843 -18.9687 -20.5534 16.6983 42.6053 -20.4542
# 6 11.3351 17.0059 17.5174 -12.4833 -20.4542 34.8307
#
#
#
# Elastic Compliance Matrix: (Units=1/GPa)
#
#
# Indices 1 2 3 4 5 6 
#
# 1 0.050698 -0.006358 -0.010440 -0.010054 0.015154 -0.002848
# 2 -0.006358 0.029524 0.002510 0.022609 0.000400 -0.005270
# 3 -0.010440 0.002510 0.011943 0.008973 -0.001595 -0.001556
# 4 -0.010054 0.022609 0.008973 0.056897 -0.011232 0.001516
# 5 0.015154 0.000400 -0.001595 -0.011232 0.040923 0.015681
# 6 -0.002848 -0.005270 -0.001556 0.001516 0.015681 0.042745
#
#
# Mechanical properties :
#
#
# Convention : Reuss Voigt Hill
#
# Bulk Modulus (GPa) = 15.72630 38.09137 26.90884
# Shear Modulus (GPa) = 17.69906 32.97757 25.33831
#
# Velocity S-wave (km/s) = 2.81189 3.83824 3.36444
# Velocity P-wave (km/s) = 4.19139 6.05470 5.20707
#
# Compressibility (1/GPa) = 0.06358775
#
# Stress axis : x y z
#
# Youngs Moduli (GPa) = 19.72484 33.87107 83.72984
#
# Poissons Ratio (x) = 0.21536 0.87415
# Poissons Ratio (y) = 0.12542 -0.21018
# Poissons Ratio (z) = 0.20593 -0.08502
#
# Static dielectric constant tensor:
#      x y z
#    x 1.864160 0.017580 -0.020980 
#    y 0.017580 2.002200 0.047280 
#    z -0.020980 0.047280 1.946310 
# 
# From -- ./inp_files/311115.got.cif
#   From: 2010.05.17/outbox.cif.g08.bks.cpg/sg2_156_cif.got.tgz:311115.got - 2010.06.03 11:33:40.
