data_PCOD9075651
_publ_section_title
;
Structure prediction by ZEFSAII (Michael W. Deem and Ramdas Pophale) SiO2 
 PCOD9075651
Probable space group: P -1
;
_chemical_formula_sum "Si O2"
_cell_formula_units_Z 16
_cell_length_a 15.000000
_cell_length_b 15.000000
_cell_length_c 12.000000
_cell_angle_alpha 140.000000
_cell_angle_beta 60.000000
_cell_angle_gamma 150.000000
_cell_volume 747.221570
_symmetry_space_group_name_H-M "P -1"
_symmetry_group_IT_number 2
_symmetry_cell_setting 'triclinic'
loop_
_space_group_symop_operation_xyz
x,y,z
-x,-y,-z
loop_
_atom_site_type_symbol
_atom_site_label
_atom_site_fract_x
_atom_site_fract_y
_atom_site_fract_z
Si Si1 0.142246 0.690931 0.299950
Si Si2 0.981088 0.768436 0.079880
Si Si3 0.047473 0.211797 0.145028
Si Si4 0.707507 0.335782 0.201104
Si Si5 0.805854 0.177808 0.349376
Si Si6 0.454220 0.745848 0.539106
Si Si7 0.364430 0.311166 0.512482
Si Si8 0.587418 0.351748 0.063008
O O1 0.224098 0.815305 0.495145
O O2 0.946364 0.562149 0.270926
O O3 0.347215 0.937087 0.329265
O O4 0.031903 0.413410 0.086966
O O5 0.756337 0.552800 0.053189
O O6 0.005924 0.832667 0.995232
O O7 0.142731 0.019381 0.310511
O O8 0.281951 0.524767 0.337684
O O9 0.894775 0.127716 0.233274
O O10 0.000000 0.000000 0.000000
O O11 0.669032 0.350486 0.364447
O O12 0.677042 0.382360 0.148032
O O13 0.500000 0.000000 0.000000
O O14 0.000000 0.500000 0.500000
O O15 0.616171 0.955451 0.163860
O O16 0.564633 0.737442 0.507924
O O17 0.500000 0.500000 0.500000
O O18 0.419180 0.500738 0.743222
#
# Coordination Sequence:
#
# PCOD9075651 Si02
#       8
#     2   2   2   2   2   2   2   2
#     4  12  27  47  76 112 147 189 251 311 366 439
#     4  12  27  47  73 108 148 193 245 306 372 439
#     4  12  27  47  76 106 150 197 247 303 372 444
#     4  12  25  44  71 107 148 187 239 298 368 436
#     4  12  25  47  75 107 149 196 246 304 373 437
#     4  12  26  46  74 109 144 192 244 305 365 434
#     4  12  25  48  72 103 149 196 243 295 373 448
#     4  12  27  45  73 106 147 195 245 301 371 443
#
# _framework density 21.412658
#
# number of rings (size 3 to 8) (size 9 to 14) (size 15 to 20)
#    0.000    0.000    3.750    6.375    1.750    3.500 
#    0.000    2.500    0.000    0.000    0.000    0.000 
#    0.000    0.000    0.000    0.000    0.000    0.000 
#
# Total GULP energy -89253.920157 kJ/mol
# GULP energy per Si atom -5578.370010 kJ/mol
# Density = 2.136392 g / cm^3
# Si number density = 21.412658 Si / 1000 Ang^3
#
#
#
# Elastic Constant Matrix: (Units=GPa)
#
#
# Indices 1 2 3 4 5 6 
#
# 1 69.4505 1.9231 26.4249 6.7779 18.3771 1.1969
# 2 1.9231 69.6873 18.0641 2.8919 2.0958 8.3630
# 3 26.4249 18.0641 140.0006 1.1886 28.2614 16.0683
# 4 6.7779 2.8919 1.1886 43.5655 3.8011 9.3542
# 5 18.3771 2.0958 28.2614 3.8011 48.5488 6.8834
# 6 1.1969 8.3630 16.0683 9.3542 6.8834 28.8316
#
#
#
# Elastic Compliance Matrix: (Units=1/GPa)
#
#
# Indices 1 2 3 4 5 6 
#
# 1 0.016912 0.000108 -0.002458 -0.002711 -0.005152 0.002746
# 2 0.000108 0.015212 -0.001743 -0.000290 0.000843 -0.003553
# 3 -0.002458 -0.001743 0.009046 0.001441 -0.003807 -0.003992
# 4 -0.002711 -0.000290 0.001441 0.025266 -0.000548 -0.008673
# 5 -0.005152 0.000843 -0.003807 -0.000548 0.025306 -0.003773
# 6 0.002746 -0.003553 -0.003992 -0.008673 -0.003773 0.041540
#
#
# Mechanical properties :
#
#
# Convention : Reuss Voigt Hill
#
# Bulk Modulus (GPa) = 30.31809 41.32919 35.82364
# Shear Modulus (GPa) = 32.79509 39.70427 36.24968
#
# Velocity S-wave (km/s) = 3.91778 4.31076 4.11896
# Velocity P-wave (km/s) = 5.88685 6.64230 6.27595
#
# Compressibility (1/GPa) = 0.03298361
#
# Stress axis : x y z
#
# Youngs Moduli (GPa) = 59.13079 65.73882 110.54319
#
# Poissons Ratio (x) = -0.00713 0.27173
# Poissons Ratio (y) = -0.00641 0.19271
# Poissons Ratio (z) = 0.14535 0.11460
#
# Static dielectric constant tensor:
#      x y z
#    x 1.883270 0.028270 -0.099240 
#    y 0.028270 1.809440 -0.006380 
#    z -0.099240 -0.006380 1.886200 
# 
# From -- ./inp_files/455923.got.cif
#   From: 2010.05.17/outbox.ucp.g08.bks.cvg/sg2_228_cif.got.tgz:455923.got - 2010.06.11 11:32:03.
