data_PCOD9075063
_publ_section_title
;
Structure prediction by ZEFSAII (Michael W. Deem and Ramdas Pophale) SiO2 
 PCOD9075063
Probable space group: P -1
;
_chemical_formula_sum "Si O2"
_cell_formula_units_Z 16
_cell_length_a 9.000000
_cell_length_b 9.000000
_cell_length_c 21.000000
_cell_angle_alpha 120.000000
_cell_angle_beta 150.000000
_cell_angle_gamma 60.000000
_cell_volume 727.687525
_symmetry_space_group_name_H-M "P -1"
_symmetry_group_IT_number 2
_symmetry_cell_setting 'triclinic'
loop_
_space_group_symop_operation_xyz
x,y,z
-x,-y,-z
loop_
_atom_site_type_symbol
_atom_site_label
_atom_site_fract_x
_atom_site_fract_y
_atom_site_fract_z
Si Si1 0.819032 0.641483 0.921494
Si Si2 0.793749 0.054465 0.495451
Si Si3 0.892331 0.446398 0.774708
Si Si4 0.268351 0.146387 0.791703
Si Si5 0.404099 0.185804 0.540746
Si Si6 0.805981 0.076261 0.885745
Si Si7 0.195823 0.235845 0.277918
Si Si8 0.813285 0.206154 0.250681
O O1 0.867895 0.577284 0.853223
O O2 0.474633 0.654803 0.814800
O O3 0.000000 0.500000 0.000000
O O4 0.975693 0.803433 0.036190
O O5 0.527758 0.213749 0.425096
O O6 0.992321 0.110244 0.637840
O O7 0.645302 0.884768 0.422342
O O8 0.000000 0.000000 0.500000
O O9 0.629403 0.325026 0.653123
O O10 0.878640 0.574265 0.737348
O O11 0.191417 0.306924 0.845194
O O12 0.512549 0.169604 0.833618
O O13 0.306038 0.970699 0.809705
O O14 0.081054 0.251434 0.404589
O O15 0.500000 0.000000 0.500000
O O16 0.757785 0.917019 0.789902
O O17 0.000000 0.000000 0.000000
O O18 0.952574 0.196162 0.230277
#
# Coordination Sequence:
#
# PCOD9075063 Si02
#       8
#     2   2   2   2   2   2   2   2
#     4  12  31  48  67 100 140 184 246 286 334 403
#     4  11  22  42  73 105 135 180 223 271 352 426
#     4  12  26  46  70 105 141 175 229 293 339 412
#     4  11  23  44  75  99 138 183 225 277 351 417
#     4  11  22  45  71 103 140 176 221 277 353 424
#     4  12  25  49  68  95 137 186 231 282 341 405
#     4  12  25  43  73 106 137 177 230 286 349 406
#     4  11  24  48  71 101 139 185 225 285 352 412
#
# _framework density 21.987459999999999
#
# number of rings (size 3 to 8) (size 9 to 14) (size 15 to 20)
#    0.000    0.500    7.500    0.000    7.000    4.500 
#    0.000    0.000    0.000    0.000    0.000    0.000 
#    0.000    0.000    0.000    0.000    0.000    0.000 
#
# Total GULP energy -89156.909438 kJ/mol
# GULP energy per Si atom -5572.306840 kJ/mol
# Density = 2.193742 g / cm^3
# Si number density = 21.987460 Si / 1000 Ang^3
#
#
#
# Elastic Constant Matrix: (Units=GPa)
#
#
# Indices 1 2 3 4 5 6 
#
# 1 112.9310 12.7635 9.8815 -17.9345 27.0013 -13.5111
# 2 12.7635 48.0591 29.0785 -14.5758 9.1354 -2.3044
# 3 9.8815 29.0785 52.5780 -13.5836 26.4412 -0.5493
# 4 -17.9345 -14.5758 -13.5836 38.0038 -7.7863 4.1767
# 5 27.0013 9.1354 26.4412 -7.7863 45.1215 -5.7275
# 6 -13.5111 -2.3044 -0.5493 4.1767 -5.7275 37.0037
#
#
#
# Elastic Compliance Matrix: (Units=1/GPa)
#
#
# Indices 1 2 3 4 5 6 
#
# 1 0.011653 -0.002987 0.004586 0.004077 -0.008044 0.002432
# 2 -0.002987 0.034794 -0.021419 0.005863 0.008486 0.001410
# 3 0.004586 -0.021419 0.042829 0.004878 -0.023063 -0.003144
# 4 0.004077 0.005863 0.004878 0.032197 -0.001169 -0.001889
# 5 -0.008044 0.008486 -0.023063 -0.001169 0.039005 0.003418
# 6 0.002432 0.001410 -0.003144 -0.001889 0.003418 0.028696
#
#
# Mechanical properties :
#
#
# Convention : Reuss Voigt Hill
#
# Bulk Modulus (GPa) = 20.14740 35.22391 27.68566
# Shear Modulus (GPa) = 20.37823 34.81542 27.59683
#
# Velocity S-wave (km/s) = 3.04766 3.98354 3.54661
# Velocity P-wave (km/s) = 4.64406 6.10024 5.42127
#
# Compressibility (1/GPa) = 0.04963419
#
# Stress axis : x y z
#
# Youngs Moduli (GPa) = 85.81507 28.74086 23.34861
#
# Poissons Ratio (x) = 0.08586 -0.10708
# Poissons Ratio (y) = 0.25636 0.50011
# Poissons Ratio (z) = -0.39355 0.61561
#
# Static dielectric constant tensor:
#      x y z
#    x 1.946140 0.010520 0.092470 
#    y 0.010520 1.852050 -0.140880 
#    z 0.092470 -0.140880 1.878000 
# 
# From -- ./inp_files/588088.got.cif
#   From: 2010.05.17/outbox.ucp.g08.bks.cvg/sg2_295_cif.got.tgz:588088.got - 2010.06.11 11:32:03.
