data_PCOD9075114
_publ_section_title
;
Structure prediction by ZEFSAII (Michael W. Deem and Ramdas Pophale) SiO2 
 PCOD9075114
Probable space group: P -1
;
_chemical_formula_sum "Si O2"
_cell_formula_units_Z 13
_cell_length_a 9.000000
_cell_length_b 9.000000
_cell_length_c 15.000000
_cell_angle_alpha 40.000000
_cell_angle_beta 50.000000
_cell_angle_gamma 50.000000
_cell_volume 569.686422
_symmetry_space_group_name_H-M "P -1"
_symmetry_group_IT_number 2
_symmetry_cell_setting 'triclinic'
loop_
_space_group_symop_operation_xyz
x,y,z
-x,-y,-z
loop_
_atom_site_type_symbol
_atom_site_label
_atom_site_fract_x
_atom_site_fract_y
_atom_site_fract_z
Si Si1 0.547159 0.578422 0.815230
Si Si2 0.879132 0.628261 0.074680
Si Si3 0.316210 0.324070 0.584702
Si Si4 0.500000 0.000000 0.500000
Si Si5 0.054550 0.880358 0.132427
Si Si6 0.732080 0.693829 0.866754
Si Si7 0.541731 0.249962 0.721754
O O1 0.613172 0.715701 0.809518
O O2 0.735625 0.334422 0.846658
O O3 0.511393 0.745507 0.666551
O O4 0.357463 0.490943 0.958463
O O5 0.640435 0.670476 0.170283
O O6 0.027091 0.446684 0.174047
O O7 0.000000 0.500000 0.000000
O O8 0.910011 0.891962 0.936438
O O9 0.465038 0.143661 0.542058
O O10 0.116951 0.231556 0.712078
O O11 0.411414 0.297981 0.658193
O O12 0.304077 0.589167 0.426339
O O13 0.000000 0.000000 0.000000
O O14 0.666413 0.963129 0.810388
#
# Coordination Sequence:
#
# PCOD9075114 Si02
#       7
#     2   2   2   1   2   2   2
#     4  11  23  42  76 111 139 195 245 304 360 438
#     4  12  27  43  75 112 141 183 257 307 350 432
#     4  11  25  44  69 102 153 190 233 306 370 432
#     4  12  26  42  68 112 148 186 240 302 364 434
#     4  12  22  48  77 103 139 197 251 294 363 447
#     4  11  22  46  77 103 144 197 246 292 370 438
#     4  11  24  48  68 106 149 193 235 302 374 429
#
# _framework density 22.819571
#
# number of rings (size 3 to 8) (size 9 to 14) (size 15 to 20)
#    0.000    0.615    6.154    0.923    4.308    2.462 
#    2.769    2.308    0.000    0.000    0.000    0.000 
#    0.000    0.000    0.000    0.000    0.000    0.000 
#
# Total GULP energy -72394.036261 kJ/mol
# GULP energy per Si atom -5568.772020 kJ/mol
# Density = 2.276763 g / cm^3
# Si number density = 22.819571 Si / 1000 Ang^3
#
#
#
# Elastic Constant Matrix: (Units=GPa)
#
#
# Indices 1 2 3 4 5 6 
#
# 1 45.0309 16.1605 41.7402 2.1406 -7.3479 3.4174
# 2 16.1605 120.8080 58.9300 -24.6650 -0.2529 16.5675
# 3 41.7402 58.9300 164.0820 -13.5377 -8.6037 -6.8309
# 4 2.1406 -24.6650 -13.5377 43.8794 11.6190 10.3256
# 5 -7.3479 -0.2529 -8.6037 11.6190 39.0413 1.3942
# 6 3.4174 16.5675 -6.8309 10.3256 1.3942 41.5318
#
#
#
# Elastic Compliance Matrix: (Units=1/GPa)
#
#
# Indices 1 2 3 4 5 6 
#
# 1 0.031233 -0.001261 -0.007739 -0.005692 0.005935 -0.002124
# 2 -0.001261 0.013543 -0.004310 0.009208 -0.003548 -0.008178
# 3 -0.007739 -0.004310 0.009797 -0.000107 0.000565 0.003975
# 4 -0.005692 0.009208 -0.000107 0.033676 -0.010656 -0.011237
# 5 0.005935 -0.003548 0.000565 -0.010656 0.029909 0.002665
# 6 -0.002124 -0.008178 0.003975 -0.011237 0.002665 0.030873
#
#
# Mechanical properties :
#
#
# Convention : Reuss Voigt Hill
#
# Bulk Modulus (GPa) = 35.77454 62.62026 49.19740
# Shear Modulus (GPa) = 27.03149 39.09649 33.06399
#
# Velocity S-wave (km/s) = 3.44550 4.14368 3.81061
# Velocity P-wave (km/s) = 5.61603 7.09891 6.40056
#
# Compressibility (1/GPa) = 0.02795284
#
# Stress axis : x y z
#
# Youngs Moduli (GPa) = 32.01695 73.84098 102.06859
#
# Poissons Ratio (x) = 0.09314 0.78993
# Poissons Ratio (y) = 0.04039 0.43989
# Poissons Ratio (z) = 0.24779 0.31823
#
# Static dielectric constant tensor:
#      x y z
#    x 2.039760 0.022010 0.039990 
#    y 0.022010 1.917730 -0.005760 
#    z 0.039990 -0.005760 1.820020 
# 
# From -- ./inp_files/491794.got.cif
#   From: 2010.05.17/outbox.ucp.g08.bks.cvg/sg2_246_cif.got.tgz:491794.got - 2010.06.11 11:32:03.
