data_PCOD9075084
_publ_section_title
;
Structure prediction by ZEFSAII (Michael W. Deem and Ramdas Pophale) SiO2 
 PCOD9075084
Probable space group: P -1
;
_chemical_formula_sum "Si O2"
_cell_formula_units_Z 14
_cell_length_a 15.000000
_cell_length_b 27.000000
_cell_length_c 27.000000
_cell_angle_alpha 10.000000
_cell_angle_beta 20.000000
_cell_angle_gamma 20.000000
_cell_volume 630.401208
_symmetry_space_group_name_H-M "P -1"
_symmetry_group_IT_number 2
_symmetry_cell_setting 'triclinic'
loop_
_space_group_symop_operation_xyz
x,y,z
-x,-y,-z
loop_
_atom_site_type_symbol
_atom_site_label
_atom_site_fract_x
_atom_site_fract_y
_atom_site_fract_z
Si Si1 0.378772 0.463619 0.284016
Si Si2 0.742501 0.816204 0.589074
Si Si3 0.737008 0.846343 0.677586
Si Si4 0.490366 0.279952 0.797849
Si Si5 0.822434 0.807452 0.247830
Si Si6 0.358836 0.860545 0.353642
Si Si7 0.897673 0.785875 0.019937
O O1 0.307633 0.367309 0.471067
O O2 0.076067 0.613172 0.275959
O O3 0.550391 0.176246 0.450397
O O4 0.576250 0.681186 0.961836
O O5 0.710769 0.738835 0.740086
O O6 0.500000 0.000000 0.500000
O O7 0.948737 0.024046 0.280645
O O8 0.886864 0.512858 0.784744
O O9 0.045496 0.827249 0.554121
O O10 0.510396 0.584157 0.512350
O O11 0.757400 0.024348 0.899242
O O12 0.326513 0.312173 0.800092
O O13 0.326102 0.147612 0.054623
O O14 0.565241 0.900727 0.251588
O O15 0.000000 0.000000 0.000000
#
# Coordination Sequence:
#
# PCOD9075084 Si02
#       7
#     2   2   2   2   2   2   2
#     4  11  26  47  74  99 147 184 235 298 369 439
#     4  12  25  42  67 103 149 193 236 295 354 424
#     4  12  24  46  70 108 143 190 239 296 361 432
#     4  11  23  42  71 106 138 193 237 300 349 413
#     4  11  27  52  73 107 142 187 237 306 366 439
#     4  12  26  43  77 106 148 183 250 301 357 430
#     4  11  22  44  68 100 148 186 245 288 349 418
#
# _framework density 22.208079000000001
#
# number of rings (size 3 to 8) (size 9 to 14) (size 15 to 20)
#    0.000    0.571    4.286    3.000    4.000    6.857 
#    0.000    0.000    0.000    0.000    0.000    0.000 
#    0.000    0.000    0.000    0.000    0.000    0.000 
#
# Total GULP energy -78020.207851 kJ/mol
# GULP energy per Si atom -5572.871989 kJ/mol
# Density = 2.215753 g / cm^3
# Si number density = 22.208079 Si / 1000 Ang^3
#
#
#
# Elastic Constant Matrix: (Units=GPa)
#
#
# Indices 1 2 3 4 5 6 
#
# 1 84.9737 26.2425 10.4678 15.3882 -11.6468 -17.2473
# 2 26.2425 151.0270 21.6001 -7.8869 -2.6703 -14.4557
# 3 10.4678 21.6001 111.5648 9.4319 2.4539 3.6008
# 4 15.3882 -7.8869 9.4319 56.3712 8.4567 -4.1401
# 5 -11.6468 -2.6703 2.4539 8.4567 30.1205 -1.8664
# 6 -17.2473 -14.4557 3.6008 -4.1401 -1.8664 29.8008
#
#
#
# Elastic Compliance Matrix: (Units=1/GPa)
#
#
# Indices 1 2 3 4 5 6 
#
# 1 0.016279 -0.001983 -0.001160 -0.005137 0.008176 0.008398
# 2 -0.001983 0.007578 -0.001550 0.002138 -0.000383 0.002989
# 3 -0.001160 -0.001550 0.009621 -0.001554 -0.001111 -0.002871
# 4 -0.005137 0.002138 -0.001554 0.020875 -0.007489 0.000683
# 5 0.008176 -0.000383 -0.001111 -0.007489 0.038897 0.006076
# 6 0.008398 0.002989 -0.002871 0.000683 0.006076 0.040689
#
#
# Mechanical properties :
#
#
# Convention : Reuss Voigt Hill
#
# Bulk Modulus (GPa) = 41.50608 51.57626 46.54117
# Shear Modulus (GPa) = 33.03479 42.54218 37.78848
#
# Velocity S-wave (km/s) = 3.86101 4.38152 4.12948
# Velocity P-wave (km/s) = 6.21343 6.99082 6.61356
#
# Compressibility (1/GPa) = 0.02409286
#
# Stress axis : x y z
#
# Youngs Moduli (GPa) = 61.42850 131.95278 103.94076
#
# Poissons Ratio (x) = 0.26160 0.12059
# Poissons Ratio (y) = 0.12178 0.16111
# Poissons Ratio (z) = 0.07127 0.20453
#
# Static dielectric constant tensor:
#      x y z
#    x 1.804660 0.012080 -0.002580 
#    y 0.012080 1.889520 -0.021420 
#    z -0.002580 -0.021420 1.902570 
# 
# From -- ./inp_files/619961.got.cif
#   From: 2010.05.17/outbox.ucp.g08.bks.cvg/sg2_310_cif.got.tgz:619961.got - 2010.06.11 11:32:03.
