data_PCOD9075898
_publ_section_title
;
Structure prediction by ZEFSAII (Michael W. Deem and Ramdas Pophale) SiO2 
 PCOD9075898
Probable space group: P -1
;
_chemical_formula_sum "Si O2"
_cell_formula_units_Z 16
_cell_length_a 15.190303
_cell_length_b 26.443606
_cell_length_c 22.398097
_cell_angle_alpha 16.990159
_cell_angle_beta 20.000379
_cell_angle_gamma 14.772780
_cell_volume 656.728530
_symmetry_space_group_name_H-M "P -1"
_symmetry_group_IT_number 2
_symmetry_cell_setting 'triclinic'
loop_
_space_group_symop_operation_xyz
x,y,z
-x,-y,-z
loop_
_atom_site_type_symbol
_atom_site_label
_atom_site_fract_x
_atom_site_fract_y
_atom_site_fract_z
Si Si1 0.131729 0.046858 0.530568
Si Si2 0.993316 0.036551 0.034430
Si Si3 0.771470 0.844712 0.783148
Si Si4 0.938094 0.487443 0.164556
Si Si5 0.355315 0.475694 0.247032
Si Si6 0.284460 0.585934 0.410502
Si Si7 0.611682 0.688162 0.455233
Si Si8 0.401154 0.237477 0.813610
O O1 0.096307 0.120524 0.399952
O O2 0.211232 0.207277 0.321293
O O3 0.783726 0.152807 0.668670
O O4 0.363803 0.766041 0.696729
O O5 0.381680 0.946192 0.901070
O O6 0.990346 0.858946 0.272934
O O7 0.695962 0.301101 0.952226
O O8 0.000000 0.000000 0.000000
O O9 0.685665 0.029693 0.678445
O O10 0.009432 0.587651 0.952143
O O11 0.579905 0.554421 0.295068
O O12 0.825744 0.648500 0.111201
O O13 0.379723 0.378165 0.407154
O O14 0.992272 0.599409 0.304974
O O15 0.416242 0.454620 0.411118
O O16 0.200803 0.450014 0.653357
O O17 0.500000 0.000000 0.000000
#
# Coordination Sequence:
#
# PCOD9075898 Si02
#       8
#     2   2   2   2   2   2   2   2
#     4  10  20  37  60  89 121 150 200 250 299 345
#     4  10  18  32  56  90 127 156 187 235 300 357
#     4   9  19  34  59  93 117 153 195 244 297 347
#     4  10  21  40  61  83 120 158 200 244 302 356
#     4   9  18  32  53  87 125 157 182 240 297 347
#     4  10  19  33  62  85 110 161 207 231 281 361
#     4   9  16  31  55  85 122 155 190 228 294 358
#     4  11  24  44  63  81 114 165 205 244 301 357
#
# _framework density 24.363187
#
# number of rings (size 3 to 8) (size 9 to 14) (size 15 to 20)
#    0.000    2.250    1.250    3.375    0.000    0.000 
#    2.250   15.625    0.000   22.500    0.000    0.000 
#    0.000    0.000    0.000    0.000    0.000    0.000 
#
# Total GULP energy -89212.492582 kJ/mol
# GULP energy per Si atom -5575.780786 kJ/mol
# Density = 2.430774 g / cm^3
# Si number density = 24.363187 Si / 1000 Ang^3
#
#
#
# Elastic Constant Matrix: (Units=GPa)
#
#
# Indices 1 2 3 4 5 6 
#
# 1 70.5183 22.7340 27.1241 -9.3334 -14.0316 8.0789
# 2 22.7340 93.2314 35.8755 -31.3132 -3.6329 18.2125
# 3 27.1241 35.8755 153.3326 -49.0481 -0.4957 4.5840
# 4 -9.3334 -31.3132 -49.0481 51.9662 9.6118 -9.1888
# 5 -14.0316 -3.6329 -0.4957 9.6118 30.0884 -4.9153
# 6 8.0789 18.2125 4.5840 -9.1888 -4.9153 31.7665
#
#
#
# Elastic Compliance Matrix: (Units=1/GPa)
#
#
# Indices 1 2 3 4 5 6 
#
# 1 0.018271 -0.003847 -0.003701 -0.004542 0.009151 -0.001805
# 2 -0.003847 0.015490 -0.000210 0.008011 -0.003482 -0.006094
# 3 -0.003701 -0.000210 0.010421 0.010205 -0.004545 0.001807
# 4 -0.004542 0.008011 0.010205 0.035704 -0.011802 0.003591
# 5 0.009151 -0.003482 -0.004545 -0.011802 0.041318 0.003304
# 6 -0.001805 -0.006094 0.001807 0.003591 0.003304 0.036722
#
#
# Mechanical properties :
#
#
# Convention : Reuss Voigt Hill
#
# Bulk Modulus (GPa) = 34.88556 54.28327 44.58442
# Shear Modulus (GPa) = 27.32247 38.18746 32.75496
#
# Velocity S-wave (km/s) = 3.35246 3.96337 3.67065
# Velocity P-wave (km/s) = 5.41621 6.57827 6.02532
#
# Compressibility (1/GPa) = 0.02866515
#
# Stress axis : x y z
#
# Youngs Moduli (GPa) = 54.73082 64.55585 95.95768
#
# Poissons Ratio (x) = 0.24838 0.35517
# Poissons Ratio (y) = 0.21057 0.02017
# Poissons Ratio (z) = 0.20257 0.01357
#
# Static dielectric constant tensor:
#      x y z
#    x 1.955830 -0.040960 -0.049230 
#    y -0.040960 2.016260 -0.021550 
#    z -0.049230 -0.021550 2.011670 
# 
# From -- ./inp_files/494353.got.cif
#   From: 2010.05.17/outbox.cif.g08.bks.cpg/sg2_248_cif.got.tgz:494353.got - 2010.06.03 11:33:40.
