data_PCOD9075737
_publ_section_title
;
Structure prediction by ZEFSAII (Michael W. Deem and Ramdas Pophale) SiO2 
 PCOD9075737
Probable space group: P -1
;
_chemical_formula_sum "Si O2"
_cell_formula_units_Z 14
_cell_length_a 7.619258
_cell_length_b 8.769806
_cell_length_c 11.208382
_cell_angle_alpha 60.565013
_cell_angle_beta 75.093055
_cell_angle_gamma 97.854398
_cell_volume 598.722004
_symmetry_space_group_name_H-M "P -1"
_symmetry_group_IT_number 2
_symmetry_cell_setting 'triclinic'
loop_
_space_group_symop_operation_xyz
x,y,z
-x,-y,-z
loop_
_atom_site_type_symbol
_atom_site_label
_atom_site_fract_x
_atom_site_fract_y
_atom_site_fract_z
Si Si1 0.602994 0.529206 0.099548
Si Si2 0.309333 0.840393 0.344407
Si Si3 0.061279 0.878412 0.170767
Si Si4 0.321067 0.158616 0.855672
Si Si5 0.277663 0.884541 0.584851
Si Si6 0.281418 0.195570 0.330717
Si Si7 0.030835 0.254144 0.151068
O O1 0.588189 0.708579 0.101433
O O2 0.474734 0.356686 0.264050
O O3 0.500000 0.500000 0.000000
O O4 0.829720 0.581378 0.012905
O O5 0.151255 0.779721 0.292125
O O6 0.511728 0.829598 0.270600
O O7 0.245769 0.761835 0.517751
O O8 0.333612 0.056611 0.281361
O O9 0.851596 0.778559 0.194349
O O10 0.038555 0.066336 0.159489
O O11 0.215337 0.956301 0.007763
O O12 0.194685 0.057574 0.507674
O O13 0.500000 0.000000 0.500000
O O14 0.187337 0.784002 0.758683
O O15 0.132836 0.271063 0.257311
#
# Coordination Sequence:
#
# PCOD9075737 Si02
#       7
#     2   2   2   2   2   2   2
#     4   9  18  34  57  80 107 138 174 222 285 318
#     4   9  19  32  54  81 106 137 185 222 267 309
#     4   9  18  29  51  80 106 138 184 219 266 314
#     4  10  18  32  55  77 109 140 178 223 268 323
#     4  10  19  31  54  81 107 140 186 222 259 316
#     4   8  18  32  53  82 102 137 177 219 275 312
#     4   9  16  32  54  79 103 141 177 221 262 324
#
# _framework density 23.383137999999999
#
# number of rings (size 3 to 8) (size 9 to 14) (size 15 to 20)
#    0.857    2.000    0.000    2.571    0.000    0.000 
#    0.000    0.714    6.286    6.857    3.714    0.000 
#    0.000    0.000    0.000    0.000    0.000    0.000 
#
# Total GULP energy -77963.146675 kJ/mol
# GULP energy per Si atom -5568.796191 kJ/mol
# Density = 2.332992 g / cm^3
# Si number density = 23.383138 Si / 1000 Ang^3
#
#
#
# Elastic Constant Matrix: (Units=GPa)
#
#
# Indices 1 2 3 4 5 6 
#
# 1 44.5043 9.3782 2.9048 0.8311 -11.2768 15.8492
# 2 9.3782 42.2190 17.1086 -1.0975 -7.7870 14.6897
# 3 2.9048 17.1086 110.6497 -4.2502 -26.6226 -7.9725
# 4 0.8311 -1.0975 -4.2502 29.3228 2.4285 2.2796
# 5 -11.2768 -7.7870 -26.6226 2.4285 39.2838 2.6315
# 6 15.8492 14.6897 -7.9725 2.2796 2.6315 22.0967
#
#
#
# Elastic Compliance Matrix: (Units=1/GPa)
#
#
# Indices 1 2 3 4 5 6 
#
# 1 0.035735 0.005758 -0.000993 0.000439 0.012802 -0.031387
# 2 0.005758 0.037755 -0.006648 0.002272 0.006679 -0.032657
# 3 -0.000993 -0.006648 0.012193 0.000364 0.006051 0.008773
# 4 0.000439 0.002272 0.000364 0.034710 -0.000978 -0.005158
# 5 0.012802 0.006679 0.006051 -0.000978 0.035659 -0.015585
# 6 -0.031387 -0.032657 0.008773 -0.005158 -0.015585 0.095032
#
#
# Mechanical properties :
#
#
# Convention : Reuss Voigt Hill
#
# Bulk Modulus (GPa) = 12.20739 28.46181 20.33460
# Shear Modulus (GPa) = 17.72072 29.33941 23.53007
#
# Velocity S-wave (km/s) = 2.75588 3.54605 3.17564
# Velocity P-wave (km/s) = 3.91898 5.38185 4.70759
#
# Compressibility (1/GPa) = 0.08191757
#
# Stress axis : x y z
#
# Youngs Moduli (GPa) = 27.98405 26.48688 82.01247
#
# Poissons Ratio (x) = -0.15251 0.08143
# Poissons Ratio (y) = -0.16113 0.54518
# Poissons Ratio (z) = 0.02779 0.17607
#
# Static dielectric constant tensor:
#      x y z
#    x 2.076250 0.037820 0.041840 
#    y 0.037820 1.879690 0.003780 
#    z 0.041840 0.003780 1.924220 
# 
# From -- ./inp_files/384821.got.cif
#   From: 2010.05.17/outbox.cif.g08.bks.cpg/sg2_193_cif.got.tgz:384821.got - 2010.06.03 11:33:40.
