data_PCOD9075965
_publ_section_title
;
Structure prediction by ZEFSAII (Michael W. Deem and Ramdas Pophale) SiO2 
 PCOD9075965
Probable space group: P -1
;
_chemical_formula_sum "Si O2"
_cell_formula_units_Z 16
_cell_length_a 12.223546
_cell_length_b 7.143087
_cell_length_c 10.094188
_cell_angle_alpha 88.417202
_cell_angle_beta 50.053038
_cell_angle_gamma 76.430698
_cell_volume 647.814917
_symmetry_space_group_name_H-M "P -1"
_symmetry_group_IT_number 2
_symmetry_cell_setting 'triclinic'
loop_
_space_group_symop_operation_xyz
x,y,z
-x,-y,-z
loop_
_atom_site_type_symbol
_atom_site_label
_atom_site_fract_x
_atom_site_fract_y
_atom_site_fract_z
Si Si1 0.705150 0.896846 0.877230
Si Si2 0.779826 0.703868 0.077116
Si Si3 0.735660 0.771096 0.568594
Si Si4 0.975916 0.908931 0.824271
Si Si5 0.294879 0.775604 0.495544
Si Si6 0.939101 0.346202 0.783627
Si Si7 0.552482 0.763353 0.475746
Si Si8 0.647955 0.338501 0.845474
O O1 0.699986 0.780650 0.750842
O O2 0.632909 0.126051 0.908213
O O3 0.663200 0.808853 0.048578
O O4 0.879432 0.879419 0.771319
O O5 0.881130 0.849638 0.015225
O O6 0.694824 0.682849 0.273446
O O7 0.883852 0.510592 0.934238
O O8 0.611196 0.714412 0.578760
O O9 0.906223 0.651637 0.406294
O O10 0.723843 0.995658 0.530874
O O11 0.968378 0.133032 0.828602
O O12 0.139763 0.774724 0.680264
O O13 0.419393 0.702933 0.511405
O O14 0.328730 0.672093 0.330060
O O15 0.798308 0.364210 0.795465
O O16 0.500000 0.000000 0.500000
O O17 0.500000 0.500000 0.000000
#
# Coordination Sequence:
#
# PCOD9075965 Si02
#       8
#     2   2   2   2   2   2   2   2
#     4   8  18  36  60  91 121 150 209 255 297 353
#     4  10  21  38  64  97 116 155 214 254 293 366
#     4   9  18  35  59  89 118 164 200 247 303 369
#     4   8  18  37  64  93 119 152 202 264 296 353
#     4   9  17  35  58  83 122 165 196 243 310 360
#     4  10  19  35  63  92 121 160 201 251 313 354
#     4  10  21  38  61  88 124 171 203 238 315 369
#     4  10  18  32  57  90 123 163 195 249 313 363
#
# _framework density 24.698411
#
# number of rings (size 3 to 8) (size 9 to 14) (size 15 to 20)
#    0.750    2.000    0.000    1.500    0.000    4.000 
#    0.000   15.625    2.750    1.500    3.250    0.000 
#    0.000    0.000    0.000    0.000    0.000    0.000 
#
# Total GULP energy -89546.599587 kJ/mol
# GULP energy per Si atom -5596.662474 kJ/mol
# Density = 2.464220 g / cm^3
# Si number density = 24.698411 Si / 1000 Ang^3
#
#
#
# Elastic Constant Matrix: (Units=GPa)
#
#
# Indices 1 2 3 4 5 6 
#
# 1 126.1974 16.4437 37.8835 -2.7726 -2.7981 -27.4317
# 2 16.4437 82.6696 27.1139 12.3626 1.1160 -9.4569
# 3 37.8835 27.1139 77.5519 18.4520 -16.5978 -20.4402
# 4 -2.7726 12.3626 18.4520 24.1571 -5.0046 -2.8230
# 5 -2.7981 1.1160 -16.5978 -5.0046 43.8149 -5.5736
# 6 -27.4317 -9.4569 -20.4402 -2.8230 -5.5736 22.6848
#
#
#
# Elastic Compliance Matrix: (Units=1/GPa)
#
#
# Indices 1 2 3 4 5 6 
#
# 1 0.011862 -0.000796 -0.003413 0.006152 0.001730 0.012128
# 2 -0.000796 0.014333 -0.003887 -0.004921 -0.002412 0.000305
# 3 -0.003413 -0.003887 0.026690 -0.014312 0.010796 0.019173
# 4 0.006152 -0.004921 -0.014312 0.055828 0.001447 -0.000206
# 5 0.001730 -0.002412 0.010796 0.001447 0.029573 0.018261
# 6 0.012128 0.000305 0.019173 -0.000206 0.018261 0.080612
#
#
# Mechanical properties :
#
#
# Convention : Reuss Voigt Hill
#
# Bulk Modulus (GPa) = 27.25331 49.92235 38.58783
# Shear Modulus (GPa) = 20.21658 31.79655 26.00656
#
# Velocity S-wave (km/s) = 2.86411 3.59192 3.24846
# Velocity P-wave (km/s) = 4.68998 6.12039 5.45230
#
# Compressibility (1/GPa) = 0.03669279
#
# Stress axis : x y z
#
# Youngs Moduli (GPa) = 84.30165 69.76927 37.46709
#
# Poissons Ratio (x) = 0.05554 0.12788
# Poissons Ratio (y) = 0.06710 0.14564
# Poissons Ratio (z) = 0.28773 0.27120
#
# Static dielectric constant tensor:
#      x y z
#    x 1.979940 0.009480 0.012140 
#    y 0.009480 2.016800 0.027030 
#    z 0.012140 0.027030 1.858050 
# 
# From -- ./inp_files/418096.got.cif
#   From: 2010.05.17/outbox.cif.g08.bks.cpg/sg2_210_cif.got.tgz:418096.got - 2010.06.03 11:33:40.
