data_PCOD9075419
_publ_section_title
;
Structure prediction by ZEFSAII (Michael W. Deem and Ramdas Pophale) SiO2 
 PCOD9075419
Probable space group: P -1
;
_chemical_formula_sum "Si O2"
_cell_formula_units_Z 16
_cell_length_a 7.074038
_cell_length_b 14.891051
_cell_length_c 7.791499
_cell_angle_alpha 55.624805
_cell_angle_beta 111.311173
_cell_angle_gamma 89.791148
_cell_volume 607.371836
_symmetry_space_group_name_H-M "P -1"
_symmetry_group_IT_number 2
_symmetry_cell_setting 'triclinic'
loop_
_space_group_symop_operation_xyz
x,y,z
-x,-y,-z
loop_
_atom_site_type_symbol
_atom_site_label
_atom_site_fract_x
_atom_site_fract_y
_atom_site_fract_z
Si Si1 0.374189 0.130172 0.796624
Si Si2 0.161609 0.392692 0.809748
Si Si3 0.224210 0.846126 0.089099
Si Si4 0.268779 0.307752 0.288323
Si Si5 0.802091 0.282139 0.229420
Si Si6 0.062642 0.927313 0.313682
Si Si7 0.685332 0.471902 0.732628
Si Si8 0.852334 0.359194 0.530204
O O1 0.549383 0.176607 0.903547
O O2 0.378908 0.194336 0.548241
O O3 0.134633 0.124843 0.742820
O O4 0.500000 0.000000 0.000000
O O5 0.223176 0.506334 0.667923
O O6 0.921994 0.439734 0.761409
O O7 0.105572 0.338470 0.673054
O O8 0.294433 0.314791 0.084478
O O9 0.197360 0.723674 0.252947
O O10 0.197677 0.906525 0.205520
O O11 0.037420 0.938996 0.831131
O O12 0.317397 0.417190 0.273453
O O13 0.026294 0.308687 0.238236
O O14 0.760785 0.319914 0.371088
O O15 0.829059 0.148272 0.406809
O O16 0.663240 0.368096 0.956385
O O17 0.500000 0.500000 0.500000
#
# Coordination Sequence:
#
# PCOD9075419 Si02
#       8
#     2   2   2   2   2   2   2   2
#     4   9  18  32  55  81 106 140 186 228 274 330
#     4  10  20  35  52  78 109 148 185 221 281 334
#     4   9  17  30  52  86 107 135 190 229 269 329
#     4  10  18  35  57  73 105 151 183 220 280 334
#     4   9  16  35  57  75 103 149 186 213 280 340
#     4   8  16  31  55  79 107 148 177 225 280 329
#     4  11  21  33  53  80 107 140 189 231 272 331
#     4  10  18  32  54  75 109 140 180 230 267 326
#
# _framework density 26.343005999999999
#
# number of rings (size 3 to 8) (size 9 to 14) (size 15 to 20)
#    0.000    2.500    2.500    0.750    1.750    0.000 
#    0.000    6.250    2.750    3.000    0.000    6.125 
#    0.000    0.000    0.000    0.000    0.000    0.000 
#
# Total GULP energy -89136.046546 kJ/mol
# GULP energy per Si atom -5571.002909 kJ/mol
# Density = 2.628305 g / cm^3
# Si number density = 26.343006 Si / 1000 Ang^3
#
#
#
# Elastic Constant Matrix: (Units=GPa)
#
#
# Indices 1 2 3 4 5 6 
#
# 1 98.2389 7.6885 18.1078 -17.7008 5.7735 2.0588
# 2 7.6885 49.7397 52.6838 -20.8885 -20.6285 7.5305
# 3 18.1078 52.6838 241.2987 -40.8460 -11.9421 -1.7665
# 4 -17.7008 -20.8885 -40.8460 47.7220 7.9618 -16.6158
# 5 5.7735 -20.6285 -11.9421 7.9618 47.9601 -8.9567
# 6 2.0588 7.5305 -1.7665 -16.6158 -8.9567 23.3169
#
#
#
# Elastic Compliance Matrix: (Units=1/GPa)
#
#
# Indices 1 2 3 4 5 6 
#
# 1 0.011201 -0.001017 0.000108 0.004851 -0.002198 0.001961
# 2 -0.001017 0.034575 -0.005645 0.007342 0.012064 -0.001638
# 3 0.000108 -0.005645 0.006209 0.004923 -0.000679 0.005531
# 4 0.004851 0.007342 0.004923 0.038919 0.002225 0.026162
# 5 -0.002198 0.012064 -0.000679 0.002225 0.027321 0.008326
# 6 0.001961 -0.001638 0.005531 0.026162 0.008326 0.065504
#
#
# Mechanical properties :
#
#
# Convention : Reuss Voigt Hill
#
# Bulk Modulus (GPa) = 25.72153 60.69304 43.20728
# Shear Modulus (GPa) = 23.83273 44.51962 34.17617
#
# Velocity S-wave (km/s) = 3.01110 4.11542 3.60579
# Velocity P-wave (km/s) = 4.67699 6.75809 5.81145
#
# Compressibility (1/GPa) = 0.03887794
#
# Stress axis : x y z
#
# Youngs Moduli (GPa) = 89.27643 28.92239 161.06452
#
# Poissons Ratio (x) = 0.02942 -0.01745
# Poissons Ratio (y) = 0.09081 0.90916
# Poissons Ratio (z) = -0.00967 0.16326
#
# Static dielectric constant tensor:
#      x y z
#    x 2.310610 -0.042790 0.088890 
#    y -0.042790 2.116010 0.088140 
#    z 0.088890 0.088140 2.167470 
# 
# From -- ./inp_files/214602.got.cif
#   From: 2010.05.17/outbox.cif.g08.bks.cpg/sg2_108_cif.got.tgz:214602.got - 2010.06.03 11:33:40.
