data_PCOD9075957
_publ_section_title
;
Structure prediction by ZEFSAII (Michael W. Deem and Ramdas Pophale) SiO2 
 PCOD9075957
Probable space group: P -1
;
_chemical_formula_sum "Si O2"
_cell_formula_units_Z 16
_cell_length_a 11.349291
_cell_length_b 15.623532
_cell_length_c 9.353765
_cell_angle_alpha 76.788931
_cell_angle_beta 126.739086
_cell_angle_gamma 58.756348
_cell_volume 701.951047
_symmetry_space_group_name_H-M "P -1"
_symmetry_group_IT_number 2
_symmetry_cell_setting 'triclinic'
loop_
_space_group_symop_operation_xyz
x,y,z
-x,-y,-z
loop_
_atom_site_type_symbol
_atom_site_label
_atom_site_fract_x
_atom_site_fract_y
_atom_site_fract_z
Si Si1 0.626523 0.136507 0.542127
Si Si2 0.297008 0.344892 0.696575
Si Si3 0.658050 0.501242 0.508246
Si Si4 0.541413 0.290682 0.145581
Si Si5 0.018450 0.326886 0.390577
Si Si6 0.080226 0.762109 0.417996
Si Si7 0.938843 0.639236 0.903808
Si Si8 0.868212 0.181285 0.856444
O O1 0.518797 0.239252 0.284669
O O2 0.384212 0.195455 0.385803
O O3 0.706539 0.174333 0.695744
O O4 0.911452 0.943969 0.813602
O O5 0.343664 0.402937 0.606688
O O6 0.000000 0.500000 0.500000
O O7 0.261348 0.273613 0.612477
O O8 0.537594 0.229626 0.029537
O O9 0.713197 0.406126 0.454606
O O10 0.369475 0.637923 0.326331
O O11 0.905527 0.393187 0.839996
O O12 0.780640 0.235206 0.382115
O O13 0.277399 0.484112 0.857222
O O14 0.071175 0.222697 0.582227
O O15 0.984908 0.343983 0.188682
O O16 0.979138 0.863235 0.161616
O O17 0.000000 0.500000 0.000000
#
# Coordination Sequence:
#
# PCOD9075957 Si02
#       8
#     2   2   2   2   2   2   2   2
#     4  10  20  38  63  83 122 154 206 249 293 359
#     4  10  18  32  57  89 117 153 195 251 297 343
#     4  12  21  36  63  91 120 154 210 248 288 357
#     4  10  19  35  59  87 119 158 194 243 311 344
#     4  11  20  33  59  93 121 151 198 255 301 348
#     4  11  23  37  57  89 128 156 193 251 304 357
#     4  12  19  36  63  94 112 154 210 250 285 352
#     4  10  22  39  57  88 118 165 196 246 305 352
#
# _framework density 22.793612
#
# number of rings (size 3 to 8) (size 9 to 14) (size 15 to 20)
#    0.000    1.250    6.250    2.250    0.000    0.000 
#    0.000    1.875    0.000    0.000    0.000    0.000 
#    0.000    0.375    0.000    0.000    0.000    0.000 
#
# Total GULP energy -89134.344561 kJ/mol
# GULP energy per Si atom -5570.896535 kJ/mol
# Density = 2.274173 g / cm^3
# Si number density = 22.793612 Si / 1000 Ang^3
#
#
#
# Elastic Constant Matrix: (Units=GPa)
#
#
# Indices 1 2 3 4 5 6 
#
# 1 63.0012 -14.4067 14.4261 -3.6500 -31.6924 -8.7255
# 2 -14.4067 23.4061 24.7573 -5.9933 -4.9368 -2.6339
# 3 14.4261 24.7573 80.8010 18.4510 -3.2122 -12.9594
# 4 -3.6500 -5.9933 18.4510 20.2069 -11.5260 -5.4167
# 5 -31.6924 -4.9368 -3.2122 -11.5260 13.0238 6.2642
# 6 -8.7255 -2.6339 -12.9594 -5.4167 6.2642 18.8784
#
#
#
# Elastic Compliance Matrix: (Units=1/GPa)
#
#
# Indices 1 2 3 4 5 6 
#
# 1 0.002882 -0.014178 0.008173 -0.018361 -0.014814 0.004612
# 2 -0.014178 0.025241 -0.002825 -0.014423 -0.040474 0.004321
# 3 0.008173 -0.002825 0.012984 0.002638 0.021509 0.005916
# 4 -0.018361 -0.014423 0.002638 0.022607 -0.033832 0.009024
# 5 -0.014814 -0.040474 0.021509 -0.033832 0.005156 -0.009146
# 6 0.004612 0.004321 0.005916 0.009024 -0.009146 0.065390
#
#
# Mechanical properties :
#
#
# Convention : Reuss Voigt Hill
#
# Bulk Modulus (GPa) = 42.64957 24.08463 33.36710
# Shear Modulus (GPa) = 31.30179 19.91726 25.60953
#
# Velocity S-wave (km/s) = 3.70979 2.95923 3.35556
# Velocity P-wave (km/s) = 6.09113 4.71862 5.44827
#
# Compressibility (1/GPa) = 0.02344689
#
# Stress axis : x y z
#
# Youngs Moduli (GPa) = 346.99742 39.61806 77.01788
#
# Poissons Ratio (x) = 0.56172 -0.62949
# Poissons Ratio (y) = 4.91990 0.21756
# Poissons Ratio (z) = -2.83612 0.11191
#
# Static dielectric constant tensor:
#      x y z
#    x 1.978040 -0.001890 -0.019770 
#    y -0.001890 2.000680 -0.009130 
#    z -0.019770 -0.009130 1.829950 
# 
# From -- ./inp_files/279426.got.cif
#   From: 2010.05.17/outbox.cif.g08.bks.cpg/sg2_140_cif.got.tgz:279426.got - 2010.06.03 11:33:40.
