data_PCOD9075772
_publ_section_title
;
Structure prediction by ZEFSAII (Michael W. Deem and Ramdas Pophale) SiO2 
 PCOD9075772
Probable space group: P -1
;
_chemical_formula_sum "Si O2"
_cell_formula_units_Z 16
_cell_length_a 11.744468
_cell_length_b 17.102799
_cell_length_c 5.135145
_cell_angle_alpha 115.007859
_cell_angle_beta 104.126056
_cell_angle_gamma 97.697996
_cell_volume 872.876560
_symmetry_space_group_name_H-M "P -1"
_symmetry_group_IT_number 2
_symmetry_cell_setting 'triclinic'
loop_
_space_group_symop_operation_xyz
x,y,z
-x,-y,-z
loop_
_atom_site_type_symbol
_atom_site_label
_atom_site_fract_x
_atom_site_fract_y
_atom_site_fract_z
Si Si1 0.115975 0.127745 0.801700
Si Si2 0.020646 0.203862 0.345581
Si Si3 0.491310 0.092556 0.995600
Si Si4 0.375885 0.233871 0.319666
Si Si5 0.241487 0.876596 0.839435
Si Si6 0.606931 0.585275 0.604781
Si Si7 0.754621 0.010958 0.508418
Si Si8 0.740044 0.651955 0.278941
O O1 0.057529 0.163285 0.574176
O O2 0.144213 0.035429 0.605853
O O3 0.039600 0.139858 0.029932
O O4 0.249995 0.191073 0.036426
O O5 0.119573 0.299923 0.513050
O O6 0.879768 0.201861 0.285590
O O7 0.379433 0.059536 0.686537
O O8 0.450199 0.160896 0.261046
O O9 0.627657 0.138015 0.038650
O O10 0.500000 0.000000 0.000000
O O11 0.442103 0.326485 0.342848
O O12 0.328893 0.268555 0.608582
O O13 0.244047 0.910663 0.590497
O O14 0.228966 0.955516 0.140216
O O15 0.500000 0.500000 0.500000
O O16 0.675919 0.581666 0.366387
O O17 0.707449 0.609677 0.921575
#
# Coordination Sequence:
#
# PCOD9075772 Si02
#       8
#     2   2   2   2   2   2   2   2
#     4  10  19  32  50  66  97 133 164 208 264 290
#     4  11  19  32  48  70 100 130 166 200 253 308
#     4   9  19  38  50  71 100 142 178 215 242 279
#     4   8  18  32  53  74 102 132 166 204 254 295
#     4  11  22  33  47  69  95 133 180 208 241 292
#     4  10  18  32  55  83 103 120 155 204 264 314
#     4  10  21  35  48  67  93 130 176 227 251 275
#     4   9  18  33  49  78 105 129 153 201 260 309
#
# _framework density 18.330200000000001
#
# number of rings (size 3 to 8) (size 9 to 14) (size 15 to 20)
#    0.750    1.500    1.250    2.250    0.000    4.000 
#    4.500    0.000    0.000    0.000    0.000    1.750 
#    0.000    0.000    0.000    0.000    0.000    0.000 
#
# Total GULP energy -89102.236829 kJ/mol
# GULP energy per Si atom -5568.889802 kJ/mol
# Density = 1.828848 g / cm^3
# Si number density = 18.330200 Si / 1000 Ang^3
#
#
#
# Elastic Constant Matrix: (Units=GPa)
#
#
# Indices 1 2 3 4 5 6 
#
# 1 95.0837 28.6577 2.2194 7.1428 15.2551 25.6636
# 2 28.6577 35.5817 3.4265 5.9250 6.8690 7.4015
# 3 2.2194 3.4265 33.2689 -15.0456 -5.8777 2.9431
# 4 7.1428 5.9250 -15.0456 30.2069 9.9065 2.9364
# 5 15.2551 6.8690 -5.8777 9.9065 20.1717 8.1736
# 6 25.6636 7.4015 2.9431 2.9364 8.1736 16.6971
#
#
#
# Elastic Compliance Matrix: (Units=1/GPa)
#
#
# Indices 1 2 3 4 5 6 
#
# 1 0.021784 -0.012016 0.002950 0.001709 -0.000775 -0.028597
# 2 -0.012016 0.039642 -0.008438 -0.007928 -0.005623 0.006530
# 3 0.002950 -0.008438 0.043489 0.021034 0.009869 -0.016990
# 4 0.001709 -0.007928 0.021034 0.050201 -0.015466 -0.004078
# 5 -0.000775 -0.005623 0.009869 -0.015466 0.075665 -0.032375
# 6 -0.028597 0.006530 -0.016990 -0.004078 -0.032375 0.120511
#
#
# Mechanical properties :
#
#
# Convention : Reuss Voigt Hill
#
# Bulk Modulus (GPa) = 14.30432 25.83795 20.07114
# Shear Modulus (GPa) = 12.20699 22.05718 17.13209
#
# Velocity S-wave (km/s) = 2.58340 3.47266 3.06050
# Velocity P-wave (km/s) = 4.08892 5.49596 4.84380
#
# Compressibility (1/GPa) = 0.06990893
#
# Stress axis : x y z
#
# Youngs Moduli (GPa) = 45.90492 25.22601 22.99420
#
# Poissons Ratio (x) = 0.30310 -0.06784
# Poissons Ratio (y) = 0.55157 0.19402
# Poissons Ratio (z) = -0.13543 0.21285
#
# Static dielectric constant tensor:
#      x y z
#    x 1.665190 0.042150 0.022980 
#    y 0.042150 1.660430 0.015330 
#    z 0.022980 0.015330 1.684550 
# 
# From -- ./inp_files/82334.got.cif
#   From: 2010.05.17/outbox.cif.g08.bks.cpg/sg2_42_cif.got.tgz:82334.got - 2010.06.03 11:33:40.
