data_PCOD9075095
_publ_section_title
;
Structure prediction by ZEFSAII (Michael W. Deem and Ramdas Pophale) SiO2 
 PCOD9075095
Probable space group: P -1
;
_chemical_formula_sum "Si O2"
_cell_formula_units_Z 12
_cell_length_a 12.000000
_cell_length_b 9.000000
_cell_length_c 12.000000
_cell_angle_alpha 140.000000
_cell_angle_beta 40.000000
_cell_angle_gamma 120.000000
_cell_volume 523.519695
_symmetry_space_group_name_H-M "P -1"
_symmetry_group_IT_number 2
_symmetry_cell_setting 'triclinic'
loop_
_space_group_symop_operation_xyz
x,y,z
-x,-y,-z
loop_
_atom_site_type_symbol
_atom_site_label
_atom_site_fract_x
_atom_site_fract_y
_atom_site_fract_z
Si Si1 0.011364 0.224807 0.363919
Si Si2 0.086930 0.415234 0.634511
Si Si3 0.621497 0.780758 0.517767
Si Si4 0.277336 0.284694 0.847953
Si Si5 0.401351 0.736701 0.267483
Si Si6 0.230224 0.868624 0.811080
O O1 0.100865 0.223488 0.416128
O O2 0.000000 0.500000 0.500000
O O3 0.805985 0.217321 0.527352
O O4 0.119143 0.022090 0.084551
O O5 0.231173 0.317930 0.561758
O O6 0.136563 0.669322 0.716888
O O7 0.878321 0.493152 0.871947
O O8 0.719998 0.732039 0.295615
O O9 0.423161 0.732139 0.631035
O O10 0.569209 0.063485 0.725599
O O11 0.481653 0.274913 0.717669
O O12 0.243230 0.062951 0.818792
O O13 0.500000 0.500000 0.000000
#
# Coordination Sequence:
#
# PCOD9075095 Si02
#       6
#     2   2   2   2   2   2
#     4  12  25  42  73 102 133 180 232 278 334 407
#     4  12  25  45  70 103 140 173 227 286 343 394
#     4  11  26  44  68 103 136 179 223 283 346 391
#     4  11  23  44  72  96 132 186 229 270 335 411
#     4  11  22  45  67  97 135 176 230 275 327 413
#     4  11  24  46  69 101 136 185 226 274 336 409
#
# _framework density 22.921773999999999
#
# number of rings (size 3 to 8) (size 9 to 14) (size 15 to 20)
#    0.000    0.667    3.333    5.500    4.667    1.333 
#    3.000    0.000    0.000    0.000    0.000    0.000 
#    0.000    0.000    0.000    0.000    0.000    0.000 
#
# Total GULP energy -66989.897451 kJ/mol
# GULP energy per Si atom -5582.491454 kJ/mol
# Density = 2.286960 g / cm^3
# Si number density = 22.921774 Si / 1000 Ang^3
#
#
#
# Elastic Constant Matrix: (Units=GPa)
#
#
# Indices 1 2 3 4 5 6 
#
# 1 173.0420 32.6127 38.5914 -20.9449 -8.9243 -5.2220
# 2 32.6127 8.5488 7.0318 -10.2735 4.0970 17.4893
# 3 38.5914 7.0318 118.2710 -16.0512 15.0751 4.9690
# 4 -20.9449 -10.2735 -16.0512 30.5344 3.7380 -9.7515
# 5 -8.9243 4.0970 15.0751 3.7380 50.3164 2.7753
# 6 -5.2220 17.4893 4.9690 -9.7515 2.7753 37.5712
#
#
#
# Elastic Compliance Matrix: (Units=1/GPa)
#
#
# Indices 1 2 3 4 5 6 
#
# 1 0.000955 0.028004 -0.000380 0.006594 -0.001880 -0.011003
# 2 0.028004 -0.132861 -0.007353 -0.011227 0.015366 0.062662
# 3 -0.000380 -0.007353 0.009757 0.003789 -0.002854 0.003274
# 4 0.006594 -0.011227 0.003789 0.041140 -0.003020 0.016542
# 5 -0.001880 0.015366 -0.002854 -0.003020 0.019881 -0.009289
# 6 -0.011003 0.062662 0.003274 0.016542 -0.009289 0.000464
#
#
# Mechanical properties :
#
#
# Convention : Reuss Voigt Hill
#
# Bulk Modulus (GPa) = -12.25386 50.70372 19.22493
# Shear Modulus (GPa) = -38.93850 38.45948 -0.23951
#
# Velocity S-wave (km/s) = -4.12607 4.10061 -0.32360
# Velocity P-wave (km/s) = 5.29687 6.67745 2.87503
#
# Compressibility (1/GPa) = -0.08160694
#
# Stress axis : x y z
#
# Youngs Moduli (GPa) = 1047.25004 -7.52668 102.49327
#
# Poissons Ratio (x) = 0.21078 0.03892
# Poissons Ratio (y) = -29.32752 0.75368
# Poissons Ratio (z) = 0.39772 -0.05535
#
# Static dielectric constant tensor:
#      x y z
#    x 0.973450 1.643770 -1.646490 
#    y 1.643770 -0.582560 2.781350 
#    z -1.646490 2.781350 -1.101940 
# 
# From -- ./inp_files/159719.got.cif
#   From: 2010.05.17/outbox.ucp.g08.bks.cvg/sg2_80_cif.got.tgz:159719.got - 2010.06.11 11:32:03.
