data_PCOD9075909
_publ_section_title
;
Structure prediction by ZEFSAII (Michael W. Deem and Ramdas Pophale) SiO2 
 PCOD9075909
Probable space group: P -1
;
_chemical_formula_sum "Si O2"
_cell_formula_units_Z 14
_cell_length_a 12.764420
_cell_length_b 8.978196
_cell_length_c 9.419266
_cell_angle_alpha 114.929433
_cell_angle_beta 110.318762
_cell_angle_gamma 120.345292
_cell_volume 589.897065
_symmetry_space_group_name_H-M "P -1"
_symmetry_group_IT_number 2
_symmetry_cell_setting 'triclinic'
loop_
_space_group_symop_operation_xyz
x,y,z
-x,-y,-z
loop_
_atom_site_type_symbol
_atom_site_label
_atom_site_fract_x
_atom_site_fract_y
_atom_site_fract_z
Si Si1 0.099526 0.433276 0.093718
Si Si2 0.242739 0.071663 0.938837
Si Si3 0.353787 0.971791 0.387557
Si Si4 0.891719 0.891761 0.684268
Si Si5 0.625683 0.506789 0.645369
Si Si6 0.179869 0.989091 0.552479
Si Si7 0.945305 0.440586 0.285706
O O1 0.181499 0.676100 0.138048
O O2 0.255595 0.481399 0.202345
O O3 0.063597 0.468711 0.245083
O O4 0.947702 0.140601 0.856027
O O5 0.266238 0.100823 0.792174
O O6 0.226672 0.867284 0.908434
O O7 0.053494 0.952424 0.814375
O O8 0.266631 0.342046 0.386317
O O9 0.301634 0.010786 0.521039
O O10 0.500000 0.000000 0.500000
O O11 0.444691 0.208567 0.426868
O O12 0.847081 0.872303 0.490807
O O13 0.375555 0.331608 0.194247
O O14 0.994522 0.682304 0.360014
O O15 0.000000 0.500000 0.500000
#
# Coordination Sequence:
#
# PCOD9075909 Si02
#       7
#     2   2   2   2   2   2   2
#     4   9  16  33  52  78 100 138 178 208 254 316
#     4  10  18  35  54  80 107 136 175 217 260 313
#     4   9  20  35  52  76 105 144 178 212 252 318
#     4  11  19  32  57  84 106 132 170 227 267 298
#     4  10  18  32  57  76 103 144 176 207 259 316
#     4  10  22  32  52  83 109 134 173 220 268 303
#     4   9  16  29  48  72 101 132 168 208 250 301
#
# _framework density 23.732953999999999
#
# number of rings (size 3 to 8) (size 9 to 14) (size 15 to 20)
#    0.000    2.286    2.857    1.286    0.000    3.429 
#    0.000    0.000    0.000    0.000    0.000    6.000 
#    0.000    0.000    0.000    0.000    0.000    0.000 
#
# Total GULP energy -78073.827910 kJ/mol
# GULP energy per Si atom -5576.701994 kJ/mol
# Density = 2.367894 g / cm^3
# Si number density = 23.732954 Si / 1000 Ang^3
#
#
#
# Elastic Constant Matrix: (Units=GPa)
#
#
# Indices 1 2 3 4 5 6 
#
# 1 72.6562 25.3817 35.2630 5.5505 -7.3437 1.2848
# 2 25.3817 202.2945 51.3516 -2.4276 -5.0805 27.9185
# 3 35.2630 51.3516 69.9514 4.0101 -11.1673 15.5206
# 4 5.5505 -2.4276 4.0101 27.1765 0.9545 5.6241
# 5 -7.3437 -5.0805 -11.1673 0.9545 29.2154 0.6146
# 6 1.2848 27.9185 15.5206 5.6241 0.6146 38.0576
#
#
#
# Elastic Compliance Matrix: (Units=1/GPa)
#
#
# Indices 1 2 3 4 5 6 
#
# 1 0.018964 -0.000491 -0.009782 -0.003375 0.000964 0.004193
# 2 -0.000491 0.006492 -0.003953 0.001989 -0.000499 -0.003419
# 3 -0.009782 -0.003953 0.024726 -0.000816 0.006476 -0.006838
# 4 -0.003375 0.001989 -0.000816 0.039256 -0.001954 -0.006782
# 5 0.000964 -0.000499 0.006476 -0.001954 0.036978 -0.002616
# 6 0.004193 -0.003419 -0.006838 -0.006782 -0.002616 0.032476
#
#
# Mechanical properties :
#
#
# Convention : Reuss Voigt Hill
#
# Bulk Modulus (GPa) = 46.01981 63.21050 54.61515
# Shear Modulus (GPa) = 25.69546 34.41698 30.05622
#
# Velocity S-wave (km/s) = 3.29400 3.81225 3.56256
# Velocity P-wave (km/s) = 5.82237 6.78746 6.32335
#
# Compressibility (1/GPa) = 0.02172977
#
# Stress axis : x y z
#
# Youngs Moduli (GPa) = 52.73202 154.04633 40.44273
#
# Poissons Ratio (x) = 0.07566 0.39561
# Poissons Ratio (y) = 0.02590 0.15986
# Poissons Ratio (z) = 0.51583 0.60891
#
# Static dielectric constant tensor:
#      x y z
#    x 1.908640 -0.010140 0.031120 
#    y -0.010140 1.994950 0.021500 
#    z 0.031120 0.021500 1.932340 
# 
# From -- ./inp_files/235700.got.cif
#   From: 2010.05.17/outbox.cif.g08.bks.cpg/sg2_118_cif.got.tgz:235700.got - 2010.06.03 11:33:40.
