data_PCOD9075629
_publ_section_title
;
Structure prediction by ZEFSAII (Michael W. Deem and Ramdas Pophale) SiO2 
 PCOD9075629
Probable space group: P -1
;
_chemical_formula_sum "Si O2"
_cell_formula_units_Z 16
_cell_length_a 27.000000
_cell_length_b 27.000000
_cell_length_c 9.000000
_cell_angle_alpha 40.000000
_cell_angle_beta 140.000000
_cell_angle_gamma 170.000000
_cell_volume 728.340053
_symmetry_space_group_name_H-M "P -1"
_symmetry_group_IT_number 2
_symmetry_cell_setting 'triclinic'
loop_
_space_group_symop_operation_xyz
x,y,z
-x,-y,-z
loop_
_atom_site_type_symbol
_atom_site_label
_atom_site_fract_x
_atom_site_fract_y
_atom_site_fract_z
Si Si1 0.533314 0.884978 0.565986
Si Si2 0.809267 0.444536 0.953639
Si Si3 0.120475 0.258272 0.318000
Si Si4 0.613331 0.090261 0.720446
Si Si5 0.004408 0.113616 0.041738
Si Si6 0.427560 0.176905 0.919186
Si Si7 0.441543 0.432770 0.842965
Si Si8 0.940424 0.655327 0.461611
O O1 0.313488 0.614467 0.609634
O O2 0.382293 0.821109 0.398133
O O3 0.645779 0.954220 0.817691
O O4 0.789688 0.132239 0.469736
O O5 0.618215 0.313682 0.924595
O O6 0.881005 0.565889 0.696203
O O7 0.608249 0.176254 0.084315
O O8 0.095036 0.679682 0.139174
O O9 0.367872 0.558141 0.161380
O O10 0.267322 0.335047 0.585770
O O11 0.002534 0.116771 0.210732
O O12 0.859914 0.055844 0.259712
O O13 0.500000 0.000000 0.500000
O O14 0.028828 0.222837 0.774286
O O15 0.255601 0.294863 0.162559
O O16 0.732255 0.811931 0.033323
O O17 0.500000 0.500000 0.000000
#
# Coordination Sequence:
#
# PCOD9075629 Si02
#       8
#     2   2   2   2   2   2   2   2
#     4  12  24  46  74 104 145 190 248 297 359 440
#     4  12  28  46  71 110 146 191 241 304 370 426
#     4  12  25  47  77 111 141 199 249 301 358 442
#     4  12  26  45  74 105 147 194 242 303 363 430
#     4  12  24  49  77 102 151 194 242 298 366 443
#     4  12  24  45  75 108 143 192 254 299 356 436
#     4  12  28  48  72 113 151 191 238 303 374 434
#     4  12  27  47  74 108 146 189 243 303 367 427
#
# _framework density 21.967760999999999
#
# number of rings (size 3 to 8) (size 9 to 14) (size 15 to 20)
#    0.000    0.000    3.750    6.000    3.500    3.000 
#    0.000    0.000    0.000    0.000    0.000    0.000 
#    0.000    0.000    0.000    0.000    0.000    0.000 
#
# Total GULP energy -89492.547241 kJ/mol
# GULP energy per Si atom -5593.284203 kJ/mol
# Density = 2.191776 g / cm^3
# Si number density = 21.967761 Si / 1000 Ang^3
#
#
#
# Elastic Constant Matrix: (Units=GPa)
#
#
# Indices 1 2 3 4 5 6 
#
# 1 102.9950 1.6426 50.8338 4.6399 -17.8496 20.4767
# 2 1.6426 64.0297 -3.2241 3.8851 -9.4735 11.6031
# 3 50.8338 -3.2241 157.5219 14.0216 -14.9247 10.6930
# 4 4.6399 3.8851 14.0216 44.5631 1.1437 17.7273
# 5 -17.8496 -9.4735 -14.9247 1.1437 42.2897 -5.7262
# 6 20.4767 11.6031 10.6930 17.7273 -5.7262 59.1564
#
#
#
# Elastic Compliance Matrix: (Units=1/GPa)
#
#
# Indices 1 2 3 4 5 6 
#
# 1 0.012861 0.000679 -0.003623 0.001210 0.003737 -0.003931
# 2 0.000679 0.016820 0.000764 -0.000645 0.003922 -0.003099
# 3 -0.003623 0.000764 0.007859 -0.002425 0.001557 0.000561
# 4 0.001210 -0.000645 -0.002425 0.026365 -0.002283 -0.007975
# 5 0.003737 0.003922 0.001557 -0.002283 0.026841 0.000938
# 6 -0.003931 -0.003099 0.000561 -0.007975 0.000938 0.021252
#
#
# Mechanical properties :
#
#
# Convention : Reuss Voigt Hill
#
# Bulk Modulus (GPa) = 30.13762 47.00567 38.57165
# Shear Modulus (GPa) = 39.24137 47.55481 43.39809
#
# Velocity S-wave (km/s) = 4.23107 4.65774 4.44952
# Velocity P-wave (km/s) = 6.13336 7.09719 6.63280
#
# Compressibility (1/GPa) = 0.03318112
#
# Stress axis : x y z
#
# Youngs Moduli (GPa) = 77.75219 59.45321 127.24995
#
# Poissons Ratio (x) = -0.04040 0.46107
# Poissons Ratio (y) = -0.05283 -0.09728
# Poissons Ratio (z) = 0.28172 -0.04545
#
# Static dielectric constant tensor:
#      x y z
#    x 1.794650 -0.038290 -0.001040 
#    y -0.038290 1.751400 0.001380 
#    z -0.001040 0.001380 1.754560 
# 
# From -- ./inp_files/357980.got.cif
#   From: 2010.05.17/outbox.ucp.g08.bks.cvg/sg2_179_cif.got.tgz:357980.got - 2010.06.11 11:32:03.
