data_PCOD9075309
_publ_section_title
;
Structure prediction by ZEFSAII (Michael W. Deem and Ramdas Pophale) SiO2 
 PCOD9075309
Probable space group: P -1
;
_chemical_formula_sum "Si O2"
_cell_formula_units_Z 14
_cell_length_a 27.000000
_cell_length_b 15.000000
_cell_length_c 15.000000
_cell_angle_alpha 160.000000
_cell_angle_beta 20.000000
_cell_angle_gamma 160.000000
_cell_volume 621.679612
_symmetry_space_group_name_H-M "P -1"
_symmetry_group_IT_number 2
_symmetry_cell_setting 'triclinic'
loop_
_space_group_symop_operation_xyz
x,y,z
-x,-y,-z
loop_
_atom_site_type_symbol
_atom_site_label
_atom_site_fract_x
_atom_site_fract_y
_atom_site_fract_z
Si Si1 0.382264 0.637039 0.793431
Si Si2 0.512571 0.034595 0.403161
Si Si3 0.039426 0.298315 0.985683
Si Si4 0.009623 0.173248 0.513503
Si Si5 0.752657 0.931961 0.245214
Si Si6 0.345626 0.727890 0.133169
Si Si7 0.718216 0.714709 0.698465
O O1 0.500000 0.500000 0.500000
O O2 0.476572 0.966080 0.897587
O O3 0.235597 0.416862 0.771594
O O4 0.291062 0.648978 0.049214
O O5 0.348642 0.999297 0.596965
O O6 0.637278 0.375813 0.483193
O O7 0.500000 0.000000 0.500000
O O8 0.578921 0.808644 0.047487
O O9 0.007993 0.575726 0.277114
O O10 0.940064 0.095041 0.046718
O O11 0.972222 0.066206 0.801551
O O12 0.170820 0.300151 0.422121
O O13 0.846179 0.978065 0.665800
O O14 0.746391 0.127157 0.521290
O O15 0.676623 0.578374 0.069186
#
# Coordination Sequence:
#
# PCOD9075309 Si02
#       7
#     2   2   2   2   2   2   2
#     4  11  27  49  76 104 137 183 230 300 346 423
#     4  12  25  41  70  99 146 188 233 279 345 402
#     4  12  28  44  73 101 144 181 227 300 347 410
#     4  11  25  44  67 102 141 177 245 282 353 399
#     4  12  26  45  70 108 141 187 232 284 349 422
#     4  11  26  47  73 101 143 174 243 279 355 424
#     4  11  24  42  68  98 135 194 231 293 329 414
#
# _framework density 22.519638
#
# number of rings (size 3 to 8) (size 9 to 14) (size 15 to 20)
#    0.000    0.571    1.429    5.571   10.000    3.429 
#    0.000    0.000    0.000    0.000    0.000    0.000 
#    0.000    0.000    0.000    0.000    0.000    0.000 
#
# Total GULP energy -78210.520140 kJ/mol
# GULP energy per Si atom -5586.465724 kJ/mol
# Density = 2.246838 g / cm^3
# Si number density = 22.519638 Si / 1000 Ang^3
#
#
#
# Elastic Constant Matrix: (Units=GPa)
#
#
# Indices 1 2 3 4 5 6 
#
# 1 16.5565 20.7733 -7.2307 -1.1422 -3.9099 -18.5579
# 2 20.7733 104.8429 15.3276 14.4452 -24.4835 -15.7417
# 3 -7.2307 15.3276 70.2113 19.2505 -15.7941 -7.9137
# 4 -1.1422 14.4452 19.2505 35.7781 -9.9213 -5.8700
# 5 -3.9099 -24.4835 -15.7941 -9.9213 40.0517 14.6739
# 6 -18.5579 -15.7417 -7.9137 -5.8700 14.6739 35.9523
#
#
#
# Elastic Compliance Matrix: (Units=1/GPa)
#
#
# Indices 1 2 3 4 5 6 
#
# 1 0.460757 -0.083275 0.070566 0.034218 -0.060129 0.247033
# 2 -0.083275 0.026617 -0.013077 -0.008787 0.016305 -0.042299
# 3 0.070566 -0.013077 0.028396 -0.002736 -0.004655 0.038403
# 4 0.034218 -0.008787 -0.002736 0.036972 -0.001181 0.019732
# 5 -0.060129 0.016305 -0.004655 -0.001181 0.042493 -0.042459
# 6 0.247033 -0.042299 0.038403 0.019732 -0.042459 0.165812
#
#
# Mechanical properties :
#
#
# Convention : Reuss Voigt Hill
#
# Bulk Modulus (GPa) = 2.15425 27.70568 14.92997
# Shear Modulus (GPa) = 5.16875 33.20581 19.18728
#
# Velocity S-wave (km/s) = 1.51664 3.84412 2.92211
# Velocity P-wave (km/s) = 2.00639 5.65974 4.24607
#
# Compressibility (1/GPa) = 0.46419908
#
# Stress axis : x y z
#
# Youngs Moduli (GPa) = 2.17034 37.56989 35.21577
#
# Poissons Ratio (x) = 3.12862 -2.48504
# Poissons Ratio (y) = 0.18073 0.46052
# Poissons Ratio (z) = -0.15315 0.49131
#
# Static dielectric constant tensor:
#      x y z
#    x 1.886600 0.012870 0.087660 
#    y 0.012870 1.855160 -0.059590 
#    z 0.087660 -0.059590 1.838060 
# 
# From -- ./inp_files/503529.got.cif
#   From: 2010.05.17/outbox.ucp.g08.bks.cvg/sg2_252_cif.got.tgz:503529.got - 2010.06.11 11:32:03.
