data_PCOD9075460
_publ_section_title
;
Structure prediction by ZEFSAII (Michael W. Deem and Ramdas Pophale) SiO2 
 PCOD9075460
Probable space group: P -1
;
_chemical_formula_sum "Si O2"
_cell_formula_units_Z 10
_cell_length_a 9.000000
_cell_length_b 9.000000
_cell_length_c 9.000000
_cell_angle_alpha 80.000000
_cell_angle_beta 150.000000
_cell_angle_gamma 100.000000
_cell_volume 358.561556
_symmetry_space_group_name_H-M "P -1"
_symmetry_group_IT_number 2
_symmetry_cell_setting 'triclinic'
loop_
_space_group_symop_operation_xyz
x,y,z
-x,-y,-z
loop_
_atom_site_type_symbol
_atom_site_label
_atom_site_fract_x
_atom_site_fract_y
_atom_site_fract_z
Si Si1 0.741902 0.692006 0.822826
Si Si2 0.985579 0.388206 0.216228
Si Si3 0.403229 0.356743 0.847254
Si Si4 0.803937 0.952613 0.202587
Si Si5 0.238579 0.892395 0.354699
O O1 0.762097 0.661904 0.669977
O O2 0.436423 0.755073 0.607315
O O3 0.840511 0.537452 0.005347
O O4 0.014161 0.810555 0.063274
O O5 0.160506 0.407889 0.514575
O O6 0.686365 0.290090 0.016579
O O7 0.248283 0.226657 0.833915
O O8 0.500000 0.500000 0.000000
O O9 0.026288 0.989026 0.254972
O O10 0.000000 0.000000 0.500000
O O11 0.500000 0.000000 0.000000
O O12 0.500000 0.000000 0.500000
#
# Coordination Sequence:
#
# PCOD9075460 Si02
#       5
#     2   2   2   2   2
#     4  11  25  47  74 114 155 195 261 318 391 454
#     4  11  25  45  79 111 152 199 254 329 385 464
#     4  12  26  47  78 110 154 204 266 318 395 463
#     4  12  29  50  76 113 157 204 261 320 392 468
#     4  12  27  47  77 107 159 205 262 314 381 469
#
# _framework density 27.889213999999999
#
# number of rings (size 3 to 8) (size 9 to 14) (size 15 to 20)
#    0.000    0.400    0.000    7.200    8.400    6.400 
#    0.000    0.000    0.000    0.000    0.000    0.000 
#    0.000    0.000    0.000    0.000    0.000    0.000 
#
# Total GULP energy -55822.540226 kJ/mol
# GULP energy per Si atom -5582.254023 kJ/mol
# Density = 2.782574 g / cm^3
# Si number density = 27.889214 Si / 1000 Ang^3
#
#
#
# Elastic Constant Matrix: (Units=GPa)
#
#
# Indices 1 2 3 4 5 6 
#
# 1 152.9132 54.8322 66.5462 -1.7134 27.0424 10.7255
# 2 54.8322 73.8336 37.6296 -5.8934 7.3301 15.6311
# 3 66.5462 37.6296 199.5945 -4.5749 17.0575 3.2718
# 4 -1.7134 -5.8934 -4.5749 21.1923 0.5282 14.7691
# 5 27.0424 7.3301 17.0575 0.5282 54.3439 -1.6121
# 6 10.7255 15.6311 3.2718 14.7691 -1.6121 40.1507
#
#
#
# Elastic Compliance Matrix: (Units=1/GPa)
#
#
# Indices 1 2 3 4 5 6 
#
# 1 0.010319 -0.006516 -0.001945 -0.001564 -0.003620 0.000369
# 2 -0.006516 0.022891 -0.001638 0.013959 0.000173 -0.012165
# 3 -0.001945 -0.001638 0.006026 0.000350 -0.000691 0.000510
# 4 -0.001564 0.013959 0.000350 0.073538 -0.002885 -0.032211
# 5 -0.003620 0.000173 -0.000691 -0.002885 0.020508 0.002841
# 6 0.000369 -0.012165 0.000510 -0.032211 0.002841 0.041465
#
#
# Mechanical properties :
#
#
# Convention : Reuss Voigt Hill
#
# Bulk Modulus (GPa) = 52.52711 82.70636 67.61674
# Shear Modulus (GPa) = 24.83963 40.95960 32.89961
#
# Velocity S-wave (km/s) = 2.98762 3.83646 3.43833
# Velocity P-wave (km/s) = 5.54763 7.02455 6.32932
#
# Compressibility (1/GPa) = 0.01903779
#
# Stress axis : x y z
#
# Youngs Moduli (GPa) = 96.90686 43.68600 165.94405
#
# Poissons Ratio (x) = 0.28466 0.32269
# Poissons Ratio (y) = 0.63145 0.27189
# Poissons Ratio (z) = 0.18844 0.07158
#
# Static dielectric constant tensor:
#      x y z
#    x 2.751670 -0.160370 -0.150810 
#    y -0.160370 2.428060 -0.044470 
#    z -0.150810 -0.044470 2.125480 
# 
# From -- ./inp_files/150615.got.cif
#   From: 2010.05.17/outbox.ucp.g08.bks.cvg/sg2_76_cif.got.tgz:150615.got - 2010.06.11 11:32:03.
