data_PCOD9075842
_publ_section_title
;
Structure prediction by ZEFSAII (Michael W. Deem and Ramdas Pophale) SiO2 
 PCOD9075842
Probable space group: P -1
;
_chemical_formula_sum "Si O2"
_cell_formula_units_Z 16
_cell_length_a 8.432355
_cell_length_b 17.981463
_cell_length_c 8.935444
_cell_angle_alpha 49.486055
_cell_angle_beta 89.008376
_cell_angle_gamma 60.710867
_cell_volume 800.786696
_symmetry_space_group_name_H-M "P -1"
_symmetry_group_IT_number 2
_symmetry_cell_setting 'triclinic'
loop_
_space_group_symop_operation_xyz
x,y,z
-x,-y,-z
loop_
_atom_site_type_symbol
_atom_site_label
_atom_site_fract_x
_atom_site_fract_y
_atom_site_fract_z
Si Si1 0.268663 0.485491 0.077953
Si Si2 0.902224 0.461405 0.438570
Si Si3 0.466019 0.027553 0.643422
Si Si4 0.523444 0.657145 0.011679
Si Si5 0.761891 0.382759 0.799903
Si Si6 0.872018 0.682364 0.655582
Si Si7 0.229573 0.941013 0.716788
Si Si8 0.912887 0.905032 0.782059
O O1 0.292220 0.518898 0.198432
O O2 0.207654 0.395460 0.207566
O O3 0.457017 0.407949 0.060400
O O4 0.080374 0.615295 0.833709
O O5 0.750858 0.578483 0.175961
O O6 0.787423 0.426174 0.586364
O O7 0.000000 0.500000 0.500000
O O8 0.064495 0.344155 0.484319
O O9 0.299273 0.174336 0.486600
O O10 0.500000 0.000000 0.500000
O O11 0.365777 0.963547 0.781275
O O12 0.689080 0.975164 0.763570
O O13 0.406661 0.635420 0.160946
O O14 0.392695 0.806034 0.808953
O O15 0.968943 0.243269 0.016545
O O16 0.060761 0.934839 0.801718
O O17 0.117575 0.049168 0.450158
#
# Coordination Sequence:
#
# PCOD9075842 Si02
#       8
#     2   2   2   2   2   2   2   2
#     4  10  18  33  58  87 117 142 196 253 293 343
#     4  11  23  40  59  79 121 163 193 234 292 356
#     4  10  18  32  56  81 111 148 186 236 297 335
#     4  10  22  36  60  88 117 151 195 245 297 349
#     4  11  21  37  59  87 120 154 192 237 303 353
#     4  10  21  35  55  90 114 152 201 240 286 355
#     4   9  18  34  55  84 116 146 188 239 296 343
#     4   9  19  32  55  85 113 148 189 237 288 350
#
# _framework density 19.980352
#
# number of rings (size 3 to 8) (size 9 to 14) (size 15 to 20)
#    0.000    2.000    1.250    3.750    1.750    0.000 
#    0.000    3.125    0.000    1.500    0.000    0.000 
#    0.000    0.000    0.000    0.000    0.000    0.000 
#
# Total GULP energy -89197.478476 kJ/mol
# GULP energy per Si atom -5574.842405 kJ/mol
# Density = 1.993488 g / cm^3
# Si number density = 19.980352 Si / 1000 Ang^3
#
#
#
# Elastic Constant Matrix: (Units=GPa)
#
#
# Indices 1 2 3 4 5 6 
#
# 1 89.0680 24.3736 1.7873 -10.1576 -3.2284 -9.3399
# 2 24.3736 117.1927 42.8991 -20.1014 6.6500 -13.5192
# 3 1.7873 42.8991 66.0526 -16.2325 0.1190 -6.9928
# 4 -10.1576 -20.1014 -16.2325 37.5134 -10.3586 -0.9630
# 5 -3.2284 6.6500 0.1190 -10.3586 26.2173 -0.7422
# 6 -9.3399 -13.5192 -6.9928 -0.9630 -0.7422 26.5314
#
#
#
# Elastic Compliance Matrix: (Units=1/GPa)
#
#
# Indices 1 2 3 4 5 6 
#
# 1 0.013059 -0.002780 0.003038 0.004646 0.004256 0.004269
# 2 -0.002780 0.012714 -0.007222 0.002335 -0.002510 0.003611
# 3 0.003038 -0.007222 0.022120 0.008114 0.005415 0.003666
# 4 0.004646 0.002335 0.008114 0.036914 0.014718 0.006715
# 5 0.004256 -0.002510 0.005415 0.014718 0.045191 0.003445
# 6 0.004269 0.003611 0.003666 0.006715 0.003445 0.042340
#
#
# Mechanical properties :
#
#
# Convention : Reuss Voigt Hill
#
# Bulk Modulus (GPa) = 29.44158 45.60369 37.52264
# Shear Modulus (GPa) = 25.30524 31.60265 28.45395
#
# Velocity S-wave (km/s) = 3.56266 3.98136 3.77781
# Velocity P-wave (km/s) = 5.62945 6.63391 6.15221
#
# Compressibility (1/GPa) = 0.03396557
#
# Stress axis : x y z
#
# Youngs Moduli (GPa) = 76.57559 78.65224 45.20836
#
# Poissons Ratio (x) = 0.21868 -0.13736
# Poissons Ratio (y) = 0.21291 0.32648
# Poissons Ratio (z) = -0.23266 0.56800
#
# Static dielectric constant tensor:
#      x y z
#    x 1.825150 -0.015010 0.011460 
#    y -0.015010 1.679170 0.001380 
#    z 0.011460 0.001380 1.697670 
# 
# From -- ./inp_files/158706.got.cif
#   From: 2010.05.17/outbox.cif.g08.bks.cpg/sg2_80_cif.got.tgz:158706.got - 2010.06.03 11:33:40.
