data_PCOD9075856
_publ_section_title
;
Structure prediction by ZEFSAII (Michael W. Deem and Ramdas Pophale) SiO2 
 PCOD9075856
Probable space group: P -1
;
_chemical_formula_sum "Si O2"
_cell_formula_units_Z 16
_cell_length_a 6.308453
_cell_length_b 9.502706
_cell_length_c 15.273916
_cell_angle_alpha 127.595316
_cell_angle_beta 100.345836
_cell_angle_gamma 64.212993
_cell_volume 648.501978
_symmetry_space_group_name_H-M "P -1"
_symmetry_group_IT_number 2
_symmetry_cell_setting 'triclinic'
loop_
_space_group_symop_operation_xyz
x,y,z
-x,-y,-z
loop_
_atom_site_type_symbol
_atom_site_label
_atom_site_fract_x
_atom_site_fract_y
_atom_site_fract_z
Si Si1 0.813306 0.186565 0.606567
Si Si2 0.624242 0.502270 0.266712
Si Si3 0.086421 0.280674 0.120621
Si Si4 0.790134 0.189885 0.926941
Si Si5 0.532275 0.795221 0.748845
Si Si6 0.238649 0.557013 0.461118
Si Si7 0.040616 0.950055 0.700528
Si Si8 0.325782 0.453558 0.069582
O O1 0.522805 0.278469 0.622627
O O2 0.826314 0.352671 0.607224
O O3 0.000000 0.000000 0.500000
O O4 0.907721 0.123590 0.687295
O O5 0.580708 0.343310 0.263488
O O6 0.491617 0.508873 0.168369
O O7 0.894034 0.421035 0.228240
O O8 0.326133 0.156551 0.144832
O O9 0.155549 0.405090 0.102105
O O10 0.961673 0.168752 0.013345
O O11 0.792709 0.373177 0.941314
O O12 0.516417 0.264638 0.962193
O O13 0.891496 0.007851 0.800418
O O14 0.722480 0.664304 0.640181
O O15 0.298661 0.945992 0.740640
O O16 0.500000 0.500000 0.500000
O O17 0.081155 0.740679 0.580634
#
# Coordination Sequence:
#
# PCOD9075856 Si02
#       8
#     2   2   2   2   2   2   2   2
#     4   9  16  29  56  84 104 139 181 227 273 317
#     4   9  17  34  57  78 105 150 189 222 275 331
#     4  10  20  34  56  80 110 150 190 225 270 338
#     4  10  19  32  54  83 113 144 186 227 284 324
#     4   9  19  35  56  79 111 150 184 223 278 331
#     4   8  16  32  57  82 105 144 183 216 273 332
#     4  10  18  32  56  83 111 144 184 231 276 327
#     4   9  18  34  53  79 109 150 184 230 275 332
#
# _framework density 24.672246999999999
#
# number of rings (size 3 to 8) (size 9 to 14) (size 15 to 20)
#    0.000    2.750    1.250    0.375    0.000    0.500 
#    0.000    6.875    0.000   43.500    0.000    0.000 
#    0.000    0.000    0.000    0.000    0.000    0.000 
#
# Total GULP energy -89077.168687 kJ/mol
# GULP energy per Si atom -5567.323043 kJ/mol
# Density = 2.461609 g / cm^3
# Si number density = 24.672247 Si / 1000 Ang^3
#
#
#
# Elastic Constant Matrix: (Units=GPa)
#
#
# Indices 1 2 3 4 5 6 
#
# 1 81.7385 54.1602 42.4411 -2.4142 -28.9899 2.7648
# 2 54.1602 129.9559 19.4598 0.7683 -10.1233 1.7565
# 3 42.4411 19.4598 126.5128 16.0801 -26.7769 -8.6483
# 4 -2.4142 0.7683 16.0801 45.1686 -19.8268 4.6283
# 5 -28.9899 -10.1233 -26.7769 -19.8268 32.3692 -0.5760
# 6 2.7648 1.7565 -8.6483 4.6283 -0.5760 15.4507
#
#
#
# Elastic Compliance Matrix: (Units=1/GPa)
#
#
# Indices 1 2 3 4 5 6 
#
# 1 0.039312 -0.012164 -0.006916 0.023911 0.040058 -0.015192
# 2 -0.012164 0.011829 0.001126 -0.005841 -0.009790 0.002847
# 3 -0.006916 0.001126 0.011464 -0.005103 0.000677 0.009080
# 4 0.023911 -0.005841 -0.005103 0.046299 0.043392 -0.018722
# 5 0.040058 -0.009790 0.000677 0.043392 0.090574 -0.015298
# 6 -0.015192 0.002847 0.009080 -0.018722 -0.015298 0.077238
#
#
# Mechanical properties :
#
#
# Convention : Reuss Voigt Hill
#
# Bulk Modulus (GPa) = 37.45685 63.36994 50.41340
# Shear Modulus (GPa) = 15.55101 33.40743 24.47922
#
# Velocity S-wave (km/s) = 2.51331 3.68373 3.15330
# Velocity P-wave (km/s) = 4.86179 6.62070 5.80821
#
# Compressibility (1/GPa) = 0.02669739
#
# Stress axis : x y z
#
# Youngs Moduli (GPa) = 25.43731 84.53757 87.22955
#
# Poissons Ratio (x) = 1.02829 0.60330
# Poissons Ratio (y) = 0.30941 -0.09822
# Poissons Ratio (z) = 0.17593 -0.09519
#
# Static dielectric constant tensor:
#      x y z
#    x 2.036810 0.000700 -0.049170 
#    y 0.000700 1.935290 0.032710 
#    z -0.049170 0.032710 2.154480 
# 
# From -- ./inp_files/549209.got.cif
#   From: 2010.05.17/outbox.cif.g08.bks.cpg/sg2_275_cif.got.tgz:549209.got - 2010.06.03 11:33:40.
