data_PCOD9075324
_publ_section_title
;
Structure prediction by ZEFSAII (Michael W. Deem and Ramdas Pophale) SiO2 
 PCOD9075324
Probable space group: P -1
;
_chemical_formula_sum "Si O2"
_cell_formula_units_Z 16
_cell_length_a 9.000000
_cell_length_b 15.000000
_cell_length_c 12.000000
_cell_angle_alpha 80.000000
_cell_angle_beta 30.000000
_cell_angle_gamma 70.000000
_cell_volume 734.803614
_symmetry_space_group_name_H-M "P -1"
_symmetry_group_IT_number 2
_symmetry_cell_setting 'triclinic'
loop_
_space_group_symop_operation_xyz
x,y,z
-x,-y,-z
loop_
_atom_site_type_symbol
_atom_site_label
_atom_site_fract_x
_atom_site_fract_y
_atom_site_fract_z
Si Si1 0.901747 0.904784 0.573530
Si Si2 0.704499 0.326995 0.902050
Si Si3 0.799737 0.759678 0.833025
Si Si4 0.653837 0.036941 0.269027
Si Si5 0.458801 0.570142 0.404581
Si Si6 0.650162 0.499011 0.736318
Si Si7 0.582187 0.746636 0.211271
Si Si8 0.643458 0.831621 0.391859
O O1 0.775763 0.863847 0.773687
O O2 0.642695 0.927328 0.636003
O O3 0.233919 0.808348 0.364970
O O4 0.000000 0.000000 0.500000
O O5 0.686893 0.396807 0.793197
O O6 0.053247 0.253530 0.731521
O O7 0.488302 0.265613 0.027438
O O8 0.560677 0.407219 0.075375
O O9 0.115320 0.663146 0.616177
O O10 0.805584 0.756728 0.964574
O O11 0.627023 0.128754 0.345901
O O12 0.684346 0.934136 0.327618
O O13 0.000000 0.000000 0.000000
O O14 0.500000 0.500000 0.500000
O O15 0.479132 0.501411 0.302143
O O16 0.668383 0.633805 0.218149
O O17 0.000000 0.500000 0.500000
O O18 0.570258 0.800534 0.324950
#
# Coordination Sequence:
#
# PCOD9075324 Si02
#       8
#     2   2   2   2   2   2   2   2
#     4  11  24  48  73 103 142 183 239 301 356 435
#     4  11  24  44  72 101 141 191 240 296 352 433
#     4  11  24  44  71 100 137 197 235 286 366 424
#     4  11  25  47  73 103 141 183 236 298 363 425
#     4  11  26  43  67 103 142 181 238 298 352 419
#     4  11  24  43  68 102 142 192 242 288 361 426
#     4  11  25  47  67 101 144 187 236 292 358 436
#     4  11  26  44  69 103 139 181 237 296 356 422
#
# _framework density 21.774525000000001
#
# number of rings (size 3 to 8) (size 9 to 14) (size 15 to 20)
#    0.000    1.000    3.750    1.500    5.250    5.000 
#    0.000    0.000    0.000    0.000    0.000    0.000 
#    0.000    0.000    0.000    0.000    0.000    0.000 
#
# Total GULP energy -89214.368424 kJ/mol
# GULP energy per Si atom -5575.898026 kJ/mol
# Density = 2.172497 g / cm^3
# Si number density = 21.774525 Si / 1000 Ang^3
#
#
#
# Elastic Constant Matrix: (Units=GPa)
#
#
# Indices 1 2 3 4 5 6 
#
# 1 51.0120 24.1990 21.8796 25.6632 49.8759 10.1837
# 2 24.1990 145.1764 28.9718 -8.1839 22.0553 -9.3479
# 3 21.8796 28.9718 71.1489 12.4302 16.7788 1.1024
# 4 25.6632 -8.1839 12.4302 32.1776 -13.1397 -7.3240
# 5 49.8759 22.0553 16.7788 -13.1397 28.8476 -2.6852
# 6 10.1837 -9.3479 1.1024 -7.3240 -2.6852 42.0179
#
#
#
# Elastic Compliance Matrix: (Units=1/GPa)
#
#
# Indices 1 2 3 4 5 6 
#
# 1 -0.004775 0.000277 -0.005708 0.014854 0.018609 0.005147
# 2 0.000277 0.008250 -0.002743 0.001607 -0.004287 0.001847
# 3 -0.005708 -0.002743 0.017137 -0.002408 0.000898 -0.000039
# 4 0.014854 0.001607 -0.002408 0.011672 -0.020422 -0.002450
# 5 0.018609 -0.004287 0.000898 -0.020422 -0.004928 -0.009362
# 6 0.005147 0.001847 -0.000039 -0.002450 -0.009362 0.021938
#
#
# Mechanical properties :
#
#
# Convention : Reuss Voigt Hill
#
# Bulk Modulus (GPa) = 234.54506 46.38198 140.46352
# Shear Modulus (GPa) = 74.55533 33.42776 53.99154
#
# Velocity S-wave (km/s) = 5.85782 3.92238 4.98493
# Velocity P-wave (km/s) = 12.39763 6.46999 9.88843
#
# Compressibility (1/GPa) = 0.00426357
#
# Stress axis : x y z
#
# Youngs Moduli (GPa) = -209.41793 121.20935 58.35417
#
# Poissons Ratio (x) = -0.03353 0.33307
# Poissons Ratio (y) = 0.05793 0.16007
# Poissons Ratio (z) = -1.19529 0.33249
#
# Static dielectric constant tensor:
#      x y z
#    x 3.303140 -0.597940 2.088320 
#    y -0.597940 2.023530 -0.889790 
#    z 2.088320 -0.889790 4.714260 
# 
# From -- ./inp_files/117191.got.cif
#   From: 2010.05.17/outbox.ucp.g08.bks.cvg/sg2_59_cif.got.tgz:117191.got - 2010.06.11 11:32:03.
