data_PCOD9075596
_publ_section_title
;
Structure prediction by ZEFSAII (Michael W. Deem and Ramdas Pophale) SiO2 
 PCOD9075596
Probable space group: P -1
;
_chemical_formula_sum "Si O2"
_cell_formula_units_Z 14
_cell_length_a 15.000000
_cell_length_b 15.000000
_cell_length_c 27.000000
_cell_angle_alpha 20.000000
_cell_angle_beta 160.000000
_cell_angle_gamma 160.000000
_cell_volume 621.679612
_symmetry_space_group_name_H-M "P -1"
_symmetry_group_IT_number 2
_symmetry_cell_setting 'triclinic'
loop_
_space_group_symop_operation_xyz
x,y,z
-x,-y,-z
loop_
_atom_site_type_symbol
_atom_site_label
_atom_site_fract_x
_atom_site_fract_y
_atom_site_fract_z
Si Si1 0.754436 0.740473 0.042710
Si Si2 0.239894 0.826945 0.097381
Si Si3 0.280025 0.616577 0.999564
Si Si4 0.151011 0.157204 0.303749
Si Si5 0.105421 0.755541 0.584161
Si Si6 0.260465 0.415499 0.668838
Si Si7 0.553249 0.603312 0.530147
O O1 0.820236 0.514972 0.228835
O O2 0.500000 0.500000 0.000000
O O3 0.693797 0.947320 0.940408
O O4 0.000000 0.000000 0.000000
O O5 0.249228 0.530665 0.273785
O O6 0.904986 0.674725 0.979899
O O7 0.508035 0.048793 0.085799
O O8 0.009913 0.647217 0.868616
O O9 0.514052 0.559423 0.182908
O O10 0.494524 0.369409 0.356180
O O11 0.145961 0.931935 0.461722
O O12 0.932375 0.928920 0.267715
O O13 0.760213 0.582596 0.509067
O O14 0.299024 0.040353 0.572609
O O15 0.000000 0.500000 0.500000
O O16 0.500000 0.500000 0.500000
#
# Coordination Sequence:
#
# PCOD9075596 Si02
#       7
#     2   2   2   2   2   2   2
#     4  12  27  48  69 105 151 202 245 302 377 440
#     4  12  24  45  73 108 149 192 252 306 366 441
#     4  12  25  48  75 112 146 195 249 307 374 436
#     4  12  24  49  77 106 152 189 251 306 373 443
#     4  12  25  45  73 106 144 194 248 301 373 435
#     4  12  28  48  75 112 150 195 242 306 377 456
#     4  12  23  43  72 107 144 187 249 310 357 435
#
# _framework density 22.519638
#
# number of rings (size 3 to 8) (size 9 to 14) (size 15 to 20)
#    0.000    0.000    2.857    7.714    2.000    0.000 
#    0.000    0.000    0.000    0.000    0.000    0.000 
#    0.000    0.000    0.000    0.000    0.000    0.000 
#
# Total GULP energy -78214.687472 kJ/mol
# GULP energy per Si atom -5586.763391 kJ/mol
# Density = 2.246838 g / cm^3
# Si number density = 22.519638 Si / 1000 Ang^3
#
#
#
# Elastic Constant Matrix: (Units=GPa)
#
#
# Indices 1 2 3 4 5 6 
#
# 1 44.7136 19.1532 5.4224 16.0920 3.5697 28.4898
# 2 19.1532 164.0117 4.8963 1.9314 8.2958 0.4535
# 3 5.4224 4.8963 -19.3818 11.6424 -6.8540 102.1071
# 4 16.0920 1.9314 11.6424 50.8357 -2.3355 -10.0495
# 5 3.5697 8.2958 -6.8540 -2.3355 28.3454 4.9616
# 6 28.4898 0.4535 102.1071 -10.0495 4.9616 -9.6252
#
#
#
# Elastic Compliance Matrix: (Units=1/GPa)
#
#
# Indices 1 2 3 4 5 6 
#
# 1 0.029606 -0.002820 -0.009019 -0.007955 -0.005285 -0.002597
# 2 -0.002820 0.006462 0.000845 0.000370 -0.001279 -0.000128
# 3 -0.009019 0.000845 0.003887 0.004029 0.000317 0.010532
# 4 -0.007955 0.000370 0.004029 0.021230 0.003792 -0.000997
# 5 -0.005285 -0.001279 0.000317 0.003792 0.036287 0.002406
# 6 -0.002597 -0.000128 0.010532 -0.000997 0.002406 0.002418
#
#
# Mechanical properties :
#
#
# Convention : Reuss Voigt Hill
#
# Bulk Modulus (GPa) = 55.66177 27.58746 41.62462
# Shear Modulus (GPa) = 39.10349 24.56929 31.83639
#
# Velocity S-wave (km/s) = 4.17155 3.30664 3.76402
# Velocity P-wave (km/s) = 6.92626 5.18223 6.11672
#
# Compressibility (1/GPa) = 0.01796565
#
# Stress axis : x y z
#
# Youngs Moduli (GPa) = 33.77750 154.75300 257.29238
#
# Poissons Ratio (x) = 0.43639 2.32049
# Poissons Ratio (y) = 0.09525 -0.21731
# Poissons Ratio (z) = 0.30464 -0.13070
#
# Static dielectric constant tensor:
#      x y z
#    x 1.970800 -0.031780 -0.024460 
#    y -0.031780 1.778660 0.036490 
#    z -0.024460 0.036490 1.873590 
# 
# From -- ./inp_files/619633.got.cif
#   From: 2010.05.17/outbox.ucp.g08.bks.cvg/sg2_310_cif.got.tgz:619633.got - 2010.06.11 11:32:03.
