data_PCOD9075776
_publ_section_title
;
Structure prediction by ZEFSAII (Michael W. Deem and Ramdas Pophale) SiO2 
 PCOD9075776
Probable space group: P -1
;
_chemical_formula_sum "Si O2"
_cell_formula_units_Z 16
_cell_length_a 20.549819
_cell_length_b 10.597356
_cell_length_c 7.120303
_cell_angle_alpha 128.951024
_cell_angle_beta 124.300896
_cell_angle_gamma 27.913089
_cell_volume 564.377308
_symmetry_space_group_name_H-M "P -1"
_symmetry_group_IT_number 2
_symmetry_cell_setting 'triclinic'
loop_
_space_group_symop_operation_xyz
x,y,z
-x,-y,-z
loop_
_atom_site_type_symbol
_atom_site_label
_atom_site_fract_x
_atom_site_fract_y
_atom_site_fract_z
Si Si1 0.121845 0.409173 0.823317
Si Si2 0.032673 0.992571 0.827475
Si Si3 0.661610 0.738413 0.006317
Si Si4 0.801292 0.176015 0.554307
Si Si5 0.739870 0.189496 0.869206
Si Si6 0.376393 0.115834 0.515332
Si Si7 0.522624 0.525078 0.269295
Si Si8 0.878784 0.625828 0.663584
O O1 0.111619 0.421799 0.590812
O O2 0.037234 0.402941 0.768183
O O3 0.281920 0.185016 0.905438
O O4 0.045449 0.703237 0.038766
O O5 0.957117 0.976415 0.572512
O O6 0.193656 0.776237 0.869286
O O7 0.000000 0.000000 0.000000
O O8 0.725144 0.477874 0.758807
O O9 0.686529 0.687832 0.222228
O O10 0.500000 0.000000 0.000000
O O11 0.815066 0.067942 0.677453
O O12 0.683962 0.273462 0.345360
O O13 0.580562 0.433754 0.768195
O O14 0.793736 0.938595 0.825507
O O15 0.230974 0.310705 0.360917
O O16 0.500000 0.000000 0.500000
O O17 0.450355 0.825084 0.439465
O O18 0.500000 0.500000 0.000000
#
# Coordination Sequence:
#
# PCOD9075776 Si02
#       8
#     2   2   2   2   2   2   2   2
#     4   8  14  26  49  77 104 134 169 228 270 311
#     4   8  15  29  52  81 106 130 176 229 272 319
#     4  10  18  32  55  83 107 137 184 231 275 320
#     4  10  19  34  57  84 109 139 183 234 273 323
#     4   9  18  33  54  80 107 140 178 229 272 327
#     4  10  21  36  54  77 109 148 185 226 272 331
#     4  11  23  37  51  79 114 151 181 220 281 331
#     4   8  15  30  50  77 106 136 178 221 273 324
#
# _framework density 28.349829
#
# number of rings (size 3 to 8) (size 9 to 14) (size 15 to 20)
#    0.000    2.750    1.250    0.375    1.750    0.000 
#    0.000    0.625    0.000    0.750    0.000    0.000 
#    0.000    0.000    0.000    0.000    0.000    0.000 
#
# Total GULP energy -89202.570694 kJ/mol
# GULP energy per Si atom -5575.160668 kJ/mol
# Density = 2.828530 g / cm^3
# Si number density = 28.349829 Si / 1000 Ang^3
#
#
#
# Elastic Constant Matrix: (Units=GPa)
#
#
# Indices 1 2 3 4 5 6 
#
# 1 157.1524 40.5133 52.5496 -40.3293 40.8924 -68.0542
# 2 40.5133 115.6885 39.7952 -38.0803 42.7083 -38.6042
# 3 52.5496 39.7952 125.3164 -34.3719 31.4077 -28.8229
# 4 -40.3293 -38.0803 -34.3719 49.3884 -28.8047 29.9009
# 5 40.8924 42.7083 31.4077 -28.8047 59.8211 -23.1960
# 6 -68.0542 -38.6042 -28.8229 29.9009 -23.1960 52.0222
#
#
#
# Elastic Compliance Matrix: (Units=1/GPa)
#
#
# Indices 1 2 3 4 5 6 
#
# 1 0.016413 0.003561 -0.002192 -0.001181 -0.004881 0.021402
# 2 0.003561 0.014795 -0.001251 0.003462 -0.006831 0.009909
# 3 -0.002192 -0.001251 0.010632 0.004468 -0.001478 -0.001132
# 4 -0.001181 0.003462 0.004468 0.039596 0.009174 -0.015169
# 5 -0.004881 -0.006831 -0.001478 0.009174 0.028195 -0.004975
# 6 0.021402 0.009909 -0.001132 -0.015169 -0.004975 0.060446
#
#
# Mechanical properties :
#
#
# Convention : Reuss Voigt Hill
#
# Bulk Modulus (GPa) = 23.76618 73.76373 48.76496
# Shear Modulus (GPa) = 27.19381 49.93294 38.56338
#
# Velocity S-wave (km/s) = 3.10049 4.20135 3.69218
# Velocity P-wave (km/s) = 4.60639 7.04349 5.95103
#
# Compressibility (1/GPa) = 0.04207659
#
# Stress axis : x y z
#
# Youngs Moduli (GPa) = 60.92669 67.59127 94.05829
#
# Poissons Ratio (x) = -0.24069 0.20613
# Poissons Ratio (y) = -0.21696 0.11766
# Poissons Ratio (z) = 0.13352 0.08455
#
# Static dielectric constant tensor:
#      x y z
#    x 2.213770 -0.203880 0.304700 
#    y -0.203880 2.791010 -0.551540 
#    z 0.304700 -0.551540 2.669120 
# 
# From -- ./inp_files/346383.got.cif
#   From: 2010.05.17/outbox.cif.g08.bks.cpg/sg2_174_cif.got.tgz:346383.got - 2010.06.03 11:33:40.
