data_PCOD9075219
_publ_section_title
;
Structure prediction by ZEFSAII (Michael W. Deem and Ramdas Pophale) SiO2 
 PCOD9075219
Probable space group: P -1
;
_chemical_formula_sum "Si O2"
_cell_formula_units_Z 16
_cell_length_a 12.000000
_cell_length_b 9.000000
_cell_length_c 15.000000
_cell_angle_alpha 110.000000
_cell_angle_beta 30.000000
_cell_angle_gamma 100.000000
_cell_volume 734.803614
_symmetry_space_group_name_H-M "P -1"
_symmetry_group_IT_number 2
_symmetry_cell_setting 'triclinic'
loop_
_space_group_symop_operation_xyz
x,y,z
-x,-y,-z
loop_
_atom_site_type_symbol
_atom_site_label
_atom_site_fract_x
_atom_site_fract_y
_atom_site_fract_z
Si Si1 0.222906 0.381292 0.777384
Si Si2 0.203694 0.221718 0.461337
Si Si3 0.410501 0.529849 0.967268
Si Si4 0.593224 0.111960 0.029493
Si Si5 0.114593 0.091038 0.691223
Si Si6 0.888377 0.346118 0.547178
Si Si7 0.101326 0.520080 0.705102
Si Si8 0.276222 0.742747 0.530435
O O1 0.150432 0.217701 0.766405
O O2 0.458380 0.362918 0.664585
O O3 0.241677 0.453126 0.681457
O O4 0.000000 0.500000 0.000000
O O5 0.430423 0.130855 0.232734
O O6 0.153193 0.146967 0.574628
O O7 0.998331 0.240972 0.535003
O O8 0.211598 0.405366 0.521166
O O9 0.428250 0.708671 0.962135
O O10 0.613048 0.400948 0.751784
O O11 0.500000 0.500000 0.000000
O O12 0.160202 0.499915 0.117122
O O13 0.858961 0.064449 0.864379
O O14 0.500000 0.000000 0.000000
O O15 0.299392 0.924211 0.548533
O O16 0.908528 0.261612 0.421330
O O17 0.000000 0.500000 0.500000
O O18 0.136131 0.697033 0.701016
#
# Coordination Sequence:
#
# PCOD9075219 Si02
#       8
#     2   2   2   2   2   2   2   2
#     4  11  25  49  75  98 134 185 242 294 353 417
#     4  11  23  44  68 100 143 190 222 284 360 412
#     4  12  21  38  64 100 141 177 236 282 334 419
#     4  12  25  40  67 101 147 186 224 282 355 423
#     4  11  27  49  68 105 147 181 233 298 354 418
#     4  12  21  37  69 101 138 179 234 284 346 419
#     4  11  23  44  71 101 136 187 234 293 345 418
#     4  12  25  44  72 101 139 182 239 290 351 419
#
# _framework density 21.774525000000001
#
# number of rings (size 3 to 8) (size 9 to 14) (size 15 to 20)
#    0.000    0.500    6.250    2.250    3.500    3.000 
#    2.250    0.625    0.000    0.000    0.000    0.000 
#    0.000    0.000    0.000    0.000    0.000    0.000 
#
# Total GULP energy -89207.526250 kJ/mol
# GULP energy per Si atom -5575.470391 kJ/mol
# Density = 2.172497 g / cm^3
# Si number density = 21.774525 Si / 1000 Ang^3
#
#
#
# Elastic Constant Matrix: (Units=GPa)
#
#
# Indices 1 2 3 4 5 6 
#
# 1 128.6763 30.5206 35.2067 -0.3495 -12.1246 13.2871
# 2 30.5206 69.5777 28.9631 -2.2010 -12.8701 3.7490
# 3 35.2067 28.9631 104.3686 -18.1048 -13.5867 5.4191
# 4 -0.3495 -2.2010 -18.1048 10.5427 7.8450 -19.3119
# 5 -12.1246 -12.8701 -13.5867 7.8450 30.1420 1.2377
# 6 13.2871 3.7490 5.4191 -19.3119 1.2377 16.8646
#
#
#
# Elastic Compliance Matrix: (Units=1/GPa)
#
#
# Indices 1 2 3 4 5 6 
#
# 1 0.008116 -0.003541 -0.000557 0.009420 -0.001173 0.005444
# 2 -0.003541 0.017616 -0.002712 0.004289 0.003578 0.004394
# 3 -0.000557 -0.002712 0.010570 -0.007445 0.005785 -0.011305
# 4 0.009420 0.004289 -0.007445 -0.051231 0.018308 -0.065992
# 5 -0.001173 0.003578 0.005785 0.018308 0.031379 0.016932
# 6 0.005444 0.004394 -0.011305 -0.065992 0.016932 -0.019149
#
#
# Mechanical properties :
#
#
# Convention : Reuss Voigt Hill
#
# Bulk Modulus (GPa) = 44.08710 54.66707 49.37708
# Shear Modulus (GPa) = 270.51683 25.37199 147.94441
#
# Velocity S-wave (km/s) = 11.15819 3.41723 8.25175
# Velocity P-wave (km/s) = 13.64910 6.38204 10.65430
#
# Compressibility (1/GPa) = 0.02268237
#
# Stress axis : x y z
#
# Youngs Moduli (GPa) = 123.20648 56.76817 94.60362
#
# Poissons Ratio (x) = 0.20102 0.05266
# Poissons Ratio (y) = 0.43628 0.25660
# Poissons Ratio (z) = 0.06858 0.15398
#
# Static dielectric constant tensor:
#      x y z
#    x 1.603150 -0.063520 -0.137610 
#    y -0.063520 1.803580 -0.016800 
#    z -0.137610 -0.016800 1.654850 
# 
# From -- ./inp_files/278810.got.cif
#   From: 2010.05.17/outbox.ucp.g08.bks.cvg/sg2_140_cif.got.tgz:278810.got - 2010.06.11 11:32:03.
