data_PCOD9075304
_publ_section_title
;
Structure prediction by ZEFSAII (Michael W. Deem and Ramdas Pophale) SiO2 
 PCOD9075304
Probable space group: P -1
;
_chemical_formula_sum "Si O2"
_cell_formula_units_Z 16
_cell_length_a 9.000000
_cell_length_b 27.000000
_cell_length_c 12.000000
_cell_angle_alpha 150.000000
_cell_angle_beta 150.000000
_cell_angle_gamma 40.000000
_cell_volume 727.497153
_symmetry_space_group_name_H-M "P -1"
_symmetry_group_IT_number 2
_symmetry_cell_setting 'triclinic'
loop_
_space_group_symop_operation_xyz
x,y,z
-x,-y,-z
loop_
_atom_site_type_symbol
_atom_site_label
_atom_site_fract_x
_atom_site_fract_y
_atom_site_fract_z
Si Si1 0.313155 0.959379 0.186858
Si Si2 0.143031 0.087023 0.696676
Si Si3 0.111175 0.232593 0.160747
Si Si4 0.114888 0.366356 0.931306
Si Si5 0.261523 0.759894 0.881995
Si Si6 0.190829 0.593003 0.828097
Si Si7 0.108783 0.420580 0.773814
Si Si8 0.217875 0.742954 0.330055
O O1 0.560110 0.960963 0.256369
O O2 0.500000 0.000000 0.500000
O O3 0.270902 0.843455 0.958403
O O4 0.000000 0.000000 0.000000
O O5 0.945428 0.150938 0.601036
O O6 0.195249 0.168924 0.982874
O O7 0.000000 0.000000 0.500000
O O8 0.433180 0.252446 0.456277
O O9 0.882067 0.179691 0.988027
O O10 0.911538 0.329481 0.182652
O O11 0.421124 0.300583 0.020483
O O12 0.078093 0.476623 0.176676
O O13 0.087574 0.394256 0.839074
O O14 0.861616 0.297921 0.679912
O O15 0.027875 0.675462 0.553387
O O16 0.000000 0.500000 0.500000
O O17 0.544990 0.566529 0.003938
O O18 0.113230 0.655440 0.011003
#
# Coordination Sequence:
#
# PCOD9075304 Si02
#       8
#     2   2   2   2   2   2   2   2
#     4  12  31  52  83 118 150 199 254 322 391 461
#     4  11  27  48  73 106 146 187 251 310 388 462
#     4  11  25  43  70 100 139 194 239 304 374 449
#     4  11  25  43  68 102 147 189 254 297 383 437
#     4  12  25  46  74 101 150 191 253 310 379 456
#     4  11  24  42  66 102 144 189 252 303 367 448
#     4  11  25  42  69 104 144 202 243 314 368 458
#     4  11  25  44  71 102 140 192 242 308 379 446
#
# _framework density 21.993213000000001
#
# number of rings (size 3 to 8) (size 9 to 14) (size 15 to 20)
#    0.000    0.750    3.750    1.875    8.750    3.500 
#    0.000    0.000    0.000    0.000    0.000    0.000 
#    0.000    0.000    0.000    0.000    0.000    0.000 
#
# Total GULP energy -89205.055992 kJ/mol
# GULP energy per Si atom -5575.315999 kJ/mol
# Density = 2.194316 g / cm^3
# Si number density = 21.993213 Si / 1000 Ang^3
#
#
#
# Elastic Constant Matrix: (Units=GPa)
#
#
# Indices 1 2 3 4 5 6 
#
# 1 108.9547 59.8919 27.7020 4.0349 33.7351 -11.6401
# 2 59.8919 144.0360 40.7408 -14.0536 16.2219 -7.2743
# 3 27.7020 40.7408 65.8681 1.6687 3.5442 -6.1824
# 4 4.0349 -14.0536 1.6687 26.4158 -2.2629 11.8028
# 5 33.7351 16.2219 3.5442 -2.2629 32.2839 -0.4035
# 6 -11.6401 -7.2743 -6.1824 11.8028 -0.4035 38.2461
#
#
#
# Elastic Compliance Matrix: (Units=1/GPa)
#
#
# Indices 1 2 3 4 5 6 
#
# 1 0.020300 -0.006347 -0.002591 -0.011415 -0.018440 0.007880
# 2 -0.006347 0.011519 -0.005108 0.009089 0.002000 -0.003350
# 3 -0.002591 -0.005108 0.019664 -0.004604 0.002828 0.002869
# 4 -0.011415 0.009089 -0.004604 0.054243 0.011429 -0.019108
# 5 -0.018440 0.002000 0.002828 0.011429 0.049633 -0.007778
# 6 0.007880 -0.003350 0.002869 -0.019108 -0.007778 0.034186
#
#
# Mechanical properties :
#
#
# Convention : Reuss Voigt Hill
#
# Bulk Modulus (GPa) = 42.74882 63.94758 53.34820
# Shear Modulus (GPa) = 22.17951 32.09076 27.13514
#
# Velocity S-wave (km/s) = 3.17909 3.82399 3.51635
# Velocity P-wave (km/s) = 5.74064 6.97398 6.38715
#
# Compressibility (1/GPa) = 0.02339246
#
# Stress axis : x y z
#
# Youngs Moduli (GPa) = 49.26112 86.81371 50.85344
#
# Poissons Ratio (x) = 0.55102 0.13174
# Poissons Ratio (y) = 0.31267 0.25974
# Poissons Ratio (z) = 0.12762 0.44341
#
# Static dielectric constant tensor:
#      x y z
#    x 1.750150 -0.099460 -0.169380 
#    y -0.099460 1.720850 -0.039080 
#    z -0.169380 -0.039080 1.768640 
# 
# From -- ./inp_files/81292.got.cif
#   From: 2010.05.17/outbox.ucp.g08.bks.cvg/sg2_41_cif.got.tgz:81292.got - 2010.06.11 11:32:03.
