data_PCOD9075760
_publ_section_title
;
Structure prediction by ZEFSAII (Michael W. Deem and Ramdas Pophale) SiO2 
 PCOD9075760
Probable space group: P -1
;
_chemical_formula_sum "Si O2"
_cell_formula_units_Z 16
_cell_length_a 12.121990
_cell_length_b 9.291408
_cell_length_c 9.478887
_cell_angle_alpha 72.155562
_cell_angle_beta 75.650447
_cell_angle_gamma 55.701120
_cell_volume 835.690086
_symmetry_space_group_name_H-M "P -1"
_symmetry_group_IT_number 2
_symmetry_cell_setting 'triclinic'
loop_
_space_group_symop_operation_xyz
x,y,z
-x,-y,-z
loop_
_atom_site_type_symbol
_atom_site_label
_atom_site_fract_x
_atom_site_fract_y
_atom_site_fract_z
Si Si1 0.478987 0.143190 0.226988
Si Si2 0.354064 0.265200 0.699721
Si Si3 0.372768 0.736298 0.407782
Si Si4 0.213666 0.134412 0.365703
Si Si5 0.458371 0.595541 0.715998
Si Si6 0.671948 0.577775 0.039452
Si Si7 0.939108 0.505665 0.865302
Si Si8 0.888540 0.664942 0.395981
O O1 0.350104 0.138404 0.320865
O O2 0.510828 0.259428 0.284147
O O3 0.600353 0.940742 0.239531
O O4 0.438362 0.244329 0.059996
O O5 0.488319 0.264966 0.626235
O O6 0.301895 0.364043 0.835033
O O7 0.239288 0.350521 0.593689
O O8 0.363917 0.668239 0.585254
O O9 0.407912 0.587503 0.323463
O O10 0.255667 0.938925 0.358354
O O11 0.112493 0.301484 0.249455
O O12 0.160626 0.169402 0.532877
O O13 0.386711 0.545652 0.872843
O O14 0.807421 0.494931 0.932121
O O15 0.043437 0.353475 0.771205
O O16 0.000000 0.500000 0.000000
O O17 0.000000 0.500000 0.500000
#
# Coordination Sequence:
#
# PCOD9075760 Si02
#       8
#     2   2   2   2   2   2   2   2
#     4  10  19  32  54  85 111 136 172 220 281 321
#     4  10  18  32  55  81 108 137 177 229 265 317
#     4   9  19  34  54  81 109 139 174 217 279 323
#     4   9  19  34  57  85 107 131 183 230 261 320
#     4  10  19  32  51  80 114 143 169 210 275 337
#     4  10  20  33  51  79 110 146 176 216 268 329
#     4  10  19  35  54  79 105 141 184 227 264 301
#     4  10  19  31  52  82 105 136 179 226 265 302
#
# _framework density 19.145852999999999
#
# number of rings (size 3 to 8) (size 9 to 14) (size 15 to 20)
#    0.000    2.250    1.250    2.250    0.000    3.000 
#    0.000    0.000    0.000    3.750   13.000    0.000 
#    0.000    0.000    0.000    0.000    0.000    0.000 
#
# Total GULP energy -89205.753275 kJ/mol
# GULP energy per Si atom -5575.359580 kJ/mol
# Density = 1.910228 g / cm^3
# Si number density = 19.145853 Si / 1000 Ang^3
#
#
#
# Elastic Constant Matrix: (Units=GPa)
#
#
# Indices 1 2 3 4 5 6 
#
# 1 25.2022 8.9527 2.5214 -2.6543 7.0814 -3.3416
# 2 8.9527 68.1050 0.8968 2.3976 -11.7300 12.6315
# 3 2.5214 0.8968 70.5739 2.0710 -9.0170 -2.7654
# 4 -2.6543 2.3976 2.0710 22.7081 2.8169 2.2697
# 5 7.0814 -11.7300 -9.0170 2.8169 27.4332 0.3238
# 6 -3.3416 12.6315 -2.7654 2.2697 0.3238 26.3841
#
#
#
# Elastic Compliance Matrix: (Units=1/GPa)
#
#
# Indices 1 2 3 4 5 6 
#
# 1 0.053769 -0.013442 -0.004391 0.009637 -0.022204 0.012229
# 2 -0.013442 0.021041 0.001636 -0.004491 0.013600 -0.011385
# 3 -0.004391 0.001636 0.015328 -0.003018 0.007176 0.000439
# 4 0.009637 -0.004491 -0.003018 0.047272 -0.010243 -0.000887
# 5 -0.022204 0.013600 0.007176 -0.010243 0.051508 -0.008322
# 6 0.012229 -0.011385 0.000439 -0.000887 -0.008322 0.045125
#
#
# Mechanical properties :
#
#
# Convention : Reuss Voigt Hill
#
# Bulk Modulus (GPa) = 17.31764 20.95811 19.13787
# Shear Modulus (GPa) = 17.50183 25.40574 21.45379
#
# Velocity S-wave (km/s) = 3.02674 3.64670 3.35109
# Velocity P-wave (km/s) = 4.61298 5.35738 4.99906
#
# Compressibility (1/GPa) = 0.05774460
#
# Stress axis : x y z
#
# Youngs Moduli (GPa) = 18.59813 47.52697 65.23918
#
# Poissons Ratio (x) = 0.63886 0.28645
# Poissons Ratio (y) = 0.25000 -0.10674
# Poissons Ratio (z) = 0.08166 -0.07776
#
# Static dielectric constant tensor:
#      x y z
#    x 1.677320 -0.013260 -0.009880 
#    y -0.013260 1.679890 0.008680 
#    z -0.009880 0.008680 1.713870 
# 
# From -- ./inp_files/199693.got.cif
#   From: 2010.05.17/outbox.cif.g08.bks.cpg/sg2_100_cif.got.tgz:199693.got - 2010.06.03 11:33:40.
