data_PCOD9075863
_publ_section_title
;
Structure prediction by ZEFSAII (Michael W. Deem and Ramdas Pophale) SiO2 
 PCOD9075863
Probable space group: P -1
;
_chemical_formula_sum "Si O2"
_cell_formula_units_Z 14
_cell_length_a 9.861186
_cell_length_b 10.617379
_cell_length_c 15.136843
_cell_angle_alpha 117.218463
_cell_angle_beta 150.672679
_cell_angle_gamma 45.037818
_cell_volume 488.289080
_symmetry_space_group_name_H-M "P -1"
_symmetry_group_IT_number 2
_symmetry_cell_setting 'triclinic'
loop_
_space_group_symop_operation_xyz
x,y,z
-x,-y,-z
loop_
_atom_site_type_symbol
_atom_site_label
_atom_site_fract_x
_atom_site_fract_y
_atom_site_fract_z
Si Si1 0.410203 0.239023 0.912128
Si Si2 0.068328 0.726993 0.834675
Si Si3 0.590448 0.074430 0.194027
Si Si4 0.832336 0.912353 0.480177
Si Si5 0.628834 0.478758 0.429173
Si Si6 0.094320 0.417845 0.146644
Si Si7 0.302412 0.284792 0.549373
O O1 0.017624 0.386310 0.674918
O O2 0.313425 0.366540 0.984793
O O3 0.481984 0.054582 0.923594
O O4 0.778501 0.167303 0.046062
O O5 0.868467 0.747516 0.637957
O O6 0.860024 0.723201 0.797695
O O7 0.500000 0.500000 0.000000
O O8 0.966350 0.017909 0.346858
O O9 0.208409 0.303558 0.081521
O O10 0.737123 0.981135 0.347163
O O11 0.215241 0.673207 0.611279
O O12 0.556015 0.896887 0.366231
O O13 0.622472 0.547249 0.669924
O O14 0.444729 0.686676 0.348980
O O15 0.000000 0.500000 0.500000
#
# Coordination Sequence:
#
# PCOD9075863 Si02
#       7
#     2   2   2   2   2   2   2
#     4  10  19  33  57  82 110 147 186 223 281 326
#     4  10  20  34  54  88 114 146 186 225 283 335
#     4   9  18  35  55  82 110 148 188 226 279 327
#     4   8  17  31  52  82 113 144 187 231 272 331
#     4   9  16  30  55  85 105 145 188 226 271 320
#     4  10  19  32  58  86 110 140 198 231 258 338
#     4  10  18  32  56  84 115 149 184 229 280 330
#
# _framework density 28.67154
#
# number of rings (size 3 to 8) (size 9 to 14) (size 15 to 20)
#    0.000    2.571    2.857    1.286    0.000    0.571 
#    0.000    1.429    0.000   30.857    0.000    0.000 
#    0.000    0.000    0.000    0.000    0.000    0.000 
#
# Total GULP energy -78076.560925 kJ/mol
# GULP energy per Si atom -5576.897209 kJ/mol
# Density = 2.860628 g / cm^3
# Si number density = 28.671540 Si / 1000 Ang^3
#
#
#
# Elastic Constant Matrix: (Units=GPa)
#
#
# Indices 1 2 3 4 5 6 
#
# 1 190.0584 41.6261 57.6203 13.6687 40.8437 41.9496
# 2 41.6261 117.0956 17.4757 18.1218 10.3661 35.7429
# 3 57.6203 17.4757 83.0266 9.0464 13.3395 38.5174
# 4 13.6687 18.1218 9.0464 32.2760 3.2349 9.1408
# 5 40.8437 10.3661 13.3395 3.2349 54.5103 20.7047
# 6 41.9496 35.7429 38.5174 9.1408 20.7047 60.2572
#
#
#
# Elastic Compliance Matrix: (Units=1/GPa)
#
#
# Indices 1 2 3 4 5 6 
#
# 1 0.007987 -0.001626 -0.004313 -0.000760 -0.004509 -0.000175
# 2 -0.001626 0.011464 0.002159 -0.004557 0.001374 -0.006829
# 3 -0.004313 0.002159 0.019696 -0.001918 0.002452 -0.011420
# 4 -0.000760 -0.004557 -0.001918 0.034625 0.000175 -0.000855
# 5 -0.004509 0.001374 0.002452 0.000175 0.023663 -0.007401
# 6 -0.000175 -0.006829 -0.011420 -0.000855 -0.007401 0.030741
#
#
# Mechanical properties :
#
#
# Convention : Reuss Voigt Hill
#
# Bulk Modulus (GPa) = 31.65661 69.29164 50.47412
# Shear Modulus (GPa) = 34.18500 47.63927 40.91214
#
# Velocity S-wave (km/s) = 3.45671 4.08064 3.78156
# Velocity P-wave (km/s) = 5.19585 6.81337 6.05883
#
# Compressibility (1/GPa) = 0.03158898
#
# Stress axis : x y z
#
# Youngs Moduli (GPa) = 125.20031 87.23035 50.77272
#
# Poissons Ratio (x) = 0.14180 0.21896
# Poissons Ratio (y) = 0.20352 -0.10963
# Poissons Ratio (z) = 0.53993 -0.18835
#
# Static dielectric constant tensor:
#      x y z
#    x 2.618630 -0.035220 0.021010 
#    y -0.035220 2.534770 -0.076220 
#    z 0.021010 -0.076220 2.296840 
# 
# From -- ./inp_files/568128.got.cif
#   From: 2010.05.17/outbox.cif.g08.bks.cpg/sg2_285_cif.got.tgz:568128.got - 2010.06.03 11:33:40.
