data_PCOD9075680
_publ_section_title
;
Structure prediction by ZEFSAII (Michael W. Deem and Ramdas Pophale) SiO2 
 PCOD9075680
Probable space group: P -1
;
_chemical_formula_sum "Si O2"
_cell_formula_units_Z 11
_cell_length_a 9.000000
_cell_length_b 9.000000
_cell_length_c 9.000000
_cell_angle_alpha 130.000000
_cell_angle_beta 80.000000
_cell_angle_gamma 70.000000
_cell_volume 439.424848
_symmetry_space_group_name_H-M "P -1"
_symmetry_group_IT_number 2
_symmetry_cell_setting 'triclinic'
loop_
_space_group_symop_operation_xyz
x,y,z
-x,-y,-z
loop_
_atom_site_type_symbol
_atom_site_label
_atom_site_fract_x
_atom_site_fract_y
_atom_site_fract_z
Si Si1 0.104474 0.573958 0.924953
Si Si2 0.173238 0.869231 0.580574
Si Si3 0.500000 0.500000 0.500000
Si Si4 0.933118 0.691379 0.506770
Si Si5 0.501872 0.209251 0.712925
Si Si6 0.438407 0.855335 0.003606
O O1 0.123707 0.425973 0.679291
O O2 0.320627 0.461420 0.845976
O O3 0.000000 0.500000 0.000000
O O4 0.980807 0.860218 0.156741
O O5 0.311126 0.737572 0.611388
O O6 0.299403 0.855403 0.414382
O O7 0.085694 0.731965 0.457447
O O8 0.475389 0.656294 0.755264
O O9 0.000000 0.500000 0.500000
O O10 0.771808 0.944186 0.773221
O O11 0.462290 0.231550 0.908947
O O12 0.500000 0.000000 0.500000
O O13 0.500000 0.000000 0.000000
#
# Coordination Sequence:
#
# PCOD9075680 Si02
#       6
#     2   2   1   2   2   2
#     4  12  28  53  84 123 168 216 279 345 421 501
#     4  12  30  53  83 123 166 222 280 344 421 498
#     4  12  30  50  78 118 164 216 282 336 410 492
#     4  12  29  52  82 121 166 218 282 350 413 495
#     4  12  26  54  85 122 170 220 277 349 420 501
#     4  12  28  52  81 117 168 219 275 344 417 492
#
# _framework density 25.032722
#
# number of rings (size 3 to 8) (size 9 to 14) (size 15 to 20)
#    0.000    0.000    3.636    3.273   10.182    5.091 
#    0.000    0.000    0.000    0.000    0.000    0.000 
#    0.000    0.000    0.000    0.000    0.000    0.000 
#
# Total GULP energy -61313.227615 kJ/mol
# GULP energy per Si atom -5573.929783 kJ/mol
# Density = 2.497575 g / cm^3
# Si number density = 25.032722 Si / 1000 Ang^3
#
#
#
# Elastic Constant Matrix: (Units=GPa)
#
#
# Indices 1 2 3 4 5 6 
#
# 1 99.4887 93.2184 66.7090 -18.7575 -0.2476 18.6697
# 2 93.2184 109.5939 89.9564 15.5421 15.7013 -6.9899
# 3 66.7090 89.9564 243.8198 5.7300 20.8853 -12.5887
# 4 -18.7575 15.5421 5.7300 55.5861 -14.6271 -3.0308
# 5 -0.2476 15.7013 20.8853 -14.6271 49.1491 -8.8024
# 6 18.6697 -6.9899 -12.5887 -3.0308 -8.8024 33.1610
#
#
#
# Elastic Compliance Matrix: (Units=1/GPa)
#
#
# Indices 1 2 3 4 5 6 
#
# 1 -0.041782 0.045519 -0.001787 -0.030170 -0.018537 0.024762
# 2 0.045519 -0.035305 -0.002897 0.028331 0.016289 -0.027256
# 3 -0.001787 -0.002897 0.005908 -0.000648 -0.001391 0.002210
# 4 -0.030170 0.028331 -0.000648 -0.000247 -0.005184 0.021313
# 5 -0.018537 0.016289 -0.001391 -0.005184 0.017221 0.017439
# 6 0.024762 -0.027256 0.002210 0.021313 0.017439 0.017886
#
#
# Mechanical properties :
#
#
# Convention : Reuss Voigt Hill
#
# Bulk Modulus (GPa) = 95.31869 105.85223 100.58546
# Shear Modulus (GPa) = -43.67055 41.11380 -1.27838
#
# Velocity S-wave (km/s) = -4.18130 4.05705 -0.71540
# Velocity P-wave (km/s) = 3.85348 8.02020 6.29178
#
# Compressibility (1/GPa) = 0.01049112
#
# Stress axis : x y z
#
# Youngs Moduli (GPa) = -23.93400 -28.32425 169.27354
#
# Poissons Ratio (x) = 1.28930 0.30256
# Poissons Ratio (y) = 1.08946 0.49032
# Poissons Ratio (z) = -0.04278 -0.08204
#
# Static dielectric constant tensor:
#      x y z
#    x 2.049130 -0.010410 -0.129090 
#    y -0.010410 2.061280 -0.123150 
#    z -0.129090 -0.123150 1.575990 
# 
# From -- ./inp_files/152677.got.cif
#   From: 2010.05.17/outbox.ucp.g08.bks.cvg/sg2_77_cif.got.tgz:152677.got - 2010.06.11 11:32:03.
