data_PCOD9075165
_publ_section_title
;
Structure prediction by ZEFSAII (Michael W. Deem and Ramdas Pophale) SiO2 
 PCOD9075165
Probable space group: P -1
;
_chemical_formula_sum "Si O2"
_cell_formula_units_Z 15
_cell_length_a 9.000000
_cell_length_b 15.000000
_cell_length_c 15.000000
_cell_angle_alpha 150.000000
_cell_angle_beta 120.000000
_cell_angle_gamma 80.000000
_cell_volume 702.152635
_symmetry_space_group_name_H-M "P -1"
_symmetry_group_IT_number 2
_symmetry_cell_setting 'triclinic'
loop_
_space_group_symop_operation_xyz
x,y,z
-x,-y,-z
loop_
_atom_site_type_symbol
_atom_site_label
_atom_site_fract_x
_atom_site_fract_y
_atom_site_fract_z
Si Si1 0.589921 0.711684 0.775119
Si Si2 0.335317 0.207113 0.477110
Si Si3 0.113002 0.697647 0.996176
Si Si4 0.990816 0.188611 0.254838
Si Si5 0.228062 0.336269 0.025200
Si Si6 0.000000 0.000000 0.500000
Si Si7 0.867865 0.460266 0.545773
Si Si8 0.270800 0.398994 0.799750
O O1 0.500000 0.500000 0.500000
O O2 0.680245 0.708732 0.897024
O O3 0.375192 0.698185 0.700880
O O4 0.786879 0.934706 0.980740
O O5 0.204427 0.211675 0.359914
O O6 0.584711 0.407051 0.718837
O O7 0.257559 0.267973 0.593890
O O8 0.269700 0.959645 0.246656
O O9 0.239600 0.590872 0.944135
O O10 0.988301 0.689958 0.038934
O O11 0.919348 0.546524 0.736519
O O12 0.013082 0.313616 0.279773
O O13 0.966968 0.329417 0.443182
O O14 0.166571 0.169135 0.780644
O O15 0.088988 0.216747 0.653447
O O16 0.500000 0.500000 0.000000
#
# Coordination Sequence:
#
# PCOD9075165 Si02
#       8
#     2   2   2   2   2   1   2   2
#     4  12  23  41  68 103 147 187 238 296 359 427
#     4  12  24  48  73 106 148 190 245 307 360 437
#     4  12  27  46  76 108 147 191 248 303 369 440
#     4  11  23  42  68 102 153 194 240 294 359 436
#     4  12  26  46  74 110 145 195 246 300 371 430
#     4  12  26  52  78 100 152 188 238 318 364 428
#     4  11  24  40  68 108 145 198 243 289 364 441
#     4  12  27  51  76 103 140 191 244 311 372 433
#
# _framework density 21.362876
#
# number of rings (size 3 to 8) (size 9 to 14) (size 15 to 20)
#    0.000    0.267    8.000    0.400    1.867    3.200 
#    0.000    0.000    0.000    0.000    0.000    0.000 
#    0.000    0.000    0.000    0.000    0.000    0.000 
#
# Total GULP energy -83566.422877 kJ/mol
# GULP energy per Si atom -5571.094858 kJ/mol
# Density = 2.131425 g / cm^3
# Si number density = 21.362876 Si / 1000 Ang^3
#
#
#
# Elastic Constant Matrix: (Units=GPa)
#
#
# Indices 1 2 3 4 5 6 
#
# 1 40.7998 15.1542 27.0513 4.7991 -0.3525 -17.9621
# 2 15.1542 52.2182 59.4684 -8.1279 -15.7823 -16.5341
# 3 27.0513 59.4684 147.7520 16.0222 3.6440 -11.2099
# 4 4.7991 -8.1279 16.0222 42.2800 0.6651 -4.6147
# 5 -0.3525 -15.7823 3.6440 0.6651 30.2853 3.2059
# 6 -17.9621 -16.5341 -11.2099 -4.6147 3.2059 28.4889
#
#
#
# Elastic Compliance Matrix: (Units=1/GPa)
#
#
# Indices 1 2 3 4 5 6 
#
# 1 0.038308 0.009703 -0.009441 0.003904 0.003771 0.026277
# 2 0.009703 0.118747 -0.051934 0.046469 0.061377 0.055220
# 3 -0.009441 -0.051934 0.030690 -0.022789 -0.027764 -0.024585
# 4 0.003904 0.046469 -0.022789 0.043117 0.023430 0.024811
# 5 0.003771 0.061377 -0.027764 0.023430 0.065385 0.023512
# 6 0.026277 0.055220 -0.024585 0.024811 0.023512 0.075416
#
#
# Mechanical properties :
#
#
# Convention : Reuss Voigt Hill
#
# Bulk Modulus (GPa) = 11.84841 49.34643 30.59742
# Shear Modulus (GPa) = 9.93752 29.48391 19.71072
#
# Velocity S-wave (km/s) = 2.15914 3.71906 3.04083
# Velocity P-wave (km/s) = 3.43134 6.44912 5.16553
#
# Compressibility (1/GPa) = 0.08439953
#
# Stress axis : x y z
#
# Youngs Moduli (GPa) = 26.10426 8.42123 32.58360
#
# Poissons Ratio (x) = -0.08171 0.30764
# Poissons Ratio (y) = -0.25328 1.69220
# Poissons Ratio (z) = 0.24646 0.43735
#
# Static dielectric constant tensor:
#      x y z
#    x 1.864860 0.021010 -0.001180 
#    y 0.021010 1.786570 -0.012080 
#    z -0.001180 -0.012080 1.731480 
# 
# From -- ./inp_files/504775.got.cif
#   From: 2010.05.17/outbox.ucp.g08.bks.cvg/sg2_253_cif.got.tgz:504775.got - 2010.06.11 11:32:03.
