data_PCOD9075067
_publ_section_title
;
Structure prediction by ZEFSAII (Michael W. Deem and Ramdas Pophale) SiO2 
 PCOD9075067
Probable space group: P -1
;
_chemical_formula_sum "Si O2"
_cell_formula_units_Z 14
_cell_length_a 12.000000
_cell_length_b 9.000000
_cell_length_c 18.000000
_cell_angle_alpha 110.000000
_cell_angle_beta 160.000000
_cell_angle_gamma 70.000000
_cell_volume 623.501542
_symmetry_space_group_name_H-M "P -1"
_symmetry_group_IT_number 2
_symmetry_cell_setting 'triclinic'
loop_
_space_group_symop_operation_xyz
x,y,z
-x,-y,-z
loop_
_atom_site_type_symbol
_atom_site_label
_atom_site_fract_x
_atom_site_fract_y
_atom_site_fract_z
Si Si1 0.184358 0.038501 0.005018
Si Si2 0.203241 0.644579 0.620518
Si Si3 0.234687 0.259988 0.313413
Si Si4 0.155388 0.538779 0.996253
Si Si5 0.281283 0.984078 0.787182
Si Si6 0.317296 0.681128 0.268675
Si Si7 0.662750 0.224407 0.434621
O O1 0.474184 0.983676 0.121741
O O2 0.372041 0.120063 0.203610
O O3 0.944397 0.180068 0.848173
O O4 0.939418 0.901057 0.838885
O O5 0.573884 0.599576 0.868156
O O6 0.130910 0.815692 0.642810
O O7 0.236285 0.665409 0.554177
O O8 0.000000 0.500000 0.500000
O O9 0.359570 0.282684 0.478746
O O10 0.528663 0.279630 0.441415
O O11 0.955136 0.390870 0.138632
O O12 0.310858 0.661753 0.172237
O O13 0.833575 0.478687 0.823883
O O14 0.982053 0.111348 0.627374
O O15 0.500000 0.000000 0.000000
#
# Coordination Sequence:
#
# PCOD9075067 Si02
#       7
#     2   2   2   2   2   2   2
#     4  11  22  43  66 101 132 176 230 274 333 406
#     4  11  25  44  70  96 132 184 228 276 342 410
#     4  12  25  39  73 102 132 176 225 280 336 405
#     4  11  23  42  65  94 142 168 224 276 344 395
#     4  11  25  46  69  98 138 180 231 281 333 408
#     4  11  22  43  63  98 136 176 219 279 335 400
#     4  11  23  44  70  96 137 182 225 277 346 399
#
# _framework density 22.453834000000001
#
# number of rings (size 3 to 8) (size 9 to 14) (size 15 to 20)
#    0.000    0.857    4.286    4.714    4.000    1.143 
#    0.000    0.714    0.000    0.000    0.000    0.000 
#    0.000    0.000    0.000    0.000    0.000    0.000 
#
# Total GULP energy -78129.997281 kJ/mol
# GULP energy per Si atom -5580.714092 kJ/mol
# Density = 2.240273 g / cm^3
# Si number density = 22.453834 Si / 1000 Ang^3
#
#
#
# Elastic Constant Matrix: (Units=GPa)
#
#
# Indices 1 2 3 4 5 6 
#
# 1 19.2158 -6.8676 1.4890 -0.1771 7.2215 2.7162
# 2 -6.8676 52.7098 19.3907 -16.4693 15.2065 19.6918
# 3 1.4890 19.3907 91.5282 -15.5366 -23.3926 26.1982
# 4 -0.1771 -16.4693 -15.5366 48.3142 3.6046 10.9248
# 5 7.2215 15.2065 -23.3926 3.6046 27.4200 6.3182
# 6 2.7162 19.6918 26.1982 10.9248 6.3182 22.2940
#
#
#
# Elastic Compliance Matrix: (Units=1/GPa)
#
#
# Indices 1 2 3 4 5 6 
#
# 1 -0.084943 -0.445085 -0.638010 -0.688289 -0.564955 1.650624
# 2 -0.445085 -1.217033 -1.559300 -1.770398 -1.270681 4.189260
# 3 -0.638010 -1.559300 -1.764640 -2.120140 -1.333536 4.945583
# 4 -0.688289 -1.770398 -2.120140 -2.457879 -1.662355 5.814618
# 5 -0.564955 -1.270681 -1.333536 -1.662355 -0.912020 3.831358
# 6 1.650624 4.189260 4.945583 5.814618 3.831358-13.603426
#
#
# Mechanical properties :
#
#
# Convention : Reuss Voigt Hill
#
# Bulk Modulus (GPa) = -0.11974 21.27532 10.57779
# Shear Modulus (GPa) = -0.28508 29.56841 14.64167
#
# Velocity S-wave (km/s) = -0.35670 3.63278 2.55635
# Velocity P-wave (km/s) = 0.47233 5.20499 3.66530
#
# Compressibility (1/GPa) = -8.35140696
#
# Stress axis : x y z
#
# Youngs Moduli (GPa) = -11.77258 -0.82167 -0.56669
#
# Poissons Ratio (x) = -0.36571 -0.36155
# Poissons Ratio (y) = -5.23980 -0.88364
# Poissons Ratio (z) = -7.51102 -1.28123
#
# Static dielectric constant tensor:
#      x y z
#    x 1.866530 0.035640 0.007470 
#    y 0.035640 2.007480 0.031810 
#    z 0.007470 0.031810 1.832790 
# 
# From -- ./inp_files/204715.got.cif
#   From: 2010.05.17/outbox.ucp.g08.bks.cvg/sg2_103_cif.got.tgz:204715.got - 2010.06.11 11:32:03.
