data_PCOD9075365
_publ_section_title
;
Structure prediction by ZEFSAII (Michael W. Deem and Ramdas Pophale) SiO2 
 PCOD9075365
Probable space group: P -1
;
_chemical_formula_sum "Si O2"
_cell_formula_units_Z 14
_cell_length_a 6.000000
_cell_length_b 15.000000
_cell_length_c 24.000000
_cell_angle_alpha 20.000000
_cell_angle_beta 70.000000
_cell_angle_gamma 80.000000
_cell_volume 616.509588
_symmetry_space_group_name_H-M "P -1"
_symmetry_group_IT_number 2
_symmetry_cell_setting 'triclinic'
loop_
_space_group_symop_operation_xyz
x,y,z
-x,-y,-z
loop_
_atom_site_type_symbol
_atom_site_label
_atom_site_fract_x
_atom_site_fract_y
_atom_site_fract_z
Si Si1 0.666054 0.847254 0.295785
Si Si2 0.893576 0.343043 0.777345
Si Si3 0.059486 0.241365 0.121934
Si Si4 0.522507 0.211534 0.288604
Si Si5 0.290579 0.930361 0.354115
Si Si6 0.906103 0.823505 0.029055
Si Si7 0.627535 0.730596 0.620724
O O1 0.500000 0.500000 0.500000
O O2 0.463803 0.971266 0.259496
O O3 0.853078 0.960937 0.268478
O O4 0.856288 0.012977 0.130862
O O5 0.756624 0.547176 0.686749
O O6 0.142939 0.582662 0.580742
O O7 0.978618 0.245811 0.883994
O O8 0.780176 0.046235 0.924154
O O9 0.125773 0.099185 0.252407
O O10 0.296256 0.445574 0.940497
O O11 0.000000 0.500000 0.000000
O O12 0.308979 0.192424 0.364801
O O13 0.421376 0.064865 0.323139
O O14 0.656468 0.020674 0.416424
O O15 0.684294 0.509934 0.211686
#
# Coordination Sequence:
#
# PCOD9075365 Si02
#       7
#     2   2   2   2   2   2   2
#     4  12  27  48  73 105 147 186 237 299 350 429
#     4  11  25  44  73 100 138 191 231 295 352 419
#     4  12  26  45  73 104 145 190 234 289 361 423
#     4  11  24  45  69 106 142 183 237 292 350 427
#     4  12  26  46  72 107 145 188 236 292 359 419
#     4  11  24  47  70 102 140 184 239 287 355 421
#     4  11  24  45  71 104 142 181 240 292 352 416
#
# _framework density 22.708487000000002
#
# number of rings (size 3 to 8) (size 9 to 14) (size 15 to 20)
#    0.000    0.571    5.714    1.714    2.000    1.143 
#    2.571    0.000    0.000    0.000    0.000    0.000 
#    0.000    0.000    0.000    0.000    0.000    0.000 
#
# Total GULP energy -78054.790916 kJ/mol
# GULP energy per Si atom -5575.342208 kJ/mol
# Density = 2.265680 g / cm^3
# Si number density = 22.708487 Si / 1000 Ang^3
#
#
#
# Elastic Constant Matrix: (Units=GPa)
#
#
# Indices 1 2 3 4 5 6 
#
# 1 37.2855 41.5171 37.1554 4.9837 7.4857 1.8208
# 2 41.5171 134.7039 48.6537 1.4992 16.5009 -17.8640
# 3 37.1554 48.6537 96.1245 -7.4097 -7.8148 9.9167
# 4 4.9837 1.4992 -7.4097 50.0001 0.6293 -3.5046
# 5 7.4857 16.5009 -7.8148 0.6293 21.0776 10.3035
# 6 1.8208 -17.8640 9.9167 -3.5046 10.3035 17.7773
#
#
#
# Elastic Compliance Matrix: (Units=1/GPa)
#
#
# Indices 1 2 3 4 5 6 
#
# 1 0.052971 -0.033978 0.007190 -0.008812 0.045863 -0.071898
# 2 -0.033978 -0.032193 0.052193 0.001755 0.118247 -0.126173
# 3 0.007190 0.052193 -0.046010 0.003707 -0.137810 0.157981
# 4 -0.008812 0.001755 0.003707 0.021710 0.000136 0.004799
# 5 0.045863 0.118247 -0.137810 0.000136 -0.287292 0.357538
# 6 -0.071898 -0.126173 0.157981 0.004799 0.357538 -0.357577
#
#
# Mechanical properties :
#
#
# Convention : Reuss Voigt Hill
#
# Bulk Modulus (GPa) = 39.09536 58.08514 48.59025
# Shear Modulus (GPa) = -7.23929 27.15686 9.95879
#
# Velocity S-wave (km/s) = -1.78741 3.46192 2.09643
# Velocity P-wave (km/s) = 3.60469 6.45089 5.22531
#
# Compressibility (1/GPa) = 0.02557849
#
# Stress axis : x y z
#
# Youngs Moduli (GPa) = 18.87839 -31.06296 -21.73447
#
# Poissons Ratio (x) = -1.05545 0.15627
# Poissons Ratio (y) = 0.64145 1.13439
# Poissons Ratio (z) = -0.13573 1.62128
#
# Static dielectric constant tensor:
#      x y z
#    x 2.011320 -0.079230 -0.124330 
#    y -0.079230 1.868140 0.041330 
#    z -0.124330 0.041330 1.821700 
# 
# From -- ./inp_files/131545.got.cif
#   From: 2010.05.17/outbox.ucp.g08.bks.cvg/sg2_66_cif.got.tgz:131545.got - 2010.06.11 11:32:03.
