data_PCOD9075249
_publ_section_title
;
Structure prediction by ZEFSAII (Michael W. Deem and Ramdas Pophale) SiO2 
 PCOD9075249
Probable space group: P -1
;
_chemical_formula_sum "Si O2"
_cell_formula_units_Z 14
_cell_length_a 24.000000
_cell_length_b 15.000000
_cell_length_c 6.000000
_cell_angle_alpha 60.000000
_cell_angle_beta 60.000000
_cell_angle_gamma 20.000000
_cell_volume 636.464036
_symmetry_space_group_name_H-M "P -1"
_symmetry_group_IT_number 2
_symmetry_cell_setting 'triclinic'
loop_
_space_group_symop_operation_xyz
x,y,z
-x,-y,-z
loop_
_atom_site_type_symbol
_atom_site_label
_atom_site_fract_x
_atom_site_fract_y
_atom_site_fract_z
Si Si1 0.519686 0.350922 0.698644
Si Si2 0.575664 0.821904 0.874069
Si Si3 0.150022 0.895402 0.681709
Si Si4 0.723925 0.781468 0.322744
Si Si5 0.681148 0.064856 0.235475
Si Si6 0.965591 0.769429 0.827544
Si Si7 0.110295 0.737902 0.858388
O O1 0.500000 0.500000 0.500000
O O2 0.327990 0.605367 0.779497
O O3 0.600435 0.195205 0.486523
O O4 0.591335 0.223501 0.969748
O O5 0.672421 0.755540 0.595608
O O6 0.424601 0.989219 0.843950
O O7 0.709615 0.551737 0.049715
O O8 0.500000 0.000000 0.000000
O O9 0.108085 0.861192 0.646638
O O10 0.138821 0.020274 0.420024
O O11 0.019078 0.087046 0.901719
O O12 0.899680 0.505767 0.200493
O O13 0.723848 0.881927 0.350900
O O14 0.844370 0.894734 0.091434
O O15 0.068132 0.712309 0.798454
#
# Coordination Sequence:
#
# PCOD9075249 Si02
#       7
#     2   2   2   2   2   2   2
#     4  12  26  50  73 105 145 192 236 297 349 425
#     4  11  23  45  70  99 144 181 238 296 355 422
#     4  11  25  42  70 102 142 183 242 287 367 415
#     4  11  26  44  71 105 138 188 236 296 360 425
#     4  12  29  46  77 106 145 190 243 289 357 426
#     4  12  24  46  67 101 144 184 234 300 353 427
#     4  11  24  43  70 102 136 189 234 301 354 430
#
# _framework density 21.99653
#
# number of rings (size 3 to 8) (size 9 to 14) (size 15 to 20)
#    0.000    0.571    4.286    3.000    6.000    0.000 
#    0.000    2.143    0.000    0.000    0.000    0.000 
#    0.000    0.000    0.000    0.000    0.000    0.000 
#
# Total GULP energy -78098.815377 kJ/mol
# GULP energy per Si atom -5578.486813 kJ/mol
# Density = 2.194646 g / cm^3
# Si number density = 21.996530 Si / 1000 Ang^3
#
#
#
# Elastic Constant Matrix: (Units=GPa)
#
#
# Indices 1 2 3 4 5 6 
#
# 1 78.6312 25.7110 -26.3181 -16.7960 8.2714 25.7228
# 2 25.7110 140.1555 21.4695 9.9596 10.2262 12.0768
# 3 -26.3181 21.4695 28.0154 -6.5905 16.0442 6.9208
# 4 -16.7960 9.9596 -6.5905 29.0225 5.4263 10.5236
# 5 8.2714 10.2262 16.0442 5.4263 34.8449 2.7968
# 6 25.7228 12.0768 6.9208 10.5236 2.7968 38.7738
#
#
#
# Elastic Compliance Matrix: (Units=1/GPa)
#
#
# Indices 1 2 3 4 5 6 
#
# 1 -0.007529 0.004700 -0.026737 -0.019322 0.014726 0.012485
# 2 0.004700 0.005901 0.006755 0.006076 -0.006313 -0.007355
# 3 -0.026737 0.006755 -0.018995 -0.035091 0.016378 0.027367
# 4 -0.019322 0.006076 -0.035091 0.004709 0.017049 0.014681
# 5 0.014726 -0.006313 0.016378 0.017049 0.018197 -0.016666
# 6 0.012485 -0.007355 0.027367 0.014681 -0.016666 0.012131
#
#
# Mechanical properties :
#
#
# Convention : Reuss Voigt Hill
#
# Bulk Modulus (GPa) = -19.53568 32.05855 6.26144
# Shear Modulus (GPa) = 179.09817 35.59089 107.34453
#
# Velocity S-wave (km/s) = 9.03315 4.02683 6.99333
# Velocity P-wave (km/s) = 9.99483 6.01884 8.24994
#
# Compressibility (1/GPa) = -0.05118838
#
# Stress axis : x y z
#
# Youngs Moduli (GPa) = -132.82245 169.47205 -52.64599
#
# Poissons Ratio (x) = -0.79646 -1.40761
# Poissons Ratio (y) = 0.62422 0.35562
# Poissons Ratio (z) = -3.55132 -1.14479
#
# Static dielectric constant tensor:
#      x y z
#    x 1.985870 -0.078790 -0.006430 
#    y -0.078790 1.804200 -0.027760 
#    z -0.006430 -0.027760 1.796210 
# 
# From -- ./inp_files/53464.got.cif
#   From: 2010.05.17/outbox.ucp.g08.bks.cvg/sg2_27_cif.got.tgz:53464.got - 2010.06.11 11:32:03.
