data_PCOD9075386
_publ_section_title
;
Structure prediction by ZEFSAII (Michael W. Deem and Ramdas Pophale) SiO2 
 PCOD9075386
Probable space group: P -1
;
_chemical_formula_sum "Si O2"
_cell_formula_units_Z 14
_cell_length_a 9.261369
_cell_length_b 7.151638
_cell_length_c 20.291399
_cell_angle_alpha 146.283674
_cell_angle_beta 122.816586
_cell_angle_gamma 50.862073
_cell_volume 578.185597
_symmetry_space_group_name_H-M "P -1"
_symmetry_group_IT_number 2
_symmetry_cell_setting 'triclinic'
loop_
_space_group_symop_operation_xyz
x,y,z
-x,-y,-z
loop_
_atom_site_type_symbol
_atom_site_label
_atom_site_fract_x
_atom_site_fract_y
_atom_site_fract_z
Si Si1 0.891516 0.785065 0.372892
Si Si2 0.825189 0.611581 0.442550
Si Si3 0.752478 0.978282 0.081264
Si Si4 0.846314 0.220997 0.824116
Si Si5 0.565287 0.292396 0.254233
Si Si6 0.815117 0.344987 0.699776
Si Si7 0.520978 0.786388 0.266678
O O1 0.887207 0.521903 0.355350
O O2 0.670327 0.973932 0.357414
O O3 0.016069 0.635912 0.295608
O O4 0.000000 0.000000 0.500000
O O5 0.703196 0.381456 0.363110
O O6 0.000000 0.500000 0.500000
O O7 0.745574 0.048073 0.560635
O O8 0.970421 0.896697 0.120370
O O9 0.671148 0.982526 0.136513
O O10 0.638580 0.387692 0.145919
O O11 0.736943 0.655314 0.940165
O O12 0.883011 0.215649 0.753197
O O13 0.696996 0.043084 0.753603
O O14 0.374966 0.295776 0.236489
O O15 0.507686 0.658645 0.301305
#
# Coordination Sequence:
#
# PCOD9075386 Si02
#       7
#     2   2   2   2   2   2   2
#     4   9  19  35  51  75 112 141 173 218 269 320
#     4  10  18  32  54  74 102 137 182 222 262 315
#     4   9  18  32  56  81 108 128 191 228 245 313
#     4  10  18  32  58  81 101 143 181 220 268 305
#     4   8  17  31  50  74 103 134 180 216 254 318
#     4  10  19  30  54  76 104 143 173 217 275 314
#     4   8  17  32  55  72 104 143 174 215 260 316
#
# _framework density 24.213678999999999
#
# number of rings (size 3 to 8) (size 9 to 14) (size 15 to 20)
#    0.857    2.000    0.000    1.714    0.000    1.143 
#    0.000    1.429    9.429    1.714    0.000    0.000 
#    0.000    0.000    0.000    0.000    0.000    0.000 
#
# Total GULP energy -77939.828182 kJ/mol
# GULP energy per Si atom -5567.130584 kJ/mol
# Density = 2.415857 g / cm^3
# Si number density = 24.213679 Si / 1000 Ang^3
#
#
#
# Elastic Constant Matrix: (Units=GPa)
#
#
# Indices 1 2 3 4 5 6 
#
# 1 186.6213 44.9861 23.6105 -32.2444 -12.1648 -25.8900
# 2 44.9861 44.3744 -1.7419 -16.4263 -2.7529 -10.2332
# 3 23.6105 -1.7419 88.2383 -6.6894 -7.0035 2.7655
# 4 -32.2444 -16.4263 -6.6894 24.3764 -9.8538 4.1117
# 5 -12.1648 -2.7529 -7.0035 -9.8538 33.8617 -8.1977
# 6 -25.8900 -10.2332 2.7655 4.1117 -8.1977 45.8892
#
#
#
# Elastic Compliance Matrix: (Units=1/GPa)
#
#
# Indices 1 2 3 4 5 6 
#
# 1 0.009749 -0.003749 -0.001296 0.012288 0.007721 0.005021
# 2 -0.003749 0.038035 0.004421 0.025550 0.011516 0.005868
# 3 -0.001296 0.004421 0.012615 0.006530 0.004327 -0.000317
# 4 0.012288 0.025550 0.006530 0.089188 0.036398 0.010748
# 5 0.007721 0.011516 0.004327 0.036398 0.047611 0.011907
# 6 0.005021 0.005868 -0.000317 0.010748 0.011907 0.027116
#
#
# Mechanical properties :
#
#
# Convention : Reuss Voigt Hill
#
# Bulk Modulus (GPa) = 16.90532 50.32703 33.61618
# Shear Modulus (GPa) = 20.38502 37.65072 29.01787
#
# Velocity S-wave (km/s) = 2.90467 3.94755 3.46556
# Velocity P-wave (km/s) = 4.27157 6.45036 5.47053
#
# Compressibility (1/GPa) = 0.05915298
#
# Stress axis : x y z
#
# Youngs Moduli (GPa) = 102.57543 26.29154 79.26910
#
# Poissons Ratio (x) = 0.09856 0.10270
# Poissons Ratio (y) = 0.38451 -0.35044
# Poissons Ratio (z) = 0.13289 -0.11623
#
# Static dielectric constant tensor:
#      x y z
#    x 2.043500 -0.087540 0.008800 
#    y -0.087540 2.160460 0.076130 
#    z 0.008800 0.076130 1.991480 
# 
# From -- ./inp_files/586390.got.cif
#   From: 2010.05.17/outbox.cif.g08.bks.cpg/sg2_294_cif.got.tgz:586390.got - 2010.06.03 11:33:40.
