data_PCOD9075910
_publ_section_title
;
Structure prediction by ZEFSAII (Michael W. Deem and Ramdas Pophale) SiO2 
 PCOD9075910
Probable space group: P -1
;
_chemical_formula_sum "Si O2"
_cell_formula_units_Z 16
_cell_length_a 8.459139
_cell_length_b 7.614377
_cell_length_c 13.391337
_cell_angle_alpha 104.495529
_cell_angle_beta 84.143579
_cell_angle_gamma 57.001232
_cell_volume 669.521935
_symmetry_space_group_name_H-M "P -1"
_symmetry_group_IT_number 2
_symmetry_cell_setting 'triclinic'
loop_
_space_group_symop_operation_xyz
x,y,z
-x,-y,-z
loop_
_atom_site_type_symbol
_atom_site_label
_atom_site_fract_x
_atom_site_fract_y
_atom_site_fract_z
Si Si1 0.339827 0.720543 0.682763
Si Si2 0.403394 0.871656 0.104151
Si Si3 0.439622 0.764927 0.306478
Si Si4 0.711428 0.676744 0.581056
Si Si5 0.867881 0.293816 0.662853
Si Si6 0.516636 0.751350 0.861468
Si Si7 0.962059 0.768909 0.722491
Si Si8 0.773506 0.736691 0.357533
O O1 0.456094 0.455593 0.662813
O O2 0.490992 0.740645 0.612739
O O3 0.343554 0.813477 0.804784
O O4 0.130213 0.787544 0.672705
O O5 0.482538 0.726590 0.179985
O O6 0.459371 0.047874 0.121792
O O7 0.168821 0.035415 0.161053
O O8 0.471420 0.740956 0.977660
O O9 0.215102 0.853545 0.350911
O O10 0.553347 0.868032 0.348212
O O11 0.835626 0.418022 0.577105
O O12 0.803048 0.773921 0.660964
O O13 0.757768 0.704358 0.470780
O O14 0.712806 0.512176 0.775316
O O15 0.094211 0.177114 0.659166
O O16 0.086847 0.520221 0.728797
#
# Coordination Sequence:
#
# PCOD9075910 Si02
#       8
#     2   2   2   2   2   2   2   2
#     4   9  19  36  56  81 103 139 183 214 250 319
#     4  11  19  36  56  79 109 140 169 222 272 304
#     4   9  21  33  52  80 112 133 172 227 263 298
#     4   9  17  32  57  81 102 138 185 215 251 306
#     4   9  17  35  54  80 104 139 182 213 252 315
#     4   9  19  35  60  74 106 145 176 207 265 324
#     4  10  18  32  57  76 106 137 179 213 253 314
#     4  10  18  34  58  78 103 144 181 213 256 314
#
# _framework density 23.897649999999999
#
# number of rings (size 3 to 8) (size 9 to 14) (size 15 to 20)
#    0.000    2.750    3.750    1.500    0.000    8.000 
#    2.250    1.250    0.000   10.500    0.000    0.000 
#    0.000    0.000    0.000    0.000    0.000    0.000 
#
# Total GULP energy -89220.404045 kJ/mol
# GULP energy per Si atom -5576.275253 kJ/mol
# Density = 2.384326 g / cm^3
# Si number density = 23.897650 Si / 1000 Ang^3
#
#
#
# Elastic Constant Matrix: (Units=GPa)
#
#
# Indices 1 2 3 4 5 6 
#
# 1 234.7313 45.8111 39.8340 -7.3304 -26.1560 -15.1869
# 2 45.8111 64.0750 9.0987 0.1122 -14.3891 6.9992
# 3 39.8340 9.0987 115.6792 -18.6198 -11.0658 -2.7930
# 4 -7.3304 0.1122 -18.6198 20.7925 3.3065 -4.9779
# 5 -26.1560 -14.3891 -11.0658 3.3065 25.5544 -2.8760
# 6 -15.1869 6.9992 -2.7930 -4.9779 -2.8760 50.0178
#
#
#
# Elastic Compliance Matrix: (Units=1/GPa)
#
#
# Indices 1 2 3 4 5 6 
#
# 1 0.005702 -0.003381 -0.001129 0.001034 0.003586 0.002450
# 2 -0.003381 0.020263 -0.000383 -0.003805 0.007847 -0.003811
# 3 -0.001129 -0.000383 0.010801 0.009243 0.002263 0.001364
# 4 0.001034 -0.003805 0.009243 0.059061 -0.003934 0.007014
# 5 0.003586 0.007847 0.002263 -0.003934 0.048996 0.002543
# 6 0.002450 -0.003811 0.001364 0.007014 0.002543 0.022191
#
#
# Mechanical properties :
#
#
# Convention : Reuss Voigt Hill
#
# Bulk Modulus (GPa) = 37.06480 67.10815 52.08647
# Shear Modulus (GPa) = 26.91166 40.58904 33.75035
#
# Velocity S-wave (km/s) = 3.35941 4.12570 3.76212
# Velocity P-wave (km/s) = 5.53092 7.13005 6.38078
#
# Compressibility (1/GPa) = 0.02697978
#
# Stress axis : x y z
#
# Youngs Moduli (GPa) = 175.37939 49.35038 92.58695
#
# Poissons Ratio (x) = 0.16683 0.10453
# Poissons Ratio (y) = 0.59288 0.03551
# Poissons Ratio (z) = 0.19800 0.01893
#
# Static dielectric constant tensor:
#      x y z
#    x 1.983510 0.013220 0.027650 
#    y 0.013220 2.018450 0.044400 
#    z 0.027650 0.044400 1.899980 
# 
# From -- ./inp_files/493182.got.cif
#   From: 2010.05.17/outbox.cif.g08.bks.cpg/sg2_247_cif.got.tgz:493182.got - 2010.06.03 11:33:40.
