data_PCOD9075961
_publ_section_title
;
Structure prediction by ZEFSAII (Michael W. Deem and Ramdas Pophale) SiO2 
 PCOD9075961
Probable space group: P -1
;
_chemical_formula_sum "Si O2"
_cell_formula_units_Z 16
_cell_length_a 17.770692
_cell_length_b 14.102343
_cell_length_c 9.305320
_cell_angle_alpha 120.792793
_cell_angle_beta 35.081947
_cell_angle_gamma 143.285451
_cell_volume 727.448249
_symmetry_space_group_name_H-M "P -1"
_symmetry_group_IT_number 2
_symmetry_cell_setting 'triclinic'
loop_
_space_group_symop_operation_xyz
x,y,z
-x,-y,-z
loop_
_atom_site_type_symbol
_atom_site_label
_atom_site_fract_x
_atom_site_fract_y
_atom_site_fract_z
Si Si1 0.619765 0.988945 0.706479
Si Si2 0.594719 0.475947 0.029088
Si Si3 0.014181 0.639453 0.563730
Si Si4 0.202942 0.073887 0.402628
Si Si5 0.019400 0.355956 0.939266
Si Si6 0.162855 0.996539 0.073965
Si Si7 0.545178 0.379534 0.698913
Si Si8 0.817197 0.328209 0.963754
O O1 0.728397 0.966539 0.614891
O O2 0.427935 0.815135 0.783215
O O3 0.803619 0.179148 0.494842
O O4 0.500000 0.000000 0.000000
O O5 0.795337 0.556470 0.853551
O O6 0.602539 0.449399 0.827437
O O7 0.385993 0.283072 0.263121
O O8 0.574275 0.593715 0.160650
O O9 0.000000 0.500000 0.500000
O O10 0.088876 0.691199 0.319188
O O11 0.991909 0.001500 0.707770
O O12 0.181367 0.002098 0.223923
O O13 0.242255 0.495736 0.620645
O O14 0.061916 0.476315 0.085489
O O15 0.937368 0.180939 0.965344
O O16 0.862813 0.306836 0.030666
O O17 0.386406 0.174169 0.799341
#
# Coordination Sequence:
#
# PCOD9075961 Si02
#       8
#     2   2   2   2   2   2   2   2
#     4  10  20  36  56  81 111 152 192 238 286 339
#     4  10  18  32  57  90 115 143 192 245 293 330
#     4  11  21  36  60  87 116 146 194 246 286 344
#     4  10  19  33  60  87 119 145 194 246 292 340
#     4  11  21  42  59  82 124 154 195 238 288 360
#     4  10  20  34  59  92 113 155 189 241 299 335
#     4  10  20  33  58  88 117 146 191 245 287 344
#     4  10  23  40  59  81 115 162 192 233 299 346
#
# _framework density 21.994692000000001
#
# number of rings (size 3 to 8) (size 9 to 14) (size 15 to 20)
#    0.000    1.750    2.500    3.750    1.750    1.000 
#    2.250    1.875    0.000    1.500    0.000    0.000 
#    0.000    0.000    0.000    0.000    0.000    0.000 
#
# Total GULP energy -89407.858854 kJ/mol
# GULP energy per Si atom -5587.991178 kJ/mol
# Density = 2.194463 g / cm^3
# Si number density = 21.994692 Si / 1000 Ang^3
#
#
#
# Elastic Constant Matrix: (Units=GPa)
#
#
# Indices 1 2 3 4 5 6 
#
# 1 71.2090 29.7167 34.7501 -5.8060 -32.4036 -8.2911
# 2 29.7167 132.7408 26.1928 -17.5660 -2.8691 -4.8184
# 3 34.7501 26.1928 69.2075 -15.1683 -17.3185 5.0759
# 4 -5.8060 -17.5660 -15.1683 30.7137 4.2662 -4.6374
# 5 -32.4036 -2.8691 -17.3185 4.2662 37.6328 -1.6303
# 6 -8.2911 -4.8184 5.0759 -4.6374 -1.6303 30.4024
#
#
#
# Elastic Compliance Matrix: (Units=1/GPa)
#
#
# Indices 1 2 3 4 5 6 
#
# 1 0.033103 -0.004926 -0.010204 -0.003349 0.024277 0.010742
# 2 -0.004926 0.009430 -0.001304 0.004582 -0.004607 0.000821
# 3 -0.010204 -0.001304 0.022152 0.007395 0.000230 -0.005548
# 4 -0.003349 0.004582 0.007395 0.039334 -0.003400 0.004396
# 5 0.024277 -0.004607 0.000230 -0.003400 0.047959 0.007905
# 6 0.010742 0.000821 -0.005548 0.004396 0.007905 0.037972
#
#
# Mechanical properties :
#
#
# Convention : Reuss Voigt Hill
#
# Bulk Modulus (GPa) = 31.43026 50.49738 40.96382
# Shear Modulus (GPa) = 21.42013 31.91629 26.66821
#
# Velocity S-wave (km/s) = 3.12409 3.81345 3.48585
# Velocity P-wave (km/s) = 5.22821 6.51142 5.90478
#
# Compressibility (1/GPa) = 0.03181647
#
# Stress axis : x y z
#
# Youngs Moduli (GPa) = 30.20840 106.04241 45.14292
#
# Poissons Ratio (x) = 0.52236 0.46065
# Poissons Ratio (y) = 0.14880 0.05888
# Poissons Ratio (z) = 0.30825 0.13832
#
# Static dielectric constant tensor:
#      x y z
#    x 1.831070 0.026330 0.034130 
#    y 0.026330 1.836710 -0.008020 
#    z 0.034130 -0.008020 1.795970 
# 
# From -- ./inp_files/252195.got.cif
#   From: 2010.05.17/outbox.cif.g08.bks.cpg/sg2_127_cif.got.tgz:252195.got - 2010.06.03 11:33:40.
