data_PCOD9075364
_publ_section_title
;
Structure prediction by ZEFSAII (Michael W. Deem and Ramdas Pophale) SiO2 
 PCOD9075364
Probable space group: P -1
;
_chemical_formula_sum "Si O2"
_cell_formula_units_Z 14
_cell_length_a 9.000000
_cell_length_b 12.000000
_cell_length_c 12.000000
_cell_angle_alpha 140.000000
_cell_angle_beta 60.000000
_cell_angle_gamma 130.000000
_cell_volume 638.079485
_symmetry_space_group_name_H-M "P -1"
_symmetry_group_IT_number 2
_symmetry_cell_setting 'triclinic'
loop_
_space_group_symop_operation_xyz
x,y,z
-x,-y,-z
loop_
_atom_site_type_symbol
_atom_site_label
_atom_site_fract_x
_atom_site_fract_y
_atom_site_fract_z
Si Si1 0.185236 0.760666 0.757355
Si Si2 0.354852 0.031111 0.493432
Si Si3 0.982549 0.246243 0.961582
Si Si4 0.294975 0.421164 0.786007
Si Si5 0.586317 0.135329 0.893670
Si Si6 0.949559 0.107830 0.313752
Si Si7 0.721041 0.565549 0.459854
O O1 0.113239 0.808386 0.704499
O O2 0.246056 0.590930 0.599595
O O3 0.375543 0.961909 0.873806
O O4 0.033171 0.674831 0.850687
O O5 0.369635 0.252135 0.642264
O O6 0.500000 0.000000 0.500000
O O7 0.371610 0.938578 0.298613
O O8 0.157755 0.903869 0.538253
O O9 0.766050 0.162470 0.925935
O O10 0.122396 0.364206 0.897438
O O11 0.071291 0.104269 0.858350
O O12 0.230188 0.412924 0.674381
O O13 0.421189 0.656282 0.943401
O O14 0.170519 0.236517 0.361317
O O15 0.500000 0.500000 0.500000
#
# Coordination Sequence:
#
# PCOD9075364 Si02
#       7
#     2   2   2   2   2   2   2
#     4  12  25  44  68 108 142 187 229 291 361 411
#     4  11  24  47  71 106 144 183 236 291 359 416
#     4  11  24  45  69 103 140 183 241 287 349 425
#     4  11  26  46  74 106 135 188 244 288 350 418
#     4  12  24  45  77 102 143 187 237 293 346 421
#     4  11  25  45  69 102 145 186 230 297 355 418
#     4  12  26  45  72 104 138 186 243 287 352 420
#
# _framework density 21.940840000000001
#
# number of rings (size 3 to 8) (size 9 to 14) (size 15 to 20)
#    0.000    0.571    2.857    5.143    4.000    2.857 
#    0.000    0.000    0.000    0.000    0.000    0.000 
#    0.000    0.000    0.000    0.000    0.000    0.000 
#
# Total GULP energy -78022.697925 kJ/mol
# GULP energy per Si atom -5573.049852 kJ/mol
# Density = 2.189090 g / cm^3
# Si number density = 21.940840 Si / 1000 Ang^3
#
#
#
# Elastic Constant Matrix: (Units=GPa)
#
#
# Indices 1 2 3 4 5 6 
#
# 1 59.2254 18.3085 3.1369 -13.3452 -9.5809 -26.4919
# 2 18.3085 71.5209 7.2127 -21.2491 4.4267 -22.7531
# 3 3.1369 7.2127 75.2268 -16.0223 -2.0553 -17.7277
# 4 -13.3452 -21.2491 -16.0223 18.3850 -5.1486 -3.8984
# 5 -9.5809 4.4267 -2.0553 -5.1486 21.6989 3.9743
# 6 -26.4919 -22.7531 -17.7277 -3.8984 3.9743 45.0542
#
#
#
# Elastic Compliance Matrix: (Units=1/GPa)
#
#
# Indices 1 2 3 4 5 6 
#
# 1 -0.032949 -0.049244 -0.040783 -0.139188 -0.028605 -0.069811
# 2 -0.049244 -0.019100 -0.034425 -0.110474 -0.036610 -0.058476
# 3 -0.040783 -0.034425 -0.017504 -0.103906 -0.027252 -0.054840
# 4 -0.139188 -0.110474 -0.103906 -0.332669 -0.091200 -0.199258
# 5 -0.028605 -0.036610 -0.027252 -0.091200 0.027016 -0.056305
# 6 -0.069811 -0.058476 -0.054840 -0.199258 -0.056305 -0.082237
#
#
# Mechanical properties :
#
#
# Convention : Reuss Voigt Hill
#
# Bulk Modulus (GPa) = -3.14013 29.25439 13.05713
# Shear Modulus (GPa) = -15.88856 28.84862 6.48003
#
# Velocity S-wave (km/s) = -2.69393 3.63000 1.72041
# Velocity P-wave (km/s) = 3.33326 5.56161 3.14808
#
# Compressibility (1/GPa) = -0.31845788
#
# Stress axis : x y z
#
# Youngs Moduli (GPa) = -30.34954 -52.35658 -57.12944
#
# Poissons Ratio (x) = -2.57827 -2.32989
# Poissons Ratio (y) = -1.49454 -1.96670
# Poissons Ratio (z) = -1.23773 -1.80239
#
# Static dielectric constant tensor:
#      x y z
#    x 1.808190 0.063670 -0.015750 
#    y 0.063670 1.911220 0.016280 
#    z -0.015750 0.016280 1.906210 
# 
# From -- ./inp_files/185212.got.cif
#   From: 2010.05.17/outbox.ucp.g08.bks.cvg/sg2_93_cif.got.tgz:185212.got - 2010.06.11 11:32:03.
