data_PCOD9075171
_publ_section_title
;
Structure prediction by ZEFSAII (Michael W. Deem and Ramdas Pophale) SiO2 
 PCOD9075171
Probable space group: P -1
;
_chemical_formula_sum "Si O2"
_cell_formula_units_Z 12
_cell_length_a 9.000000
_cell_length_b 12.000000
_cell_length_c 9.000000
_cell_angle_alpha 70.000000
_cell_angle_beta 70.000000
_cell_angle_gamma 40.000000
_cell_volume 581.935603
_symmetry_space_group_name_H-M "P -1"
_symmetry_group_IT_number 2
_symmetry_cell_setting 'triclinic'
loop_
_space_group_symop_operation_xyz
x,y,z
-x,-y,-z
loop_
_atom_site_type_symbol
_atom_site_label
_atom_site_fract_x
_atom_site_fract_y
_atom_site_fract_z
Si Si1 0.996238 0.283595 0.647381
Si Si2 0.029314 0.840664 0.596563
Si Si3 0.567942 0.070082 0.328250
Si Si4 0.811833 0.757854 0.869424
Si Si5 0.523798 0.648014 0.569549
Si Si6 0.807978 0.627008 0.238669
O O1 0.024543 0.216546 0.498603
O O2 0.723896 0.458517 0.663010
O O3 0.089799 0.352813 0.665110
O O4 0.167960 0.092398 0.746676
O O5 0.302253 0.687759 0.604941
O O6 0.887205 0.854177 0.771953
O O7 0.000000 0.000000 0.500000
O O8 0.405176 0.148479 0.205965
O O9 0.533821 0.209902 0.366684
O O10 0.500000 0.000000 0.500000
O O11 0.015713 0.563340 0.813630
O O12 0.761418 0.742947 0.063097
O O13 0.610424 0.659468 0.378365
#
# Coordination Sequence:
#
# PCOD9075171 Si02
#       6
#     2   2   2   2   2   2
#     4  12  23  41  68  97 126 175 219 261 319 386
#     4  12  24  42  65  97 134 168 215 267 322 387
#     4  12  20  39  67  95 126 165 224 266 303 389
#     4  11  24  43  65 101 131 164 218 275 320 377
#     4  12  22  42  68  97 126 171 221 260 320 389
#     4  11  23  42  69  97 128 171 217 270 324 372
#
# _framework density 20.620837999999999
#
# number of rings (size 3 to 8) (size 9 to 14) (size 15 to 20)
#    0.000    0.333    8.333    1.000    0.000    0.667 
#    0.000    3.333    0.000    0.000    0.000    0.000 
#    0.000    0.000    0.000    0.000    0.000    0.000 
#
# Total GULP energy -66802.719884 kJ/mol
# GULP energy per Si atom -5566.893324 kJ/mol
# Density = 2.057390 g / cm^3
# Si number density = 20.620838 Si / 1000 Ang^3
#
#
#
# Elastic Constant Matrix: (Units=GPa)
#
#
# Indices 1 2 3 4 5 6 
#
# 1 114.3760 18.4141 54.0832 -4.0070 9.6811 -16.4937
# 2 18.4141 104.8986 15.0378 -5.0895 0.2277 -1.4200
# 3 54.0832 15.0378 96.7438 -14.2349 2.0176 -10.3213
# 4 -4.0070 -5.0895 -14.2349 28.4385 3.4113 7.2527
# 5 9.6811 0.2277 2.0176 3.4113 25.4698 0.7260
# 6 -16.4937 -1.4200 -10.3213 7.2527 0.7260 40.4244
#
#
#
# Elastic Compliance Matrix: (Units=1/GPa)
#
#
# Indices 1 2 3 4 5 6 
#
# 1 0.013100 -0.001356 -0.006948 -0.002397 -0.004211 0.004029
# 2 -0.001356 0.009923 -0.000654 0.001379 0.000312 -0.000625
# 3 -0.006948 -0.000654 0.015253 0.006506 0.000571 -0.000141
# 4 -0.002397 0.001379 0.006506 0.040560 -0.004865 -0.006458
# 5 -0.004211 0.000312 0.000571 -0.004865 0.041507 -0.001434
# 6 0.004029 -0.000625 -0.000141 -0.006458 -0.001434 0.027508
#
#
# Mechanical properties :
#
#
# Convention : Reuss Voigt Hill
#
# Bulk Modulus (GPa) = 49.11881 54.56541 51.84211
# Shear Modulus (GPa) = 28.97652 34.09874 31.53763
#
# Velocity S-wave (km/s) = 3.75267 4.07087 3.91500
# Velocity P-wave (km/s) = 6.53058 6.97242 6.75511
#
# Compressibility (1/GPa) = 0.02035880
#
# Stress axis : x y z
#
# Youngs Moduli (GPa) = 76.33511 100.77920 65.56233
#
# Poissons Ratio (x) = 0.13668 0.45550
# Poissons Ratio (y) = 0.10353 0.04291
# Poissons Ratio (z) = 0.53035 0.06595
#
# Static dielectric constant tensor:
#      x y z
#    x 1.732310 -0.037720 0.015960 
#    y -0.037720 1.857090 -0.029600 
#    z 0.015960 -0.029600 1.743600 
# 
# From -- ./inp_files/159088.got.cif
#   From: 2010.05.17/outbox.ucp.g08.bks.cvg/sg2_80_cif.got.tgz:159088.got - 2010.06.11 11:32:03.
