data_PCOD9075526
_publ_section_title
;
Structure prediction by ZEFSAII (Michael W. Deem and Ramdas Pophale) SiO2 
 PCOD9075526
Probable space group: P -1
;
_chemical_formula_sum "Si O2"
_cell_formula_units_Z 8
_cell_length_a 6.000000
_cell_length_b 12.000000
_cell_length_c 6.000000
_cell_angle_alpha 60.000000
_cell_angle_beta 80.000000
_cell_angle_gamma 60.000000
_cell_volume 322.316702
_symmetry_space_group_name_H-M "P -1"
_symmetry_group_IT_number 2
_symmetry_cell_setting 'triclinic'
loop_
_space_group_symop_operation_xyz
x,y,z
-x,-y,-z
loop_
_atom_site_type_symbol
_atom_site_label
_atom_site_fract_x
_atom_site_fract_y
_atom_site_fract_z
Si Si1 0.297141 0.186781 0.621521
Si Si2 0.456089 0.364347 0.082045
Si Si3 0.709738 0.092326 0.045942
Si Si4 0.802586 0.461502 0.439993
O O1 0.383449 0.283474 0.362470
O O2 0.476941 0.156767 0.839705
O O3 0.984145 0.286863 0.575890
O O4 0.341754 0.027976 0.698341
O O5 0.500000 0.500000 0.000000
O O6 0.690156 0.226558 0.059533
O O7 0.229484 0.443589 0.866994
O O8 0.000000 0.000000 0.000000
O O9 0.500000 0.500000 0.500000
O O10 0.000000 0.500000 0.500000
#
# Coordination Sequence:
#
# PCOD9075526 Si02
#       4
#     2   2   2   2
#     4  11  26  48  76 114 155 211 265 326 399 475
#     4  12  27  48  81 119 157 206 269 331 399 477
#     4  11  26  51  78 108 163 209 262 328 399 478
#     4  12  25  49  80 114 162 210 264 330 407 476
#
# _framework density 24.820309000000002
#
# number of rings (size 3 to 8) (size 9 to 14) (size 15 to 20)
#    0.000    0.500    2.500    4.500    3.500    1.000 
#    9.000    0.000    0.000    0.000    0.000    0.000 
#    0.000    0.000    0.000    0.000    0.000    0.000 
#
# Total GULP energy -44543.598403 kJ/mol
# GULP energy per Si atom -5567.949800 kJ/mol
# Density = 2.476382 g / cm^3
# Si number density = 24.820309 Si / 1000 Ang^3
#
#
#
# Elastic Constant Matrix: (Units=GPa)
#
#
# Indices 1 2 3 4 5 6 
#
# 1 135.2063 82.0558 69.8995 -10.1707 -8.7243 -16.6411
# 2 82.0558 216.8381 101.6269 -31.4598 -14.4381 -2.8217
# 3 69.8995 101.6269 180.1695 -47.9347 -23.8817 -8.0286
# 4 -10.1707 -31.4598 -47.9347 37.2260 -3.2819 -11.5846
# 5 -8.7243 -14.4381 -23.8817 -3.2819 54.9986 -11.7764
# 6 -16.6411 -2.8217 -8.0286 -11.5846 -11.7764 71.1337
#
#
#
# Elastic Compliance Matrix: (Units=1/GPa)
#
#
# Indices 1 2 3 4 5 6 
#
# 1 0.010913 -0.003039 -0.003537 -0.003776 -0.000543 0.001328
# 2 -0.003039 0.007155 -0.002129 0.002475 0.000584 -0.000168
# 3 -0.003537 -0.002129 0.013733 0.016927 0.006822 0.004524
# 4 -0.003776 0.002475 0.016927 0.054697 0.013284 0.012232
# 5 -0.000543 0.000584 0.006822 0.013284 0.023441 0.006710
# 6 0.001328 -0.000168 0.004524 0.012232 0.006710 0.017976
#
#
# Mechanical properties :
#
#
# Convention : Reuss Voigt Hill
#
# Bulk Modulus (GPa) = 69.48389 115.48649 92.48519
# Shear Modulus (GPa) = 33.30618 51.24710 42.27664
#
# Velocity S-wave (km/s) = 3.66716 4.54885 4.13159
# Velocity P-wave (km/s) = 6.78132 8.61507 7.75260
#
# Compressibility (1/GPa) = 0.01439182
#
# Stress axis : x y z
#
# Youngs Moduli (GPa) = 91.63000 139.76212 72.81821
#
# Poissons Ratio (x) = 0.42469 0.25759
# Poissons Ratio (y) = 0.27843 0.15500
# Poissons Ratio (z) = 0.32414 0.29750
#
# Static dielectric constant tensor:
#      x y z
#    x 1.863370 0.002920 -0.047920 
#    y 0.002920 2.246380 0.203710 
#    z -0.047920 0.203710 2.089940 
# 
# From -- ./inp_files/1379.got.cif
#   From: 2010.05.17/outbox.ucp.g08.bks.cvg/sg2_1_cif.got.tgz:1379.got - 2010.06.11 11:32:03.
