data_PCOD9075933
_publ_section_title
;
Structure prediction by ZEFSAII (Michael W. Deem and Ramdas Pophale) SiO2 
 PCOD9075933
Probable space group: P -1
;
_chemical_formula_sum "Si O2"
_cell_formula_units_Z 16
_cell_length_a 18.280001
_cell_length_b 9.991975
_cell_length_c 9.456078
_cell_angle_alpha 77.929037
_cell_angle_beta 77.835181
_cell_angle_gamma 145.556189
_cell_volume 688.885509
_symmetry_space_group_name_H-M "P -1"
_symmetry_group_IT_number 2
_symmetry_cell_setting 'triclinic'
loop_
_space_group_symop_operation_xyz
x,y,z
-x,-y,-z
loop_
_atom_site_type_symbol
_atom_site_label
_atom_site_fract_x
_atom_site_fract_y
_atom_site_fract_z
Si Si1 0.699215 0.406964 0.983824
Si Si2 0.085720 0.249162 0.802903
Si Si3 0.647577 0.541939 0.437098
Si Si4 0.506584 0.220527 0.853888
Si Si5 0.994613 0.724372 0.907974
Si Si6 0.536254 0.921653 0.593865
Si Si7 0.073629 0.425105 0.562556
Si Si8 0.122565 0.641628 0.211945
O O1 0.623093 0.353594 0.165857
O O2 0.581091 0.069108 0.100501
O O3 0.653889 0.418953 0.862642
O O4 0.899613 0.686671 0.861736
O O5 0.242560 0.417518 0.636375
O O6 0.987132 0.147323 0.729505
O O7 0.096064 0.398132 0.874653
O O8 0.000000 0.000000 0.000000
O O9 0.581604 0.433444 0.647776
O O10 0.482362 0.240519 0.464997
O O11 0.792120 0.897162 0.258228
O O12 0.336906 0.012428 0.039940
O O13 0.943191 0.506242 0.885942
O O14 0.500000 0.000000 0.500000
O O15 0.721678 0.236644 0.535398
O O16 0.079284 0.450477 0.386676
O O17 0.972496 0.385189 0.679634
#
# Coordination Sequence:
#
# PCOD9075933 Si02
#       8
#     2   2   2   2   2   2   2   2
#     4  10  18  32  57  85 122 153 204 266 294 356
#     4  10  21  38  59  92 127 155 199 254 316 360
#     4  11  22  36  59  89 128 158 198 256 320 357
#     4  10  20  35  55  90 121 159 208 253 302 358
#     4  10  22  39  57  93 128 160 203 252 314 367
#     4  12  19  34  61  89 118 157 207 259 305 356
#     4  11  22  42  68  90 120 167 212 254 307 367
#     4  10  24  42  65  90 124 167 213 249 300 377
#
# _framework density 23.225919999999999
#
# number of rings (size 3 to 8) (size 9 to 14) (size 15 to 20)
#    0.000    1.500    5.000    0.000    5.250    1.000 
#    2.250    0.625    2.750    1.500    0.000    0.000 
#    0.000    0.000    0.000    0.000    0.000    0.000 
#
# Total GULP energy -89250.126429 kJ/mol
# GULP energy per Si atom -5578.132902 kJ/mol
# Density = 2.317306 g / cm^3
# Si number density = 23.225920 Si / 1000 Ang^3
#
#
#
# Elastic Constant Matrix: (Units=GPa)
#
#
# Indices 1 2 3 4 5 6 
#
# 1 34.2244 -8.2683 15.6480 4.0275 -4.1704 9.9422
# 2 -8.2683 60.3538 -7.5241 2.5397 0.7477 6.8531
# 3 15.6480 -7.5241 90.2352 16.0067 -7.1756 1.4600
# 4 4.0275 2.5397 16.0067 35.1478 1.8269 -0.5346
# 5 -4.1704 0.7477 -7.1756 1.8269 32.8156 5.0036
# 6 9.9422 6.8531 1.4600 -0.5346 5.0036 16.2740
#
#
#
# Elastic Compliance Matrix: (Units=1/GPa)
#
#
# Indices 1 2 3 4 5 6 
#
# 1 0.045704 0.009677 -0.004910 -0.004754 0.010087 -0.034814
# 2 0.009677 0.019913 0.001141 -0.003492 0.003602 -0.015622
# 3 -0.004910 0.001141 0.013227 -0.005668 0.002500 0.000378
# 4 -0.004754 -0.003492 -0.005668 0.032185 -0.004681 0.007380
# 5 0.010087 0.003602 0.002500 -0.004681 0.035367 -0.018931
# 6 -0.034814 -0.015622 0.000378 0.007380 -0.018931 0.095324
#
#
# Mechanical properties :
#
#
# Convention : Reuss Voigt Hill
#
# Bulk Modulus (GPa) = 11.03012 20.50272 15.76642
# Shear Modulus (GPa) = 19.22160 29.17801 24.19980
#
# Velocity S-wave (km/s) = 2.87991 3.54823 3.23140
# Velocity P-wave (km/s) = 3.97717 5.06293 4.55254
#
# Compressibility (1/GPa) = 0.09066083
#
# Stress axis : x y z
#
# Youngs Moduli (GPa) = 21.87991 50.21790 75.60397
#
# Poissons Ratio (x) = -0.48598 0.37121
# Poissons Ratio (y) = -0.21174 -0.08626
# Poissons Ratio (z) = 0.10743 -0.05729
#
# Static dielectric constant tensor:
#      x y z
#    x 1.897550 -0.050050 0.036430 
#    y -0.050050 2.040460 -0.072620 
#    z 0.036430 -0.072620 1.907440 
# 
# From -- ./inp_files/346126.got.cif
#   From: 2010.05.17/outbox.cif.g08.bks.cpg/sg2_174_cif.got.tgz:346126.got - 2010.06.03 11:33:40.
