data_PCOD9075547
_publ_section_title
;
Structure prediction by ZEFSAII (Michael W. Deem and Ramdas Pophale) SiO2 
 PCOD9075547
Probable space group: P -1
;
_chemical_formula_sum "Si O2"
_cell_formula_units_Z 14
_cell_length_a 27.000000
_cell_length_b 27.000000
_cell_length_c 15.000000
_cell_angle_alpha 20.000000
_cell_angle_beta 20.000000
_cell_angle_gamma 10.000000
_cell_volume 630.401208
_symmetry_space_group_name_H-M "P -1"
_symmetry_group_IT_number 2
_symmetry_cell_setting 'triclinic'
loop_
_space_group_symop_operation_xyz
x,y,z
-x,-y,-z
loop_
_atom_site_type_symbol
_atom_site_label
_atom_site_fract_x
_atom_site_fract_y
_atom_site_fract_z
Si Si1 0.767651 0.274850 0.494633
Si Si2 0.320091 0.520847 0.403040
Si Si3 0.073624 0.535315 0.034547
Si Si4 0.444223 0.947671 0.096971
Si Si5 0.162474 0.010149 0.693843
Si Si6 0.019671 0.297700 0.632279
Si Si7 0.597912 0.264079 0.987037
O O1 0.500000 0.500000 0.500000
O O2 0.686542 0.257212 0.752996
O O3 0.849899 0.370299 0.218149
O O4 0.000000 0.000000 0.500000
O O5 0.471455 0.287685 0.615122
O O6 0.307497 0.692860 0.174429
O O7 0.994483 0.772560 0.491776
O O8 0.514564 0.316466 0.331805
O O9 0.980458 0.501380 0.327128
O O10 0.342814 0.220554 0.063662
O O11 0.858565 0.751761 0.948096
O O12 0.500000 0.000000 0.000000
O O13 0.106987 0.146752 0.645840
O O14 0.000000 0.000000 0.000000
O O15 0.734463 0.475929 0.859647
O O16 0.264520 0.015881 0.759958
#
# Coordination Sequence:
#
# PCOD9075547 Si02
#       7
#     2   2   2   2   2   2   2
#     4  12  28  52  79 104 131 182 247 311 373 420
#     4  12  22  37  62  96 136 187 241 277 322 404
#     4  12  26  47  71 105 146 186 238 299 356 422
#     4  12  24  42  68 102 151 193 237 282 346 421
#     4  12  21  35  58  97 147 189 231 268 327 419
#     4  12  25  42  67 104 146 187 224 285 357 415
#     4  12  24  44  70 100 137 180 233 293 350 427
#
# _framework density 22.208079000000001
#
# number of rings (size 3 to 8) (size 9 to 14) (size 15 to 20)
#    0.000    0.000    4.286    6.857    2.000    0.000 
#    0.000    4.286    0.000    0.000    0.000    0.000 
#    0.000    0.000    0.000    0.000    0.000    0.000 
#
# Total GULP energy -78103.828634 kJ/mol
# GULP energy per Si atom -5578.844902 kJ/mol
# Density = 2.215753 g / cm^3
# Si number density = 22.208079 Si / 1000 Ang^3
#
#
#
# Elastic Constant Matrix: (Units=GPa)
#
#
# Indices 1 2 3 4 5 6 
#
# 1 122.4662 54.5215 44.8321 4.8496 -1.7407 15.2665
# 2 54.5215 108.0648 15.8901 2.3697 3.3034 11.4175
# 3 44.8321 15.8901 147.0018 -12.4104 9.6630 7.7407
# 4 4.8496 2.3697 -12.4104 36.6279 2.5255 15.8003
# 5 -1.7407 3.3034 9.6630 2.5255 42.1735 -0.7936
# 6 15.2665 11.4175 7.7407 15.8003 -0.7936 37.9010
#
#
#
# Elastic Compliance Matrix: (Units=1/GPa)
#
#
# Indices 1 2 3 4 5 6 
#
# 1 0.012107 -0.005451 -0.003264 -0.001688 0.001741 -0.001828
# 2 -0.005451 0.012150 0.000654 0.001169 -0.001436 -0.002115
# 3 -0.003264 0.000654 0.008399 0.004490 -0.002427 -0.002520
# 4 -0.001688 0.001169 0.004490 0.035979 -0.003639 -0.015664
# 5 0.001741 -0.001436 -0.002427 -0.003639 0.024712 0.002262
# 6 -0.001828 -0.002115 -0.002520 -0.015664 0.002262 0.034850
#
#
# Mechanical properties :
#
#
# Convention : Reuss Voigt Hill
#
# Bulk Modulus (GPa) = 60.48804 67.55781 64.02293
# Shear Modulus (GPa) = 33.37124 40.82644 37.09884
#
# Velocity S-wave (km/s) = 3.88062 4.29226 4.09162
# Velocity P-wave (km/s) = 6.88296 7.41964 7.15633
#
# Compressibility (1/GPa) = 0.01653219
#
# Stress axis : x y z
#
# Youngs Moduli (GPa) = 82.59964 82.30694 119.06771
#
# Poissons Ratio (x) = 0.44868 0.38860
# Poissons Ratio (y) = 0.45027 -0.07783
# Poissons Ratio (z) = 0.26958 -0.05380
#
# Static dielectric constant tensor:
#      x y z
#    x 1.770830 -0.011230 0.049650 
#    y -0.011230 1.872030 0.057160 
#    z 0.049650 0.057160 1.908430 
# 
# From -- ./inp_files/544562.got.cif
#   From: 2010.05.17/outbox.ucp.g08.bks.cvg/sg2_273_cif.got.tgz:544562.got - 2010.06.11 11:32:03.
