data_PCOD9075085
_publ_section_title
;
Structure prediction by ZEFSAII (Michael W. Deem and Ramdas Pophale) SiO2 
 PCOD9075085
Probable space group: P -1
;
_chemical_formula_sum "Si O2"
_cell_formula_units_Z 14
_cell_length_a 9.000000
_cell_length_b 18.000000
_cell_length_c 9.000000
_cell_angle_alpha 60.000000
_cell_angle_beta 150.000000
_cell_angle_gamma 120.000000
_cell_volume 623.732165
_symmetry_space_group_name_H-M "P -1"
_symmetry_group_IT_number 2
_symmetry_cell_setting 'triclinic'
loop_
_space_group_symop_operation_xyz
x,y,z
-x,-y,-z
loop_
_atom_site_type_symbol
_atom_site_label
_atom_site_fract_x
_atom_site_fract_y
_atom_site_fract_z
Si Si1 0.498452 0.602944 0.023272
Si Si2 0.912672 0.383523 0.619231
Si Si3 0.738601 0.795361 0.161006
Si Si4 0.179362 0.256170 0.369692
Si Si5 0.772175 0.207903 0.808099
Si Si6 0.417967 0.451552 0.324666
Si Si7 0.645440 0.102069 0.506500
O O1 0.655847 0.692648 0.146734
O O2 0.341332 0.529393 0.073904
O O3 0.766017 0.566300 0.202463
O O4 0.275382 0.630234 0.680637
O O5 0.977219 0.290986 0.829147
O O6 0.710924 0.422815 0.527000
O O7 0.761870 0.777725 0.379762
O O8 0.032420 0.867735 0.319578
O O9 0.537162 0.840903 0.819110
O O10 0.455607 0.237990 0.528474
O O11 0.191875 0.361607 0.257533
O O12 0.901314 0.201489 0.093056
O O13 0.709941 0.134973 0.700898
O O14 0.500000 0.500000 0.500000
O O15 0.500000 0.000000 0.500000
#
# Coordination Sequence:
#
# PCOD9075085 Si02
#       7
#     2   2   2   2   2   2   2
#     4  12  22  43  64  95 133 181 227 276 313 394
#     4  11  23  41  65  92 136 181 231 267 327 378
#     4  12  23  46  70 102 136 175 220 277 346 398
#     4  11  25  43  67  98 142 185 213 271 333 402
#     4  11  22  44  68  96 134 178 224 268 344 397
#     4  11  24  41  62 101 141 180 232 272 319 381
#     4  12  26  47  76 103 128 167 228 287 339 411
#
# _framework density 22.445532
#
# number of rings (size 3 to 8) (size 9 to 14) (size 15 to 20)
#    0.000    0.571    4.286    4.714    0.000    2.286 
#    0.000   11.429    0.000    0.000    0.000    0.000 
#    0.000    0.000    0.000    0.000    0.000    0.000 
#
# Total GULP energy -77966.899476 kJ/mol
# GULP energy per Si atom -5569.064248 kJ/mol
# Density = 2.239444 g / cm^3
# Si number density = 22.445532 Si / 1000 Ang^3
#
#
#
# Elastic Constant Matrix: (Units=GPa)
#
#
# Indices 1 2 3 4 5 6 
#
# 1 86.5708 59.0205 41.4651 9.5429 -45.5474 -1.8015
# 2 59.0205 133.7951 13.2791 8.1117 -23.3566 1.9424
# 3 41.4651 13.2791 114.4967 11.8142 -31.3760 -5.7737
# 4 9.5429 8.1117 11.8142 34.7307 2.5549 -10.8855
# 5 -45.5474 -23.3566 -31.3760 2.5549 45.3772 12.5303
# 6 -1.8015 1.9424 -5.7737 -10.8855 12.5303 36.2796
#
#
#
# Elastic Compliance Matrix: (Units=1/GPa)
#
#
# Indices 1 2 3 4 5 6 
#
# 1 0.043867 -0.010244 -0.001862 -0.017838 0.043424 -0.017920
# 2 -0.010244 0.011201 0.001417 0.000116 -0.003658 0.000416
# 3 -0.001862 0.001417 0.011877 -0.005292 0.008107 -0.002666
# 4 -0.017838 0.000116 -0.005292 0.044590 -0.030101 0.022041
# 5 0.043424 -0.003658 0.008107 -0.030101 0.080177 -0.033081
# 6 -0.017920 0.000416 -0.002666 0.022041 -0.033081 0.044266
#
#
# Mechanical properties :
#
#
# Convention : Reuss Voigt Hill
#
# Bulk Modulus (GPa) = 21.94527 62.48800 42.21664
# Shear Modulus (GPa) = 18.34567 38.01734 28.18150
#
# Velocity S-wave (km/s) = 2.86202 4.12000 3.54722
# Velocity P-wave (km/s) = 4.55191 7.10864 5.96878
#
# Compressibility (1/GPa) = 0.04556791
#
# Stress axis : x y z
#
# Youngs Moduli (GPa) = 22.79614 89.28099 84.19669
#
# Poissons Ratio (x) = 0.91459 0.15675
# Poissons Ratio (y) = 0.23352 -0.11933
# Poissons Ratio (z) = 0.04244 -0.12654
#
# Static dielectric constant tensor:
#      x y z
#    x 1.877050 -0.007410 0.017350 
#    y -0.007410 1.864360 0.005820 
#    z 0.017350 0.005820 1.969230 
# 
# From -- ./inp_files/37531.got.cif
#   From: 2010.05.17/outbox.ucp.g08.bks.cvg/sg2_19_cif.got.tgz:37531.got - 2010.06.11 11:32:03.
