data_PCOD9075717
_publ_section_title
;
Structure prediction by ZEFSAII (Michael W. Deem and Ramdas Pophale) SiO2 
 PCOD9075717
Probable space group: P -1
;
_chemical_formula_sum "Si O2"
_cell_formula_units_Z 13
_cell_length_a 7.311277
_cell_length_b 11.839707
_cell_length_c 12.855768
_cell_angle_alpha 43.407885
_cell_angle_beta 132.328451
_cell_angle_gamma 115.471344
_cell_volume 561.518236
_symmetry_space_group_name_H-M "P -1"
_symmetry_group_IT_number 2
_symmetry_cell_setting 'triclinic'
loop_
_space_group_symop_operation_xyz
x,y,z
-x,-y,-z
loop_
_atom_site_type_symbol
_atom_site_label
_atom_site_fract_x
_atom_site_fract_y
_atom_site_fract_z
Si Si1 0.000000 0.000000 0.500000
Si Si2 0.876507 0.203836 0.170649
Si Si3 0.570514 0.004719 0.700920
Si Si4 0.714852 0.650018 0.890231
Si Si5 0.016249 0.854778 0.365241
Si Si6 0.794747 0.487953 0.247767
Si Si7 0.334045 0.174907 0.928655
O O1 0.283972 0.074921 0.551265
O O2 0.844691 0.192264 0.288127
O O3 0.063458 0.319824 0.121990
O O4 0.619242 0.213660 0.006092
O O5 0.990663 0.002050 0.344692
O O6 0.386673 0.163715 0.237953
O O7 0.744945 0.121974 0.629996
O O8 0.668180 0.950492 0.890594
O O9 0.490042 0.558274 0.822748
O O10 0.821325 0.553033 0.097764
O O11 0.035388 0.674272 0.541268
O O12 0.779735 0.888429 0.176867
O O13 0.820229 0.649463 0.219206
#
# Coordination Sequence:
#
# PCOD9075717 Si02
#       7
#     1   2   2   2   2   2   2
#     4  10  18  32  54  86 102 122 178 230 264 292
#     4  10  21  36  57  78 107 139 177 223 262 311
#     4   9  19  34  57  80 107 138 176 222 261 311
#     4   9  19  37  55  78 106 142 175 214 277 312
#     4  11  20  36  57  79 105 145 181 210 257 320
#     4  10  20  34  56  78 107 140 177 220 260 315
#     4  10  21  36  52  80 112 142 173 214 264 315
#
# _framework density 23.151519
#
# number of rings (size 3 to 8) (size 9 to 14) (size 15 to 20)
#    0.000    2.154    0.000    3.231    0.000    4.308 
#    0.000    6.923    0.000    0.000    0.000    0.000 
#    0.000    0.000    0.000    0.000    0.000    0.000 
#
# Total GULP energy -72533.309519 kJ/mol
# GULP energy per Si atom -5579.485348 kJ/mol
# Density = 2.309882 g / cm^3
# Si number density = 23.151519 Si / 1000 Ang^3
#
#
#
# Elastic Constant Matrix: (Units=GPa)
#
#
# Indices 1 2 3 4 5 6 
#
# 1 77.5164 11.5572 25.2079 1.1547 -16.2268 33.3324
# 2 11.5572 57.9184 47.9081 7.9267 -10.2366 -8.9259
# 3 25.2079 47.9081 103.9969 2.7883 0.3301 -3.0053
# 4 1.1547 7.9267 2.7883 45.3935 1.6337 1.9020
# 5 -16.2268 -10.2366 0.3301 1.6337 30.9035 -7.8093
# 6 33.3324 -8.9259 -3.0053 1.9020 -7.8093 46.9479
#
#
#
# Elastic Compliance Matrix: (Units=1/GPa)
#
#
# Indices 1 2 3 4 5 6 
#
# 1 0.023382 -0.001047 -0.005677 0.000314 0.007969 -0.015851
# 2 -0.001047 0.034853 -0.015428 -0.005979 0.013727 0.008908
# 3 -0.005677 -0.015428 0.018095 0.001987 -0.008184 0.000814
# 4 0.000314 -0.005979 0.001987 0.023197 -0.003771 -0.002800
# 5 0.007969 0.013727 -0.008184 -0.003771 0.042291 0.003615
# 6 -0.015851 0.008908 0.000814 -0.002800 0.003615 0.035014
#
#
# Mechanical properties :
#
#
# Convention : Reuss Voigt Hill
#
# Bulk Modulus (GPa) = 31.22421 45.41979 38.32200
# Shear Modulus (GPa) = 21.56928 34.96624 28.26776
#
# Velocity S-wave (km/s) = 3.05562 3.89050 3.49806
# Velocity P-wave (km/s) = 5.09561 6.31209 5.73619
#
# Compressibility (1/GPa) = 0.03202643
#
# Stress axis : x y z
#
# Youngs Moduli (GPa) = 42.76772 28.69179 55.26392
#
# Poissons Ratio (x) = 0.03005 0.31373
# Poissons Ratio (y) = 0.04479 0.85260
# Poissons Ratio (z) = 0.24279 0.44265
#
# Static dielectric constant tensor:
#      x y z
#    x 1.958400 -0.059880 -0.027970 
#    y -0.059880 1.889950 0.010400 
#    z -0.027970 0.010400 1.992380 
# 
# From -- ./inp_files/230170.got.cif
#   From: 2010.05.17/outbox.cif.g08.bks.cpg/sg2_116_cif.got.tgz:230170.got - 2010.06.03 11:33:40.
