data_PCOD9075087
_publ_section_title
;
Structure prediction by ZEFSAII (Michael W. Deem and Ramdas Pophale) SiO2 
 PCOD9075087
Probable space group: P -1
;
_chemical_formula_sum "Si O2"
_cell_formula_units_Z 16
_cell_length_a 12.000000
_cell_length_b 9.000000
_cell_length_c 27.000000
_cell_angle_alpha 150.000000
_cell_angle_beta 30.000000
_cell_angle_gamma 140.000000
_cell_volume 727.497153
_symmetry_space_group_name_H-M "P -1"
_symmetry_group_IT_number 2
_symmetry_cell_setting 'triclinic'
loop_
_space_group_symop_operation_xyz
x,y,z
-x,-y,-z
loop_
_atom_site_type_symbol
_atom_site_label
_atom_site_fract_x
_atom_site_fract_y
_atom_site_fract_z
Si Si1 0.671824 0.919838 0.188910
Si Si2 0.024433 0.497322 0.607741
Si Si3 0.526039 0.077028 0.454451
Si Si4 0.314204 0.437074 0.818376
Si Si5 0.891178 0.543787 0.278012
Si Si6 0.077632 0.509889 0.089690
Si Si7 0.613089 0.924297 0.882098
Si Si8 0.842811 0.090169 0.648759
O O1 0.684703 0.693654 0.164435
O O2 0.412912 0.954036 0.284333
O O3 0.808860 0.223904 0.238960
O O4 0.797170 0.784070 0.055060
O O5 0.245661 0.720256 0.585604
O O6 0.806983 0.688235 0.742863
O O7 0.986358 0.296476 0.613619
O O8 0.061699 0.236459 0.478084
O O9 0.311350 0.250866 0.573399
O O10 0.500000 0.000000 0.500000
O O11 0.538265 0.776362 0.332061
O O12 0.422412 0.770242 0.876428
O O13 0.076708 0.427480 0.880226
O O14 0.924124 0.501881 0.194705
O O15 0.115403 0.711877 0.261368
O O16 0.265537 0.776631 0.098693
O O17 0.500000 0.000000 0.000000
#
# Coordination Sequence:
#
# PCOD9075087 Si02
#       8
#     2   2   2   2   2   2   2   2
#     4  12  26  46  73 103 138 187 238 289 349 416
#     4  11  22  44  69 101 140 178 235 289 341 417
#     4  12  24  45  71 104 143 183 232 285 358 418
#     4  12  25  44  78 101 140 183 238 294 343 413
#     4  12  27  45  71 103 145 187 227 290 356 421
#     4  12  27  47  68 107 142 187 236 284 355 419
#     4  12  24  43  72 103 138 179 235 284 348 408
#     4  11  25  44  72 102 141 180 236 291 351 410
#
# _framework density 21.993213000000001
#
# number of rings (size 3 to 8) (size 9 to 14) (size 15 to 20)
#    0.000    0.250    6.250    2.250    1.750    4.500 
#    0.000    2.500    0.000    0.000    0.000    0.000 
#    0.000    0.000    0.000    0.000    0.000    0.000 
#
# Total GULP energy -89517.944369 kJ/mol
# GULP energy per Si atom -5594.871523 kJ/mol
# Density = 2.194316 g / cm^3
# Si number density = 21.993213 Si / 1000 Ang^3
#
#
#
# Elastic Constant Matrix: (Units=GPa)
#
#
# Indices 1 2 3 4 5 6 
#
# 1 55.6175 11.7552 16.8998 2.1187 11.8211 18.9324
# 2 11.7552 74.4840 24.5363 8.4254 11.0924 25.5673
# 3 16.8998 24.5363 114.8567 -2.6669 15.8839 8.1976
# 4 2.1187 8.4254 -2.6669 40.9595 6.2267 8.2907
# 5 11.8211 11.0924 15.8839 6.2267 22.1258 11.2170
# 6 18.9324 25.5673 8.1976 8.2907 11.2170 25.7088
#
#
#
# Elastic Compliance Matrix: (Units=1/GPa)
#
#
# Indices 1 2 3 4 5 6 
#
# 1 0.026049 0.004626 -0.002650 0.002586 -0.003864 -0.022086
# 2 0.004626 0.022373 -0.003946 -0.000307 0.001991 -0.025168
# 3 -0.002650 -0.003946 0.010625 0.001715 -0.007315 0.005127
# 4 0.002586 -0.000307 0.001715 0.027027 -0.005853 -0.008309
# 5 -0.003864 0.001991 -0.007315 -0.005853 0.064949 -0.023252
# 6 -0.022086 -0.025168 0.005127 -0.008309 -0.023252 0.091381
#
#
# Mechanical properties :
#
#
# Convention : Reuss Voigt Hill
#
# Bulk Modulus (GPa) = 18.14674 39.03785 28.59229
# Shear Modulus (GPa) = 18.88841 30.54327 24.71584
#
# Velocity S-wave (km/s) = 2.93376 3.73065 3.35594
# Velocity P-wave (km/s) = 4.44352 6.02872 5.29577
#
# Compressibility (1/GPa) = 0.05510633
#
# Stress axis : x y z
#
# Youngs Moduli (GPa) = 38.38978 44.69691 94.11772
#
# Poissons Ratio (x) = -0.20678 0.24943
# Poissons Ratio (y) = -0.17760 0.37141
# Poissons Ratio (z) = 0.10174 0.17638
#
# Static dielectric constant tensor:
#      x y z
#    x 1.816040 0.007540 0.027910 
#    y 0.007540 1.774490 0.013660 
#    z 0.027910 0.013660 1.818420 
# 
# From -- ./inp_files/273849.got.cif
#   From: 2010.05.17/outbox.ucp.g08.bks.cvg/sg2_137_cif.got.tgz:273849.got - 2010.06.11 11:32:03.
