data_PCOD9075313
_publ_section_title
;
Structure prediction by ZEFSAII (Michael W. Deem and Ramdas Pophale) SiO2 
 PCOD9075313
Probable space group: P -1
;
_chemical_formula_sum "Si O2"
_cell_formula_units_Z 14
_cell_length_a 12.000000
_cell_length_b 21.000000
_cell_length_c 15.000000
_cell_angle_alpha 20.000000
_cell_angle_beta 40.000000
_cell_angle_gamma 30.000000
_cell_volume 620.704002
_symmetry_space_group_name_H-M "P -1"
_symmetry_group_IT_number 2
_symmetry_cell_setting 'triclinic'
loop_
_space_group_symop_operation_xyz
x,y,z
-x,-y,-z
loop_
_atom_site_type_symbol
_atom_site_label
_atom_site_fract_x
_atom_site_fract_y
_atom_site_fract_z
Si Si1 0.678752 0.848928 0.205872
Si Si2 0.493676 0.589509 0.245304
Si Si3 0.285911 0.857419 0.424410
Si Si4 0.238928 0.700713 0.852994
Si Si5 0.085865 0.427825 0.388284
Si Si6 0.148073 0.847028 0.275446
Si Si7 0.672584 0.010122 0.318860
O O1 0.409277 0.974057 0.199633
O O2 0.757051 0.718577 0.427030
O O3 0.836455 0.639373 0.308574
O O4 0.756590 0.012451 0.940229
O O5 0.534553 0.384284 0.427682
O O6 0.256327 0.757945 0.226024
O O7 0.707602 0.413718 0.415077
O O8 0.490393 0.762509 0.950166
O O9 0.282638 0.758570 0.652855
O O10 0.021388 0.022632 0.331285
O O11 0.500000 0.500000 0.000000
O O12 0.157626 0.551446 0.121566
O O13 0.147550 0.225198 0.546465
O O14 0.867623 0.013179 0.239545
O O15 0.500000 0.000000 0.500000
#
# Coordination Sequence:
#
# PCOD9075313 Si02
#       7
#     2   2   2   2   2   2   2
#     4  11  24  44  72 107 138 188 243 299 350 419
#     4  11  25  45  72 105 139 189 242 294 358 426
#     4  11  25  44  73 106 141 186 241 297 356 430
#     4  11  24  46  71 105 146 184 235 298 363 427
#     4  11  24  42  71 105 141 188 242 295 355 420
#     4  11  26  48  71 103 147 188 242 301 351 431
#     4  12  27  48  72 104 146 195 235 295 367 430
#
# _framework density 22.555033999999999
#
# number of rings (size 3 to 8) (size 9 to 14) (size 15 to 20)
#    0.000    0.857    2.857    3.000    4.000    8.571 
#    0.000    0.000    0.000    0.000    0.000    0.000 
#    0.000    0.000    0.000    0.000    0.000    0.000 
#
# Total GULP energy -77950.054821 kJ/mol
# GULP energy per Si atom -5567.861059 kJ/mol
# Density = 2.250370 g / cm^3
# Si number density = 22.555034 Si / 1000 Ang^3
#
#
#
# Elastic Constant Matrix: (Units=GPa)
#
#
# Indices 1 2 3 4 5 6 
#
# 1 67.8074 66.1409 37.9245 8.0394 6.3511 -3.7579
# 2 66.1409 154.3547 33.6999 9.7620 -12.8152 -15.3226
# 3 37.9245 33.6999 126.8095 18.8988 19.9712 1.0938
# 4 8.0394 9.7620 18.8988 42.0968 2.0258 -0.0840
# 5 6.3511 -12.8152 19.9712 2.0258 41.4847 -7.4372
# 6 -3.7579 -15.3226 1.0938 -0.0840 -7.4372 36.3804
#
#
#
# Elastic Compliance Matrix: (Units=1/GPa)
#
#
# Indices 1 2 3 4 5 6 
#
# 1 0.030426 -0.013007 -0.004408 -0.000477 -0.007189 -0.003673
# 2 -0.013007 0.013507 -0.000868 -0.000616 0.007677 0.005940
# 3 -0.004408 -0.000868 0.010770 -0.003556 -0.004994 -0.002174
# 4 -0.000477 -0.000616 -0.003556 0.025569 0.000333 -0.000075
# 5 -0.007189 0.007677 -0.004994 0.000333 0.031597 0.009101
# 6 -0.003673 0.005940 -0.002174 -0.000075 0.009101 0.031535
#
#
# Mechanical properties :
#
#
# Convention : Reuss Voigt Hill
#
# Bulk Modulus (GPa) = 55.13207 69.38912 62.26060
# Shear Modulus (GPa) = 26.87930 38.07280 32.47605
#
# Velocity S-wave (km/s) = 3.45588 4.11298 3.79866
# Velocity P-wave (km/s) = 6.35771 7.30661 6.84862
#
# Compressibility (1/GPa) = 0.01813826
#
# Stress axis : x y z
#
# Youngs Moduli (GPa) = 32.86628 74.03338 92.84970
#
# Poissons Ratio (x) = 0.96293 0.40928
# Poissons Ratio (y) = 0.42748 0.08061
# Poissons Ratio (z) = 0.14487 0.06427
#
# Static dielectric constant tensor:
#      x y z
#    x 1.967630 0.010540 -0.021100 
#    y 0.010540 1.824240 -0.051840 
#    z -0.021100 -0.051840 1.897660 
# 
# From -- ./inp_files/524003.got.cif
#   From: 2010.05.17/outbox.ucp.g08.bks.cvg/sg2_263_cif.got.tgz:524003.got - 2010.06.11 11:32:03.
