data_PCOD9075932
_publ_section_title
;
Structure prediction by ZEFSAII (Michael W. Deem and Ramdas Pophale) SiO2 
 PCOD9075932
Probable space group: P -1
;
_chemical_formula_sum "Si O2"
_cell_formula_units_Z 16
_cell_length_a 8.694890
_cell_length_b 11.572826
_cell_length_c 8.064877
_cell_angle_alpha 102.859725
_cell_angle_beta 74.486988
_cell_angle_gamma 102.692462
_cell_volume 751.180769
_symmetry_space_group_name_H-M "P -1"
_symmetry_group_IT_number 2
_symmetry_cell_setting 'triclinic'
loop_
_space_group_symop_operation_xyz
x,y,z
-x,-y,-z
loop_
_atom_site_type_symbol
_atom_site_label
_atom_site_fract_x
_atom_site_fract_y
_atom_site_fract_z
Si Si1 0.548530 0.438216 0.129736
Si Si2 0.062557 0.877257 0.613548
Si Si3 0.953684 0.855841 0.249071
Si Si4 0.597330 0.150351 0.633746
Si Si5 0.734005 0.242230 0.984744
Si Si6 0.645153 0.682664 0.357898
Si Si7 0.506031 0.928965 0.804349
Si Si8 0.737764 0.750246 0.711704
O O1 0.576009 0.547246 0.285474
O O2 0.397400 0.329648 0.164060
O O3 0.500000 0.500000 0.000000
O O4 0.711566 0.380105 0.054721
O O5 0.242016 0.853652 0.520108
O O6 0.992739 0.868452 0.440373
O O7 0.925540 0.782378 0.716503
O O8 0.068732 0.007676 0.738048
O O9 0.794418 0.756724 0.234689
O O10 0.099574 0.807309 0.100680
O O11 0.648025 0.208573 0.819193
O O12 0.489005 0.231748 0.595506
O O13 0.508941 0.018219 0.678070
O O14 0.641833 0.178118 0.152262
O O15 0.713407 0.682477 0.522704
O O16 0.672959 0.876113 0.740225
O O17 0.500000 0.000000 0.000000
#
# Coordination Sequence:
#
# PCOD9075932 Si02
#       8
#     2   2   2   2   2   2   2   2
#     4  11  22  40  62  79 111 156 198 233 278 338
#     4   9  17  33  56  85 114 148 181 228 287 345
#     4   9  18  33  56  85 116 146 183 230 288 343
#     4  10  18  32  57  85 118 146 187 229 282 341
#     4   9  18  35  57  79 109 156 195 224 274 347
#     4  11  22  36  58  89 117 147 190 241 280 324
#     4   9  17  30  55  84 112 150 185 222 279 345
#     4  10  21  37  61  84 112 148 194 237 279 332
#
# _framework density 21.299799
#
# number of rings (size 3 to 8) (size 9 to 14) (size 15 to 20)
#    0.000    2.250    1.250    4.125    0.000    2.500 
#    0.000    1.250    8.250    0.000    0.000    0.000 
#    0.000    0.000    0.000    0.000    0.000    0.000 
#
# Total GULP energy -89211.394516 kJ/mol
# GULP energy per Si atom -5575.712157 kJ/mol
# Density = 2.125132 g / cm^3
# Si number density = 21.299799 Si / 1000 Ang^3
#
#
#
# Elastic Constant Matrix: (Units=GPa)
#
#
# Indices 1 2 3 4 5 6 
#
# 1 84.4383 30.0150 26.8354 2.7715 -37.8579 5.3934
# 2 30.0150 87.0410 31.3527 16.5616 -20.9053 -9.7302
# 3 26.8354 31.3527 64.4775 0.6225 -21.2094 -3.0007
# 4 2.7715 16.5616 0.6225 23.0503 -3.2408 -5.9170
# 5 -37.8579 -20.9053 -21.2094 -3.2408 42.6646 1.6870
# 6 5.3934 -9.7302 -3.0007 -5.9170 1.6870 21.7223
#
#
#
# Elastic Compliance Matrix: (Units=1/GPa)
#
#
# Indices 1 2 3 4 5 6 
#
# 1 0.022035 -0.003762 -0.002157 0.000269 0.017002 -0.008702
# 2 -0.003762 0.018049 -0.006451 -0.010861 0.001273 0.005070
# 3 -0.002157 -0.006451 0.021538 0.005585 0.005990 0.001677
# 4 0.000269 -0.010861 0.005585 0.053868 0.001374 0.010407
# 5 0.017002 0.001273 0.005990 0.001374 0.042458 -0.005747
# 6 -0.008702 0.005070 0.001677 0.010407 -0.005747 0.053980
#
#
# Mechanical properties :
#
#
# Convention : Reuss Voigt Hill
#
# Bulk Modulus (GPa) = 27.11278 45.81812 36.46545
# Shear Modulus (GPa) = 20.08325 27.33770 23.71048
#
# Velocity S-wave (km/s) = 3.07397 3.58644 3.34005
# Velocity P-wave (km/s) = 5.03546 6.22156 5.65967
#
# Compressibility (1/GPa) = 0.03688298
#
# Stress axis : x y z
#
# Youngs Moduli (GPa) = 45.38148 55.40460 46.42868
#
# Poissons Ratio (x) = 0.20844 0.10013
# Poissons Ratio (y) = 0.17073 0.29951
# Poissons Ratio (z) = 0.09787 0.35742
#
# Static dielectric constant tensor:
#      x y z
#    x 1.815840 0.011750 0.021950 
#    y 0.011750 1.863390 -0.054520 
#    z 0.021950 -0.054520 1.830100 
# 
# From -- ./inp_files/189209.got.cif
#   From: 2010.05.17/outbox.cif.g08.bks.cpg/sg2_95_cif.got.tgz:189209.got - 2010.06.03 11:33:40.
