data_PCOD9075807
_publ_section_title
;
Structure prediction by ZEFSAII (Michael W. Deem and Ramdas Pophale) SiO2 
 PCOD9075807
Probable space group: P -1
;
_chemical_formula_sum "Si O2"
_cell_formula_units_Z 14
_cell_length_a 11.463322
_cell_length_b 15.405417
_cell_length_c 8.570491
_cell_angle_alpha 33.197887
_cell_angle_beta 57.930900
_cell_angle_gamma 51.707860
_cell_volume 650.146516
_symmetry_space_group_name_H-M "P -1"
_symmetry_group_IT_number 2
_symmetry_cell_setting 'triclinic'
loop_
_space_group_symop_operation_xyz
x,y,z
-x,-y,-z
loop_
_atom_site_type_symbol
_atom_site_label
_atom_site_fract_x
_atom_site_fract_y
_atom_site_fract_z
Si Si1 0.031030 0.227883 0.955731
Si Si2 0.412552 0.327893 0.433960
Si Si3 0.523892 0.674696 0.250620
Si Si4 0.226104 0.467557 0.917491
Si Si5 0.272368 0.688043 0.818231
Si Si6 0.989518 0.426148 0.371619
Si Si7 0.649430 0.975309 0.034098
O O1 0.003629 0.289253 0.702386
O O2 0.191969 0.075765 0.086196
O O3 0.037021 0.392571 0.797058
O O4 0.888114 0.197540 0.171358
O O5 0.399446 0.347006 0.601197
O O6 0.587453 0.255935 0.373620
O O7 0.338352 0.198206 0.625573
O O8 0.331143 0.514746 0.140785
O O9 0.500000 0.500000 0.500000
O O10 0.626180 0.681611 0.023716
O O11 0.387494 0.854694 0.094876
O O12 0.256616 0.614659 0.770219
O O13 0.139469 0.549137 0.698513
O O14 0.129879 0.397576 0.202446
O O15 0.500000 0.000000 0.000000
#
# Coordination Sequence:
#
# PCOD9075807 Si02
#       7
#     2   2   2   2   2   2   2
#     4  10  18  36  57  85 117 158 193 240 288 349
#     4  10  20  38  59  92 117 156 200 232 289 354
#     4  11  21  37  59  82 116 153 192 244 295 345
#     4  10  18  32  55  89 110 151 192 239 291 345
#     4  10  20  34  64  89 118 155 195 238 290 350
#     4   9  18  31  59  85 117 147 195 239 290 350
#     4  10  21  36  60  86 115 155 200 240 288 348
#
# _framework density 21.533608999999998
#
# number of rings (size 3 to 8) (size 9 to 14) (size 15 to 20)
#    0.000    2.000    1.429    5.143    0.000    0.000 
#    0.000    5.714    6.286    1.714    0.000    0.000 
#    0.000    0.000    0.000    0.000    0.000    0.000 
#
# Total GULP energy -78102.429625 kJ/mol
# GULP energy per Si atom -5578.744973 kJ/mol
# Density = 2.148460 g / cm^3
# Si number density = 21.533609 Si / 1000 Ang^3
#
#
#
# Elastic Constant Matrix: (Units=GPa)
#
#
# Indices 1 2 3 4 5 6 
#
# 1 73.9680 42.0293 12.0751 10.9157 -0.7369 -13.6321
# 2 42.0293 175.5216 44.4708 14.7436 -11.0350 -36.3092
# 3 12.0751 44.4708 48.8037 12.2717 -8.4351 2.9606
# 4 10.9157 14.7436 12.2717 26.7670 4.7127 -4.2856
# 5 -0.7369 -11.0350 -8.4351 4.7127 35.9692 10.2060
# 6 -13.6321 -36.3092 2.9606 -4.2856 10.2060 48.9071
#
#
#
# Elastic Compliance Matrix: (Units=1/GPa)
#
#
# Indices 1 2 3 4 5 6 
#
# 1 0.016340 -0.003058 -0.000421 -0.004325 -0.000726 0.002083
# 2 -0.003058 0.010302 -0.009799 0.001616 -0.001646 0.007874
# 3 -0.000421 -0.009799 0.036033 -0.015031 0.011155 -0.013219
# 4 -0.004325 0.001616 -0.015031 0.048379 -0.011603 0.007564
# 5 -0.000726 -0.001646 0.011155 -0.011603 0.034335 -0.010282
# 6 0.002083 0.007874 -0.013219 0.007564 -0.010282 0.030482
#
#
# Mechanical properties :
#
#
# Convention : Reuss Voigt Hill
#
# Bulk Modulus (GPa) = 27.68590 55.04930 41.36760
# Shear Modulus (GPa) = 23.31364 35.64319 29.47842
#
# Velocity S-wave (km/s) = 3.29395 4.07287 3.70395
# Velocity P-wave (km/s) = 5.22990 6.90924 6.12737
#
# Compressibility (1/GPa) = 0.03611947
#
# Stress axis : x y z
#
# Youngs Moduli (GPa) = 61.19826 97.06925 27.75228
#
# Poissons Ratio (x) = 0.29680 0.01169
# Poissons Ratio (y) = 0.18712 0.27195
# Poissons Ratio (z) = 0.02578 0.95120
#
# Static dielectric constant tensor:
#      x y z
#    x 1.847310 -0.071700 0.009750 
#    y -0.071700 1.801160 0.001760 
#    z 0.009750 0.001760 1.841950 
# 
# From -- ./inp_files/266394.got.cif
#   From: 2010.05.17/outbox.cif.g08.bks.cpg/sg2_134_cif.got.tgz:266394.got - 2010.06.03 11:33:40.
