data_PCOD9075477
_publ_section_title
;
Structure prediction by ZEFSAII (Michael W. Deem and Ramdas Pophale) SiO2 
 PCOD9075477
Probable space group: P -1
;
_chemical_formula_sum "Si O2"
_cell_formula_units_Z 12
_cell_length_a 6.000000
_cell_length_b 9.000000
_cell_length_c 18.000000
_cell_angle_alpha 140.000000
_cell_angle_beta 120.000000
_cell_angle_gamma 80.000000
_cell_volume 501.352703
_symmetry_space_group_name_H-M "P -1"
_symmetry_group_IT_number 2
_symmetry_cell_setting 'triclinic'
loop_
_space_group_symop_operation_xyz
x,y,z
-x,-y,-z
loop_
_atom_site_type_symbol
_atom_site_label
_atom_site_fract_x
_atom_site_fract_y
_atom_site_fract_z
Si Si1 0.072261 0.679272 0.489476
Si Si2 0.623325 0.654818 0.976662
Si Si3 0.467128 0.645885 0.660635
Si Si4 0.130449 0.855468 0.022199
Si Si5 0.151417 0.200106 0.767938
Si Si6 0.266550 0.741963 0.386394
O O1 0.319058 0.616087 0.544222
O O2 0.116259 0.769555 0.447306
O O3 0.797363 0.433509 0.358401
O O4 0.049885 0.908291 0.620686
O O5 0.367895 0.765260 0.985874
O O6 0.799856 0.745874 0.116490
O O7 0.850398 0.707471 0.968668
O O8 0.447754 0.358078 0.839926
O O9 0.621617 0.469728 0.649759
O O10 0.669396 0.929736 0.808373
O O11 0.000000 0.000000 0.000000
O O12 0.940396 0.310007 0.737196
O O13 0.500000 0.000000 0.500000
#
# Coordination Sequence:
#
# PCOD9075477 Si02
#       6
#     2   2   2   2   2   2
#     4  11  25  47  71 106 147 191 243 309 372 439
#     4  11  28  49  75 110 147 202 243 310 367 445
#     4  11  26  45  72 105 146 192 245 306 376 436
#     4  12  27  48  78 108 150 197 251 304 370 443
#     4  11  25  48  73 106 148 191 250 303 373 439
#     4  12  26  41  73 110 142 193 242 309 368 444
#
# _framework density 23.935244999999998
#
# number of rings (size 3 to 8) (size 9 to 14) (size 15 to 20)
#    0.000    0.667    3.333    2.500    7.000    4.000 
#    0.000    0.000    0.000    0.000    0.000    0.000 
#    0.000    0.000    0.000    0.000    0.000    0.000 
#
# Total GULP energy -66968.313266 kJ/mol
# GULP energy per Si atom -5580.692772 kJ/mol
# Density = 2.388077 g / cm^3
# Si number density = 23.935245 Si / 1000 Ang^3
#
#
#
# Elastic Constant Matrix: (Units=GPa)
#
#
# Indices 1 2 3 4 5 6 
#
# 1 118.8114 50.2876 39.2952 -2.7152 7.6363 12.2926
# 2 50.2876 128.7940 4.1968 -16.5049 -5.7399 -11.1019
# 3 39.2952 4.1968 49.6626 4.9409 22.0395 -0.5570
# 4 -2.7152 -16.5049 4.9409 46.6789 2.5951 12.3236
# 5 7.6363 -5.7399 22.0395 2.5951 25.2731 9.4049
# 6 12.2926 -11.1019 -0.5570 12.3236 9.4049 68.1380
#
#
#
# Elastic Compliance Matrix: (Units=1/GPa)
#
#
# Indices 1 2 3 4 5 6 
#
# 1 0.016764 -0.005728 -0.018132 0.001820 0.011501 -0.006022
# 2 -0.005728 0.010390 0.003464 0.002360 -0.000041 0.002333
# 3 -0.018132 0.003464 0.055153 -0.006224 -0.045545 0.011699
# 4 0.001820 0.002360 -0.006224 0.024078 0.004807 -0.005013
# 5 0.011501 -0.000041 -0.045545 0.004807 0.080689 -0.014460
# 6 -0.006022 0.002333 0.011699 -0.005013 -0.014460 0.019141
#
#
# Mechanical properties :
#
#
# Convention : Reuss Voigt Hill
#
# Bulk Modulus (GPa) = 24.08881 53.86969 38.97925
# Shear Modulus (GPa) = 19.16840 41.58391 30.37615
#
# Velocity S-wave (km/s) = 2.83299 4.17268 3.56630
# Velocity P-wave (km/s) = 4.55929 6.76537 5.76877
#
# Compressibility (1/GPa) = 0.04151305
#
# Stress axis : x y z
#
# Youngs Moduli (GPa) = 59.65308 96.24934 18.13131
#
# Poissons Ratio (x) = 0.55130 0.32876
# Poissons Ratio (y) = 0.34169 -0.06280
# Poissons Ratio (z) = 1.08166 -0.33337
#
# Static dielectric constant tensor:
#      x y z
#    x 1.946940 -0.057620 -0.009410 
#    y -0.057620 1.915370 0.018060 
#    z -0.009410 0.018060 2.020240 
# 
# From -- ./inp_files/23104.got.cif
#   From: 2010.05.17/outbox.ucp.g08.bks.cvg/sg2_12_cif.got.tgz:23104.got - 2010.06.11 11:32:03.
