data_PCOD9075262
_publ_section_title
;
Structure prediction by ZEFSAII (Michael W. Deem and Ramdas Pophale) SiO2 
 PCOD9075262
Probable space group: P -1
;
_chemical_formula_sum "Si O2"
_cell_formula_units_Z 16
_cell_length_a 18.000000
_cell_length_b 9.000000
_cell_length_c 6.000000
_cell_angle_alpha 80.000000
_cell_angle_beta 60.000000
_cell_angle_gamma 60.000000
_cell_volume 725.212580
_symmetry_space_group_name_H-M "P -1"
_symmetry_group_IT_number 2
_symmetry_cell_setting 'triclinic'
loop_
_space_group_symop_operation_xyz
x,y,z
-x,-y,-z
loop_
_atom_site_type_symbol
_atom_site_label
_atom_site_fract_x
_atom_site_fract_y
_atom_site_fract_z
Si Si1 0.941034 0.707040 0.993963
Si Si2 0.741945 0.874552 0.534379
Si Si3 0.888665 0.219670 0.324308
Si Si4 0.731131 0.540674 0.738571
Si Si5 0.162839 0.015928 0.273305
Si Si6 0.731602 0.291458 0.161137
Si Si7 0.431345 0.796234 0.478604
Si Si8 0.479298 0.340842 0.115336
O O1 0.015127 0.781833 0.914551
O O2 0.900174 0.793815 0.788663
O O3 0.843361 0.786683 0.267602
O O4 0.000000 0.500000 0.000000
O O5 0.731666 0.719999 0.702109
O O6 0.758391 0.984592 0.672408
O O7 0.650371 0.001507 0.484133
O O8 0.831496 0.389495 0.522104
O O9 0.903055 0.052939 0.483558
O O10 0.812115 0.246001 0.240033
O O11 0.637649 0.580696 0.716272
O O12 0.716169 0.460570 0.009312
O O13 0.222364 0.870585 0.036765
O O14 0.631300 0.306108 0.399208
O O15 0.477549 0.753626 0.678644
O O16 0.488472 0.754916 0.158712
O O17 0.500000 0.500000 0.000000
#
# Coordination Sequence:
#
# PCOD9075262 Si02
#       8
#     2   2   2   2   2   2   2   2
#     4  12  26  45  70 110 141 195 243 307 379 445
#     4  12  27  47  71 106 153 193 237 312 379 447
#     4  11  24  46  73 104 143 190 252 302 368 448
#     4  11  27  44  71 109 147 192 242 313 372 442
#     4  11  24  45  71 101 148 191 245 305 368 449
#     4  11  23  45  75 106 139 198 246 302 374 441
#     4  12  25  48  77 110 151 196 251 310 379 445
#     4  12  26  46  80 113 146 197 258 314 370 447
#
# _framework density 22.062495999999999
#
# number of rings (size 3 to 8) (size 9 to 14) (size 15 to 20)
#    0.000    0.500    5.000    2.250    3.500    5.500 
#    0.000    0.000    0.000    0.000    0.000    0.000 
#    0.000    0.000    0.000    0.000    0.000    0.000 
#
# Total GULP energy -89410.731381 kJ/mol
# GULP energy per Si atom -5588.170711 kJ/mol
# Density = 2.201228 g / cm^3
# Si number density = 22.062496 Si / 1000 Ang^3
#
#
#
# Elastic Constant Matrix: (Units=GPa)
#
#
# Indices 1 2 3 4 5 6 
#
# 1 72.1401 5.5014 6.8460 -18.2950 8.4445 -16.9098
# 2 5.5014 121.1914 41.8259 -37.1651 3.0390 -7.5981
# 3 6.8460 41.8259 76.5954 -10.1419 11.0285 -12.5861
# 4 -18.2950 -37.1651 -10.1419 47.7695 -7.0373 1.7679
# 5 8.4445 3.0390 11.0285 -7.0373 41.7851 -9.3637
# 6 -16.9098 -7.5981 -12.5861 1.7679 -9.3637 44.4211
#
#
#
# Elastic Compliance Matrix: (Units=1/GPa)
#
#
# Indices 1 2 3 4 5 6 
#
# 1 0.017331 0.002262 -0.000583 0.007928 -0.000756 0.006344
# 2 0.002262 0.013532 -0.006313 0.010338 0.002293 0.001459
# 3 -0.000583 -0.006313 0.017283 -0.002117 -0.003691 0.002901
# 4 0.007928 0.010338 -0.002117 0.032080 0.004471 0.003852
# 5 -0.000756 0.002293 -0.003691 0.004471 0.026653 0.004499
# 6 0.006344 0.001459 0.002901 0.003852 0.004499 0.026793
#
#
# Mechanical properties :
#
#
# Convention : Reuss Voigt Hill
#
# Bulk Modulus (GPa) = 25.72181 42.03040 33.87610
# Shear Modulus (GPa) = 32.07214 41.17871 36.62543
#
# Velocity S-wave (km/s) = 3.81687 4.32494 4.07882
# Velocity P-wave (km/s) = 5.57751 6.63567 6.12947
#
# Compressibility (1/GPa) = 0.03887751
#
# Stress axis : x y z
#
# Youngs Moduli (GPa) = 57.70073 73.90098 57.86069
#
# Poissons Ratio (x) = -0.16720 0.03376
# Poissons Ratio (y) = -0.13055 0.36527
# Poissons Ratio (z) = 0.03366 0.46653
#
# Static dielectric constant tensor:
#      x y z
#    x 1.819940 -0.006270 0.012950 
#    y -0.006270 1.826270 0.020090 
#    z 0.012950 0.020090 1.848290 
# 
# From -- ./inp_files/56856.got.cif
#   From: 2010.05.17/outbox.ucp.g08.bks.cvg/sg2_29_cif.got.tgz:56856.got - 2010.06.11 11:32:03.
