data_PCOD9075008
_publ_section_title
;
Structure prediction by ZEFSAII (Michael W. Deem and Ramdas Pophale) SiO2 
 PCOD9075008
Probable space group: P -1
;
_chemical_formula_sum "Si O2"
_cell_formula_units_Z 16
_cell_length_a 15.270979
_cell_length_b 10.944238
_cell_length_c 14.299398
_cell_angle_alpha 51.678858
_cell_angle_beta 29.257089
_cell_angle_gamma 42.471388
_cell_volume 786.657087
_symmetry_space_group_name_H-M "P -1"
_symmetry_group_IT_number 2
_symmetry_cell_setting 'triclinic'
loop_
_space_group_symop_operation_xyz
x,y,z
-x,-y,-z
loop_
_atom_site_type_symbol
_atom_site_label
_atom_site_fract_x
_atom_site_fract_y
_atom_site_fract_z
Si Si1 0.679830 0.792541 0.957232
Si Si2 0.790786 0.714810 0.697884
Si Si3 0.012311 0.890823 0.634435
Si Si4 0.564790 0.176164 0.267681
Si Si5 0.694030 0.022403 0.418876
Si Si6 0.733224 0.483857 0.703826
Si Si7 0.844354 0.128152 0.861631
Si Si8 0.417237 0.848896 0.344620
O O1 0.707281 0.683436 0.888433
O O2 0.900362 0.780169 0.768983
O O3 0.608421 0.753030 0.140515
O O4 0.500000 0.000000 0.000000
O O5 0.736555 0.624657 0.707243
O O6 0.040017 0.624286 0.505108
O O7 0.688260 0.931447 0.676724
O O8 0.883702 0.015713 0.783360
O O9 0.000000 0.000000 0.500000
O O10 0.249183 0.796630 0.492624
O O11 0.676608 0.115058 0.291992
O O12 0.442672 0.392386 0.264678
O O13 0.398749 0.108578 0.448617
O O14 0.723617 0.092161 0.072606
O O15 0.558748 0.164655 0.559765
O O16 0.931567 0.916977 0.285033
O O17 0.715032 0.334907 0.850106
#
# Coordination Sequence:
#
# PCOD9075008 Si02
#       8
#     2   2   2   2   2   2   2   2
#     4  10  19  30  52  79 108 133 181 227 266 312
#     4  10  18  32  53  79 114 143 171 221 280 314
#     4  11  18  29  50  79 106 137 171 224 275 305
#     4  11  22  33  56  78 106 153 184 212 271 325
#     4  10  20  38  53  77 111 143 185 228 260 315
#     4  11  19  34  53  81 118 144 168 220 275 333
#     4  11  22  36  54  82 115 141 180 223 272 322
#     4  10  18  34  52  75 107 136 177 225 267 306
#
# _framework density 20.339231000000002
#
# number of rings (size 3 to 8) (size 9 to 14) (size 15 to 20)
#    0.000    1.500    6.250    2.250    1.750    0.000 
#    0.000    0.000    0.000    0.750    0.000   20.125 
#    0.000    0.000    0.000    0.000    0.000    0.000 
#
# Total GULP energy -89296.160413 kJ/mol
# GULP energy per Si atom -5581.010026 kJ/mol
# Density = 2.029294 g / cm^3
# Si number density = 20.339231 Si / 1000 Ang^3
#
#
#
# Elastic Constant Matrix: (Units=GPa)
#
#
# Indices 1 2 3 4 5 6 
#
# 1 102.0751 29.5751 30.3788 1.0370 31.5583 -13.8116
# 2 29.5751 31.7600 19.5202 -1.9110 11.4669 -12.4738
# 3 30.3788 19.5202 97.1745 -0.1890 33.0126 -2.2883
# 4 1.0370 -1.9110 -0.1890 16.5954 3.4305 8.3312
# 5 31.5583 11.4669 33.0126 3.4305 49.7611 -5.2581
# 6 -13.8116 -12.4738 -2.2883 8.3312 -5.2581 21.3344
#
#
#
# Elastic Compliance Matrix: (Units=1/GPa)
#
#
# Indices 1 2 3 4 5 6 
#
# 1 0.015509 -0.010804 -0.000359 -0.002332 -0.006634 0.002961
# 2 -0.010804 0.056506 -0.008316 -0.008113 0.002977 0.029053
# 3 -0.000359 -0.008316 0.014927 0.004887 -0.008898 -0.007595
# 4 -0.002332 -0.008113 0.004887 0.081623 -0.009748 -0.040006
# 5 -0.006634 0.002977 -0.008898 -0.009748 0.031032 0.007946
# 6 0.002961 0.029053 -0.007595 -0.040006 0.007946 0.082543
#
#
# Mechanical properties :
#
#
# Convention : Reuss Voigt Hill
#
# Bulk Modulus (GPa) = 20.84036 43.32866 32.08451
# Shear Modulus (GPa) = 14.83267 27.64056 21.23661
#
# Velocity S-wave (km/s) = 2.70342 3.69043 3.23479
# Velocity P-wave (km/s) = 4.47362 6.28556 5.45534
#
# Compressibility (1/GPa) = 0.04798381
#
# Stress axis : x y z
#
# Youngs Moduli (GPa) = 64.47728 17.69737 66.99155
#
# Poissons Ratio (x) = 0.19120 0.02407
# Poissons Ratio (y) = 0.69659 0.55712
# Poissons Ratio (z) = 0.02317 0.14718
#
# Static dielectric constant tensor:
#      x y z
#    x 1.751500 -0.001760 0.010370 
#    y -0.001760 1.732070 0.001830 
#    z 0.010370 0.001830 1.784240 
# 
# From -- ./inp_files/531706.got.cif
#   From: 2010.05.17/outbox.cif.g08.bks.cpg/sg2_266_cif.got.tgz:531706.got - 2010.06.03 11:33:40.
