data_PCOD9075145
_publ_section_title
;
Structure prediction by ZEFSAII (Michael W. Deem and Ramdas Pophale) SiO2 
 PCOD9075145
Probable space group: P -1
;
_chemical_formula_sum "Si O2"
_cell_formula_units_Z 16
_cell_length_a 9.000000
_cell_length_b 9.000000
_cell_length_c 21.000000
_cell_angle_alpha 120.000000
_cell_angle_beta 120.000000
_cell_angle_gamma 30.000000
_cell_volume 727.687525
_symmetry_space_group_name_H-M "P -1"
_symmetry_group_IT_number 2
_symmetry_cell_setting 'triclinic'
loop_
_space_group_symop_operation_xyz
x,y,z
-x,-y,-z
loop_
_atom_site_type_symbol
_atom_site_label
_atom_site_fract_x
_atom_site_fract_y
_atom_site_fract_z
Si Si1 0.882380 0.622493 0.073347
Si Si2 0.513674 0.208177 0.323451
Si Si3 0.627673 0.047499 0.705425
Si Si4 0.472341 0.242634 0.169465
Si Si5 0.186858 0.692941 0.946753
Si Si6 0.749591 0.751675 0.449105
Si Si7 0.769436 0.337952 0.199813
Si Si8 0.055715 0.778270 0.427113
O O1 0.872983 0.446359 0.067874
O O2 0.125557 0.543913 0.142064
O O3 0.579830 0.976944 0.101190
O O4 0.000000 0.500000 0.000000
O O5 0.481994 0.242255 0.248173
O O6 0.375488 0.460600 0.398199
O O7 0.391645 0.125454 0.304946
O O8 0.863660 0.929385 0.353856
O O9 0.441277 0.202727 0.633169
O O10 0.481148 0.309807 0.774792
O O11 0.973145 0.815747 0.728616
O O12 0.647738 0.255156 0.177846
O O13 0.138063 0.736114 0.869776
O O14 0.500000 0.500000 0.000000
O O15 0.000000 0.000000 0.000000
O O16 0.000000 0.500000 0.500000
O O17 0.915702 0.751516 0.438664
O O18 0.500000 0.000000 0.500000
O O19 0.000000 0.000000 0.500000
#
# Coordination Sequence:
#
# PCOD9075145 Si02
#       8
#     2   2   2   2   2   2   2   2
#     4  12  24  43  66  94 132 172 211 264 321 380
#     4  11  23  43  63  89 125 167 210 256 317 383
#     4  11  23  42  64  90 125 167 208 259 319 378
#     4  12  25  42  65  96 128 168 214 264 321 380
#     4  12  24  42  66  95 128 169 214 262 314 376
#     4  11  23  41  65  93 125 163 209 259 317 381
#     4  12  24  41  64  95 126 163 214 266 313 378
#     4  11  24  42  64  92 126 165 208 260 317 380
#
# _framework density 21.987459999999999
#
# number of rings (size 3 to 8) (size 9 to 14) (size 15 to 20)
#    0.000    0.500    0.000   10.500    0.000    3.000 
#    0.000    0.000    0.000    0.000    0.000    0.000 
#    0.000    0.000    0.000    0.000    0.000    0.000 
#
# Total GULP energy -89184.318361 kJ/mol
# GULP energy per Si atom -5574.019898 kJ/mol
# Density = 2.193742 g / cm^3
# Si number density = 21.987460 Si / 1000 Ang^3
#
#
#
# Elastic Constant Matrix: (Units=GPa)
#
#
# Indices 1 2 3 4 5 6 
#
# 1 101.5295 30.2473 58.0210 -4.8972 4.0697 6.5999
# 2 30.2473 101.9968 29.2138 -1.1783 -2.6828 -10.0644
# 3 58.0210 29.2138 114.7103 -7.2158 -35.2368 24.6176
# 4 -4.8972 -1.1783 -7.2158 62.7716 -6.0838 6.2095
# 5 4.0697 -2.6828 -35.2368 -6.0838 44.6094 5.2233
# 6 6.5999 -10.0644 24.6176 6.2095 5.2233 21.3911
#
#
#
# Elastic Compliance Matrix: (Units=1/GPa)
#
#
# Indices 1 2 3 4 5 6 
#
# 1 0.037093 0.013287 -0.061555 -0.018701 -0.063907 0.086680
# 2 0.013287 0.023272 -0.041458 -0.014256 -0.042595 0.069100
# 3 -0.061555 -0.041458 0.147946 0.048173 0.152549 -0.222008
# 4 -0.018701 -0.014256 0.048173 0.032619 0.052562 -0.078680
# 5 -0.063907 -0.042595 0.152549 0.052562 0.180905 -0.235313
# 6 0.086680 0.069100 -0.222008 -0.078680 -0.235313 0.388309
#
#
# Mechanical properties :
#
#
# Convention : Reuss Voigt Hill
#
# Bulk Modulus (GPa) = 34.65234 61.46676 48.05955
# Shear Modulus (GPa) = 5.00393 39.13804 22.07099
#
# Velocity S-wave (km/s) = 1.51022 4.22360 3.17172
# Velocity P-wave (km/s) = 4.33996 7.19730 5.94291
#
# Compressibility (1/GPa) = 0.02885808
#
# Stress axis : x y z
#
# Youngs Moduli (GPa) = 26.95931 42.97098 6.75924
#
# Poissons Ratio (x) = -0.57094 0.41607
# Poissons Ratio (y) = -0.35820 0.28022
# Poissons Ratio (z) = 1.65949 1.78147
#
# Static dielectric constant tensor:
#      x y z
#    x 1.756340 -0.021630 0.033890 
#    y -0.021630 1.838150 0.000910 
#    z 0.033890 0.000910 1.722320 
# 
# From -- ./inp_files/217779.got.cif
#   From: 2010.05.17/outbox.ucp.g08.bks.cvg/sg2_109_cif.got.tgz:217779.got - 2010.06.11 11:32:03.
