data_PCOD9075668
_publ_section_title
;
Structure prediction by ZEFSAII (Michael W. Deem and Ramdas Pophale) SiO2 
 PCOD9075668
Probable space group: P -1
;
_chemical_formula_sum "Si O2"
_cell_formula_units_Z 14
_cell_length_a 15.000000
_cell_length_b 21.000000
_cell_length_c 12.000000
_cell_angle_alpha 30.000000
_cell_angle_beta 30.000000
_cell_angle_gamma 20.000000
_cell_volume 615.533390
_symmetry_space_group_name_H-M "P -1"
_symmetry_group_IT_number 2
_symmetry_cell_setting 'triclinic'
loop_
_space_group_symop_operation_xyz
x,y,z
-x,-y,-z
loop_
_atom_site_type_symbol
_atom_site_label
_atom_site_fract_x
_atom_site_fract_y
_atom_site_fract_z
Si Si1 0.987383 0.933373 0.915897
Si Si2 0.667327 0.790206 0.183939
Si Si3 0.439640 0.280520 0.358822
Si Si4 0.199798 0.636059 0.944165
Si Si5 0.372258 0.623226 0.336246
Si Si6 0.924373 0.465040 0.247309
Si Si7 0.217484 0.207666 0.532400
O O1 0.241565 0.875661 0.776158
O O2 0.081628 0.824971 0.854836
O O3 0.734752 0.172871 0.836247
O O4 0.944486 0.829943 0.193971
O O5 0.572966 0.760731 0.438275
O O6 0.680414 0.681360 0.234566
O O7 0.948677 0.703090 0.052674
O O8 0.500000 0.000000 0.000000
O O9 0.278151 0.265129 0.484198
O O10 0.313444 0.484280 0.150580
O O11 0.432309 0.508246 0.785901
O O12 0.500000 0.500000 0.500000
O O13 0.127454 0.654682 0.539088
O O14 0.111642 0.352027 0.326428
O O15 0.000000 0.500000 0.000000
O O16 0.500000 0.000000 0.500000
#
# Coordination Sequence:
#
# PCOD9075668 Si02
#       7
#     2   2   2   2   2   2   2
#     4  12  28  49  83 119 155 206 270 323 390 473
#     4  12  28  47  80 113 152 208 261 321 396 468
#     4  12  25  50  81 117 155 205 267 324 391 466
#     4  12  25  52  82 112 158 207 263 328 393 465
#     4  12  30  49  76 117 163 206 260 328 398 470
#     4  12  28  50  74 112 160 201 257 326 396 463
#     4  12  26  47  82 114 156 205 262 327 386 468
#
# _framework density 22.744501
#
# number of rings (size 3 to 8) (size 9 to 14) (size 15 to 20)
#    0.000    0.000    2.857    6.000   10.000    2.286 
#    0.000    0.000    0.000    0.000    0.000    0.000 
#    0.000    0.000    0.000    0.000    0.000    0.000 
#
# Total GULP energy -78165.661741 kJ/mol
# GULP energy per Si atom -5583.261553 kJ/mol
# Density = 2.269273 g / cm^3
# Si number density = 22.744501 Si / 1000 Ang^3
#
#
#
# Elastic Constant Matrix: (Units=GPa)
#
#
# Indices 1 2 3 4 5 6 
#
# 1 106.5670 30.4960 60.8165 -6.1215 19.9420 17.5445
# 2 30.4960 112.8697 57.8829 -21.5753 16.3876 19.8072
# 3 60.8165 57.8829 174.9496 1.9025 27.5368 9.1901
# 4 -6.1215 -21.5753 1.9025 49.8188 2.0209 -7.4277
# 5 19.9420 16.3876 27.5368 2.0209 55.0348 1.9776
# 6 17.5445 19.8072 9.1901 -7.4277 1.9776 46.9661
#
#
#
# Elastic Compliance Matrix: (Units=1/GPa)
#
#
# Indices 1 2 3 4 5 6 
#
# 1 0.012752 -0.000293 -0.003754 0.001148 -0.002567 -0.003615
# 2 -0.000293 0.012722 -0.003672 0.005148 -0.001903 -0.003643
# 3 -0.003754 -0.003672 0.008481 -0.002152 -0.001747 0.001025
# 4 0.001148 0.005148 -0.002152 0.022821 -0.001764 0.001505
# 5 -0.002567 -0.001903 -0.001747 -0.001764 0.020572 0.000958
# 6 -0.003615 -0.003643 0.001025 0.001505 0.000958 0.024176
#
#
# Mechanical properties :
#
#
# Convention : Reuss Voigt Hill
#
# Bulk Modulus (GPa) = 54.01221 76.97522 65.49372
# Shear Modulus (GPa) = 40.60613 46.71001 43.65807
#
# Velocity S-wave (km/s) = 4.22988 4.53667 4.38596
# Velocity P-wave (km/s) = 6.90325 7.83319 7.38287
#
# Compressibility (1/GPa) = 0.01851433
#
# Stress axis : x y z
#
# Youngs Moduli (GPa) = 78.42027 78.60538 117.91698
#
# Poissons Ratio (x) = 0.02306 0.44269
# Poissons Ratio (y) = 0.02301 0.43302
# Poissons Ratio (z) = 0.29441 0.28866
#
# Static dielectric constant tensor:
#      x y z
#    x 1.914150 0.002430 -0.020540 
#    y 0.002430 1.922780 0.042070 
#    z -0.020540 0.042070 1.840960 
# 
# From -- ./inp_files/457594.got.cif
#   From: 2010.05.17/outbox.ucp.g08.bks.cvg/sg2_229_cif.got.tgz:457594.got - 2010.06.11 11:32:03.
