data_PCOD9075068
_publ_section_title
;
Structure prediction by ZEFSAII (Michael W. Deem and Ramdas Pophale) SiO2 
 PCOD9075068
Probable space group: P -1
;
_chemical_formula_sum "Si O2"
_cell_formula_units_Z 14
_cell_length_a 30.000000
_cell_length_b 15.000000
_cell_length_c 12.000000
_cell_angle_alpha 150.000000
_cell_angle_beta 20.000000
_cell_angle_gamma 160.000000
_cell_volume 624.976433
_symmetry_space_group_name_H-M "P -1"
_symmetry_group_IT_number 2
_symmetry_cell_setting 'triclinic'
loop_
_space_group_symop_operation_xyz
x,y,z
-x,-y,-z
loop_
_atom_site_type_symbol
_atom_site_label
_atom_site_fract_x
_atom_site_fract_y
_atom_site_fract_z
Si Si1 0.236260 0.568191 0.220255
Si Si2 0.726204 0.427453 0.097596
Si Si3 0.958497 0.371776 0.078167
Si Si4 0.346080 0.833427 0.782248
Si Si5 0.884975 0.960884 0.111783
Si Si6 0.324903 0.189528 0.782675
Si Si7 0.562666 0.770244 0.833847
O O1 0.126290 0.572381 0.574118
O O2 0.224365 0.641389 0.202701
O O3 0.138670 0.276253 0.110400
O O4 0.440015 0.746877 0.998951
O O5 0.651674 0.274470 0.223885
O O6 0.527631 0.314235 0.401109
O O7 0.906702 0.739434 0.034908
O O8 0.802513 0.053107 0.093333
O O9 0.000000 0.500000 0.000000
O O10 0.167448 0.556727 0.841066
O O11 0.500000 0.000000 0.500000
O O12 0.356284 0.037982 0.042730
O O13 0.808198 0.954227 0.168044
O O14 0.741842 0.871695 0.452183
O O15 0.401881 0.466169 0.928169
#
# Coordination Sequence:
#
# PCOD9075068 Si02
#       7
#     2   2   2   2   2   2   2
#     4  11  23  41  72 103 139 179 223 287 342 401
#     4  12  23  41  74 103 140 179 233 281 346 403
#     4  12  27  49  68  99 141 185 232 284 343 409
#     4  12  28  48  67 101 138 185 236 281 340 418
#     4  11  22  43  67 112 140 174 231 286 337 411
#     4  11  23  44  69 105 139 180 224 286 345 402
#     4  11  23  45  71 104 144 173 229 287 340 410
#
# _framework density 22.400845
#
# number of rings (size 3 to 8) (size 9 to 14) (size 15 to 20)
#    0.000    0.571    4.286    4.714    4.000    2.286 
#    2.571    3.571    0.000    0.000    0.000    0.000 
#    0.000    0.000    0.000    0.000    0.000    0.000 
#
# Total GULP energy -77966.922375 kJ/mol
# GULP energy per Si atom -5569.065884 kJ/mol
# Density = 2.234986 g / cm^3
# Si number density = 22.400845 Si / 1000 Ang^3
#
#
#
# Elastic Constant Matrix: (Units=GPa)
#
#
# Indices 1 2 3 4 5 6 
#
# 1 99.9632 0.7469 5.7855 -6.5428 18.1594 -11.1696
# 2 0.7469 145.6383 13.3583 -27.3162 1.6684 -9.7293
# 3 5.7855 13.3583 41.3538 -16.5437 10.5275 -16.1508
# 4 -6.5428 -27.3162 -16.5437 37.5408 10.7005 8.5569
# 5 18.1594 1.6684 10.5275 10.7005 25.2298 -13.4238
# 6 -11.1696 -9.7293 -16.1508 8.5569 -13.4238 36.7612
#
#
#
# Elastic Compliance Matrix: (Units=1/GPa)
#
#
# Indices 1 2 3 4 5 6 
#
# 1 0.013681 0.001756 0.006525 0.012647 -0.019401 -0.002540
# 2 0.001756 0.008543 0.002598 0.010257 -0.007992 -0.001370
# 3 0.006525 0.002598 0.046048 0.033797 -0.037753 0.001249
# 4 0.012647 0.010257 0.033797 0.074706 -0.066315 -0.020199
# 5 -0.019401 -0.007992 -0.037753 -0.066315 0.115592 0.033049
# 6 -0.002540 -0.001370 0.001249 -0.020199 0.033049 0.043387
#
#
# Mechanical properties :
#
#
# Convention : Reuss Voigt Hill
#
# Bulk Modulus (GPa) = 11.10732 36.30407 23.70570
# Shear Modulus (GPa) = 16.11812 37.71065 26.91439
#
# Velocity S-wave (km/s) = 2.68532 4.10744 3.47001
# Velocity P-wave (km/s) = 3.81887 6.22386 5.16334
#
# Compressibility (1/GPa) = 0.09003069
#
# Stress axis : x y z
#
# Youngs Moduli (GPa) = 73.09215 117.05518 21.71626
#
# Poissons Ratio (x) = -0.20555 -0.14170
# Poissons Ratio (y) = -0.12835 -0.05641
# Poissons Ratio (z) = -0.47694 -0.30408
#
# Static dielectric constant tensor:
#      x y z
#    x 1.918840 -0.089720 -0.096620 
#    y -0.089720 1.889520 0.031380 
#    z -0.096620 0.031380 1.935510 
# 
# From -- ./inp_files/207685.got.cif
#   From: 2010.05.17/outbox.ucp.g08.bks.cvg/sg2_104_cif.got.tgz:207685.got - 2010.06.11 11:32:03.
