data_PCOD9075001
_publ_section_title
;
Structure prediction by ZEFSAII (Michael W. Deem and Ramdas Pophale) SiO2 
 PCOD9075001
Probable space group: P -1
;
_chemical_formula_sum "Si O2"
_cell_formula_units_Z 16
_cell_length_a 27.000000
_cell_length_b 27.000000
_cell_length_c 9.000000
_cell_angle_alpha 140.000000
_cell_angle_beta 140.000000
_cell_angle_gamma 10.000000
_cell_volume 728.340053
_symmetry_space_group_name_H-M "P -1"
_symmetry_group_IT_number 2
_symmetry_cell_setting 'triclinic'
loop_
_space_group_symop_operation_xyz
x,y,z
-x,-y,-z
loop_
_atom_site_type_symbol
_atom_site_label
_atom_site_fract_x
_atom_site_fract_y
_atom_site_fract_z
Si Si1 0.373097 0.705442 0.228704
Si Si2 0.344302 0.471170 0.158082
Si Si3 0.041929 0.660451 0.653814
Si Si4 0.896791 0.030866 0.450517
Si Si5 0.885705 0.424705 0.894934
Si Si6 0.470866 0.123820 0.518274
Si Si7 0.053043 0.758780 0.610656
Si Si8 0.475886 0.940038 0.157376
O O1 0.239855 0.822217 0.359527
O O2 0.633519 0.514187 0.351745
O O3 0.500000 0.500000 0.000000
O O4 0.125963 0.988624 0.217191
O O5 0.657167 0.204001 0.228457
O O6 0.303786 0.441908 0.116651
O O7 0.195052 0.576079 0.915937
O O8 0.171944 0.712006 0.371593
O O9 0.231604 0.398963 0.503014
O O10 0.028036 0.724148 0.615028
O O11 0.745619 0.913133 0.624951
O O12 0.000000 0.000000 0.500000
O O13 0.039125 0.209463 0.660160
O O14 0.148482 0.227989 0.088235
O O15 0.657325 0.702934 0.935383
O O16 0.504164 0.998618 0.287259
O O17 0.402987 0.185918 0.683600
#
# Coordination Sequence:
#
# PCOD9075001 Si02
#       8
#     2   2   2   2   2   2   2   2
#     4  12  26  49  71  99 138 183 223 277 356 418
#     4  12  23  44  72  97 138 173 236 281 332 399
#     4  12  25  43  66 102 137 181 224 284 337 403
#     4  12  26  46  72 104 134 172 230 291 336 405
#     4  12  21  43  69  98 129 183 232 277 330 409
#     4  11  22  41  64 102 142 171 227 287 340 397
#     4  12  27  46  70  97 140 181 230 276 340 421
#     4  11  22  38  70 101 132 181 225 285 344 394
#
# _framework density 21.967760999999999
#
# number of rings (size 3 to 8) (size 9 to 14) (size 15 to 20)
#    0.000    0.250    5.000    4.500    1.750    2.000 
#    0.000    3.750    0.000    0.000    0.000    0.000 
#    0.000    0.000    0.000    0.000    0.000    0.000 
#
# Total GULP energy -89139.263409 kJ/mol
# GULP energy per Si atom -5571.203963 kJ/mol
# Density = 2.191776 g / cm^3
# Si number density = 21.967761 Si / 1000 Ang^3
#
#
#
# Elastic Constant Matrix: (Units=GPa)
#
#
# Indices 1 2 3 4 5 6 
#
# 1 193.9632 24.9665 34.4632 1.8231 26.6056 8.9013
# 2 24.9665 100.6277 3.9093 5.3552 14.5481 4.9891
# 3 34.4632 3.9093 54.6150 8.1863 23.7615 6.8284
# 4 1.8231 5.3552 8.1863 39.1881 1.7263 21.7907
# 5 26.6056 14.5481 23.7615 1.7263 39.0325 3.9948
# 6 8.9013 4.9891 6.8284 21.7907 3.9948 37.8107
#
#
#
# Elastic Compliance Matrix: (Units=1/GPa)
#
#
# Indices 1 2 3 4 5 6 
#
# 1 0.006141 -0.001145 -0.003025 0.001312 -0.001842 -0.001310
# 2 -0.001145 0.010882 0.002163 -0.001598 -0.004505 -0.000160
# 3 -0.003025 0.002163 0.027476 -0.005293 -0.015250 0.000126
# 4 0.001312 -0.001598 -0.005293 0.038783 0.003445 -0.021857
# 5 -0.001842 -0.004505 -0.015250 0.003445 0.037912 -0.002209
# 6 -0.001310 -0.000160 0.000126 -0.021857 -0.002209 0.039584
#
#
# Mechanical properties :
#
#
# Convention : Reuss Voigt Hill
#
# Bulk Modulus (GPa) = 24.69955 52.87600 38.78778
# Shear Modulus (GPa) = 28.04489 42.26404 35.15446
#
# Velocity S-wave (km/s) = 3.57688 4.39100 4.00468
# Velocity P-wave (km/s) = 5.32229 7.05903 6.25127
#
# Compressibility (1/GPa) = 0.04048656
#
# Stress axis : x y z
#
# Youngs Moduli (GPa) = 162.84552 91.89542 36.39520
#
# Poissons Ratio (x) = 0.10519 0.11008
# Poissons Ratio (y) = 0.18641 -0.07873
# Poissons Ratio (z) = 0.49255 -0.19878
#
# Static dielectric constant tensor:
#      x y z
#    x 1.778610 0.016690 -0.059370 
#    y 0.016690 1.898030 0.003440 
#    z -0.059370 0.003440 1.910980 
# 
# From -- ./inp_files/358024.got.cif
#   From: 2010.05.17/outbox.ucp.g08.bks.cvg/sg2_180_cif.got.tgz:358024.got - 2010.06.11 11:32:03.
