data_PCOD9075865
_publ_section_title
;
Structure prediction by ZEFSAII (Michael W. Deem and Ramdas Pophale) SiO2 
 PCOD9075865
Probable space group: P -1
;
_chemical_formula_sum "Si O2"
_cell_formula_units_Z 15
_cell_length_a 15.029860
_cell_length_b 9.460483
_cell_length_c 27.876718
_cell_angle_alpha 36.920092
_cell_angle_beta 19.294972
_cell_angle_gamma 44.990209
_cell_volume 764.068792
_symmetry_space_group_name_H-M "P -1"
_symmetry_group_IT_number 2
_symmetry_cell_setting 'triclinic'
loop_
_space_group_symop_operation_xyz
x,y,z
-x,-y,-z
loop_
_atom_site_type_symbol
_atom_site_label
_atom_site_fract_x
_atom_site_fract_y
_atom_site_fract_z
Si Si1 0.991368 0.281062 0.929190
Si Si2 0.827379 0.613203 0.297570
Si Si3 0.500000 0.000000 0.500000
Si Si4 0.862816 0.114147 0.190007
Si Si5 0.566151 0.528313 0.193315
Si Si6 0.554039 0.493033 0.635650
Si Si7 0.088188 0.703122 0.573183
Si Si8 0.635944 0.744193 0.717126
O O1 0.074153 0.406570 0.801426
O O2 0.225797 0.416796 0.809959
O O3 0.684725 0.291456 0.096557
O O4 0.000000 0.000000 0.000000
O O5 0.500000 0.500000 0.500000
O O6 0.956495 0.474125 0.310513
O O7 0.882063 0.897364 0.203780
O O8 0.679866 0.003493 0.358243
O O9 0.367487 0.219355 0.486545
O O10 0.709443 0.304158 0.192257
O O11 0.172244 0.251992 0.010520
O O12 0.423159 0.583025 0.300474
O O13 0.360682 0.441552 0.277441
O O14 0.709807 0.374493 0.548245
O O15 0.808940 0.701158 0.687015
O O16 0.233889 0.977787 0.439860
#
# Coordination Sequence:
#
# PCOD9075865 Si02
#       8
#     2   2   1   2   2   2   2   2
#     4  12  21  37  67  94 116 159 209 252 303 365
#     4  12  21  36  64  93 123 158 209 257 306 360
#     4  10  18  32  56  84 122 148 190 256 304 342
#     4  10  19  33  57  90 119 153 203 261 299 358
#     4  10  21  36  60  86 122 159 204 248 308 364
#     4  11  21  38  63  91 118 157 206 254 302 365
#     4  11  24  42  62  90 127 162 205 258 311 364
#     4  11  24  42  61  89 127 165 206 254 310 369
#
# _framework density 19.631740000000001
#
# number of rings (size 3 to 8) (size 9 to 14) (size 15 to 20)
#    0.000    1.067    4.000    4.800    0.000    2.133 
#    0.000    0.667    0.000    0.000    0.000    0.000 
#    0.000    0.000    0.000    0.000    0.000    0.000 
#
# Total GULP energy -83561.547872 kJ/mol
# GULP energy per Si atom -5570.769858 kJ/mol
# Density = 1.958706 g / cm^3
# Si number density = 19.631740 Si / 1000 Ang^3
#
#
#
# Elastic Constant Matrix: (Units=GPa)
#
#
# Indices 1 2 3 4 5 6 
#
# 1 86.9115 9.7914 37.3156 1.4243 11.8145 17.2939
# 2 9.7914 27.7201 -0.9970 -3.9054 -5.5446 4.1452
# 3 37.3156 -0.9970 49.0465 14.0508 1.5638 7.0714
# 4 1.4243 -3.9054 14.0508 18.6896 2.7133 -2.3243
# 5 11.8145 -5.5446 1.5638 2.7133 29.2947 -0.7885
# 6 17.2939 4.1452 7.0714 -2.3243 -0.7885 30.2939
#
#
#
# Elastic Compliance Matrix: (Units=1/GPa)
#
#
# Indices 1 2 3 4 5 6 
#
# 1 0.024286 -0.008803 -0.020951 0.012882 -0.011726 -0.007086
# 2 -0.008803 0.042252 0.006718 0.002639 0.010895 -0.001838
# 3 -0.020951 0.006718 0.045959 -0.033292 0.010298 -0.001973
# 4 0.012882 0.002639 -0.033292 0.080325 -0.010198 0.005954
# 5 -0.011726 0.010895 0.010298 -0.010198 0.041405 0.003095
# 6 -0.007086 -0.001838 -0.001973 0.005954 0.003095 0.038305
#
#
# Mechanical properties :
#
#
# Convention : Reuss Voigt Hill
#
# Bulk Modulus (GPa) = 15.05471 28.43313 21.74392
# Shear Modulus (GPa) = 14.67374 23.49350 19.08362
#
# Velocity S-wave (km/s) = 2.73692 3.46310 3.12120
# Velocity P-wave (km/s) = 4.20391 5.52317 4.90807
#
# Compressibility (1/GPa) = 0.06642441
#
# Stress axis : x y z
#
# Youngs Moduli (GPa) = 41.17618 23.66768 21.75859
#
# Poissons Ratio (x) = 0.20834 0.45586
# Poissons Ratio (y) = 0.36247 -0.14617
# Poissons Ratio (z) = 0.86268 -0.15899
#
# Static dielectric constant tensor:
#      x y z
#    x 1.709790 0.032890 -0.002200 
#    y 0.032890 1.723350 -0.009480 
#    z -0.002200 -0.009480 1.687970 
# 
# From -- ./inp_files/170765.got.cif
#   From: 2010.05.17/outbox.cif.g08.bks.cpg/sg2_86_cif.got.tgz:170765.got - 2010.06.03 11:33:40.
