data_PCOD9075143
_publ_section_title
;
Structure prediction by ZEFSAII (Michael W. Deem and Ramdas Pophale) SiO2 
 PCOD9075143
Probable space group: P -1
;
_chemical_formula_sum "Si O2"
_cell_formula_units_Z 16
_cell_length_a 24.000000
_cell_length_b 9.000000
_cell_length_c 9.000000
_cell_angle_alpha 150.000000
_cell_angle_beta 130.000000
_cell_angle_gamma 50.000000
_cell_volume 725.531033
_symmetry_space_group_name_H-M "P -1"
_symmetry_group_IT_number 2
_symmetry_cell_setting 'triclinic'
loop_
_space_group_symop_operation_xyz
x,y,z
-x,-y,-z
loop_
_atom_site_type_symbol
_atom_site_label
_atom_site_fract_x
_atom_site_fract_y
_atom_site_fract_z
Si Si1 0.448205 0.769600 0.727173
Si Si2 0.708551 0.292110 0.649739
Si Si3 0.425292 0.698564 0.972462
Si Si4 0.675670 0.667692 0.611919
Si Si5 0.791449 0.649739 0.292110
Si Si6 0.925292 0.027537 0.301435
Si Si7 0.824330 0.611919 0.667691
Si Si8 0.948205 0.272827 0.230400
O O1 0.500000 0.500000 0.500000
O O2 0.366728 0.830283 0.568081
O O3 0.438552 0.696117 0.817534
O O4 0.500000 0.000000 0.000000
O O5 0.695225 0.512921 0.673852
O O6 0.772820 0.985661 0.480893
O O7 0.727180 0.480893 0.985661
O O8 0.396082 0.051572 0.266853
O O9 0.500000 0.500000 0.000000
O O10 0.351966 0.561967 0.746562
O O11 0.750000 0.749021 0.749021
O O12 0.804775 0.673853 0.512921
O O13 0.866728 0.431919 0.169717
O O14 0.851966 0.253437 0.438031
O O15 0.938552 0.182465 0.303881
O O16 0.000000 0.000000 0.500000
O O17 0.896083 0.733145 0.948428
O O18 0.000000 0.500000 0.500000
O O19 0.000000 0.000000 0.000000
#
# Coordination Sequence:
#
# PCOD9075143 Si02
#       8
#     2   2   2   2   2   2   2   2
#     4  11  23  41  63  91 126 164 207 259 310 368
#     4  11  23  41  64  93 125 162 209 260 310 370
#     4  11  24  43  63  92 127 164 208 257 307 371
#     4  11  24  43  64  92 127 164 207 258 310 369
#     4  11  23  41  64  93 125 162 209 260 310 370
#     4  11  24  43  63  92 127 164 208 257 307 371
#     4  11  24  43  64  92 127 164 207 258 310 369
#     4  11  23  41  63  91 126 164 207 259 310 368
#
# _framework density 22.052813
#
# number of rings (size 3 to 8) (size 9 to 14) (size 15 to 20)
#    0.000    1.000    0.000    9.000    0.000    6.000 
#    0.000    0.000    0.000    0.000    0.000    0.000 
#    0.000    0.000    0.000    0.000    0.000    0.000 
#
# Total GULP energy -89175.282817 kJ/mol
# GULP energy per Si atom -5573.455176 kJ/mol
# Density = 2.200262 g / cm^3
# Si number density = 22.052813 Si / 1000 Ang^3
#
#
#
# Elastic Constant Matrix: (Units=GPa)
#
#
# Indices 1 2 3 4 5 6 
#
# 1 81.6086 27.6204 30.4336 1.1592 8.5433 -23.7992
# 2 27.6204 132.5472 50.0517 2.3614 -1.6663 -32.9208
# 3 30.4336 50.0517 138.6125 0.1382 17.7876 -11.9879
# 4 1.1592 2.3614 0.1382 43.1968 -16.3214 -0.1107
# 5 8.5433 -1.6663 17.7876 -16.3214 35.1321 5.0215
# 6 -23.7992 -32.9208 -11.9879 -0.1107 5.0215 22.9460
#
#
#
# Elastic Compliance Matrix: (Units=1/GPa)
#
#
# Indices 1 2 3 4 5 6 
#
# 1 0.021067 0.003186 -0.002134 -0.004384 -0.009850 0.027440
# 2 0.003186 0.013472 -0.003442 -0.001576 -0.002170 0.021301
# 3 -0.002134 -0.003442 0.009486 -0.001709 -0.005085 -0.001091
# 4 -0.004384 -0.001576 -0.001709 0.029892 0.017367 -0.011358
# 5 -0.009850 -0.002170 -0.005085 0.017367 0.045082 -0.025769
# 6 0.027440 0.021301 -0.001091 -0.011358 -0.025769 0.107616
#
#
# Mechanical properties :
#
#
# Convention : Reuss Voigt Hill
#
# Bulk Modulus (GPa) = 25.48171 63.21997 44.35084
# Shear Modulus (GPa) = 20.45183 36.56583 28.50883
#
# Velocity S-wave (km/s) = 3.04863 4.07640 3.59939
# Velocity P-wave (km/s) = 4.89614 7.13343 6.11792
#
# Compressibility (1/GPa) = 0.03924383
#
# Stress axis : x y z
#
# Youngs Moduli (GPa) = 47.46729 74.22989 105.42382
#
# Poissons Ratio (x) = -0.23646 0.22499
# Poissons Ratio (y) = -0.15121 0.36283
# Poissons Ratio (z) = 0.10130 0.25547
#
# Static dielectric constant tensor:
#      x y z
#    x 1.745400 -0.002280 0.000820 
#    y -0.002280 1.772540 0.043610 
#    z 0.000820 0.043610 1.878370 
# 
# From -- ./inp_files/226244.got.cif
#   From: 2010.05.17/outbox.ucp.g08.bks.cvg/sg2_114_cif.got.tgz:226244.got - 2010.06.11 11:32:03.
