data_PCOD9075380
_publ_section_title
;
Structure prediction by ZEFSAII (Michael W. Deem and Ramdas Pophale) SiO2 
 PCOD9075380
Probable space group: P -1
;
_chemical_formula_sum "Si O2"
_cell_formula_units_Z 14
_cell_length_a 21.000000
_cell_length_b 15.000000
_cell_length_c 12.000000
_cell_angle_alpha 40.000000
_cell_angle_beta 30.000000
_cell_angle_gamma 20.000000
_cell_volume 620.704002
_symmetry_space_group_name_H-M "P -1"
_symmetry_group_IT_number 2
_symmetry_cell_setting 'triclinic'
loop_
_space_group_symop_operation_xyz
x,y,z
-x,-y,-z
loop_
_atom_site_type_symbol
_atom_site_label
_atom_site_fract_x
_atom_site_fract_y
_atom_site_fract_z
Si Si1 0.238166 0.678079 0.691878
Si Si2 0.490876 0.818371 0.376668
Si Si3 0.099451 0.349232 0.114834
Si Si4 0.559135 0.606318 0.936179
Si Si5 0.716810 0.136696 0.130087
Si Si6 0.876417 0.995234 0.616652
Si Si7 0.007415 0.401544 0.464631
O O1 0.500000 0.500000 0.500000
O O2 0.321269 0.473749 0.680019
O O3 0.116240 0.928316 0.581637
O O4 0.017670 0.833080 0.959423
O O5 0.409023 0.839470 0.604027
O O6 0.625203 0.842169 0.134164
O O7 0.240086 0.078294 0.437429
O O8 0.028830 0.448970 0.259128
O O9 0.034670 0.245473 0.303332
O O10 0.000000 0.500000 0.000000
O O11 0.400002 0.779686 0.896773
O O12 0.764733 0.532417 0.702240
O O13 0.657894 0.355013 0.030774
O O14 0.387956 0.778331 0.140205
O O15 0.000000 0.000000 0.500000
O O16 0.000000 0.500000 0.500000
#
# Coordination Sequence:
#
# PCOD9075380 Si02
#       7
#     2   2   2   2   2   2   2
#     4  12  26  44  76 111 156 199 259 324 396 465
#     4  12  27  48  75 113 156 202 260 320 397 473
#     4  12  28  50  79 112 156 210 267 323 395 475
#     4  11  24  45  76 111 156 202 265 325 390 471
#     4  11  25  45  76 116 154 203 267 327 390 467
#     4  12  24  47  76 112 152 202 261 329 391 465
#     4  12  29  50  77 114 164 210 259 329 402 470
#
# _framework density 22.555033999999999
#
# number of rings (size 3 to 8) (size 9 to 14) (size 15 to 20)
#    0.000    0.286    2.857    5.571    6.000    1.143 
#    0.000    2.857    0.000    0.000    0.000    0.000 
#    0.000    0.000    0.000    0.000    0.000    0.000 
#
# Total GULP energy -78083.244824 kJ/mol
# GULP energy per Si atom -5577.374630 kJ/mol
# Density = 2.250370 g / cm^3
# Si number density = 22.555034 Si / 1000 Ang^3
#
#
#
# Elastic Constant Matrix: (Units=GPa)
#
#
# Indices 1 2 3 4 5 6 
#
# 1 98.9658 12.7420 31.4740 -1.8035 -5.7691 8.2917
# 2 12.7420 62.6053 11.5849 -9.6876 2.8947 8.8713
# 3 31.4740 11.5849 177.4655 6.2445 1.3931 -1.7806
# 4 -1.8035 -9.6876 6.2445 52.3040 0.6433 -0.3360
# 5 -5.7691 2.8947 1.3931 0.6433 58.9927 2.9855
# 6 8.2917 8.8713 -1.7806 -0.3360 2.9855 34.9393
#
#
#
# Elastic Compliance Matrix: (Units=1/GPa)
#
#
# Indices 1 2 3 4 5 6 
#
# 1 0.011214 -0.001593 -0.001930 0.000290 0.001342 -0.002467
# 2 -0.001593 0.017609 -0.001018 0.003312 -0.000827 -0.004042
# 3 -0.001930 -0.001018 0.006091 -0.000972 -0.000325 0.001045
# 4 0.000290 0.003312 -0.000972 0.019857 -0.000290 -0.000744
# 5 0.001342 -0.000827 -0.000325 -0.000290 0.017215 -0.001599
# 6 -0.002467 -0.004042 0.001045 -0.000744 -0.001599 0.030416
#
#
# Mechanical properties :
#
#
# Convention : Reuss Voigt Hill
#
# Bulk Modulus (GPa) = 38.71109 50.07093 44.39101
# Shear Modulus (GPa) = 41.63413 48.12957 44.88185
#
# Velocity S-wave (km/s) = 4.30104 4.62440 4.46565
# Velocity P-wave (km/s) = 6.47036 7.12468 6.80539
#
# Compressibility (1/GPa) = 0.02583239
#
# Stress axis : x y z
#
# Youngs Moduli (GPa) = 89.17683 56.78846 164.17945
#
# Poissons Ratio (x) = 0.09045 0.31691
# Poissons Ratio (y) = 0.14204 0.16708
# Poissons Ratio (z) = 0.17214 0.05779
#
# Static dielectric constant tensor:
#      x y z
#    x 1.945940 -0.030760 -0.026970 
#    y -0.030760 1.900250 0.049310 
#    z -0.026970 0.049310 1.853080 
# 
# From -- ./inp_files/471902.got.cif
#   From: 2010.05.17/outbox.ucp.g08.bks.cvg/sg2_236_cif.got.tgz:471902.got - 2010.06.11 11:32:03.
