data_PCOD9075867
_publ_section_title
;
Structure prediction by ZEFSAII (Michael W. Deem and Ramdas Pophale) SiO2 
 PCOD9075867
Probable space group: P -1
;
_chemical_formula_sum "Si O2"
_cell_formula_units_Z 16
_cell_length_a 7.995893
_cell_length_b 11.608862
_cell_length_c 12.121492
_cell_angle_alpha 52.182541
_cell_angle_beta 62.056820
_cell_angle_gamma 83.249514
_cell_volume 761.620823
_symmetry_space_group_name_H-M "P -1"
_symmetry_group_IT_number 2
_symmetry_cell_setting 'triclinic'
loop_
_space_group_symop_operation_xyz
x,y,z
-x,-y,-z
loop_
_atom_site_type_symbol
_atom_site_label
_atom_site_fract_x
_atom_site_fract_y
_atom_site_fract_z
Si Si1 0.836205 0.754757 0.907838
Si Si2 0.754851 0.384930 0.532141
Si Si3 0.882139 0.977959 0.226217
Si Si4 0.476204 0.822021 0.110204
Si Si5 0.186544 0.343173 0.475907
Si Si6 0.080370 0.441343 0.822088
Si Si7 0.711159 0.580762 0.843000
Si Si8 0.139515 0.841463 0.064595
O O1 0.788463 0.725525 0.812065
O O2 0.656269 0.787151 0.012250
O O3 0.864841 0.603599 0.047602
O O4 0.020765 0.893573 0.792391
O O5 0.575870 0.256125 0.709321
O O6 0.757007 0.530811 0.521333
O O7 0.769145 0.436622 0.369742
O O8 0.956991 0.334897 0.524508
O O9 0.785411 0.817753 0.400857
O O10 0.056192 0.939531 0.121052
O O11 0.766678 0.052999 0.128162
O O12 0.285502 0.761937 0.128261
O O13 0.500000 0.000000 0.000000
O O14 0.298917 0.388357 0.301107
O O15 0.875642 0.487472 0.860662
O O16 0.035680 0.285213 0.858293
O O17 0.500000 0.500000 0.000000
#
# Coordination Sequence:
#
# PCOD9075867 Si02
#       8
#     2   2   2   2   2   2   2   2
#     4  11  23  37  56  86 117 155 191 228 285 343
#     4  10  18  32  56  85 112 144 188 238 289 329
#     4  10  19  34  58  84 110 149 186 231 288 335
#     4  12  21  34  54  85 122 148 187 235 283 341
#     4  10  18  34  58  84 111 145 192 236 282 342
#     4  10  21  38  62  83 112 150 195 240 279 342
#     4  11  23  39  59  81 114 157 193 234 283 340
#     4  10  18  34  57  83 114 144 185 230 289 340
#
# _framework density 21.007830999999999
#
# number of rings (size 3 to 8) (size 9 to 14) (size 15 to 20)
#    0.000    1.500    3.750    3.375    0.000    1.000 
#    0.000    1.250    0.000    8.250    0.000    0.000 
#    0.000    0.000    0.000    0.000    0.000    0.000 
#
# Total GULP energy -89351.564470 kJ/mol
# GULP energy per Si atom -5584.472779 kJ/mol
# Density = 2.096002 g / cm^3
# Si number density = 21.007831 Si / 1000 Ang^3
#
#
#
# Elastic Constant Matrix: (Units=GPa)
#
#
# Indices 1 2 3 4 5 6 
#
# 1 19.8092 -0.0468 5.8735 6.9606 7.1204 -5.8394
# 2 -0.0468 70.0448 35.1105 3.9915 -4.0961 2.3350
# 3 5.8735 35.1105 125.8502 -0.9039 14.0526 -12.2651
# 4 6.9606 3.9915 -0.9039 30.5373 -5.8789 1.9384
# 5 7.1204 -4.0961 14.0526 -5.8789 18.5273 -2.7657
# 6 -5.8394 2.3350 -12.2651 1.9384 -2.7657 29.3446
#
#
#
# Elastic Compliance Matrix: (Units=1/GPa)
#
#
# Indices 1 2 3 4 5 6 
#
# 1 0.076417 -0.002498 0.002581 -0.025199 -0.037696 0.014596
# 2 -0.002498 0.018107 -0.006326 0.000025 0.009215 -0.003715
# 3 0.002581 -0.006326 0.011251 -0.001810 -0.010778 0.004823
# 4 -0.025199 0.000025 -0.001810 0.043439 0.023892 -0.006390
# 5 -0.037696 0.009215 -0.010778 0.023892 0.085318 -0.006276
# 6 0.014596 -0.003715 0.004823 -0.006390 -0.006276 0.039124
#
#
# Mechanical properties :
#
#
# Convention : Reuss Voigt Hill
#
# Bulk Modulus (GPa) = 10.71926 33.06430 21.89178
# Shear Modulus (GPa) = 15.76101 27.33298 21.54699
#
# Velocity S-wave (km/s) = 2.74203 3.61097 3.20607
# Velocity P-wave (km/s) = 3.89083 5.75836 4.91412
#
# Compressibility (1/GPa) = 0.09329006
#
# Stress axis : x y z
#
# Youngs Moduli (GPa) = 13.08608 55.22712 88.88174
#
# Poissons Ratio (x) = 0.13794 -0.22941
# Poissons Ratio (y) = 0.03268 0.56225
# Poissons Ratio (z) = -0.03378 0.34936
#
# Static dielectric constant tensor:
#      x y z
#    x 1.813880 0.030080 0.005270 
#    y 0.030080 1.763810 -0.037280 
#    z 0.005270 -0.037280 1.798640 
# 
# From -- ./inp_files/258237.got.cif
#   From: 2010.05.17/outbox.cif.g08.bks.cpg/sg2_130_cif.got.tgz:258237.got - 2010.06.03 11:33:40.
