data_PCOD9075052
_publ_section_title
;
Structure prediction by ZEFSAII (Michael W. Deem and Ramdas Pophale) SiO2 
 PCOD9075052
Probable space group: P -1
;
_chemical_formula_sum "Si O2"
_cell_formula_units_Z 13
_cell_length_a 9.000000
_cell_length_b 9.000000
_cell_length_c 12.000000
_cell_angle_alpha 120.000000
_cell_angle_beta 90.000000
_cell_angle_gamma 50.000000
_cell_volume 564.115245
_symmetry_space_group_name_H-M "P -1"
_symmetry_group_IT_number 2
_symmetry_cell_setting 'triclinic'
loop_
_space_group_symop_operation_xyz
x,y,z
-x,-y,-z
loop_
_atom_site_type_symbol
_atom_site_label
_atom_site_fract_x
_atom_site_fract_y
_atom_site_fract_z
Si Si1 0.014774 0.338993 0.248299
Si Si2 0.012329 0.962959 0.222376
Si Si3 0.829420 0.778874 0.043100
Si Si4 0.396421 0.123432 0.307820
Si Si5 0.377209 0.749020 0.524381
Si Si6 0.444883 0.326735 0.730095
Si Si7 0.500000 0.500000 0.000000
O O1 0.152664 0.341360 0.334504
O O2 0.766618 0.584753 0.295819
O O3 0.003248 0.157459 0.234906
O O4 0.151073 0.234706 0.094463
O O5 0.268362 0.705202 0.143701
O O6 0.890200 0.919392 0.134536
O O7 0.877455 0.059277 0.372808
O O8 0.583378 0.939409 0.143097
O O9 0.000000 0.500000 0.000000
O O10 0.502755 0.182141 0.403866
O O11 0.405264 0.945522 0.314828
O O12 0.500000 0.500000 0.500000
O O13 0.427926 0.688935 0.373532
O O14 0.370434 0.518695 0.899325
#
# Coordination Sequence:
#
# PCOD9075052 Si02
#       7
#     2   2   2   2   2   2   1
#     4  12  23  43  72 104 143 189 236 301 353 434
#     4  11  24  44  73 103 145 186 246 290 363 428
#     4  11  22  42  67 105 146 186 238 301 359 424
#     4  11  25  46  71 104 145 193 242 291 373 426
#     4  11  26  50  71 108 148 194 241 300 358 441
#     4  12  25  47  75 105 152 186 244 298 362 433
#     4  12  24  44  76 110 136 192 242 296 364 418
#
# _framework density 23.044937000000001
#
# number of rings (size 3 to 8) (size 9 to 14) (size 15 to 20)
#    0.000    0.615    6.154    1.385    0.000    1.231 
#    5.538    0.000    0.000    0.000    0.000    0.000 
#    0.000    0.000    0.000    0.000    0.000    0.000 
#
# Total GULP energy -72385.081029 kJ/mol
# GULP energy per Si atom -5568.083156 kJ/mol
# Density = 2.299249 g / cm^3
# Si number density = 23.044937 Si / 1000 Ang^3
#
#
#
# Elastic Constant Matrix: (Units=GPa)
#
#
# Indices 1 2 3 4 5 6 
#
# 1 71.5953 38.4069 24.6092 -1.5510 -2.7583 -1.4011
# 2 38.4069 44.0992 26.3521 -23.7095 0.3485 -10.2925
# 3 24.6092 26.3521 107.5602 -18.9004 -17.2729 10.0610
# 4 -1.5510 -23.7095 -18.9004 21.1617 -0.6350 -16.4857
# 5 -2.7583 0.3485 -17.2729 -0.6350 8.7225 6.0658
# 6 -1.4011 -10.2925 10.0610 -16.4857 6.0658 53.8220
#
#
#
# Elastic Compliance Matrix: (Units=1/GPa)
#
#
# Indices 1 2 3 4 5 6 
#
# 1 0.004097 0.022450 -0.005433 0.034156 -0.020524 0.018191
# 2 0.022450 -0.044361 0.000559 -0.072771 0.027938 -0.033442
# 3 -0.005433 0.000559 0.020615 0.017262 0.042714 -0.003415
# 4 0.034156 -0.072771 0.017262 -0.043490 0.070846 -0.037559
# 5 -0.020524 0.027938 0.042714 0.070846 0.199539 -0.003964
# 6 0.018191 -0.033442 -0.003415 -0.037559 -0.003964 0.002239
#
#
# Mechanical properties :
#
#
# Convention : Reuss Voigt Hill
#
# Bulk Modulus (GPa) = 64.50023 44.66567 54.58295
# Shear Modulus (GPa) = 46.01765 25.66701 35.84233
#
# Velocity S-wave (km/s) = 4.47348 3.34096 3.94804
# Velocity P-wave (km/s) = 7.39813 5.85719 6.67230
#
# Compressibility (1/GPa) = 0.01550382
#
# Stress axis : x y z
#
# Youngs Moduli (GPa) = 244.09296 -22.54245 48.50767
#
# Poissons Ratio (x) = 0.50609 0.26355
# Poissons Ratio (y) = -5.47996 -0.02712
# Poissons Ratio (z) = 1.32620 0.01260
#
# Static dielectric constant tensor:
#      x y z
#    x 0.915870 0.636910 0.736580 
#    y 0.636910 1.436860 -0.358860 
#    z 0.736580 -0.358860 1.503030 
# 
# From -- ./inp_files/296564.got.cif
#   From: 2010.05.17/outbox.ucp.g08.bks.cvg/sg2_149_cif.got.tgz:296564.got - 2010.06.11 11:32:03.
