data_PCOD9075556
_publ_section_title
;
Structure prediction by ZEFSAII (Michael W. Deem and Ramdas Pophale) SiO2 
 PCOD9075556
Probable space group: P -1
;
_chemical_formula_sum "Si O2"
_cell_formula_units_Z 16
_cell_length_a 15.000000
_cell_length_b 15.000000
_cell_length_c 15.000000
_cell_angle_alpha 40.000000
_cell_angle_beta 40.000000
_cell_angle_gamma 20.000000
_cell_volume 725.414092
_symmetry_space_group_name_H-M "P -1"
_symmetry_group_IT_number 2
_symmetry_cell_setting 'triclinic'
loop_
_space_group_symop_operation_xyz
x,y,z
-x,-y,-z
loop_
_atom_site_type_symbol
_atom_site_label
_atom_site_fract_x
_atom_site_fract_y
_atom_site_fract_z
Si Si1 0.349864 0.324144 0.176303
Si Si2 0.782268 0.466191 0.553932
Si Si3 0.653609 0.948629 0.500286
Si Si4 0.621203 0.572892 0.219374
Si Si5 0.262150 0.392815 0.725130
Si Si6 0.678985 0.785533 0.902572
Si Si7 0.938662 0.004637 0.769090
Si Si8 0.938983 0.921748 0.042489
O O1 0.346704 0.168731 0.332476
O O2 0.334248 0.315648 0.089251
O O3 0.122198 0.629033 0.144320
O O4 0.633271 0.144063 0.123364
O O5 0.755983 0.552776 0.407725
O O6 0.871119 0.228927 0.652469
O O7 0.027483 0.301622 0.557220
O O8 0.509935 0.767240 0.574199
O O9 0.500000 0.000000 0.500000
O O10 0.628894 0.576075 0.318865
O O11 0.326071 0.817871 0.216173
O O12 0.697467 0.667212 0.063118
O O13 0.812816 0.287480 0.248843
O O14 0.955640 0.629894 0.804084
O O15 0.440563 0.100854 0.829058
O O16 0.963169 0.939091 0.904963
O O17 0.000000 0.000000 0.000000
#
# Coordination Sequence:
#
# PCOD9075556 Si02
#       8
#     2   2   2   2   2   2   2   2
#     4  12  23  44  72  95 131 169 211 273 322 371
#     4  12  26  46  66  95 133 172 216 267 317 383
#     4  12  27  44  70  98 129 169 217 269 322 379
#     4  12  25  42  67  97 130 172 214 265 325 381
#     4  12  24  42  68  98 128 170 216 266 323 381
#     4  12  21  43  67  99 133 161 214 272 326 369
#     4  12  26  44  64  94 135 173 214 265 317 385
#     4  12  26  43  68  98 131 172 216 263 320 385
#
# _framework density 22.056367999999999
#
# number of rings (size 3 to 8) (size 9 to 14) (size 15 to 20)
#    0.000    0.000    5.000    5.250    3.500    1.000 
#    0.000    0.000    0.000    0.000    0.000    0.000 
#    0.000    0.000    0.000    0.000    0.000    0.000 
#
# Total GULP energy -89312.063171 kJ/mol
# GULP energy per Si atom -5582.003948 kJ/mol
# Density = 2.200617 g / cm^3
# Si number density = 22.056368 Si / 1000 Ang^3
#
#
#
# Elastic Constant Matrix: (Units=GPa)
#
#
# Indices 1 2 3 4 5 6 
#
# 1 100.6008 37.9607 -20.8674 1.6538 -2.9287 -3.4891
# 2 37.9607 162.3676 16.6536 -42.2906 8.3722 -9.6489
# 3 -20.8674 16.6536 32.7900 -31.4307 -4.0874 4.8497
# 4 1.6538 -42.2906 -31.4307 38.0790 4.5016 -12.7377
# 5 -2.9287 8.3722 -4.0874 4.5016 25.7899 -4.9613
# 6 -3.4891 -9.6489 4.8497 -12.7377 -4.9613 43.7255
#
#
#
# Elastic Compliance Matrix: (Units=1/GPa)
#
#
# Indices 1 2 3 4 5 6 
#
# 1 -0.065592 -0.100461 -0.574981 -0.634290 0.016562 -0.146526
# 2 -0.100461 -0.105194 -0.708156 -0.755531 0.009348 -0.171720
# 3 -0.574981 -0.708156 -4.262467 -4.649944 0.094207 -1.073278
# 4 -0.634290 -0.755531 -4.649944 -5.020024 0.090564 -1.153711
# 5 0.016562 0.009348 0.094207 0.090564 0.041363 0.024011
# 6 -0.146526 -0.171720 -1.073278 -1.153711 0.024011 -0.241040
#
#
# Mechanical properties :
#
#
# Convention : Reuss Voigt Hill
#
# Bulk Modulus (GPa) = -0.13888 40.36134 20.11123
# Shear Modulus (GPa) = -0.53845 38.98632 19.22394
#
# Velocity S-wave (km/s) = -0.49463 4.20882 2.95546
# Velocity P-wave (km/s) = 0.62395 6.47748 4.55897
#
# Compressibility (1/GPa) = -7.20044793
#
# Stress axis : x y z
#
# Youngs Moduli (GPa) = -15.24584 -9.50622 -0.23461
#
# Poissons Ratio (x) = -0.95500 -0.13489
# Poissons Ratio (y) = -1.53161 -0.16614
# Poissons Ratio (z) = -8.76607 -6.73189
#
# Static dielectric constant tensor:
#      x y z
#    x 1.862000 -0.019110 0.005730 
#    y -0.019110 1.769680 0.050030 
#    z 0.005730 0.050030 1.925180 
# 
# From -- ./inp_files/90508.got.cif
#   From: 2010.05.17/outbox.ucp.g08.bks.cvg/sg2_46_cif.got.tgz:90508.got - 2010.06.11 11:32:03.
