data_PCOD9075797
_publ_section_title
;
Structure prediction by ZEFSAII (Michael W. Deem and Ramdas Pophale) SiO2 
 PCOD9075797
Probable space group: P -1
;
_chemical_formula_sum "Si O2"
_cell_formula_units_Z 16
_cell_length_a 13.153823
_cell_length_b 17.999338
_cell_length_c 8.266396
_cell_angle_alpha 119.113977
_cell_angle_beta 61.457943
_cell_angle_gamma 161.317384
_cell_volume 546.717483
_symmetry_space_group_name_H-M "P -1"
_symmetry_group_IT_number 2
_symmetry_cell_setting 'triclinic'
loop_
_space_group_symop_operation_xyz
x,y,z
-x,-y,-z
loop_
_atom_site_type_symbol
_atom_site_label
_atom_site_fract_x
_atom_site_fract_y
_atom_site_fract_z
Si Si1 0.822012 0.632904 0.458311
Si Si2 0.625859 0.506074 0.120910
Si Si3 0.065073 0.121054 0.899111
Si Si4 0.209436 0.739183 0.209117
Si Si5 0.367971 0.197272 0.545048
Si Si6 0.613870 0.221363 0.196537
Si Si7 0.058544 0.404718 0.234279
Si Si8 0.753132 0.032081 0.247904
O O1 0.649210 0.539454 0.326513
O O2 0.563995 0.402559 0.511882
O O3 0.118705 0.773938 0.337146
O O4 0.015959 0.831274 0.633420
O O5 0.761467 0.681978 0.115336
O O6 0.296199 0.259411 0.021343
O O7 0.839448 0.570316 0.984232
O O8 0.079361 0.051673 0.692456
O O9 0.763062 0.960705 0.037743
O O10 0.868063 0.460957 0.180468
O O11 0.399051 0.825818 0.305230
O O12 0.419041 0.863793 0.021978
O O13 0.340137 0.094800 0.343845
O O14 0.624119 0.348268 0.651244
O O15 0.798670 0.296689 0.275364
O O16 0.927904 0.236294 0.259926
#
# Coordination Sequence:
#
# PCOD9075797 Si02
#       8
#     2   2   2   2   2   2   2   2
#     4  10  18  32  55  86 108 141 183 232 280 318
#     4   9  16  31  55  83 110 138 184 232 270 322
#     4   9  19  34  51  81 116 143 180 228 272 324
#     4  10  21  35  54  85 117 140 181 231 280 329
#     4   9  19  32  54  81 107 143 187 224 260 326
#     4  10  19  35  57  81 105 153 188 221 269 330
#     4   9  17  33  56  83 108 137 184 230 277 318
#     4  10  21  35  55  84 118 143 172 235 287 315
#
# _framework density 29.265573
#
# number of rings (size 3 to 8) (size 9 to 14) (size 15 to 20)
#    0.000    2.500    1.250    3.000    0.000    2.500 
#    0.000    0.625    0.000    3.000    0.000    0.000 
#    0.000    0.000    0.000    0.000    0.000    0.000 
#
# Total GULP energy -89682.397338 kJ/mol
# GULP energy per Si atom -5605.149834 kJ/mol
# Density = 2.919896 g / cm^3
# Si number density = 29.265573 Si / 1000 Ang^3
#
#
#
# Elastic Constant Matrix: (Units=GPa)
#
#
# Indices 1 2 3 4 5 6 
#
# 1 123.2766 25.2278 43.6075 -3.7376 -4.5241 7.9739
# 2 25.2278 99.9497 30.5297 12.9506 -3.9122 14.8541
# 3 43.6075 30.5297 190.3812 -12.6712 -13.8889 15.8551
# 4 -3.7376 12.9506 -12.6712 31.5781 21.1277 -1.9673
# 5 -4.5241 -3.9122 -13.8889 21.1277 64.9534 1.1602
# 6 7.9739 14.8541 15.8551 -1.9673 1.1602 44.8436
#
#
#
# Elastic Compliance Matrix: (Units=1/GPa)
#
#
# Indices 1 2 3 4 5 6 
#
# 1 0.009158 -0.001935 -0.001690 0.001366 -0.000278 -0.000323
# 2 -0.001935 0.012760 -0.001625 -0.008416 0.003091 -0.003757
# 3 -0.001690 -0.001625 0.006202 0.002709 0.000252 -0.001242
# 4 0.001366 -0.008416 0.002709 0.046723 -0.015102 0.004027
# 5 -0.000278 0.003091 0.000252 -0.015102 0.020569 -0.002258
# 6 -0.000323 -0.003757 -0.001242 0.004027 -0.002258 0.024276
#
#
# Mechanical properties :
#
#
# Convention : Reuss Voigt Hill
#
# Bulk Modulus (GPa) = 56.75263 68.03750 62.39506
# Shear Modulus (GPa) = 36.74850 49.22451 42.98651
#
# Velocity S-wave (km/s) = 3.54742 4.10566 3.83671
# Velocity P-wave (km/s) = 6.01775 6.76565 6.40263
#
# Compressibility (1/GPa) = 0.01762033
#
# Stress axis : x y z
#
# Youngs Moduli (GPa) = 109.19803 78.37280 161.23016
#
# Poissons Ratio (x) = 0.15166 0.27245
# Poissons Ratio (y) = 0.21132 0.26194
# Poissons Ratio (z) = 0.18452 0.12733
#
# Static dielectric constant tensor:
#      x y z
#    x 2.246580 -0.036640 0.046290 
#    y -0.036640 2.203680 -0.048020 
#    z 0.046290 -0.048020 2.335840 
# 
# From -- ./inp_files/262376.got.cif
#   From: 2010.05.17/outbox.cif.g08.bks.cpg/sg2_132_cif.got.tgz:262376.got - 2010.06.03 11:33:40.
