data_PCOD9075288
_publ_section_title
;
Structure prediction by ZEFSAII (Michael W. Deem and Ramdas Pophale) SiO2 
 PCOD9075288
Probable space group: P -1
;
_chemical_formula_sum "Si O2"
_cell_formula_units_Z 16
_cell_length_a 27.043827
_cell_length_b 12.908092
_cell_length_c 9.719342
_cell_angle_alpha 117.566276
_cell_angle_beta 43.277997
_cell_angle_gamma 152.390041
_cell_volume 882.720785
_symmetry_space_group_name_H-M "P -1"
_symmetry_group_IT_number 2
_symmetry_cell_setting 'triclinic'
loop_
_space_group_symop_operation_xyz
x,y,z
-x,-y,-z
loop_
_atom_site_type_symbol
_atom_site_label
_atom_site_fract_x
_atom_site_fract_y
_atom_site_fract_z
Si Si1 0.824603 0.502125 0.356085
Si Si2 0.428784 0.081575 0.494254
Si Si3 0.606647 0.505336 0.184719
Si Si4 0.096850 0.021815 0.664832
Si Si5 0.723248 0.840339 0.380574
Si Si6 0.126970 0.793519 0.926725
Si Si7 0.212285 0.437039 0.815760
Si Si8 0.180030 0.251485 0.358913
O O1 0.830607 0.531125 0.195888
O O2 0.777000 0.557724 0.549235
O O3 0.686521 0.199577 0.475324
O O4 0.007030 0.723794 0.178398
O O5 0.511478 0.259293 0.300010
O O6 0.588814 0.281060 0.385483
O O7 0.301545 0.996496 0.759245
O O8 0.726927 0.736953 0.201745
O O9 0.469944 0.404797 0.366044
O O10 0.695597 0.601658 0.923994
O O11 0.198086 0.076775 0.583496
O O12 0.148989 0.222619 0.748190
O O13 0.154394 0.120073 0.452242
O O14 0.900314 0.712082 0.909845
O O15 0.818021 0.083169 0.259996
O O16 0.000000 0.500000 0.000000
O O17 0.000000 0.000000 0.500000
#
# Coordination Sequence:
#
# PCOD9075288 Si02
#       8
#     2   2   2   2   2   2   2   2
#     4  10  20  34  55  80 113 147 180 226 279 325
#     4  10  19  33  55  84 108 144 186 229 269 323
#     4  10  21  34  56  82 111 140 190 228 272 332
#     4  10  20  33  57  79 112 145 184 229 276 327
#     4  10  18  36  59  80 104 147 187 232 273 320
#     4   9  18  32  53  83 108 138 182 228 268 325
#     4  10  18  32  53  84 111 138 186 231 269 321
#     4  11  23  36  52  82 114 146 181 230 281 331
#
# _framework density 18.125776999999999
#
# number of rings (size 3 to 8) (size 9 to 14) (size 15 to 20)
#    0.000    2.000    2.500    1.875    1.750    1.000 
#    0.000    0.000    0.000    0.000    0.000    6.125 
#    0.000    0.000    0.000    0.000    0.000    0.000 
#
# Total GULP energy -89095.725437 kJ/mol
# GULP energy per Si atom -5568.482840 kJ/mol
# Density = 1.808452 g / cm^3
# Si number density = 18.125777 Si / 1000 Ang^3
#
#
#
# Elastic Constant Matrix: (Units=GPa)
#
#
# Indices 1 2 3 4 5 6 
#
# 1 90.7660 32.6201 31.8165 -4.7922 -0.9688 -1.6443
# 2 32.6201 56.1833 36.8873 -15.7442 8.1496 -8.6182
# 3 31.8165 36.8873 114.2141 -0.5875 2.6472 3.2637
# 4 -4.7922 -15.7442 -0.5875 25.4076 2.5172 -0.0978
# 5 -0.9688 8.1496 2.6472 2.5172 35.6741 -12.7131
# 6 -1.6443 -8.6182 3.2637 -0.0978 -12.7131 28.6643
#
#
#
# Elastic Compliance Matrix: (Units=1/GPa)
#
#
# Indices 1 2 3 4 5 6 
#
# 1 0.014514 -0.008966 -0.001205 -0.003099 0.002532 -0.000614
# 2 -0.008966 0.038052 -0.009790 0.022341 -0.006495 0.009237
# 3 -0.001205 -0.009790 0.012343 -0.006041 0.000157 -0.004369
# 4 -0.003099 0.022341 -0.006041 0.053183 -0.006951 0.004326
# 5 0.002532 -0.006495 0.000157 -0.006951 0.034924 0.013640
# 6 -0.000614 0.009237 -0.004369 0.004326 0.013640 0.044190
#
#
# Mechanical properties :
#
#
# Convention : Reuss Voigt Hill
#
# Bulk Modulus (GPa) = 40.02019 51.53456 45.77737
# Shear Modulus (GPa) = 20.37016 28.60516 24.48766
#
# Velocity S-wave (km/s) = 3.35598 3.97690 3.67956
# Velocity P-wave (km/s) = 6.09458 7.04138 6.58502
#
# Compressibility (1/GPa) = 0.02498739
#
# Stress axis : x y z
#
# Youngs Moduli (GPa) = 68.89849 26.27991 81.01692
#
# Poissons Ratio (x) = 0.23562 0.09759
# Poissons Ratio (y) = 0.61774 0.79318
# Poissons Ratio (z) = 0.08299 0.25729
#
# Static dielectric constant tensor:
#      x y z
#    x 1.664740 -0.012630 -0.033780 
#    y -0.012630 1.621550 -0.006190 
#    z -0.033780 -0.006190 1.675010 
# 
# From -- ./inp_files/182416.got.cif
#   From: 2010.05.17/outbox.cif.g08.bks.cpg/sg2_92_cif.got.tgz:182416.got - 2010.06.03 11:33:40.
