data_PCOD9075125
_publ_section_title
;
Structure prediction by ZEFSAII (Michael W. Deem and Ramdas Pophale) SiO2 
 PCOD9075125
Probable space group: P -1
;
_chemical_formula_sum "Si O2"
_cell_formula_units_Z 12
_cell_length_a 15.000000
_cell_length_b 18.000000
_cell_length_c 12.000000
_cell_angle_alpha 30.000000
_cell_angle_beta 150.000000
_cell_angle_gamma 160.000000
_cell_volume 527.600048
_symmetry_space_group_name_H-M "P -1"
_symmetry_group_IT_number 2
_symmetry_cell_setting 'triclinic'
loop_
_space_group_symop_operation_xyz
x,y,z
-x,-y,-z
loop_
_atom_site_type_symbol
_atom_site_label
_atom_site_fract_x
_atom_site_fract_y
_atom_site_fract_z
Si Si1 0.276520 0.975923 0.392613
Si Si2 0.186307 0.844525 0.223733
Si Si3 0.903716 0.865339 0.317416
Si Si4 0.654004 0.632063 0.645709
Si Si5 0.743741 0.024730 0.236876
Si Si6 0.407038 0.534358 0.963117
O O1 0.184066 0.828136 0.376597
O O2 0.399480 0.201734 0.176253
O O3 0.521633 0.044860 0.633926
O O4 0.020835 0.862929 0.336100
O O5 0.144177 0.989175 0.947682
O O6 0.900133 0.593853 0.203771
O O7 0.611136 0.620623 0.359045
O O8 0.132149 0.949431 0.542649
O O9 0.962591 0.763225 0.785155
O O10 0.638707 0.795856 0.380884
O O11 0.594405 0.569643 0.794476
O O12 0.500000 0.000000 0.000000
O O13 0.500000 0.500000 0.000000
#
# Coordination Sequence:
#
# PCOD9075125 Si02
#       6
#     2   2   2   2   2   2
#     4  11  24  39  65 103 135 170 215 260 327 402
#     4  11  23  39  63 100 135 172 212 262 323 393
#     4  12  23  44  69  95 134 172 214 274 329 384
#     4  11  25  44  69  94 131 171 220 276 325 387
#     4  11  27  47  67  94 125 174 230 274 326 382
#     4  12  21  41  67  96 135 176 211 261 329 392
#
# _framework density 22.744501
#
# number of rings (size 3 to 8) (size 9 to 14) (size 15 to 20)
#    0.000    0.667    5.000    2.500    2.333    2.000 
#    3.000    0.000    0.000    0.000    0.000    0.000 
#    0.000    0.000    0.000    0.000    0.000    0.000 
#
# Total GULP energy -66914.649663 kJ/mol
# GULP energy per Si atom -5576.220805 kJ/mol
# Density = 2.269273 g / cm^3
# Si number density = 22.744501 Si / 1000 Ang^3
#
#
#
# Elastic Constant Matrix: (Units=GPa)
#
#
# Indices 1 2 3 4 5 6 
#
# 1 104.0754 40.6594 48.5706 -0.5690 8.3915 28.9548
# 2 40.6594 127.1683 46.2965 9.8391 8.6720 22.0325
# 3 48.5706 46.2965 145.1806 26.8241 22.4590 16.7168
# 4 -0.5690 9.8391 26.8241 36.9973 4.3565 2.7073
# 5 8.3915 8.6720 22.4590 4.3565 35.4747 8.0462
# 6 28.9548 22.0325 16.7168 2.7073 8.0462 44.0838
#
#
#
# Elastic Compliance Matrix: (Units=1/GPa)
#
#
# Indices 1 2 3 4 5 6 
#
# 1 0.014386 -0.002217 -0.004211 0.004282 0.000906 -0.007172
# 2 -0.002217 0.009801 -0.001885 -0.001086 0.000061 -0.002672
# 3 -0.004211 -0.001885 0.010803 -0.006904 -0.004739 0.000901
# 4 0.004282 -0.001086 -0.006904 0.032509 0.000005 -0.001650
# 5 0.000906 0.000061 -0.004739 0.000005 0.032019 -0.004673
# 6 -0.007172 -0.002672 0.000901 -0.001650 -0.004673 0.029343
#
#
# Mechanical properties :
#
#
# Convention : Reuss Voigt Hill
#
# Bulk Modulus (GPa) = 54.45618 71.94193 63.19906
# Shear Modulus (GPa) = 32.97951 39.37100 36.17526
#
# Velocity S-wave (km/s) = 3.81202 4.16506 3.99244
# Velocity P-wave (km/s) = 6.58558 7.40469 7.00711
#
# Compressibility (1/GPa) = 0.01836339
#
# Stress axis : x y z
#
# Youngs Moduli (GPa) = 69.51415 102.02545 92.56697
#
# Poissons Ratio (x) = 0.22617 0.38983
# Poissons Ratio (y) = 0.15410 0.17450
# Poissons Ratio (z) = 0.29275 0.19233
#
# Static dielectric constant tensor:
#      x y z
#    x 1.986570 -0.157320 -0.053370 
#    y -0.157320 2.004670 0.033980 
#    z -0.053370 0.033980 1.823550 
# 
# From -- ./inp_files/236988.got.cif
#   From: 2010.05.17/outbox.ucp.g08.bks.cvg/sg2_119_cif.got.tgz:236988.got - 2010.06.11 11:32:03.
