data_PCOD9075696
_publ_section_title
;
Structure prediction by ZEFSAII (Michael W. Deem and Ramdas Pophale) SiO2 
 PCOD9075696
Probable space group: P -1
;
_chemical_formula_sum "Si O2"
_cell_formula_units_Z 15
_cell_length_a 9.099655
_cell_length_b 11.973107
_cell_length_c 16.874123
_cell_angle_alpha 140.379856
_cell_angle_beta 30.576500
_cell_angle_gamma 137.006889
_cell_volume 583.021648
_symmetry_space_group_name_H-M "P -1"
_symmetry_group_IT_number 2
_symmetry_cell_setting 'triclinic'
loop_
_space_group_symop_operation_xyz
x,y,z
-x,-y,-z
loop_
_atom_site_type_symbol
_atom_site_label
_atom_site_fract_x
_atom_site_fract_y
_atom_site_fract_z
Si Si1 0.624415 0.022400 0.062944
Si Si2 0.087908 0.277799 0.614532
Si Si3 0.997368 0.977703 0.624438
Si Si4 0.286833 0.564707 0.793617
Si Si5 0.500000 0.500000 0.000000
Si Si6 0.356463 0.454935 0.865399
Si Si7 0.793602 0.969930 0.284668
Si Si8 0.407454 0.148079 0.847865
O O1 0.277059 0.949191 0.170238
O O2 0.665901 0.228894 0.134842
O O3 0.660421 0.973730 0.111469
O O4 0.875532 0.954811 0.861661
O O5 0.733645 0.287767 0.782517
O O6 0.125533 0.199618 0.467691
O O7 0.299230 0.450845 0.646146
O O8 0.111205 0.124343 0.584089
O O9 0.202152 0.942120 0.582417
O O10 0.468995 0.533078 0.770051
O O11 0.949687 0.488226 0.937666
O O12 0.556336 0.509605 0.879425
O O13 0.240036 0.309231 0.003925
O O14 0.272444 0.240518 0.777716
O O15 0.610786 0.965654 0.285273
#
# Coordination Sequence:
#
# PCOD9075696 Si02
#       8
#     2   2   2   2   1   2   2   2
#     4  10  22  35  56  85 114 143 181 235 283 318
#     4  10  20  37  57  79 113 147 189 227 266 334
#     4  10  21  36  56  81 110 151 187 227 272 325
#     4  10  18  34  55  80 109 145 179 234 268 326
#     4  10  18  32  54  82 108 140 176 228 276 318
#     4   9  18  30  54  82 108 136 185 223 277 321
#     4  10  19  35  56  84 113 142 184 232 277 326
#     4  10  21  36  57  85 111 146 182 230 280 331
#
# _framework density 25.728034999999998
#
# number of rings (size 3 to 8) (size 9 to 14) (size 15 to 20)
#    0.000    2.133    2.667    0.800    0.000    2.133 
#    0.000    0.000    0.000    0.800    0.000    0.000 
#    0.000    0.000    0.000    0.000    0.000    0.000 
#
# Total GULP energy -83535.780285 kJ/mol
# GULP energy per Si atom -5569.052019 kJ/mol
# Density = 2.566948 g / cm^3
# Si number density = 25.728035 Si / 1000 Ang^3
#
#
#
# Elastic Constant Matrix: (Units=GPa)
#
#
# Indices 1 2 3 4 5 6 
#
# 1 197.8561 45.5007 38.6654 -3.4724 61.8806 -19.3579
# 2 45.5007 81.0891 13.9812 0.9666 19.1211 -15.5294
# 3 38.6654 13.9812 61.7820 3.7944 42.8369 7.6207
# 4 -3.4724 0.9666 3.7944 18.7567 -4.8969 9.7983
# 5 61.8806 19.1211 42.8369 -4.8969 57.4653 -4.9291
# 6 -19.3579 -15.5294 7.6207 9.7983 -4.9291 35.3268
#
#
#
# Elastic Compliance Matrix: (Units=1/GPa)
#
#
# Indices 1 2 3 4 5 6 
#
# 1 0.008462 -0.002233 0.001735 -0.002573 -0.009655 0.002648
# 2 -0.002233 0.015644 -0.001940 -0.004929 -0.001150 0.007278
# 3 0.001735 -0.001940 0.040557 -0.011141 -0.033281 -0.010205
# 4 -0.002573 -0.004929 -0.011141 0.069197 0.017070 -0.017985
# 5 -0.009655 -0.001150 -0.033281 0.017070 0.054813 0.004297
# 6 0.002648 0.007278 -0.010205 -0.017985 0.004297 0.040747
#
#
# Mechanical properties :
#
#
# Convention : Reuss Voigt Hill
#
# Bulk Modulus (GPa) = 16.72609 59.66908 38.19759
# Shear Modulus (GPa) = 19.66759 38.48174 29.07467
#
# Velocity S-wave (km/s) = 2.76785 3.87164 3.36531
# Velocity P-wave (km/s) = 4.09022 6.57486 5.47534
#
# Compressibility (1/GPa) = 0.05978683
#
# Stress axis : x y z
#
# Youngs Moduli (GPa) = 118.17352 63.92428 24.65639
#
# Poissons Ratio (x) = 0.14275 -0.04278
# Poissons Ratio (y) = 0.26389 0.04784
# Poissons Ratio (z) = -0.20506 0.12403
#
# Static dielectric constant tensor:
#      x y z
#    x 1.947240 0.243970 0.222910 
#    y 0.243970 1.818080 -0.276290 
#    z 0.222910 -0.276290 1.798140 
# 
# From -- ./inp_files/181588.got.cif
#   From: 2010.05.17/outbox.cif.g08.bks.cpg/sg2_91_cif.got.tgz:181588.got - 2010.06.03 11:33:40.
