data_PCOD9075382
_publ_section_title
;
Structure prediction by ZEFSAII (Michael W. Deem and Ramdas Pophale) SiO2 
 PCOD9075382
Probable space group: P -1
;
_chemical_formula_sum "Si O2"
_cell_formula_units_Z 16
_cell_length_a 12.972183
_cell_length_b 14.441719
_cell_length_c 8.903968
_cell_angle_alpha 42.437798
_cell_angle_beta 142.447773
_cell_angle_gamma 118.668548
_cell_volume 663.145398
_symmetry_space_group_name_H-M "P -1"
_symmetry_group_IT_number 2
_symmetry_cell_setting 'triclinic'
loop_
_space_group_symop_operation_xyz
x,y,z
-x,-y,-z
loop_
_atom_site_type_symbol
_atom_site_label
_atom_site_fract_x
_atom_site_fract_y
_atom_site_fract_z
Si Si1 0.891655 0.594276 0.395503
Si Si2 0.567614 0.210675 0.825351
Si Si3 0.339255 0.068136 0.932318
Si Si4 0.858707 0.067653 0.552097
Si Si5 0.305153 0.568952 0.414368
Si Si6 0.147776 0.479559 0.065759
Si Si7 0.220125 0.089054 0.091656
Si Si8 0.946642 0.795429 0.768534
O O1 0.746942 0.530359 0.396261
O O2 0.797083 0.754215 0.050861
O O3 0.000000 0.500000 0.500000
O O4 0.050657 0.594529 0.695797
O O5 0.589578 0.083012 0.883727
O O6 0.742849 0.180867 0.168596
O O7 0.434508 0.176715 0.835031
O O8 0.536589 0.355998 0.518950
O O9 0.342780 0.062375 0.120526
O O10 0.137909 0.127300 0.573347
O O11 0.915941 0.917916 0.708234
O O12 0.739812 0.031867 0.592310
O O13 0.027947 0.093515 0.796957
O O14 0.298939 0.498085 0.328115
O O15 0.146311 0.709772 0.089673
O O16 0.151009 0.330156 0.169631
O O17 0.000000 0.500000 0.000000
#
# Coordination Sequence:
#
# PCOD9075382 Si02
#       8
#     2   2   2   2   2   2   2   2
#     4  10  19  31  51  79 107 130 162 213 262 303
#     4  10  21  36  50  77 105 139 174 209 260 297
#     4  10  20  33  54  75 105 136 173 217 251 304
#     4  10  21  33  54  77 105 133 169 218 255 306
#     4  10  18  32  54  74 102 135 169 210 254 307
#     4   8  15  27  47  71  98 130 161 201 248 297
#     4  11  20  34  53  81 103 133 174 211 259 304
#     4   9  16  32  51  75  99 131 169 209 256 298
#
# _framework density 24.127438000000001
#
# number of rings (size 3 to 8) (size 9 to 14) (size 15 to 20)
#    0.000    2.500    0.000    6.000    0.000    3.500 
#    0.000    2.500    0.000    0.000    0.000   15.750 
#    0.000    0.000    0.000    0.000    0.000    0.000 
#
# Total GULP energy -89180.393937 kJ/mol
# GULP energy per Si atom -5573.774621 kJ/mol
# Density = 2.407252 g / cm^3
# Si number density = 24.127438 Si / 1000 Ang^3
#
#
#
# Elastic Constant Matrix: (Units=GPa)
#
#
# Indices 1 2 3 4 5 6 
#
# 1 123.4844 33.4306 9.6210 -0.1699 -21.5916 7.8129
# 2 33.4306 97.2766 -0.2493 -13.4203 -14.0493 12.0068
# 3 9.6210 -0.2493 34.7213 -7.1826 -18.3231 3.2075
# 4 -0.1699 -13.4203 -7.1826 22.6474 10.1643 -7.8380
# 5 -21.5916 -14.0493 -18.3231 10.1643 30.0135 -0.9244
# 6 7.8129 12.0068 3.2075 -7.8380 -0.9244 43.9876
#
#
#
# Elastic Compliance Matrix: (Units=1/GPa)
#
#
# Indices 1 2 3 4 5 6 
#
# 1 0.010443 -0.002961 0.000442 -0.005967 0.008357 -0.001966
# 2 -0.002961 0.013167 0.005003 0.006439 0.004840 -0.002184
# 3 0.000442 0.005003 0.044959 0.002976 0.028989 -0.003583
# 4 -0.005967 0.006439 0.002976 0.061087 -0.019855 0.009553
# 5 0.008357 0.004840 0.028989 -0.019855 0.065799 -0.007074
# 6 -0.001966 -0.002184 -0.003583 0.009553 -0.007074 0.025494
#
#
# Mechanical properties :
#
#
# Convention : Reuss Voigt Hill
#
# Bulk Modulus (GPa) = 13.59864 37.89854 25.74859
# Shear Modulus (GPa) = 20.79053 33.50837 27.14945
#
# Velocity S-wave (km/s) = 2.93865 3.73071 3.35812
# Velocity P-wave (km/s) = 4.14278 5.85657 5.07257
#
# Compressibility (1/GPa) = 0.07353678
#
# Stress axis : x y z
#
# Youngs Moduli (GPa) = 95.75961 75.94536 22.24254
#
# Poissons Ratio (x) = 0.22490 -0.00984
# Poissons Ratio (y) = 0.28357 -0.11128
# Poissons Ratio (z) = -0.04236 -0.37994
#
# Static dielectric constant tensor:
#      x y z
#    x 2.007460 0.091340 0.078650 
#    y 0.091340 1.996050 0.051100 
#    z 0.078650 0.051100 2.018670 
# 
# From -- ./inp_files/269667.got.cif
#   From: 2010.05.17/outbox.cif.g08.bks.cpg/sg2_135_cif.got.tgz:269667.got - 2010.06.03 11:33:40.
