data_PCOD9075947
_publ_section_title
;
Structure prediction by ZEFSAII (Michael W. Deem and Ramdas Pophale) SiO2 
 PCOD9075947
Probable space group: P -1
;
_chemical_formula_sum "Si O2"
_cell_formula_units_Z 16
_cell_length_a 13.458257
_cell_length_b 12.362244
_cell_length_c 12.147265
_cell_angle_alpha 32.933326
_cell_angle_beta 77.849839
_cell_angle_gamma 55.494720
_cell_volume 730.101584
_symmetry_space_group_name_H-M "P -1"
_symmetry_group_IT_number 2
_symmetry_cell_setting 'triclinic'
loop_
_space_group_symop_operation_xyz
x,y,z
-x,-y,-z
loop_
_atom_site_type_symbol
_atom_site_label
_atom_site_fract_x
_atom_site_fract_y
_atom_site_fract_z
Si Si1 0.377316 0.361776 0.132867
Si Si2 0.557209 0.179007 0.448849
Si Si3 0.162508 0.265255 0.110733
Si Si4 0.873046 0.732360 0.133783
Si Si5 0.824870 0.332559 0.518289
Si Si6 0.820887 0.293677 0.304507
Si Si7 0.885061 0.317509 0.905787
Si Si8 0.296356 0.663709 0.248116
O O1 0.494626 0.303555 0.234890
O O2 0.242036 0.485226 0.140176
O O3 0.456323 0.044533 0.344773
O O4 0.295172 0.607477 0.847497
O O5 0.450762 0.436692 0.341692
O O6 0.725099 0.983330 0.613592
O O7 0.167042 0.171975 0.067032
O O8 0.199144 0.442034 0.932484
O O9 0.000000 0.500000 0.000000
O O10 0.853123 0.529069 0.337180
O O11 0.041435 0.578154 0.235130
O O12 0.769456 0.022713 0.983779
O O13 0.785097 0.308525 0.427288
O O14 0.703172 0.447278 0.539635
O O15 0.978916 0.008223 0.798878
O O16 0.000000 0.000000 0.500000
O O17 0.816277 0.300369 0.833418
#
# Coordination Sequence:
#
# PCOD9075947 Si02
#       8
#     2   2   2   2   2   2   2   2
#     4   9  17  34  60  83 114 150 195 243 289 341
#     4   9  19  36  58  83 113 153 193 240 292 353
#     4  10  21  35  59  87 107 146 199 244 297 342
#     4  10  20  34  54  86 119 148 194 246 280 340
#     4  10  20  33  55  89 119 152 193 244 283 338
#     4  10  18  32  57  87 113 144 194 237 288 336
#     4  10  19  35  59  87 111 156 198 237 292 342
#     4  10  22  36  57  82 118 162 195 224 297 357
#
# _framework density 21.914757999999999
#
# number of rings (size 3 to 8) (size 9 to 14) (size 15 to 20)
#    0.000    2.250    1.250    3.000    1.750    2.500 
#    0.000    5.625    5.500    0.750    0.000    0.000 
#    0.000    0.000    0.000    0.000    0.000    0.000 
#
# Total GULP energy -89327.203859 kJ/mol
# GULP energy per Si atom -5582.950241 kJ/mol
# Density = 2.186488 g / cm^3
# Si number density = 21.914758 Si / 1000 Ang^3
#
#
#
# Elastic Constant Matrix: (Units=GPa)
#
#
# Indices 1 2 3 4 5 6 
#
# 1 61.1727 6.2746 32.7422 -1.9416 8.6728 17.1106
# 2 6.2746 84.3656 26.9318 4.2210 17.0545 25.3201
# 3 32.7422 26.9318 104.7452 18.7904 19.4967 7.4365
# 4 -1.9416 4.2210 18.7904 36.1480 4.9513 2.1795
# 5 8.6728 17.0545 19.4967 4.9513 53.2315 4.6376
# 6 17.1106 25.3201 7.4365 2.1795 4.6376 19.5558
#
#
#
# Elastic Compliance Matrix: (Units=1/GPa)
#
#
# Indices 1 2 3 4 5 6 
#
# 1 0.035627 0.015712 -0.013122 0.010127 -0.002882 -0.046972
# 2 0.015712 0.028107 -0.008986 0.005674 -0.004775 -0.046222
# 3 -0.013122 -0.008986 0.016646 -0.009159 -0.001817 0.018238
# 4 0.010127 0.005674 -0.009159 0.033524 -0.001835 -0.016025
# 5 -0.002882 -0.004775 -0.001817 -0.001835 0.021223 0.004566
# 6 -0.046972 -0.046222 0.018238 -0.016025 0.004566 0.145849
#
#
# Mechanical properties :
#
#
# Convention : Reuss Voigt Hill
#
# Bulk Modulus (GPa) = 14.79532 42.46450 28.62991
# Shear Modulus (GPa) = 15.80795 34.07607 24.94201
#
# Velocity S-wave (km/s) = 2.68869 3.94755 3.37729
# Velocity P-wave (km/s) = 4.05027 6.34009 5.31984
#
# Compressibility (1/GPa) = 0.06758893
#
# Stress axis : x y z
#
# Youngs Moduli (GPa) = 28.06824 35.57862 60.07589
#
# Poissons Ratio (x) = -0.55903 0.78832
# Poissons Ratio (y) = -0.44102 0.53983
# Poissons Ratio (z) = 0.36831 0.31970
#
# Static dielectric constant tensor:
#      x y z
#    x 1.817940 0.056980 0.009610 
#    y 0.056980 1.799230 0.028090 
#    z 0.009610 0.028090 1.824480 
# 
# From -- ./inp_files/432265.got.cif
#   From: 2010.05.17/outbox.cif.g08.bks.cpg/sg2_217_cif.got.tgz:432265.got - 2010.06.03 11:33:40.
