data_PCOD9075960
_publ_section_title
;
Structure prediction by ZEFSAII (Michael W. Deem and Ramdas Pophale) SiO2 
 PCOD9075960
Probable space group: P -1
;
_chemical_formula_sum "Si O2"
_cell_formula_units_Z 16
_cell_length_a 14.134559
_cell_length_b 18.781118
_cell_length_c 11.032562
_cell_angle_alpha 26.916035
_cell_angle_beta 34.471501
_cell_angle_gamma 31.191430
_cell_volume 662.473330
_symmetry_space_group_name_H-M "P -1"
_symmetry_group_IT_number 2
_symmetry_cell_setting 'triclinic'
loop_
_space_group_symop_operation_xyz
x,y,z
-x,-y,-z
loop_
_atom_site_type_symbol
_atom_site_label
_atom_site_fract_x
_atom_site_fract_y
_atom_site_fract_z
Si Si1 0.219435 0.383424 0.179487
Si Si2 0.890319 0.393566 0.651750
Si Si3 0.755275 0.253328 0.623722
Si Si4 0.518703 0.895263 0.515199
Si Si5 0.822008 0.787472 0.168943
Si Si6 0.072902 0.221304 0.180492
Si Si7 0.354116 0.339402 0.840610
Si Si8 0.786320 0.144356 0.023086
O O1 0.366030 0.310575 0.245508
O O2 0.061486 0.330802 0.469273
O O3 0.315257 0.301066 0.077216
O O4 0.103988 0.593634 0.961729
O O5 0.811184 0.604022 0.430922
O O6 0.753909 0.328606 0.836515
O O7 0.993411 0.286480 0.827117
O O8 0.578665 0.279615 0.684633
O O9 0.736774 0.445203 0.392790
O O10 0.725402 0.174818 0.900499
O O11 0.961076 0.155142 0.490458
O O12 0.637468 0.908853 0.258743
O O13 0.500000 0.000000 0.500000
O O14 0.308543 0.930195 0.666774
O O15 0.838940 0.874760 0.893887
O O16 0.231659 0.269377 0.997347
O O17 0.000000 0.000000 0.000000
#
# Coordination Sequence:
#
# PCOD9075960 Si02
#       8
#     2   2   2   2   2   2   2   2
#     4   9  16  34  55  84 118 154 193 248 298 343
#     4   9  18  34  60  84 119 160 197 248 306 353
#     4  10  20  34  56  92 120 153 205 253 293 352
#     4  11  23  38  60  84 119 161 203 252 301 366
#     4   9  19  38  56  88 120 158 196 244 310 358
#     4  10  19  34  60  86 124 159 189 245 309 360
#     4  10  18  32  57  89 123 158 198 248 299 354
#     4  12  23  38  60  91 120 160 206 255 300 348
#
# _framework density 24.151914999999999
#
# number of rings (size 3 to 8) (size 9 to 14) (size 15 to 20)
#    0.000    2.000    1.250    6.000    0.000    0.500 
#    2.250    0.000    0.000    6.000    0.000    0.000 
#    0.000    0.000    0.000    0.000    0.000    0.000 
#
# Total GULP energy -89233.025926 kJ/mol
# GULP energy per Si atom -5577.064120 kJ/mol
# Density = 2.409694 g / cm^3
# Si number density = 24.151915 Si / 1000 Ang^3
#
#
#
# Elastic Constant Matrix: (Units=GPa)
#
#
# Indices 1 2 3 4 5 6 
#
# 1 82.7402 37.5385 39.4002 23.5162 3.3715 11.7810
# 2 37.5385 71.4453 29.9250 23.9667 -7.5026 15.3109
# 3 39.4002 29.9250 85.0934 28.5251 0.0244 20.9060
# 4 23.5162 23.9667 28.5251 44.9237 3.4680 8.7887
# 5 3.3715 -7.5026 0.0244 3.4680 39.6939 2.9066
# 6 11.7810 15.3109 20.9060 8.7887 2.9066 30.0815
#
#
#
# Elastic Compliance Matrix: (Units=1/GPa)
#
#
# Indices 1 2 3 4 5 6 
#
# 1 0.018640 -0.007211 -0.005599 -0.002378 -0.002825 0.001229
# 2 -0.007211 0.022430 -0.000554 -0.006980 0.005956 -0.006743
# 3 -0.005599 -0.000554 0.019179 -0.007344 0.001650 -0.008868
# 4 -0.002378 -0.006980 -0.007344 0.032080 -0.003959 0.000598
# 5 -0.002825 0.005956 0.001650 -0.003959 0.027236 -0.004547
# 6 0.001229 -0.006743 -0.008868 0.000598 -0.004547 0.042622
#
#
# Mechanical properties :
#
#
# Convention : Reuss Voigt Hill
#
# Bulk Modulus (GPa) = 29.83236 50.33407 40.08321
# Shear Modulus (GPa) = 24.98897 31.76749 28.37823
#
# Velocity S-wave (km/s) = 3.22010 3.63067 3.43153
# Velocity P-wave (km/s) = 5.11900 6.20174 5.68620
#
# Compressibility (1/GPa) = 0.03352065
#
# Stress axis : x y z
#
# Youngs Moduli (GPa) = 53.64947 44.58391 52.13962
#
# Poissons Ratio (x) = 0.32149 0.29192
# Poissons Ratio (y) = 0.38686 0.02890
# Poissons Ratio (z) = 0.30037 0.02471
#
# Static dielectric constant tensor:
#      x y z
#    x 1.995850 -0.048360 -0.017650 
#    y -0.048360 2.029320 0.003460 
#    z -0.017650 0.003460 2.023980 
# 
# From -- ./inp_files/457409.got.cif
#   From: 2010.05.17/outbox.cif.g08.bks.cpg/sg2_229_cif.got.tgz:457409.got - 2010.06.03 11:33:40.
