data_PCOD9075981
_publ_section_title
;
Structure prediction by ZEFSAII (Michael W. Deem and Ramdas Pophale) SiO2 
 PCOD9075981
Probable space group: P -1
;
_chemical_formula_sum "Si O2"
_cell_formula_units_Z 16
_cell_length_a 9.612915
_cell_length_b 9.347891
_cell_length_c 9.439815
_cell_angle_alpha 99.301040
_cell_angle_beta 112.728276
_cell_angle_gamma 60.974743
_cell_volume 683.780790
_symmetry_space_group_name_H-M "P -1"
_symmetry_group_IT_number 2
_symmetry_cell_setting 'triclinic'
loop_
_space_group_symop_operation_xyz
x,y,z
-x,-y,-z
loop_
_atom_site_type_symbol
_atom_site_label
_atom_site_fract_x
_atom_site_fract_y
_atom_site_fract_z
Si Si1 0.816515 0.212600 0.979255
Si Si2 0.550603 0.235867 0.538420
Si Si3 0.431350 0.450845 0.103732
Si Si4 0.880078 0.603359 0.104744
Si Si5 0.330074 0.089262 0.309190
Si Si6 0.837198 0.918022 0.042496
Si Si7 0.700602 0.387885 0.429195
Si Si8 0.016171 0.669956 0.685319
O O1 0.897460 0.272937 0.146005
O O2 0.971541 0.112104 0.917487
O O3 0.692902 0.365906 0.862032
O O4 0.737154 0.113307 0.018820
O O5 0.474974 0.145197 0.389184
O O6 0.697437 0.270208 0.533140
O O7 0.398685 0.419217 0.537454
O O8 0.608890 0.102188 0.666254
O O9 0.578281 0.366490 0.260323
O O10 0.500000 0.500000 0.000000
O O11 0.306583 0.378081 0.999468
O O12 0.958141 0.498985 0.260819
O O13 0.856003 0.785975 0.143534
O O14 0.000000 0.500000 0.000000
O O15 0.239427 0.135149 0.129620
O O16 0.180374 0.197613 0.378277
O O17 0.875566 0.349905 0.415278
#
# Coordination Sequence:
#
# PCOD9075981 Si02
#       8
#     2   2   2   2   2   2   2   2
#     4   9  18  32  52  88 112 151 172 230 289 351
#     4  10  24  39  62  80 111 158 209 231 285 333
#     4  11  19  34  59  82 119 149 176 232 298 340
#     4  11  18  34  56  91 110 155 184 226 291 362
#     4  10  20  41  58  84 109 158 192 251 278 328
#     4  10  18  32  58  82 119 141 192 225 283 352
#     4  11  22  40  58  87 114 155 195 241 281 347
#     4  10  21  37  61  83 123 147 191 242 292 340
#
# _framework density 23.399311000000001
#
# number of rings (size 3 to 8) (size 9 to 14) (size 15 to 20)
#    0.000    1.750    6.250    1.500    0.000    1.000 
#    0.000    3.125    0.000    0.000    0.000    0.000 
#    0.000    0.000    0.000    0.000    0.000    0.000 
#
# Total GULP energy -89203.923949 kJ/mol
# GULP energy per Si atom -5575.245247 kJ/mol
# Density = 2.334605 g / cm^3
# Si number density = 23.399311 Si / 1000 Ang^3
#
#
#
# Elastic Constant Matrix: (Units=GPa)
#
#
# Indices 1 2 3 4 5 6 
#
# 1 83.0505 23.9244 5.0444 -7.4566 -12.1923 26.4659
# 2 23.9244 107.5459 1.2547 -19.9327 -6.6446 45.6816
# 3 5.0444 1.2547 41.9032 -2.9385 -0.9239 5.1228
# 4 -7.4566 -19.9327 -2.9385 20.1943 1.6422 -4.9317
# 5 -12.1923 -6.6446 -0.9239 1.6422 24.5462 -7.5351
# 6 26.4659 45.6816 5.1228 -4.9317 -7.5351 33.0490
#
#
#
# Elastic Compliance Matrix: (Units=1/GPa)
#
#
# Indices 1 2 3 4 5 6 
#
# 1 0.018551 0.007650 0.001089 0.008528 0.003536 -0.023520
# 2 0.007650 0.033008 0.005816 0.024384 -0.004004 -0.049926
# 3 0.001089 0.005816 0.025501 0.006995 -0.001098 -0.012071
# 4 0.008528 0.024384 0.006995 0.070237 -0.003395 -0.031911
# 5 0.003536 -0.004004 -0.001098 -0.003395 0.045509 0.012743
# 6 -0.023520 -0.049926 -0.012071 -0.031911 0.012743 0.118117
#
#
# Mechanical properties :
#
#
# Convention : Reuss Voigt Hill
#
# Bulk Modulus (GPa) = 9.41894 32.54963 20.98429
# Shear Modulus (GPa) = 15.76278 29.04296 22.40287
#
# Velocity S-wave (km/s) = 2.59828 3.52687 3.09757
# Velocity P-wave (km/s) = 3.61046 5.52502 4.66697
#
# Compressibility (1/GPa) = 0.10616905
#
# Stress axis : x y z
#
# Youngs Moduli (GPa) = 53.90605 30.29613 39.21379
#
# Poissons Ratio (x) = -0.23176 -0.04270
# Poissons Ratio (y) = -0.41237 -0.22807
# Poissons Ratio (z) = -0.05870 -0.17620
#
# Static dielectric constant tensor:
#      x y z
#    x 1.946770 -0.108960 0.036590 
#    y -0.108960 2.161360 -0.061250 
#    z 0.036590 -0.061250 1.915470 
# 
# From -- ./inp_files/332289.got.cif
#   From: 2010.05.17/outbox.cif.g08.bks.cpg/sg2_167_cif.got.tgz:332289.got - 2010.06.03 11:33:40.
