data_PCOD9075088
_publ_section_title
;
Structure prediction by ZEFSAII (Michael W. Deem and Ramdas Pophale) SiO2 
 PCOD9075088
Probable space group: P -1
;
_chemical_formula_sum "Si O2"
_cell_formula_units_Z 16
_cell_length_a 12.000000
_cell_length_b 9.000000
_cell_length_c 15.000000
_cell_angle_alpha 80.000000
_cell_angle_beta 150.000000
_cell_angle_gamma 110.000000
_cell_volume 734.803614
_symmetry_space_group_name_H-M "P -1"
_symmetry_group_IT_number 2
_symmetry_cell_setting 'triclinic'
loop_
_space_group_symop_operation_xyz
x,y,z
-x,-y,-z
loop_
_atom_site_type_symbol
_atom_site_label
_atom_site_fract_x
_atom_site_fract_y
_atom_site_fract_z
Si Si1 0.288414 0.425819 0.727937
Si Si2 0.262830 0.603482 0.213734
Si Si3 0.371391 0.889851 0.120819
Si Si4 0.774921 0.237159 0.322602
Si Si5 0.711093 0.338718 0.083523
Si Si6 0.915051 0.901925 0.043785
Si Si7 0.856398 0.314608 0.683335
Si Si8 0.495816 0.394782 0.309003
O O1 0.315143 0.610647 0.749656
O O2 0.369956 0.452170 0.678760
O O3 0.011449 0.303305 0.541573
O O4 0.452064 0.357093 0.906082
O O5 0.365870 0.777223 0.214239
O O6 0.238633 0.639944 0.295360
O O7 0.398532 0.480493 0.308269
O O8 0.000000 0.500000 0.000000
O O9 0.614690 0.052704 0.259546
O O10 0.180773 0.977000 0.983941
O O11 0.308914 0.763201 0.009563
O O12 0.791236 0.243261 0.225942
O O13 0.904741 0.525954 0.193091
O O14 0.712309 0.733494 0.882686
O O15 0.080817 0.841064 0.228983
O O16 0.000000 0.000000 0.000000
O O17 0.662038 0.305600 0.473330
#
# Coordination Sequence:
#
# PCOD9075088 Si02
#       8
#     2   2   2   2   2   2   2   2
#     4  11  22  44  69  93 130 177 218 273 328 391
#     4  12  21  44  70  96 134 178 214 272 331 392
#     4  12  23  42  69  98 135 176 214 275 339 381
#     4  11  25  42  66  97 132 170 224 274 326 393
#     4  12  23  43  69  97 131 172 223 267 330 392
#     4  12  24  44  66  96 140 171 216 276 329 385
#     4  12  24  42  72  98 128 179 223 262 327 402
#     4  12  23  44  70  97 130 177 225 265 327 398
#
# _framework density 21.774525000000001
#
# number of rings (size 3 to 8) (size 9 to 14) (size 15 to 20)
#    0.000    0.250    8.750    1.125    0.000    1.000 
#    0.000    1.250    0.000    0.000    0.000    0.000 
#    0.000    0.000    0.000    0.000    0.000    0.000 
#
# Total GULP energy -89299.320608 kJ/mol
# GULP energy per Si atom -5581.207538 kJ/mol
# Density = 2.172497 g / cm^3
# Si number density = 21.774525 Si / 1000 Ang^3
#
#
#
# Elastic Constant Matrix: (Units=GPa)
#
#
# Indices 1 2 3 4 5 6 
#
# 1 40.3127 -1.5016 7.2156 -0.8716 1.9642 3.0090
# 2 -1.5016 92.3487 22.7742 -22.2575 16.1572 16.4408
# 3 7.2156 22.7742 70.7182 -34.1842 -5.1433 8.2056
# 4 -0.8716 -22.2575 -34.1842 31.2881 -0.2621 5.7023
# 5 1.9642 16.1572 -5.1433 -0.2621 17.9203 -5.2965
# 6 3.0090 16.4408 8.2056 5.7023 -5.2965 52.6370
#
#
#
# Elastic Compliance Matrix: (Units=1/GPa)
#
#
# Indices 1 2 3 4 5 6 
#
# 1 0.026284 0.002716 -0.005149 -0.002658 -0.007440 -0.002009
# 2 0.002716 0.020578 0.001727 0.018426 -0.021336 -0.010995
# 3 -0.005149 0.001727 0.036436 0.042746 0.007184 -0.009833
# 4 -0.002658 0.018426 0.042746 0.095924 -0.009634 -0.023628
# 5 -0.007440 -0.021336 0.007184 -0.009634 0.082296 0.015294
# 6 -0.002009 -0.010995 -0.009833 -0.023628 0.015294 0.028179
#
#
# Mechanical properties :
#
#
# Convention : Reuss Voigt Hill
#
# Bulk Modulus (GPa) = 12.21216 28.92846 20.57031
# Shear Modulus (GPa) = 15.70330 32.02851 23.86590
#
# Velocity S-wave (km/s) = 2.68839 3.83941 3.31425
# Velocity P-wave (km/s) = 3.90605 5.74187 4.91051
#
# Compressibility (1/GPa) = 0.08188559
#
# Stress axis : x y z
#
# Youngs Moduli (GPa) = 38.04606 48.59530 27.44513
#
# Poissons Ratio (x) = -0.13199 0.14132
# Poissons Ratio (y) = -0.10334 -0.04739
# Poissons Ratio (z) = 0.19591 -0.08392
#
# Static dielectric constant tensor:
#      x y z
#    x 2.025100 0.016730 0.070540 
#    y 0.016730 1.736570 0.012120 
#    z 0.070540 0.012120 1.811360 
# 
# From -- ./inp_files/304591.got.cif
#   From: 2010.05.17/outbox.ucp.g08.bks.cvg/sg2_153_cif.got.tgz:304591.got - 2010.06.11 11:32:03.
