data_PCOD9075883
_publ_section_title
;
Structure prediction by ZEFSAII (Michael W. Deem and Ramdas Pophale) SiO2 
 PCOD9075883
Probable space group: P -1
;
_chemical_formula_sum "Si O2"
_cell_formula_units_Z 13
_cell_length_a 8.017925
_cell_length_b 12.087580
_cell_length_c 7.831314
_cell_angle_alpha 120.817870
_cell_angle_beta 113.530498
_cell_angle_gamma 102.074718
_cell_volume 508.476000
_symmetry_space_group_name_H-M "P -1"
_symmetry_group_IT_number 2
_symmetry_cell_setting 'triclinic'
loop_
_space_group_symop_operation_xyz
x,y,z
-x,-y,-z
loop_
_atom_site_type_symbol
_atom_site_label
_atom_site_fract_x
_atom_site_fract_y
_atom_site_fract_z
Si Si1 0.000000 0.500000 0.000000
Si Si2 0.792982 0.009021 0.131018
Si Si3 0.571610 0.862657 0.463203
Si Si4 0.281811 0.266577 0.307504
Si Si5 0.831097 0.161137 0.601426
Si Si6 0.338846 0.797062 0.962448
Si Si7 0.233715 0.538037 0.477889
O O1 0.986606 0.331637 0.860988
O O2 0.895570 0.461983 0.738201
O O3 0.907760 0.117430 0.427123
O O4 0.776243 0.111798 0.059684
O O5 0.842834 0.889761 0.973267
O O6 0.561653 0.896357 0.031610
O O7 0.669721 0.774213 0.518150
O O8 0.406780 0.861058 0.534162
O O9 0.756650 0.024904 0.599121
O O10 0.409852 0.787152 0.176328
O O11 0.185904 0.371940 0.364270
O O12 0.514860 0.366793 0.395698
O O13 0.217100 0.631325 0.700324
#
# Coordination Sequence:
#
# PCOD9075883 Si02
#       7
#     1   2   2   2   2   2   2
#     4  12  20  38  56  82 110 150 176 226 276 336
#     4   9  15  30  53  81 105 140 190 222 255 323
#     4  10  18  32  56  87 107 140 188 229 261 317
#     4  10  19  35  57  84 109 142 187 228 266 318
#     4  10  19  32  58  84 109 144 184 226 266 325
#     4   9  16  29  54  82 107 141 185 224 261 319
#     4  10  21  35  56  81 114 146 178 226 276 326
#
# _framework density 25.566593999999998
#
# number of rings (size 3 to 8) (size 9 to 14) (size 15 to 20)
#    0.000    2.154    3.077    3.692    0.000    0.615 
#    0.000    2.308    0.000    0.000    0.000    0.000 
#    0.000    0.000    0.000    0.000    0.000    0.000 
#
# Total GULP energy -72443.425374 kJ/mol
# GULP energy per Si atom -5572.571183 kJ/mol
# Density = 2.550840 g / cm^3
# Si number density = 25.566594 Si / 1000 Ang^3
#
#
#
# Elastic Constant Matrix: (Units=GPa)
#
#
# Indices 1 2 3 4 5 6 
#
# 1 89.9889 38.3169 34.5450 6.8769 -12.9090 -0.1377
# 2 38.3169 155.5360 63.4230 14.9496 -28.0464 -33.5625
# 3 34.5450 63.4230 200.6259 20.8998 -45.9236 -7.5066
# 4 6.8769 14.9496 20.8998 49.8098 -2.4139 2.2894
# 5 -12.9090 -28.0464 -45.9236 -2.4139 33.6105 16.3927
# 6 -0.1377 -33.5625 -7.5066 2.2894 16.3927 32.4392
#
#
#
# Elastic Compliance Matrix: (Units=1/GPa)
#
#
# Indices 1 2 3 4 5 6 
#
# 1 0.013464 -0.003667 -0.000301 -0.000120 0.004702 -0.006174
# 2 -0.003667 0.010753 -0.002456 -0.002294 -0.001562 0.011493
# 3 -0.000301 -0.002456 0.008737 -0.001935 0.013033 -0.006970
# 4 -0.000120 -0.002294 -0.001935 0.021706 -0.001224 -0.003736
# 5 0.004702 -0.001562 0.013033 -0.001224 0.062691 -0.030174
# 6 -0.006174 0.011493 -0.006970 -0.003736 -0.030174 0.056590
#
#
# Mechanical properties :
#
#
# Convention : Reuss Voigt Hill
#
# Bulk Modulus (GPa) = 49.73921 79.85785 64.79853
# Shear Modulus (GPa) = 25.84092 43.82963 34.83528
#
# Velocity S-wave (km/s) = 3.18265 4.14494 3.69525
# Velocity P-wave (km/s) = 5.74479 7.36277 6.60352
#
# Compressibility (1/GPa) = 0.02010486
#
# Stress axis : x y z
#
# Youngs Moduli (GPa) = 74.27367 92.99476 114.45869
#
# Poissons Ratio (x) = 0.34100 0.03447
# Poissons Ratio (y) = 0.27235 0.28116
# Poissons Ratio (z) = 0.02237 0.22844
#
# Static dielectric constant tensor:
#      x y z
#    x 2.056670 0.039820 0.025550 
#    y 0.039820 2.006720 0.040430 
#    z 0.025550 0.040430 2.045310 
# 
# From -- ./inp_files/250556.got.cif
#   From: 2010.05.17/outbox.cif.g08.bks.cpg/sg2_126_cif.got.tgz:250556.got - 2010.06.03 11:33:40.
