data_PCOD9075901
_publ_section_title
;
Structure prediction by ZEFSAII (Michael W. Deem and Ramdas Pophale) SiO2 
 PCOD9075901
Probable space group: P -1
;
_chemical_formula_sum "Si O2"
_cell_formula_units_Z 13
_cell_length_a 12.297972
_cell_length_b 5.270237
_cell_length_c 11.447621
_cell_angle_alpha 111.296202
_cell_angle_beta 47.899393
_cell_angle_gamma 113.641726
_cell_volume 499.424694
_symmetry_space_group_name_H-M "P -1"
_symmetry_group_IT_number 2
_symmetry_cell_setting 'triclinic'
loop_
_space_group_symop_operation_xyz
x,y,z
-x,-y,-z
loop_
_atom_site_type_symbol
_atom_site_label
_atom_site_fract_x
_atom_site_fract_y
_atom_site_fract_z
Si Si1 0.500000 0.000000 0.500000
Si Si2 0.113819 0.307490 0.765367
Si Si3 0.625553 0.624062 0.587828
Si Si4 0.480805 0.175526 0.930828
Si Si5 0.231065 0.565436 0.345949
Si Si6 0.313153 0.811249 0.814990
Si Si7 0.003607 0.320224 0.278131
O O1 0.585319 0.290302 0.545149
O O2 0.649443 0.022780 0.304952
O O3 0.266147 0.269241 0.581386
O O4 0.174602 0.545458 0.858825
O O5 0.027650 0.460027 0.758190
O O6 0.022646 0.994137 0.805810
O O7 0.712590 0.664553 0.654442
O O8 0.464947 0.694349 0.700697
O O9 0.625738 0.191173 0.746375
O O10 0.331022 0.026746 0.944573
O O11 0.500000 0.500000 0.000000
O O12 0.500000 0.000000 0.000000
O O13 0.114984 0.677317 0.529855
O O14 0.157387 0.438317 0.256990
#
# Coordination Sequence:
#
# PCOD9075901 Si02
#       7
#     1   2   2   2   2   2   2
#     4  10  18  32  56  94 122 160 196 266 346 366
#     4  10  22  34  60  93 131 156 209 262 332 396
#     4  10  20  32  58  94 129 169 197 270 337 383
#     4  12  27  44  65  94 130 179 219 265 319 383
#     4  10  22  42  64  90 136 169 222 261 319 398
#     4  11  23  36  63  91 132 167 217 271 333 381
#     4  10  23  39  63  99 127 174 204 270 334 377
#
# _framework density 26.029951000000001
#
# number of rings (size 3 to 8) (size 9 to 14) (size 15 to 20)
#    0.000    1.538    1.538    3.692   10.769    9.231 
#    0.000    0.000    0.000    5.538    0.000    0.000 
#    0.000    0.000    0.000    0.000    0.000    0.000 
#
# Total GULP energy -72531.975241 kJ/mol
# GULP energy per Si atom -5579.382711 kJ/mol
# Density = 2.597071 g / cm^3
# Si number density = 26.029951 Si / 1000 Ang^3
#
#
#
# Elastic Constant Matrix: (Units=GPa)
#
#
# Indices 1 2 3 4 5 6 
#
# 1 47.0978 41.3635 40.3911 102.8309 15.0350 69.0550
# 2 41.3635 130.6018 12.2155 41.3246 15.5302 15.7605
# 3 40.3911 12.2155 51.7011 -19.4045 6.1172 -16.3555
# 4 102.8309 41.3246 -19.4045 -33.1474 10.7527 -38.3551
# 5 15.0350 15.5302 6.1172 10.7527 28.6337 -4.7375
# 6 69.0550 15.7605 -16.3555 -38.3551 -4.7375 16.5205
#
#
#
# Elastic Compliance Matrix: (Units=1/GPa)
#
#
# Indices 1 2 3 4 5 6 
#
# 1 0.005321 -0.004124 0.000775 0.008474 -0.003729 0.001063
# 2 -0.004124 0.009900 0.000463 -0.002782 -0.002059 0.001203
# 3 0.000775 0.000463 0.016317 -0.005693 -0.002235 -0.001385
# 4 0.008474 -0.002782 -0.005693 0.010981 -0.008381 -0.015311
# 5 -0.003729 -0.002059 -0.002235 -0.008381 0.042982 0.008207
# 6 0.001063 0.001203 -0.001385 -0.015311 0.008207 0.020378
#
#
# Mechanical properties :
#
#
# Convention : Reuss Voigt Hill
#
# Bulk Modulus (GPa) = 38.81196 46.37121 42.59159
# Shear Modulus (GPa) = 41.58396 11.43008 26.50702
#
# Velocity S-wave (km/s) = 4.00126 2.09777 3.19459
# Velocity P-wave (km/s) = 6.02409 4.87040 5.47770
#
# Compressibility (1/GPa) = 0.02576525
#
# Stress axis : x y z
#
# Youngs Moduli (GPa) = 187.92846 101.01490 61.28689
#
# Poissons Ratio (x) = 0.41656 -0.04749
# Poissons Ratio (y) = 0.77497 -0.02836
# Poissons Ratio (z) = -0.14563 -0.04675
#
# Static dielectric constant tensor:
#      x y z
#    x 2.188160 -0.093370 -0.027500 
#    y -0.093370 2.047580 0.066290 
#    z -0.027500 0.066290 2.183890 
# 
# From -- ./inp_files/62308.got.cif
#   From: 2010.05.17/outbox.cif.g08.bks.cpg/sg2_32_cif.got.tgz:62308.got - 2010.06.03 11:33:40.
