data_PCOD9075172
_publ_section_title
;
Structure prediction by ZEFSAII (Michael W. Deem and Ramdas Pophale) SiO2 
 PCOD9075172
Probable space group: P -1
;
_chemical_formula_sum "Si O2"
_cell_formula_units_Z 16
_cell_length_a 21.000000
_cell_length_b 18.000000
_cell_length_c 6.000000
_cell_angle_alpha 70.000000
_cell_angle_beta 70.000000
_cell_angle_gamma 20.000000
_cell_volume 727.418465
_symmetry_space_group_name_H-M "P -1"
_symmetry_group_IT_number 2
_symmetry_cell_setting 'triclinic'
loop_
_space_group_symop_operation_xyz
x,y,z
-x,-y,-z
loop_
_atom_site_type_symbol
_atom_site_label
_atom_site_fract_x
_atom_site_fract_y
_atom_site_fract_z
Si Si1 0.093140 0.826257 0.697420
Si Si2 0.631801 0.642620 0.657007
Si Si3 0.432116 0.458720 0.932987
Si Si4 0.951276 0.853019 0.519685
Si Si5 0.165010 0.418499 0.437796
Si Si6 0.761463 0.899773 0.613053
Si Si7 0.720103 0.778414 0.990185
Si Si8 0.221899 0.845323 0.946186
O O1 0.017376 0.829120 0.677879
O O2 0.316851 0.585143 0.706750
O O3 0.000000 0.000000 0.500000
O O4 0.986745 0.942040 0.938576
O O5 0.588692 0.608563 0.882118
O O6 0.689173 0.665888 0.667372
O O7 0.841372 0.394347 0.567903
O O8 0.441819 0.865236 0.506655
O O9 0.645396 0.253104 0.933344
O O10 0.322367 0.651614 0.985702
O O11 0.830397 0.905599 0.640782
O O12 0.818879 0.054673 0.321308
O O13 0.190278 0.350238 0.227941
O O14 0.943502 0.681763 0.459976
O O15 0.214203 0.324736 0.729234
O O16 0.746071 0.844642 0.863641
O O17 0.500000 0.000000 0.000000
#
# Coordination Sequence:
#
# PCOD9075172 Si02
#       8
#     2   2   2   2   2   2   2   2
#     4  12  24  41  67  97 134 189 243 301 361 430
#     4  11  23  44  71 105 143 187 241 305 373 440
#     4  11  23  42  69  97 139 190 239 304 364 436
#     4  11  24  45  67 103 141 186 246 298 369 434
#     4  11  27  50  77 111 152 198 253 306 379 462
#     4  11  25  47  74 107 148 190 243 314 369 452
#     4  12  25  52  81 112 150 200 251 305 383 460
#     4  11  23  44  66  94 138 189 242 293 363 443
#
# _framework density 21.995591999999998
#
# number of rings (size 3 to 8) (size 9 to 14) (size 15 to 20)
#    0.000    0.750    5.000    2.250    0.000    3.500 
#    4.500    0.000    0.000    0.000    0.000    0.000 
#    0.000    0.000    0.000    0.000    0.000    0.000 
#
# Total GULP energy -89094.864539 kJ/mol
# GULP energy per Si atom -5568.429034 kJ/mol
# Density = 2.194553 g / cm^3
# Si number density = 21.995592 Si / 1000 Ang^3
#
#
#
# Elastic Constant Matrix: (Units=GPa)
#
#
# Indices 1 2 3 4 5 6 
#
# 1 152.4001 16.6459 46.4060 -13.7402 -15.5503 -16.4418
# 2 16.6459 113.8465 18.0326 -27.7642 6.6114 -26.7362
# 3 46.4060 18.0326 80.3472 -21.5025 -5.9077 12.9739
# 4 -13.7402 -27.7642 -21.5025 40.4821 -3.7773 0.1072
# 5 -15.5503 6.6114 -5.9077 -3.7773 41.8482 -8.4554
# 6 -16.4418 -26.7362 12.9739 0.1072 -8.4554 51.1781
#
#
#
# Elastic Compliance Matrix: (Units=1/GPa)
#
#
# Indices 1 2 3 4 5 6 
#
# 1 0.009354 0.000916 -0.005986 0.000954 0.003706 0.005611
# 2 0.000916 0.012690 -0.002535 0.007667 0.000202 0.007584
# 3 -0.005986 -0.002535 0.019570 0.006634 -0.000128 -0.008244
# 4 0.000954 0.007667 0.006634 0.034155 0.003807 0.003187
# 5 0.003706 0.000202 -0.000128 0.003807 0.026726 0.005736
# 6 0.005611 0.007584 -0.008244 0.003187 0.005736 0.028335
#
#
# Mechanical properties :
#
#
# Convention : Reuss Voigt Hill
#
# Bulk Modulus (GPa) = 37.87494 56.52919 47.20207
# Shear Modulus (GPa) = 32.29107 44.40231 38.34669
#
# Velocity S-wave (km/s) = 3.83570 4.49786 4.17991
# Velocity P-wave (km/s) = 6.07235 7.26157 6.69342
#
# Compressibility (1/GPa) = 0.02640268
#
# Stress axis : x y z
#
# Youngs Moduli (GPa) = 106.90515 78.79991 51.09970
#
# Poissons Ratio (x) = -0.07217 0.30590
# Poissons Ratio (y) = -0.09791 0.12954
# Poissons Ratio (z) = 0.63998 0.19976
#
# Static dielectric constant tensor:
#      x y z
#    x 1.915550 0.061860 0.008280 
#    y 0.061860 1.816810 0.011750 
#    z 0.008280 0.011750 1.883910 
# 
# From -- ./inp_files/120010.got.cif
#   From: 2010.05.17/outbox.ucp.g08.bks.cvg/sg2_61_cif.got.tgz:120010.got - 2010.06.11 11:32:03.
