data_PCOD9075757
_publ_section_title
;
Structure prediction by ZEFSAII (Michael W. Deem and Ramdas Pophale) SiO2 
 PCOD9075757
Probable space group: P -1
;
_chemical_formula_sum "Si O2"
_cell_formula_units_Z 16
_cell_length_a 17.133848
_cell_length_b 5.455359
_cell_length_c 6.966951
_cell_angle_alpha 102.730651
_cell_angle_beta 95.317284
_cell_angle_gamma 71.621705
_cell_volume 602.613769
_symmetry_space_group_name_H-M "P -1"
_symmetry_group_IT_number 2
_symmetry_cell_setting 'triclinic'
loop_
_space_group_symop_operation_xyz
x,y,z
-x,-y,-z
loop_
_atom_site_type_symbol
_atom_site_label
_atom_site_fract_x
_atom_site_fract_y
_atom_site_fract_z
Si Si1 0.588546 0.777139 0.475526
Si Si2 0.095372 0.344682 0.519842
Si Si3 0.587584 0.056728 0.025222
Si Si4 0.352212 0.782038 0.521320
Si Si5 0.097370 0.430673 0.982774
Si Si6 0.642640 0.503038 0.023522
Si Si7 0.166513 0.774233 0.515452
Si Si8 0.171063 0.855432 0.980782
O O1 0.592548 0.519629 0.559131
O O2 0.615382 0.640319 0.249711
O O3 0.500000 0.000000 0.500000
O O4 0.646222 0.963420 0.558005
O O5 0.117920 0.363194 0.751678
O O6 0.145468 0.503588 0.439975
O O7 0.000000 0.500000 0.500000
O O8 0.113161 0.035083 0.439891
O O9 0.617348 0.139970 0.251300
O O10 0.586677 0.309933 0.940035
O O11 0.644478 0.758740 0.945442
O O12 0.500000 0.000000 0.000000
O O13 0.261008 0.758203 0.501240
O O14 0.125728 0.687099 0.063588
O O15 0.143337 0.165899 0.060929
O O16 0.000000 0.500000 0.000000
O O17 0.732529 0.294119 0.006146
O O18 0.149609 0.830306 0.748145
#
# Coordination Sequence:
#
# PCOD9075757 Si02
#       8
#     2   2   2   2   2   2   2   2
#     4  10  19  30  49  78 108 138 169 232 285 317
#     4  10  21  34  55  87 112 144 185 233 286 338
#     4  10  19  30  49  78 108 138 169 232 285 317
#     4  10  19  32  51  78 107 136 190 225 271 330
#     4  10  21  34  55  87 112 144 185 233 286 338
#     4  10  19  32  51  78 107 136 190 225 271 330
#     4  10  18  32  55  80 109 138 183 237 270 329
#     4  10  18  32  55  80 109 138 183 237 270 329
#
# _framework density 26.551002
#
# number of rings (size 3 to 8) (size 9 to 14) (size 15 to 20)
#    0.000    2.000    2.500    3.000    7.000    0.000 
#    0.000    0.000    0.000    0.000   65.000    0.000 
#    0.000    0.000    0.000    0.000    0.000    0.000 
#
# Total GULP energy -89454.381215 kJ/mol
# GULP energy per Si atom -5590.898826 kJ/mol
# Density = 2.649057 g / cm^3
# Si number density = 26.551002 Si / 1000 Ang^3
#
#
#
# Elastic Constant Matrix: (Units=GPa)
#
#
# Indices 1 2 3 4 5 6 
#
# 1 173.0469 107.8072 14.9697 34.0810 -15.1306 34.4954
# 2 107.8072 282.3700 42.0367 44.6053 -8.7194 43.2903
# 3 14.9697 42.0367 124.7491 19.6959 13.0443 21.0172
# 4 34.0810 44.6053 19.6959 46.5276 14.7067 1.4843
# 5 -15.1306 -8.7194 13.0443 14.7067 14.8376 3.5479
# 6 34.4954 43.2903 21.0172 1.4843 3.5479 64.7810
#
#
#
# Elastic Compliance Matrix: (Units=1/GPa)
#
#
# Indices 1 2 3 4 5 6 
#
# 1 0.018681 0.002023 -0.001521 -0.032583 0.057023 -0.013182
# 2 0.002023 0.007085 -0.001738 -0.014943 0.024054 -0.006223
# 3 -0.001521 -0.001738 0.009867 0.003109 -0.014202 -0.000523
# 4 -0.032583 -0.014943 0.003109 0.107666 -0.159249 0.032582
# 5 0.057023 0.024054 -0.014202 -0.159249 0.323377 -0.055893
# 6 -0.013182 -0.006223 -0.000523 0.032582 -0.055893 0.029099
#
#
# Mechanical properties :
#
#
# Convention : Reuss Voigt Hill
#
# Bulk Modulus (GPa) = 30.15514 101.08813 65.62163
# Shear Modulus (GPa) = 9.81741 52.91939 31.36840
#
# Velocity S-wave (km/s) = 1.92499 4.46928 3.44094
# Velocity P-wave (km/s) = 4.04016 8.04913 6.36834
#
# Compressibility (1/GPa) = 0.03316184
#
# Stress axis : x y z
#
# Youngs Moduli (GPa) = 53.53089 141.14012 101.35303
#
# Poissons Ratio (x) = -0.28554 0.15413
# Poissons Ratio (y) = -0.10830 0.17612
# Poissons Ratio (z) = 0.08141 0.24525
#
# Static dielectric constant tensor:
#      x y z
#    x 2.064450 0.055840 -0.032170 
#    y 0.055840 2.236320 -0.193710 
#    z -0.032170 -0.193710 2.304650 
# 
# From -- ./inp_files/441315.got.cif
#   From: 2010.05.17/outbox.cif.g08.bks.cpg/sg2_221_cif.got.tgz:441315.got - 2010.06.03 11:33:40.
