data_PCOD9075974
_publ_section_title
;
Structure prediction by ZEFSAII (Michael W. Deem and Ramdas Pophale) SiO2 
 PCOD9075974
Probable space group: P -1
;
_chemical_formula_sum "Si O2"
_cell_formula_units_Z 14
_cell_length_a 10.542801
_cell_length_b 7.574543
_cell_length_c 12.507300
_cell_angle_alpha 98.723483
_cell_angle_beta 55.762116
_cell_angle_gamma 136.554895
_cell_volume 506.564566
_symmetry_space_group_name_H-M "P -1"
_symmetry_group_IT_number 2
_symmetry_cell_setting 'triclinic'
loop_
_space_group_symop_operation_xyz
x,y,z
-x,-y,-z
loop_
_atom_site_type_symbol
_atom_site_label
_atom_site_fract_x
_atom_site_fract_y
_atom_site_fract_z
Si Si1 0.069169 0.811459 0.442682
Si Si2 0.404964 0.594544 0.105016
Si Si3 0.188017 0.877139 0.156803
Si Si4 0.505053 0.067308 0.714113
Si Si5 0.959628 0.279211 0.197788
Si Si6 0.386507 0.409375 0.425688
Si Si7 0.802379 0.574279 0.131956
O O1 0.227293 0.782543 0.403699
O O2 0.224773 0.432731 0.463645
O O3 0.178809 0.066189 0.487114
O O4 0.168719 0.941294 0.287988
O O5 0.109853 0.307735 0.216734
O O6 0.485843 0.764496 0.189875
O O7 0.500000 0.500000 0.000000
O O8 0.530126 0.845792 0.984860
O O9 0.063819 0.570968 0.198634
O O10 0.020192 0.804916 0.135714
O O11 0.328818 0.739839 0.813223
O O12 0.333804 0.976656 0.688693
O O13 0.069010 0.312728 0.034644
O O14 0.500000 0.500000 0.500000
O O15 0.599112 0.538240 0.253792
#
# Coordination Sequence:
#
# PCOD9075974 Si02
#       7
#     2   2   2   2   2   2   2
#     4  10  20  31  55  79 111 145 176 224 267 319
#     4  12  23  33  51  81 115 144 176 221 273 328
#     4  11  18  35  56  81 111 143 181 219 270 332
#     4  10  19  34  50  78 107 141 182 210 267 325
#     4  11  20  35  58  78 108 146 178 222 271 332
#     4  10  19  31  47  84 116 134 175 229 278 305
#     4  10  18  32  58  80 110 146 176 224 270 318
#
# _framework density 27.637149999999998
#
# number of rings (size 3 to 8) (size 9 to 14) (size 15 to 20)
#    0.000    1.429    5.714    3.000    0.000    0.571 
#    0.000    0.000    0.000    0.000    0.000   17.000 
#    0.000    0.571    0.000    0.000    0.000    0.000 
#
# Total GULP energy -78270.035256 kJ/mol
# GULP energy per Si atom -5590.716804 kJ/mol
# Density = 2.757425 g / cm^3
# Si number density = 27.637150 Si / 1000 Ang^3
#
#
#
# Elastic Constant Matrix: (Units=GPa)
#
#
# Indices 1 2 3 4 5 6 
#
# 1 145.3241 79.0197 42.7612 13.6860 -49.7303 33.3070
# 2 79.0197 166.7849 53.6481 11.6870 -12.2772 51.5480
# 3 42.7612 53.6481 100.4390 -1.4468 -7.6083 8.5244
# 4 13.6860 11.6870 -1.4468 58.6660 3.1772 -11.3893
# 5 -49.7303 -12.2772 -7.6083 3.1772 45.2088 -7.9623
# 6 33.3070 51.5480 8.5244 -11.3893 -7.9623 59.1971
#
#
#
# Elastic Compliance Matrix: (Units=1/GPa)
#
#
# Indices 1 2 3 4 5 6 
#
# 1 0.017622 -0.004169 -0.003670 -0.005164 0.017217 -0.004434
# 2 -0.004169 0.011860 -0.004142 -0.002943 -0.003335 -0.008400
# 3 -0.003670 -0.004142 0.013250 0.002916 -0.002432 0.003997
# 4 -0.005164 -0.002943 0.002916 0.020835 -0.006000 0.008250
# 5 0.017217 -0.003335 -0.002432 -0.006000 0.039771 -0.002238
# 6 -0.004434 -0.008400 0.003997 0.008250 -0.002238 0.027413
#
#
# Mechanical properties :
#
#
# Convention : Reuss Voigt Hill
#
# Bulk Modulus (GPa) = 53.27522 84.82288 69.04905
# Shear Modulus (GPa) = 31.06192 48.42230 39.74211
#
# Velocity S-wave (km/s) = 3.35613 4.19032 3.79621
# Velocity P-wave (km/s) = 5.85975 7.36002 6.65231
#
# Compressibility (1/GPa) = 0.01877045
#
# Stress axis : x y z
#
# Youngs Moduli (GPa) = 56.74721 84.31482 75.47450
#
# Poissons Ratio (x) = 0.35151 0.27695
# Poissons Ratio (y) = 0.23658 0.31263
# Poissons Ratio (z) = 0.20823 0.34924
#
# Static dielectric constant tensor:
#      x y z
#    x 2.349580 -0.102550 -0.039820 
#    y -0.102550 2.304690 -0.028890 
#    z -0.039820 -0.028890 2.236430 
# 
# From -- ./inp_files/513548.got.cif
#   From: 2010.05.17/outbox.cif.g08.bks.cpg/sg2_257_cif.got.tgz:513548.got - 2010.06.03 11:33:40.
