data_PCOD9075240
_publ_section_title
;
Structure prediction by ZEFSAII (Michael W. Deem and Ramdas Pophale) SiO2 
 PCOD9075240
Probable space group: P -1
;
_chemical_formula_sum "Si O2"
_cell_formula_units_Z 16
_cell_length_a 18.000000
_cell_length_b 9.000000
_cell_length_c 12.000000
_cell_angle_alpha 50.000000
_cell_angle_beta 30.000000
_cell_angle_gamma 50.000000
_cell_volume 725.531033
_symmetry_space_group_name_H-M "P -1"
_symmetry_group_IT_number 2
_symmetry_cell_setting 'triclinic'
loop_
_space_group_symop_operation_xyz
x,y,z
-x,-y,-z
loop_
_atom_site_type_symbol
_atom_site_label
_atom_site_fract_x
_atom_site_fract_y
_atom_site_fract_z
Si Si1 0.186350 0.685760 0.866186
Si Si2 0.333130 0.062429 0.853377
Si Si3 0.840753 0.849459 0.286499
Si Si4 0.356908 0.260613 0.959277
Si Si5 0.000222 0.940665 0.658562
Si Si6 0.106965 0.280487 0.465942
Si Si7 0.320561 0.687554 0.442773
Si Si8 0.554004 0.741754 0.592913
O O1 0.282127 0.490319 0.901649
O O2 0.261584 0.659503 0.658522
O O3 0.184897 0.909354 0.805953
O O4 0.000884 0.715449 0.094412
O O5 0.357102 0.108195 0.929643
O O6 0.428438 0.184850 0.592890
O O7 0.403931 0.845414 0.809362
O O8 0.147592 0.126265 0.065796
O O9 0.839360 0.790970 0.446037
O O10 0.696953 0.799587 0.438456
O O11 0.534985 0.213935 0.781597
O O12 0.246312 0.247134 0.213186
O O13 0.163847 0.794186 0.536280
O O14 0.001311 0.137532 0.631263
O O15 0.000000 0.000000 0.500000
O O16 0.000000 0.500000 0.500000
O O17 0.402499 0.492639 0.362320
#
# Coordination Sequence:
#
# PCOD9075240 Si02
#       8
#     2   2   2   2   2   2   2   2
#     4  11  23  44  73 107 145 192 238 298 357 433
#     4  11  26  47  73 105 147 186 232 303 363 424
#     4  11  25  44  72 107 149 190 243 297 361 429
#     4  12  26  47  75 105 149 194 240 293 366 433
#     4  12  28  50  73 102 144 193 246 297 359 429
#     4  12  27  47  73 104 145 193 241 292 361 431
#     4  12  27  45  75 109 143 190 246 298 359 431
#     4  11  27  42  73 109 146 179 242 301 363 415
#
# _framework density 22.052813
#
# number of rings (size 3 to 8) (size 9 to 14) (size 15 to 20)
#    0.000    0.500    5.000    1.875   10.500    2.500 
#    0.000    1.250    0.000    0.000    0.000    0.000 
#    0.000    0.000    0.000    0.000    0.000    0.000 
#
# Total GULP energy -89333.204238 kJ/mol
# GULP energy per Si atom -5583.325265 kJ/mol
# Density = 2.200262 g / cm^3
# Si number density = 22.052813 Si / 1000 Ang^3
#
#
#
# Elastic Constant Matrix: (Units=GPa)
#
#
# Indices 1 2 3 4 5 6 
#
# 1 44.3821 -5.9691 35.2076 15.6963 -10.9501 6.2051
# 2 -5.9691 106.1597 8.3013 33.3808 -6.1799 6.5035
# 3 35.2076 8.3013 133.5456 43.6265 1.5323 -4.0414
# 4 15.6963 33.3808 43.6265 45.2103 -0.4924 4.5774
# 5 -10.9501 -6.1799 1.5323 -0.4924 31.3193 14.8984
# 6 6.2051 6.5035 -4.0414 4.5774 14.8984 27.6123
#
#
#
# Elastic Compliance Matrix: (Units=1/GPa)
#
#
# Indices 1 2 3 4 5 6 
#
# 1 0.051473 0.011437 -0.012282 -0.010592 0.036983 -0.034257
# 2 0.011437 0.016104 0.000512 -0.015206 0.011709 -0.010085
# 3 -0.012282 0.000512 0.015214 -0.012234 -0.011313 0.012998
# 4 -0.010592 -0.015206 -0.012234 0.048922 -0.004658 -0.001426
# 5 0.036983 0.011709 -0.011313 -0.004658 0.071752 -0.050667
# 6 -0.034257 -0.010085 0.012998 -0.001426 -0.050667 0.075766
#
#
# Mechanical properties :
#
#
# Convention : Reuss Voigt Hill
#
# Bulk Modulus (GPa) = 12.17683 39.90743 26.04213
# Shear Modulus (GPa) = 16.27219 37.26488 26.76854
#
# Velocity S-wave (km/s) = 2.71933 4.11518 3.48780
# Velocity P-wave (km/s) = 3.92343 6.38085 5.29663
#
# Compressibility (1/GPa) = 0.08212317
#
# Stress axis : x y z
#
# Youngs Moduli (GPa) = 19.42771 62.09795 65.72883
#
# Poissons Ratio (x) = -0.71019 0.80728
# Poissons Ratio (y) = -0.22219 -0.03364
# Poissons Ratio (z) = 0.23861 -0.03178
#
# Static dielectric constant tensor:
#      x y z
#    x 1.820710 0.002270 -0.039690 
#    y 0.002270 1.831790 -0.049310 
#    z -0.039690 -0.049310 1.754540 
# 
# From -- ./inp_files/205087.got.cif
#   From: 2010.05.17/outbox.ucp.g08.bks.cvg/sg2_103_cif.got.tgz:205087.got - 2010.06.11 11:32:03.
