data_PCOD9075127
_publ_section_title
;
Structure prediction by ZEFSAII (Michael W. Deem and Ramdas Pophale) SiO2 
 PCOD9075127
Probable space group: P -1
;
_chemical_formula_sum "Si O2"
_cell_formula_units_Z 16
_cell_length_a 24.000000
_cell_length_b 30.000000
_cell_length_c 18.000000
_cell_angle_alpha 20.000000
_cell_angle_beta 20.000000
_cell_angle_gamma 10.000000
_cell_volume 747.142172
_symmetry_space_group_name_H-M "P -1"
_symmetry_group_IT_number 2
_symmetry_cell_setting 'triclinic'
loop_
_space_group_symop_operation_xyz
x,y,z
-x,-y,-z
loop_
_atom_site_type_symbol
_atom_site_label
_atom_site_fract_x
_atom_site_fract_y
_atom_site_fract_z
Si Si1 0.521695 0.386157 0.530157
Si Si2 0.530916 0.931070 0.405346
Si Si3 0.638268 0.246871 0.759641
Si Si4 0.150642 0.254840 0.225165
Si Si5 0.341561 0.281433 0.192526
Si Si6 0.383949 0.188323 0.790853
Si Si7 0.341506 0.730179 0.626525
Si Si8 0.711206 0.545084 0.850755
O O1 0.523365 0.290769 0.750563
O O2 0.557328 0.497281 0.356529
O O3 0.718882 0.228519 0.452549
O O4 0.158023 0.628029 0.573626
O O5 0.521013 0.780388 0.666029
O O6 0.906953 0.707405 0.259907
O O7 0.305624 0.142195 0.289689
O O8 0.413278 0.080131 0.397129
O O9 0.616482 0.154963 0.993932
O O10 0.019052 0.004666 0.644457
O O11 0.411034 0.004366 0.235968
O O12 0.000000 0.500000 0.000000
O O13 0.327868 0.358349 0.170161
O O14 0.995810 0.558438 0.152913
O O15 0.425087 0.308840 0.582176
O O16 0.500000 0.000000 0.000000
O O17 0.388816 0.541046 0.883973
#
# Coordination Sequence:
#
# PCOD9075127 Si02
#       8
#     2   2   2   2   2   2   2   2
#     4  11  23  39  63  96 139 181 221 285 346 409
#     4  11  24  46  71 101 139 182 242 289 346 409
#     4  11  23  39  66  99 138 179 232 278 340 419
#     4  12  24  45  68 100 141 183 223 289 361 416
#     4  12  23  45  71 103 137 185 233 289 350 413
#     4  12  26  42  68 105 145 182 233 283 353 428
#     4  12  24  44  67 100 141 186 234 284 349 410
#     4  11  25  44  73 100 136 190 240 288 339 418
#
# _framework density 21.414933999999999
#
# number of rings (size 3 to 8) (size 9 to 14) (size 15 to 20)
#    0.000    0.500    5.000    4.500    1.750    1.000 
#    0.000    3.125    0.000    0.000    0.000    0.000 
#    0.000    0.000    0.000    0.000    0.000    0.000 
#
# Total GULP energy -89099.616371 kJ/mol
# GULP energy per Si atom -5568.726023 kJ/mol
# Density = 2.136619 g / cm^3
# Si number density = 21.414934 Si / 1000 Ang^3
#
#
#
# Elastic Constant Matrix: (Units=GPa)
#
#
# Indices 1 2 3 4 5 6 
#
# 1 121.5707 25.6159 46.8396 -10.0880 -0.6011 20.0853
# 2 25.6159 67.4545 14.0937 -2.2947 6.7052 14.6157
# 3 46.8396 14.0937 90.3148 -20.3332 -3.9463 0.1968
# 4 -10.0880 -2.2947 -20.3332 37.5594 4.9417 -0.3641
# 5 -0.6011 6.7052 -3.9463 4.9417 32.1126 -4.7171
# 6 20.0853 14.6157 0.1968 -0.3641 -4.7171 44.5313
#
#
#
# Elastic Compliance Matrix: (Units=1/GPa)
#
#
# Indices 1 2 3 4 5 6 
#
# 1 0.011640 -0.002160 -0.005734 -0.000062 -0.000701 -0.004590
# 2 -0.002160 0.017648 -0.001809 0.000091 -0.004742 -0.005312
# 3 -0.005734 -0.001809 0.015921 0.006780 0.001674 0.003343
# 4 -0.000062 0.000091 0.006780 0.030803 -0.003956 -0.000199
# 5 -0.000701 -0.004742 0.001674 -0.003956 0.033726 0.005405
# 6 -0.004590 -0.005312 0.003343 -0.000199 0.005405 0.026826
#
#
# Mechanical properties :
#
#
# Convention : Reuss Voigt Hill
#
# Bulk Modulus (GPa) = 38.75529 50.27090 44.51309
# Shear Modulus (GPa) = 30.38189 35.69337 33.03763
#
# Velocity S-wave (km/s) = 3.77068 4.08702 3.93203
# Velocity P-wave (km/s) = 6.09048 6.76737 6.43783
#
# Compressibility (1/GPa) = 0.02580293
#
# Stress axis : x y z
#
# Youngs Moduli (GPa) = 85.91101 56.66229 62.80988
#
# Poissons Ratio (x) = 0.12239 0.36017
# Poissons Ratio (y) = 0.18557 0.11362
# Poissons Ratio (z) = 0.49264 0.10250
#
# Static dielectric constant tensor:
#      x y z
#    x 1.816400 0.015890 0.014200 
#    y 0.015890 1.867770 0.041450 
#    z 0.014200 0.041450 1.949040 
# 
# From -- ./inp_files/398118.got.cif
#   From: 2010.05.17/outbox.ucp.g08.bks.cvg/sg2_200_cif.got.tgz:398118.got - 2010.06.11 11:32:03.
