data_PCOD9075837
_publ_section_title
;
Structure prediction by ZEFSAII (Michael W. Deem and Ramdas Pophale) SiO2 
 PCOD9075837
Probable space group: P -1
;
_chemical_formula_sum "Si O2"
_cell_formula_units_Z 15
_cell_length_a 7.817605
_cell_length_b 26.749270
_cell_length_c 7.782609
_cell_angle_alpha 42.189293
_cell_angle_beta 142.825665
_cell_angle_gamma 148.076436
_cell_volume 509.246606
_symmetry_space_group_name_H-M "P -1"
_symmetry_group_IT_number 2
_symmetry_cell_setting 'triclinic'
loop_
_space_group_symop_operation_xyz
x,y,z
-x,-y,-z
loop_
_atom_site_type_symbol
_atom_site_label
_atom_site_fract_x
_atom_site_fract_y
_atom_site_fract_z
Si Si1 0.520785 0.574744 0.200938
Si Si2 0.872509 0.566841 0.021738
Si Si3 0.917245 0.713535 0.443806
Si Si4 0.312881 0.201403 0.325654
Si Si5 0.268413 0.910650 0.362857
Si Si6 0.438382 0.891019 0.937004
Si Si7 0.000000 0.000000 0.500000
Si Si8 0.298690 0.695846 0.320307
O O1 0.500000 0.500000 0.500000
O O2 0.178872 0.507758 0.968234
O O3 0.614520 0.658115 0.191306
O O4 0.898343 0.632655 0.248267
O O5 0.853330 0.643018 0.720383
O O6 0.500000 0.500000 0.000000
O O7 0.218134 0.628653 0.268021
O O8 0.309635 0.747352 0.603676
O O9 0.961090 0.804550 0.312299
O O10 0.221581 0.098803 0.550052
O O11 0.424721 0.277489 0.372885
O O12 0.889723 0.152620 0.072687
O O13 0.290584 0.899441 0.611988
O O14 0.240111 0.992832 0.078040
O O15 0.636953 0.947332 0.465838
O O16 0.442993 0.803866 0.122458
#
# Coordination Sequence:
#
# PCOD9075837 Si02
#       8
#     2   2   2   2   2   2   1   2
#     4   8  16  29  52  80  99 137 182 217 269 317
#     4   9  16  28  53  81 101 133 184 228 261 316
#     4   9  15  31  54  75 105 146 175 213 276 315
#     4   9  19  33  54  75 110 145 174 218 263 311
#     4   9  17  31  53  78 109 146 170 212 265 313
#     4  10  19  33  53  81 113 140 176 216 262 315
#     4   8  16  34  52  72 108 148 174 208 260 306
#     4  10  18  32  56  81 105 139 183 216 264 319
#
# _framework density 29.455276999999999
#
# number of rings (size 3 to 8) (size 9 to 14) (size 15 to 20)
#    0.000    2.933    1.333    0.000    0.000    0.000 
#    0.000   16.667    8.800   25.600    0.000    0.000 
#    0.000    0.000    0.000    0.000    0.000    0.000 
#
# Total GULP energy -83669.929326 kJ/mol
# GULP energy per Si atom -5577.995288 kJ/mol
# Density = 2.938824 g / cm^3
# Si number density = 29.455277 Si / 1000 Ang^3
#
#
#
# Elastic Constant Matrix: (Units=GPa)
#
#
# Indices 1 2 3 4 5 6 
#
# 1 76.2312 44.5809 16.2491 -37.8826 -19.1842 4.7423
# 2 44.5809 276.3407 38.0825 -0.9485 -8.2062 -13.2387
# 3 16.2491 38.0825 74.0539 -18.9654 16.8478 12.9865
# 4 -37.8826 -0.9485 -18.9654 38.1316 2.4387 -10.3448
# 5 -19.1842 -8.2062 16.8478 2.4387 31.5791 2.0080
# 6 4.7423 -13.2387 12.9865 -10.3448 2.0080 59.8715
#
#
#
# Elastic Compliance Matrix: (Units=1/GPa)
#
#
# Indices 1 2 3 4 5 6 
#
# 1 0.041850 -0.005727 -0.001185 0.039985 0.021361 0.001868
# 2 -0.005727 0.005028 -0.003303 -0.006917 0.000055 0.001085
# 3 -0.001185 -0.003303 0.021540 0.009450 -0.013595 -0.003220
# 4 0.039985 -0.006917 0.009450 0.071132 0.011631 0.005154
# 5 0.021361 0.000055 -0.013595 0.011631 0.050912 0.001571
# 6 0.001868 0.001085 -0.003220 0.005154 0.001571 0.018331
#
#
# Mechanical properties :
#
#
# Convention : Reuss Voigt Hill
#
# Bulk Modulus (GPa) = 20.83846 69.38342 45.11094
# Shear Modulus (GPa) = 20.39016 47.76399 34.07708
#
# Velocity S-wave (km/s) = 2.63390 4.03125 3.40503
# Velocity P-wave (km/s) = 4.04226 6.72864 5.55043
#
# Compressibility (1/GPa) = 0.04798819
#
# Stress axis : x y z
#
# Youngs Moduli (GPa) = 23.89511 198.89944 46.42557
#
# Poissons Ratio (x) = 1.13912 0.05499
# Poissons Ratio (y) = 0.13685 0.15334
# Poissons Ratio (z) = 0.02830 0.65693
#
# Static dielectric constant tensor:
#      x y z
#    x 2.322030 0.000730 -0.129060 
#    y 0.000730 2.224790 -0.047740 
#    z -0.129060 -0.047740 2.434750 
# 
# From -- ./inp_files/88554.got.cif
#   From: 2010.05.17/outbox.cif.g08.bks.cpg/sg2_45_cif.got.tgz:88554.got - 2010.06.03 11:33:40.
