data_PCOD9075523
_publ_section_title
;
Structure prediction by ZEFSAII (Michael W. Deem and Ramdas Pophale) SiO2 
 PCOD9075523
Probable space group: P -1
;
_chemical_formula_sum "Si O2"
_cell_formula_units_Z 12
_cell_length_a 27.000000
_cell_length_b 12.000000
_cell_length_c 27.000000
_cell_angle_alpha 20.000000
_cell_angle_beta 10.000000
_cell_angle_gamma 20.000000
_cell_volume 504.320966
_symmetry_space_group_name_H-M "P -1"
_symmetry_group_IT_number 2
_symmetry_cell_setting 'triclinic'
loop_
_space_group_symop_operation_xyz
x,y,z
-x,-y,-z
loop_
_atom_site_type_symbol
_atom_site_label
_atom_site_fract_x
_atom_site_fract_y
_atom_site_fract_z
Si Si1 0.426947 0.719693 0.836938
Si Si2 0.995798 0.328396 0.252358
Si Si3 0.480763 0.644078 0.693751
Si Si4 0.527437 0.255622 0.024850
Si Si5 0.323675 0.665140 0.527849
Si Si6 0.138170 0.871572 0.733335
O O1 0.440006 0.654672 0.790736
O O2 0.728987 0.811990 0.516451
O O3 0.385668 0.454794 0.031550
O O4 0.176778 0.044037 0.966006
O O5 0.763812 0.360738 0.512856
O O6 0.823436 0.506223 0.299426
O O7 0.217239 0.529853 0.973477
O O8 0.175780 0.975080 0.197874
O O9 0.500000 0.000000 0.500000
O O10 0.392975 0.970807 0.300680
O O11 0.500000 0.500000 0.000000
O O12 0.140543 0.804522 0.699882
O O13 0.631028 0.438185 0.339650
#
# Coordination Sequence:
#
# PCOD9075523 Si02
#       6
#     2   2   2   2   2   2
#     4  12  28  48  76 113 156 199 262 305 385 453
#     4  12  27  49  79 112 153 203 257 313 379 456
#     4  12  28  50  79 111 155 207 259 317 377 446
#     4  12  27  50  79 116 158 204 247 319 390 462
#     4  11  26  47  79 112 155 198 258 317 392 445
#     4  11  27  46  77 114 152 198 254 324 379 455
#
# _framework density 23.794371000000002
#
# number of rings (size 3 to 8) (size 9 to 14) (size 15 to 20)
#    0.000    0.333    3.333    3.500    7.000    4.000 
#    0.000    0.000    0.000    0.000    0.000    0.000 
#    0.000    0.000    0.000    0.000    0.000    0.000 
#
# Total GULP energy -66961.950901 kJ/mol
# GULP energy per Si atom -5580.162575 kJ/mol
# Density = 2.374021 g / cm^3
# Si number density = 23.794371 Si / 1000 Ang^3
#
#
#
# Elastic Constant Matrix: (Units=GPa)
#
#
# Indices 1 2 3 4 5 6 
#
# 1 274.4008 72.0830 69.9106 9.4139 30.5793 23.8765
# 2 72.0830 106.5949 32.5878 16.9560 23.0266 7.1123
# 3 69.9106 32.5878 115.8691 11.7371 -0.6459 1.6739
# 4 9.4139 16.9560 11.7371 44.0730 11.2522 19.9085
# 5 30.5793 23.0266 -0.6459 11.2522 51.0834 -0.1229
# 6 23.8765 7.1123 1.6739 19.9085 -0.1229 56.7339
#
#
#
# Elastic Compliance Matrix: (Units=1/GPa)
#
#
# Indices 1 2 3 4 5 6 
#
# 1 0.005479 -0.002448 -0.002845 0.002500 -0.002770 -0.002798
# 2 -0.002448 0.012865 -0.001837 -0.003289 -0.003631 0.000618
# 3 -0.002845 -0.001837 0.011217 -0.003636 0.003480 0.002381
# 4 0.002500 -0.003289 -0.003636 0.031403 -0.007005 -0.011568
# 5 -0.002770 -0.003631 0.003480 -0.007005 0.024467 0.004029
# 6 -0.002798 0.000618 0.002381 -0.011568 0.004029 0.022724
#
#
# Mechanical properties :
#
#
# Convention : Reuss Voigt Hill
#
# Bulk Modulus (GPa) = 65.36057 94.00307 79.68182
# Shear Modulus (GPa) = 39.21090 51.86361 45.53726
#
# Velocity S-wave (km/s) = 4.06385 4.67375 4.37943
# Velocity P-wave (km/s) = 7.03906 8.28960 7.68979
#
# Compressibility (1/GPa) = 0.01529975
#
# Stress axis : x y z
#
# Youngs Moduli (GPa) = 182.52840 77.73327 89.14743
#
# Poissons Ratio (x) = 0.19026 0.25367
# Poissons Ratio (y) = 0.44676 0.16379
# Poissons Ratio (z) = 0.51938 0.14282
#
# Static dielectric constant tensor:
#      x y z
#    x 1.870500 -0.042200 -0.000170 
#    y -0.042200 2.035510 -0.017960 
#    z -0.000170 -0.017960 2.017690 
# 
# From -- ./inp_files/621224.got.cif
#   From: 2010.05.17/outbox.ucp.g08.bks.cvg/sg2_311_cif.got.tgz:621224.got - 2010.06.11 11:32:03.
