data_PCOD9075908
_publ_section_title
;
Structure prediction by ZEFSAII (Michael W. Deem and Ramdas Pophale) SiO2 
 PCOD9075908
Probable space group: P -1
;
_chemical_formula_sum "Si O2"
_cell_formula_units_Z 14
_cell_length_a 11.575240
_cell_length_b 9.138404
_cell_length_c 15.163524
_cell_angle_alpha 39.763681
_cell_angle_beta 67.015559
_cell_angle_gamma 94.472439
_cell_volume 724.014773
_symmetry_space_group_name_H-M "P -1"
_symmetry_group_IT_number 2
_symmetry_cell_setting 'triclinic'
loop_
_space_group_symop_operation_xyz
x,y,z
-x,-y,-z
loop_
_atom_site_type_symbol
_atom_site_label
_atom_site_fract_x
_atom_site_fract_y
_atom_site_fract_z
Si Si1 0.829202 0.562959 0.091035
Si Si2 0.488750 0.173596 0.344727
Si Si3 0.812958 0.801317 0.338325
Si Si4 0.673040 0.100154 0.206021
Si Si5 0.120024 0.469874 0.213002
Si Si6 0.192536 0.167500 0.469715
Si Si7 0.914674 0.661914 0.213166
O O1 0.663948 0.512859 0.143621
O O2 0.798969 0.316953 0.147845
O O3 0.824646 0.490435 0.228635
O O4 0.001531 0.880356 0.872587
O O5 0.511325 0.046433 0.309045
O O6 0.339611 0.168991 0.399556
O O7 0.500000 0.000000 0.500000
O O8 0.683577 0.840371 0.325308
O O9 0.786998 0.731522 0.481775
O O10 0.815253 0.600708 0.359342
O O11 0.745731 0.285283 0.009425
O O12 0.187675 0.377019 0.308711
O O13 0.040308 0.602975 0.217785
O O14 0.977987 0.167943 0.341176
O O15 0.000000 0.000000 0.000000
#
# Coordination Sequence:
#
# PCOD9075908 Si02
#       7
#     2   2   2   2   2   2   2
#     4   9  18  31  54  78 103 130 178 222 245 307
#     4  10  19  30  55  79 106 133 173 222 260 301
#     4  11  18  33  56  80  99 143 176 214 255 307
#     4  10  18  32  57  76 103 137 177 217 253 307
#     4  11  21  36  55  81 104 139 176 218 258 313
#     4  11  22  35  55  79 111 135 172 220 268 302
#     4  10  19  31  57  82 100 133 186 217 247 306
#
# _framework density 19.336621000000001
#
# number of rings (size 3 to 8) (size 9 to 14) (size 15 to 20)
#    0.857    0.857    5.714    2.143    0.000    1.143 
#    0.000    0.714    0.000    3.429    0.000    0.000 
#    0.000    0.000    0.000    0.000    0.000    0.000 
#
# Total GULP energy -77956.979212 kJ/mol
# GULP energy per Si atom -5568.355658 kJ/mol
# Density = 1.929261 g / cm^3
# Si number density = 19.336621 Si / 1000 Ang^3
#
#
#
# Elastic Constant Matrix: (Units=GPa)
#
#
# Indices 1 2 3 4 5 6 
#
# 1 110.8235 47.5973 52.6652 17.5222 17.7533 -24.0498
# 2 47.5973 112.4807 50.6006 36.1859 21.5721 -23.7223
# 3 52.6652 50.6006 63.6931 29.8861 20.7633 -8.9590
# 4 17.5222 36.1859 29.8861 40.1822 3.7470 -8.0367
# 5 17.7533 21.5721 20.7633 3.7470 32.9602 -3.9591
# 6 -24.0498 -23.7223 -8.9590 -8.0367 -3.9591 25.3838
#
#
#
# Elastic Compliance Matrix: (Units=1/GPa)
#
#
# Indices 1 2 3 4 5 6 
#
# 1 0.019331 0.000434 -0.018450 0.007718 0.001843 0.014940
# 2 0.000434 0.018108 -0.007825 -0.007962 -0.004895 0.011288
# 3 -0.018450 -0.007825 0.052397 -0.025707 -0.017080 -0.017103
# 4 0.007718 -0.007962 -0.025707 0.048235 0.012732 0.008056
# 5 0.001843 -0.004895 -0.017080 0.012732 0.042071 0.001737
# 6 0.014940 0.011288 -0.017103 0.008056 0.001737 0.060884
#
#
# Mechanical properties :
#
#
# Convention : Reuss Voigt Hill
#
# Bulk Modulus (GPa) = 26.20988 65.41372 45.81180
# Shear Modulus (GPa) = 16.37054 28.78084 22.57569
#
# Velocity S-wave (km/s) = 2.91281 3.86218 3.42059
# Velocity P-wave (km/s) = 4.98965 7.33423 6.27246
#
# Compressibility (1/GPa) = 0.03815355
#
# Stress axis : x y z
#
# Youngs Moduli (GPa) = 51.72956 55.22510 19.08504
#
# Poissons Ratio (x) = -0.02398 0.35212
# Poissons Ratio (y) = -0.02246 0.14935
# Poissons Ratio (z) = 0.95441 0.43216
#
# Static dielectric constant tensor:
#      x y z
#    x 1.691000 0.013130 -0.055140 
#    y 0.013130 1.728240 -0.011320 
#    z -0.055140 -0.011320 1.728690 
# 
# From -- ./inp_files/502769.got.cif
#   From: 2010.05.17/outbox.cif.g08.bks.cpg/sg2_252_cif.got.tgz:502769.got - 2010.06.03 11:33:40.
