data_PCOD9075448
_publ_section_title
;
Structure prediction by ZEFSAII (Michael W. Deem and Ramdas Pophale) SiO2 
 PCOD9075448
Probable space group: P -1
;
_chemical_formula_sum "Si O2"
_cell_formula_units_Z 16
_cell_length_a 12.000000
_cell_length_b 15.000000
_cell_length_c 18.000000
_cell_angle_alpha 150.000000
_cell_angle_beta 150.000000
_cell_angle_gamma 50.000000
_cell_volume 731.734496
_symmetry_space_group_name_H-M "P -1"
_symmetry_group_IT_number 2
_symmetry_cell_setting 'triclinic'
loop_
_space_group_symop_operation_xyz
x,y,z
-x,-y,-z
loop_
_atom_site_type_symbol
_atom_site_label
_atom_site_fract_x
_atom_site_fract_y
_atom_site_fract_z
Si Si1 0.575194 0.127060 0.520432
Si Si2 0.835406 0.258843 0.921031
Si Si3 0.783561 0.950835 0.398659
Si Si4 0.265777 0.641702 0.621319
Si Si5 0.141372 0.211071 0.275209
Si Si6 0.658879 0.132752 0.020117
Si Si7 0.798543 0.599998 0.237022
Si Si8 0.372092 0.269833 0.237298
O O1 0.731405 0.228630 0.756054
O O2 0.394899 0.223376 0.462395
O O3 0.378833 0.904729 0.270122
O O4 0.748135 0.117135 0.546720
O O5 0.871127 0.469308 0.125861
O O6 0.081378 0.220946 0.034253
O O7 0.520333 0.841636 0.125937
O O8 0.842893 0.814127 0.390537
O O9 0.000000 0.000000 0.500000
O O10 0.211032 0.411628 0.415740
O O11 0.494885 0.746444 0.773486
O O12 0.998428 0.635545 0.442954
O O13 0.352332 0.754638 0.830661
O O14 0.944643 0.219973 0.226114
O O15 0.000000 0.000000 0.000000
O O16 0.586087 0.896835 0.811462
O O17 0.500000 0.500000 0.000000
O O18 0.500000 0.500000 0.500000
#
# Coordination Sequence:
#
# PCOD9075448 Si02
#       8
#     2   2   2   2   2   2   2   2
#     4  11  25  45  73 102 139 185 240 292 349 416
#     4  11  25  45  74 103 133 192 241 291 343 423
#     4  12  28  44  68 102 146 181 220 292 364 413
#     4  12  28  43  72 106 141 187 235 294 353 418
#     4  12  23  46  72 100 137 182 239 294 343 413
#     4  12  27  46  70 102 144 185 235 288 356 420
#     4  12  25  45  70  99 142 186 234 282 348 426
#     4  12  25  47  73 101 140 189 241 288 351 421
#
# _framework density 21.865853999999999
#
# number of rings (size 3 to 8) (size 9 to 14) (size 15 to 20)
#    0.000    0.250    5.000    3.750    7.000    0.000 
#    0.000    1.250    0.000    0.000    0.000    0.000 
#    0.000    0.000    0.000    0.000    0.000    0.000 
#
# Total GULP energy -89369.958500 kJ/mol
# GULP energy per Si atom -5585.622406 kJ/mol
# Density = 2.181609 g / cm^3
# Si number density = 21.865854 Si / 1000 Ang^3
#
#
#
# Elastic Constant Matrix: (Units=GPa)
#
#
# Indices 1 2 3 4 5 6 
#
# 1 114.0347 -1.7921 -7.6706 -14.6104 1.1141 -18.7775
# 2 -1.7921 126.8657 11.0494 -22.3906 -9.3557 -6.0060
# 3 -7.6706 11.0494 38.3063 -10.7165 -20.6452 3.4036
# 4 -14.6104 -22.3906 -10.7165 30.7056 8.7633 5.0156
# 5 1.1141 -9.3557 -20.6452 8.7633 33.5951 -4.0482
# 6 -18.7775 -6.0060 3.4036 5.0156 -4.0482 28.6987
#
#
#
# Elastic Compliance Matrix: (Units=1/GPa)
#
#
# Indices 1 2 3 4 5 6 
#
# 1 0.010782 0.001273 0.003698 0.005949 0.001447 0.006047
# 2 0.001273 0.009256 -0.000225 0.006752 0.000845 0.001736
# 3 0.003698 -0.000225 0.042196 0.009936 0.023019 -0.001121
# 4 0.005949 0.006752 0.009936 0.045884 -0.004729 -0.004559
# 5 0.001447 0.000845 0.023019 -0.004729 0.046021 0.005712
# 6 0.006047 0.001736 -0.001121 -0.004559 0.005712 0.040900
#
#
# Mechanical properties :
#
#
# Convention : Reuss Voigt Hill
#
# Bulk Modulus (GPa) = 13.94173 31.37557 22.65865
# Shear Modulus (GPa) = 23.87156 37.10787 30.48972
#
# Velocity S-wave (km/s) = 3.30772 4.12402 3.73822
# Velocity P-wave (km/s) = 4.58016 6.08744 5.38678
#
# Compressibility (1/GPa) = 0.07172712
#
# Stress axis : x y z
#
# Youngs Moduli (GPa) = 92.74940 108.03689 23.69892
#
# Poissons Ratio (x) = -0.13753 -0.08765
# Poissons Ratio (y) = -0.11807 0.00533
# Poissons Ratio (z) = -0.34302 0.02428
#
# Static dielectric constant tensor:
#      x y z
#    x 1.872600 0.082050 0.053900 
#    y 0.082050 1.778330 0.028840 
#    z 0.053900 0.028840 1.784370 
# 
# From -- ./inp_files/216536.got.cif
#   From: 2010.05.17/outbox.ucp.g08.bks.cvg/sg2_109_cif.got.tgz:216536.got - 2010.06.11 11:32:03.
