data_PCOD9075398
_publ_section_title
;
Structure prediction by ZEFSAII (Michael W. Deem and Ramdas Pophale) SiO2 
 PCOD9075398
Probable space group: P -1
;
_chemical_formula_sum "Si O2"
_cell_formula_units_Z 16
_cell_length_a 12.000000
_cell_length_b 9.000000
_cell_length_c 15.000000
_cell_angle_alpha 70.000000
_cell_angle_beta 70.000000
_cell_angle_gamma 130.000000
_cell_volume 728.972637
_symmetry_space_group_name_H-M "P -1"
_symmetry_group_IT_number 2
_symmetry_cell_setting 'triclinic'
loop_
_space_group_symop_operation_xyz
x,y,z
-x,-y,-z
loop_
_atom_site_type_symbol
_atom_site_label
_atom_site_fract_x
_atom_site_fract_y
_atom_site_fract_z
Si Si1 0.861012 0.473701 0.740949
Si Si2 0.689936 0.118608 0.370967
Si Si3 0.500027 0.698943 0.823307
Si Si4 0.987240 0.829635 0.474007
Si Si5 0.525607 0.792739 0.996129
Si Si6 0.433159 0.564512 0.437194
Si Si7 0.679924 0.789305 0.135833
Si Si8 0.884034 0.516626 0.078891
O O1 0.722016 0.416524 0.864368
O O2 0.128861 0.762758 0.638611
O O3 0.859582 0.554408 0.628228
O O4 0.717074 0.145598 0.846678
O O5 0.842071 0.413554 0.211849
O O6 0.500000 0.000000 0.500000
O O7 0.564195 0.861774 0.386215
O O8 0.349404 0.417077 0.855419
O O9 0.364175 0.710932 0.846465
O O10 0.763800 0.960290 0.665742
O O11 0.492379 0.660070 0.939914
O O12 0.837382 0.704224 0.453111
O O13 0.000000 0.000000 0.500000
O O14 0.608804 0.808968 0.063034
O O15 0.500000 0.500000 0.500000
O O16 0.518281 0.624047 0.301166
O O17 0.925090 0.126850 0.039127
O O18 0.000000 0.500000 0.000000
#
# Coordination Sequence:
#
# PCOD9075398 Si02
#       8
#     2   2   2   2   2   2   2   2
#     4  11  24  46  73 105 150 200 247 310 375 450
#     4  12  27  45  72 109 148 190 254 306 369 442
#     4  12  28  46  77 112 151 198 256 310 376 448
#     4  12  25  49  75 108 157 198 249 310 378 451
#     4  11  25  45  76 108 147 195 254 308 376 440
#     4  12  28  48  78 106 152 203 244 305 388 449
#     4  12  25  52  73 111 150 197 253 311 378 459
#     4  12  26  49  76 109 153 201 247 314 375 447
#
# _framework density 21.948698
#
# number of rings (size 3 to 8) (size 9 to 14) (size 15 to 20)
#    0.000    0.250    5.000    3.000    7.000    0.500 
#    2.250    0.000    0.000    0.000    0.000    0.000 
#    0.000    0.000    0.000    0.000    0.000    0.000 
#
# Total GULP energy -89399.772464 kJ/mol
# GULP energy per Si atom -5587.485779 kJ/mol
# Density = 2.189874 g / cm^3
# Si number density = 21.948698 Si / 1000 Ang^3
#
#
#
# Elastic Constant Matrix: (Units=GPa)
#
#
# Indices 1 2 3 4 5 6 
#
# 1 139.8359 29.9802 50.7143 5.0025 -19.3362 21.3325
# 2 29.9802 111.9841 34.0091 16.2805 -20.9799 8.6566
# 3 50.7143 34.0091 93.0535 18.6069 -21.0366 -9.0303
# 4 5.0025 16.2805 18.6069 43.6921 6.9378 -5.1197
# 5 -19.3362 -20.9799 -21.0366 6.9378 48.1545 3.5013
# 6 21.3325 8.6566 -9.0303 -5.1197 3.5013 39.2612
#
#
#
# Elastic Compliance Matrix: (Units=1/GPa)
#
#
# Indices 1 2 3 4 5 6 
#
# 1 0.010821 -0.000084 -0.006146 0.000199 0.002136 -0.007439
# 2 -0.000084 0.011619 -0.002620 -0.004454 0.004826 -0.004130
# 3 -0.006146 -0.002620 0.017928 -0.005876 0.004570 0.006866
# 4 0.000199 -0.004454 -0.005876 0.028917 -0.008891 0.004086
# 5 0.002136 0.004826 0.004570 -0.008891 0.027351 -0.004772
# 6 -0.007439 -0.004130 0.006866 0.004086 -0.004772 0.032961
#
#
# Mechanical properties :
#
#
# Convention : Reuss Voigt Hill
#
# Bulk Modulus (GPa) = 44.11320 63.80898 53.96109
# Shear Modulus (GPa) = 32.28874 41.56623 36.92748
#
# Velocity S-wave (km/s) = 3.83965 4.35649 4.10621
# Velocity P-wave (km/s) = 6.30866 7.37837 6.86438
#
# Compressibility (1/GPa) = 0.02266895
#
# Stress axis : x y z
#
# Youngs Moduli (GPa) = 92.41069 86.06656 55.77939
#
# Poissons Ratio (x) = 0.00726 0.34280
# Poissons Ratio (y) = 0.00779 0.14612
# Poissons Ratio (z) = 0.56792 0.22546
#
# Static dielectric constant tensor:
#      x y z
#    x 1.877040 -0.032560 0.011870 
#    y -0.032560 1.782920 -0.055590 
#    z 0.011870 -0.055590 1.811560 
# 
# From -- ./inp_files/515367.got.cif
#   From: 2010.05.17/outbox.ucp.g08.bks.cvg/sg2_258_cif.got.tgz:515367.got - 2010.06.11 11:32:03.
