data_PCOD9075714
_publ_section_title
;
Structure prediction by ZEFSAII (Michael W. Deem and Ramdas Pophale) SiO2 
 PCOD9075714
Probable space group: P -1
;
_chemical_formula_sum "Si O2"
_cell_formula_units_Z 14
_cell_length_a 5.659505
_cell_length_b 8.538925
_cell_length_c 15.161827
_cell_angle_alpha 76.891107
_cell_angle_beta 64.456591
_cell_angle_gamma 97.398678
_cell_volume 622.098786
_symmetry_space_group_name_H-M "P -1"
_symmetry_group_IT_number 2
_symmetry_cell_setting 'triclinic'
loop_
_space_group_symop_operation_xyz
x,y,z
-x,-y,-z
loop_
_atom_site_type_symbol
_atom_site_label
_atom_site_fract_x
_atom_site_fract_y
_atom_site_fract_z
Si Si1 0.474938 0.241455 0.736146
Si Si2 0.732930 0.958285 0.752775
Si Si3 0.475330 0.178245 0.020909
Si Si4 0.996172 0.514369 0.604649
Si Si5 0.283043 0.242461 0.588766
Si Si6 0.933861 0.800531 0.054206
Si Si7 0.186678 0.176405 0.417636
O O1 0.709866 0.403095 0.700478
O O2 0.495420 0.220773 0.629872
O O3 0.187055 0.242217 0.822595
O O4 0.537448 0.077480 0.785845
O O5 0.713665 0.853887 0.857816
O O6 0.650489 0.851537 0.691073
O O7 0.021999 0.088428 0.669694
O O8 0.320302 0.264495 0.963395
O O9 0.788576 0.256939 0.988861
O O10 0.500000 0.000000 0.000000
O O11 0.999176 0.703040 0.597959
O O12 0.000000 0.500000 0.500000
O O13 0.214789 0.414545 0.607231
O O14 0.341421 0.245240 0.474946
O O15 0.000000 0.000000 0.000000
O O16 0.000000 0.000000 0.500000
#
# Coordination Sequence:
#
# PCOD9075714 Si02
#       7
#     2   2   2   2   2   2   2
#     4  11  20  32  58  85 109 149 191 241 289 343
#     4  10  19  32  55  83 114 148 187 241 294 341
#     4  10  18  32  54  85 119 148 196 248 290 339
#     4   9  20  37  55  78 113 147 194 233 286 348
#     4   9  19  34  56  80 113 147 193 231 286 350
#     4  10  19  31  55  88 117 147 197 247 290 338
#     4   9  19  37  55  79 113 149 186 238 292 355
#
# _framework density 22.504466000000001
#
# number of rings (size 3 to 8) (size 9 to 14) (size 15 to 20)
#    0.000    2.286    2.857    2.571    2.000    2.857 
#    0.000    2.857    0.000    1.714    0.000    0.000 
#    0.000    0.000    0.000    0.000    0.000    0.000 
#
# Total GULP energy -78014.437304 kJ/mol
# GULP energy per Si atom -5572.459807 kJ/mol
# Density = 2.245324 g / cm^3
# Si number density = 22.504466 Si / 1000 Ang^3
#
#
#
# Elastic Constant Matrix: (Units=GPa)
#
#
# Indices 1 2 3 4 5 6 
#
# 1 88.2262 6.8789 18.3222 -2.6424 5.7073 10.0048
# 2 6.8789 66.1309 22.6701 -2.0122 -2.8641 -3.0669
# 3 18.3222 22.6701 130.9217 16.1526 3.0484 8.6049
# 4 -2.6424 -2.0122 16.1526 12.0831 2.9269 4.6768
# 5 5.7073 -2.8641 3.0484 2.9269 39.6573 -1.7981
# 6 10.0048 -3.0669 8.6049 4.6768 -1.7981 12.9193
#
#
#
# Elastic Compliance Matrix: (Units=1/GPa)
#
#
# Indices 1 2 3 4 5 6 
#
# 1 0.014175 -0.001151 -0.002277 0.012523 -0.003542 -0.014760
# 2 -0.001151 0.017053 -0.003840 0.005059 0.001586 0.005886
# 3 -0.002277 -0.003840 0.010510 -0.015004 0.000319 -0.000672
# 4 0.012523 0.005059 -0.015004 0.127110 -0.011758 -0.046154
# 5 -0.003542 0.001586 0.000319 -0.011758 0.027180 0.010946
# 6 -0.014760 0.005886 -0.000672 -0.046154 0.010946 0.108910
#
#
# Mechanical properties :
#
#
# Convention : Reuss Voigt Hill
#
# Bulk Modulus (GPa) = 36.76103 42.33568 39.54836
# Shear Modulus (GPa) = 15.21885 28.75911 21.98898
#
# Velocity S-wave (km/s) = 2.60332 3.57869 3.12924
# Velocity P-wave (km/s) = 5.04052 5.99408 5.53786
#
# Compressibility (1/GPa) = 0.02720272
#
# Stress axis : x y z
#
# Youngs Moduli (GPa) = 70.54648 58.64036 95.15181
#
# Poissons Ratio (x) = 0.06748 0.21666
# Poissons Ratio (y) = 0.08118 0.36536
# Poissons Ratio (z) = 0.16063 0.22516
#
# Static dielectric constant tensor:
#      x y z
#    x 1.809150 0.034110 -0.169380 
#    y 0.034110 1.853840 0.014300 
#    z -0.169380 0.014300 1.593890 
# 
# From -- ./inp_files/35492.got.cif
#   From: 2010.05.17/outbox.cif.g08.bks.cpg/sg2_18_cif.got.tgz:35492.got - 2010.06.03 11:33:40.
