data_PCOD9075159
_publ_section_title
;
Structure prediction by ZEFSAII (Michael W. Deem and Ramdas Pophale) SiO2 
 PCOD9075159
Probable space group: P -1
;
_chemical_formula_sum "Si O2"
_cell_formula_units_Z 16
_cell_length_a 9.000000
_cell_length_b 24.000000
_cell_length_c 15.000000
_cell_angle_alpha 150.000000
_cell_angle_beta 130.000000
_cell_angle_gamma 30.000000
_cell_volume 731.734496
_symmetry_space_group_name_H-M "P -1"
_symmetry_group_IT_number 2
_symmetry_cell_setting 'triclinic'
loop_
_space_group_symop_operation_xyz
x,y,z
-x,-y,-z
loop_
_atom_site_type_symbol
_atom_site_label
_atom_site_fract_x
_atom_site_fract_y
_atom_site_fract_z
Si Si1 0.125883 0.230323 0.009083
Si Si2 0.873906 0.336008 0.524472
Si Si3 0.885131 0.030581 0.396996
Si Si4 0.883373 0.937933 0.909766
Si Si5 0.766353 0.313765 0.143854
Si Si6 0.742184 0.528279 0.973909
Si Si7 0.872050 0.867359 0.472870
Si Si8 0.783129 0.585403 0.261970
O O1 0.102692 0.108921 0.807680
O O2 0.498149 0.096871 0.973512
O O3 0.956768 0.313124 0.155504
O O4 0.954134 0.396357 0.105929
O O5 0.494803 0.509681 0.646260
O O6 0.953368 0.234486 0.325268
O O7 0.052893 0.188756 0.471433
O O8 0.989604 0.411471 0.665379
O O9 0.500553 0.242540 0.542984
O O10 0.058440 0.041954 0.414538
O O11 0.000000 0.000000 0.500000
O O12 0.994516 0.872531 0.963856
O O13 0.000000 0.000000 0.000000
O O14 0.543303 0.346537 0.035186
O O15 0.900646 0.331156 0.763781
O O16 0.638414 0.614748 0.151271
O O17 0.000000 0.500000 0.000000
O O18 0.500000 0.000000 0.500000
#
# Coordination Sequence:
#
# PCOD9075159 Si02
#       8
#     2   2   2   2   2   2   2   2
#     4  12  28  47  78 112 149 201 247 308 380 438
#     4  11  24  47  75 108 142 197 244 310 370 435
#     4  12  26  44  70 110 157 196 242 305 374 454
#     4  12  28  50  76 106 146 198 260 309 363 446
#     4  11  25  48  70 107 148 192 250 301 371 437
#     4  11  23  41  74 106 145 191 238 303 372 442
#     4  11  25  40  69 108 148 192 243 301 370 444
#     4  12  23  47  75 112 152 188 248 306 377 444
#
# _framework density 21.865853999999999
#
# number of rings (size 3 to 8) (size 9 to 14) (size 15 to 20)
#    0.000    0.500    3.750    5.250    5.250    1.500 
#    0.000    1.250    0.000    0.000    0.000    0.000 
#    0.000    0.000    0.000    0.000    0.000    0.000 
#
# Total GULP energy -89489.632055 kJ/mol
# GULP energy per Si atom -5593.102003 kJ/mol
# Density = 2.181609 g / cm^3
# Si number density = 21.865854 Si / 1000 Ang^3
#
#
#
# Elastic Constant Matrix: (Units=GPa)
#
#
# Indices 1 2 3 4 5 6 
#
# 1 180.4501 68.9030 34.9607 11.0879 18.9595 -4.5732
# 2 68.9030 112.1320 34.9033 14.3632 6.4029 8.6770
# 3 34.9607 34.9033 88.7505 12.4408 12.7208 -11.9821
# 4 11.0879 14.3632 12.4408 19.3912 -0.4012 3.4020
# 5 18.9595 6.4029 12.7208 -0.4012 48.0774 9.7387
# 6 -4.5732 8.6770 -11.9821 3.4020 9.7387 43.0646
#
#
#
# Elastic Compliance Matrix: (Units=1/GPa)
#
#
# Indices 1 2 3 4 5 6 
#
# 1 0.007782 -0.004516 -0.000367 -0.001347 -0.002865 0.002388
# 2 -0.004516 0.013674 -0.003856 -0.004266 0.001833 -0.004385
# 3 -0.000367 -0.003856 0.015744 -0.008349 -0.004975 0.006903
# 4 -0.001347 -0.004266 -0.008349 0.062328 0.005399 -0.007751
# 5 -0.002865 0.001833 -0.004975 0.005399 0.024681 -0.008066
# 6 0.002388 -0.004385 0.006903 -0.007751 -0.008066 0.028715
#
#
# Mechanical properties :
#
#
# Convention : Reuss Voigt Hill
#
# Bulk Modulus (GPa) = 50.70456 73.20739 61.95598
# Shear Modulus (GPa) = 28.25255 38.27766 33.26511
#
# Velocity S-wave (km/s) = 3.59846 4.18852 3.90465
# Velocity P-wave (km/s) = 6.36431 7.54616 6.98029
#
# Compressibility (1/GPa) = 0.01972209
#
# Stress axis : x y z
#
# Youngs Moduli (GPa) = 128.50867 73.13047 63.51639
#
# Poissons Ratio (x) = 0.33025 0.02333
# Poissons Ratio (y) = 0.58034 0.24489
# Poissons Ratio (z) = 0.04721 0.28196
#
# Static dielectric constant tensor:
#      x y z
#    x 1.770310 0.017620 -0.053510 
#    y 0.017620 1.887650 0.068810 
#    z -0.053510 0.068810 1.873360 
# 
# From -- ./inp_files/508742.got.cif
#   From: 2010.05.17/outbox.ucp.g08.bks.cvg/sg2_255_cif.got.tgz:508742.got - 2010.06.11 11:32:03.
