data_PCOD9075355
_publ_section_title
;
Structure prediction by ZEFSAII (Michael W. Deem and Ramdas Pophale) SiO2 
 PCOD9075355
Probable space group: P -1
;
_chemical_formula_sum "Si O2"
_cell_formula_units_Z 14
_cell_length_a 16.599880
_cell_length_b 7.523316
_cell_length_c 11.508703
_cell_angle_alpha 43.351574
_cell_angle_beta 131.813818
_cell_angle_gamma 141.879735
_cell_volume 593.688890
_symmetry_space_group_name_H-M "P -1"
_symmetry_group_IT_number 2
_symmetry_cell_setting 'triclinic'
loop_
_space_group_symop_operation_xyz
x,y,z
-x,-y,-z
loop_
_atom_site_type_symbol
_atom_site_label
_atom_site_fract_x
_atom_site_fract_y
_atom_site_fract_z
Si Si1 0.535069 0.855620 0.277584
Si Si2 0.888245 0.742931 0.887315
Si Si3 0.137417 0.036947 0.640161
Si Si4 0.351020 0.507065 0.057699
Si Si5 0.936942 0.549101 0.306704
Si Si6 0.690602 0.574653 0.572796
Si Si7 0.833511 0.942619 0.073470
O O1 0.651998 0.822590 0.439921
O O2 0.437478 0.753346 0.342191
O O3 0.577872 0.182742 0.103975
O O4 0.452569 0.590042 0.221107
O O5 0.813302 0.661848 0.730885
O O6 0.774270 0.540578 0.969536
O O7 0.948242 0.110375 0.802024
O O8 0.022888 0.770464 0.977983
O O9 0.257991 0.363877 0.538557
O O10 0.171306 0.007648 0.818875
O O11 0.117533 0.745838 0.688449
O O12 0.000000 0.000000 0.500000
O O13 0.289775 0.190280 0.069731
O O14 0.841653 0.638497 0.222499
O O15 0.000000 0.500000 0.500000
#
# Coordination Sequence:
#
# PCOD9075355 Si02
#       7
#     2   2   2   2   2   2   2
#     4   9  21  35  61  82 109 166 200 229 279 334
#     4   9  19  33  59  86 117 144 186 241 294 338
#     4  12  19  33  58  93 121 142 184 244 302 338
#     4  10  19  37  56  82 114 160 198 227 283 352
#     4  10  18  32  53  90 120 144 178 232 303 336
#     4  10  18  36  58  89 114 143 203 245 273 342
#     4  10  21  33  57  88 123 145 183 241 296 347
#
# _framework density 23.581375000000001
#
# number of rings (size 3 to 8) (size 9 to 14) (size 15 to 20)
#    0.857    1.143    4.286    1.286    0.000    0.000 
#    0.000    2.143    0.000    0.000    0.000    0.000 
#    0.000    0.000    0.000    0.000    0.000    0.000 
#
# Total GULP energy -78064.754721 kJ/mol
# GULP energy per Si atom -5576.053909 kJ/mol
# Density = 2.352770 g / cm^3
# Si number density = 23.581375 Si / 1000 Ang^3
#
#
#
# Elastic Constant Matrix: (Units=GPa)
#
#
# Indices 1 2 3 4 5 6 
#
# 1 55.8032 28.7723 14.4101 -6.3155 -30.9249 6.7948
# 2 28.7723 59.7769 9.4349 7.6440 -15.3225 4.9857
# 3 14.4101 9.4349 75.6674 -0.1762 -35.1514 4.3996
# 4 -6.3155 7.6440 -0.1762 48.3901 3.2234 -14.5238
# 5 -30.9249 -15.3225 -35.1514 3.2234 51.5347 -4.7449
# 6 6.7948 4.9857 4.3996 -14.5238 -4.7449 42.6613
#
#
#
# Elastic Compliance Matrix: (Units=1/GPa)
#
#
# Indices 1 2 3 4 5 6 
#
# 1 0.035180 -0.013177 0.004097 0.005223 0.019612 -0.000526
# 2 -0.013177 0.023929 -0.000922 -0.006283 -0.001294 -0.002886
# 3 0.004097 -0.000922 0.019905 -0.000611 0.015702 -0.001059
# 4 0.005223 -0.006283 -0.000611 0.024865 0.000071 0.008439
# 5 0.019612 -0.001294 0.015702 0.000071 0.041499 0.000048
# 6 -0.000526 -0.002886 -0.001059 0.008439 0.000048 0.026849
#
#
# Mechanical properties :
#
#
# Convention : Reuss Voigt Hill
#
# Bulk Modulus (GPa) = 16.94626 32.94249 24.94437
# Shear Modulus (GPa) = 23.59588 37.75924 30.67756
#
# Velocity S-wave (km/s) = 3.16668 4.00588 3.61074
# Velocity P-wave (km/s) = 4.53568 5.94947 5.29002
#
# Compressibility (1/GPa) = 0.05901009
#
# Stress axis : x y z
#
# Youngs Moduli (GPa) = 28.42521 41.79009 50.23850
#
# Poissons Ratio (x) = 0.55065 -0.20583
# Poissons Ratio (y) = 0.37455 0.04634
# Poissons Ratio (z) = -0.11646 0.03855
#
# Static dielectric constant tensor:
#      x y z
#    x 1.898390 0.039340 0.030400 
#    y 0.039340 2.001040 0.047060 
#    z 0.030400 0.047060 2.013390 
# 
# From -- ./inp_files/468582.got.cif
#   From: 2010.05.17/outbox.cif.g08.bks.cpg/sg2_235_cif.got.tgz:468582.got - 2010.06.03 11:33:40.
