data_PCOD9075152
_publ_section_title
;
Structure prediction by ZEFSAII (Michael W. Deem and Ramdas Pophale) SiO2 
 PCOD9075152
Probable space group: P -1
;
_chemical_formula_sum "Si O2"
_cell_formula_units_Z 16
_cell_length_a 8.417117
_cell_length_b 13.019186
_cell_length_c 17.873944
_cell_angle_alpha 46.009041
_cell_angle_beta 142.372245
_cell_angle_gamma 139.263057
_cell_volume 758.150846
_symmetry_space_group_name_H-M "P -1"
_symmetry_group_IT_number 2
_symmetry_cell_setting 'triclinic'
loop_
_space_group_symop_operation_xyz
x,y,z
-x,-y,-z
loop_
_atom_site_type_symbol
_atom_site_label
_atom_site_fract_x
_atom_site_fract_y
_atom_site_fract_z
Si Si1 0.288008 0.022601 0.778336
Si Si2 0.121112 0.982746 0.974668
Si Si3 0.023053 0.260770 0.088393
Si Si4 0.972082 0.736443 0.252384
Si Si5 0.855777 0.566112 0.679431
Si Si6 0.380750 0.516819 0.867030
Si Si7 0.551004 0.753154 0.411867
Si Si8 0.557939 0.349729 0.812891
O O1 0.403115 0.185152 0.788995
O O2 0.288364 0.089797 0.661348
O O3 0.545000 0.971883 0.905744
O O4 0.024399 0.869581 0.798650
O O5 0.050789 0.100042 0.838056
O O6 0.000000 0.000000 0.000000
O O7 0.011388 0.823242 0.963938
O O8 0.352394 0.403653 0.132180
O O9 0.771095 0.318588 0.965537
O O10 0.849128 0.655036 0.166776
O O11 0.718396 0.629201 0.270985
O O12 0.302665 0.763202 0.366226
O O13 0.775055 0.708023 0.561084
O O14 0.641520 0.406937 0.630592
O O15 0.775807 0.499806 0.767223
O O16 0.188876 0.610175 0.760036
O O17 0.500000 0.500000 0.000000
#
# Coordination Sequence:
#
# PCOD9075152 Si02
#       8
#     2   2   2   2   2   2   2   2
#     4  10  18  32  53  81 113 141 178 223 274 315
#     4  11  18  31  54  83 108 139 182 227 264 315
#     4  11  20  34  52  83 115 143 169 223 287 318
#     4  11  20  33  56  87 107 136 188 224 267 319
#     4   9  19  37  54  76 110 147 182 219 272 319
#     4  11  22  37  54  80 112 146 178 219 276 331
#     4   9  19  34  57  78 105 147 186 223 259 320
#     4  10  18  33  55  82 111 138 180 230 267 317
#
# _framework density 21.103981000000001
#
# number of rings (size 3 to 8) (size 9 to 14) (size 15 to 20)
#    0.000    1.750    5.000    1.500    0.000    1.000 
#    0.000    0.625    0.000    0.750    0.000    0.000 
#    0.000    0.000    0.000    0.000    0.000    0.000 
#
# Total GULP energy -89153.730411 kJ/mol
# GULP energy per Si atom -5572.108151 kJ/mol
# Density = 2.105595 g / cm^3
# Si number density = 21.103981 Si / 1000 Ang^3
#
#
#
# Elastic Constant Matrix: (Units=GPa)
#
#
# Indices 1 2 3 4 5 6 
#
# 1 86.5326 13.1115 37.1784 -7.5299 23.4701 22.7732
# 2 13.1115 38.5901 26.6857 -7.5373 -1.1243 19.3518
# 3 37.1784 26.6857 134.3239 -21.0632 17.4258 21.7185
# 4 -7.5299 -7.5373 -21.0632 17.3708 2.7508 -4.0796
# 5 23.4701 -1.1243 17.4258 2.7508 23.3929 -3.8422
# 6 22.7732 19.3518 21.7185 -4.0796 -3.8422 35.5074
#
#
#
# Elastic Compliance Matrix: (Units=1/GPa)
#
#
# Indices 1 2 3 4 5 6 
#
# 1 0.026170 0.002106 0.002579 0.015670 -0.033422 -0.021326
# 2 0.002106 0.039292 -0.003443 0.009459 -0.002023 -0.019791
# 3 0.002579 -0.003443 0.013306 0.016453 -0.015872 -0.007743
# 4 0.015670 0.009459 0.016453 0.090416 -0.041334 -0.019354
# 5 -0.033422 -0.002023 -0.015872 -0.041334 0.099145 0.038225
# 6 -0.021326 -0.019791 -0.007743 -0.019354 0.038225 0.059277
#
#
# Mechanical properties :
#
#
# Convention : Reuss Voigt Hill
#
# Bulk Modulus (GPa) = 12.30729 45.93309 29.12019
# Shear Modulus (GPa) = 14.19625 27.41895 20.80760
#
# Velocity S-wave (km/s) = 2.59642 3.60840 3.14340
# Velocity P-wave (km/s) = 3.85136 6.25884 5.19644
#
# Compressibility (1/GPa) = 0.08125266
#
# Stress axis : x y z
#
# Youngs Moduli (GPa) = 38.21150 25.45023 75.15462
#
# Poissons Ratio (x) = -0.05360 -0.19385
# Poissons Ratio (y) = -0.08048 0.25878
# Poissons Ratio (z) = -0.09856 0.08763
#
# Static dielectric constant tensor:
#      x y z
#    x 1.836480 0.015690 -0.011310 
#    y 0.015690 1.814920 -0.012040 
#    z -0.011310 -0.012040 1.735850 
# 
# From -- ./inp_files/608074.got.cif
#   From: 2010.05.17/outbox.cif.g08.bks.cpg/sg2_305_cif.got.tgz:608074.got - 2010.06.03 11:33:40.
