data_PCOD9075492
_publ_section_title
;
Structure prediction by ZEFSAII (Michael W. Deem and Ramdas Pophale) SiO2 
 PCOD9075492
Probable space group: P -1
;
_chemical_formula_sum "Si O2"
_cell_formula_units_Z 15
_cell_length_a 9.000000
_cell_length_b 21.000000
_cell_length_c 6.000000
_cell_angle_alpha 100.000000
_cell_angle_beta 100.000000
_cell_angle_gamma 140.000000
_cell_volume 627.984586
_symmetry_space_group_name_H-M "P -1"
_symmetry_group_IT_number 2
_symmetry_cell_setting 'triclinic'
loop_
_space_group_symop_operation_xyz
x,y,z
-x,-y,-z
loop_
_atom_site_type_symbol
_atom_site_label
_atom_site_fract_x
_atom_site_fract_y
_atom_site_fract_z
Si Si1 0.237877 0.748095 0.185341
Si Si2 0.560768 0.946363 0.730151
Si Si3 0.370313 0.218718 0.902927
Si Si4 0.759173 0.582389 0.265536
Si Si5 0.284631 0.284588 0.540194
Si Si6 0.278741 0.562157 0.578415
Si Si7 0.000000 0.000000 0.000000
Si Si8 0.849107 0.163316 0.054905
O O1 0.441585 0.863984 0.447073
O O2 0.405611 0.751111 0.116664
O O3 0.011481 0.645793 0.232211
O O4 0.093840 0.747185 0.980734
O O5 0.338723 0.888623 0.815547
O O6 0.756511 0.965788 0.914647
O O7 0.707296 0.064893 0.786814
O O8 0.235994 0.211257 0.660509
O O9 0.165071 0.104751 0.923103
O O10 0.527944 0.329069 0.145699
O O11 0.797006 0.670869 0.392621
O O12 0.720131 0.513179 0.398556
O O13 0.500000 0.500000 0.000000
O O14 0.588310 0.387587 0.601136
O O15 0.097646 0.210809 0.234470
O O16 0.000000 0.500000 0.500000
#
# Coordination Sequence:
#
# PCOD9075492 Si02
#       8
#     2   2   2   2   2   2   1   2
#     4  12  27  48  78 111 159 196 260 316 392 459
#     4  11  26  46  73 109 149 203 254 318 380 458
#     4  12  30  51  74 116 155 208 256 322 386 469
#     4  12  26  48  78 117 151 204 255 324 383 455
#     4  12  27  50  80 112 154 204 257 322 389 459
#     4  12  29  49  79 110 160 204 262 315 389 463
#     4  12  28  50  76 108 158 196 260 310 392 458
#     4  11  25  48  76 109 150 201 256 317 382 457
#
# _framework density 23.885936999999998
#
# number of rings (size 3 to 8) (size 9 to 14) (size 15 to 20)
#    0.000    0.267    4.000    3.200   11.200    3.733 
#    0.000    0.000    0.000    0.000    0.000    0.000 
#    0.000    0.000    0.000    0.000    0.000    0.000 
#
# Total GULP energy -83666.806382 kJ/mol
# GULP energy per Si atom -5577.787092 kJ/mol
# Density = 2.383157 g / cm^3
# Si number density = 23.885937 Si / 1000 Ang^3
#
#
#
# Elastic Constant Matrix: (Units=GPa)
#
#
# Indices 1 2 3 4 5 6 
#
# 1 159.5728 54.4308 28.7480 -7.4766 18.2195 4.7864
# 2 54.4308 144.9777 22.6310 -21.4424 11.1838 -11.5174
# 3 28.7480 22.6310 57.2702 14.9841 5.3540 -12.7741
# 4 -7.4766 -21.4424 14.9841 26.7871 1.3145 10.8035
# 5 18.2195 11.1838 5.3540 1.3145 23.2061 -8.5015
# 6 4.7864 -11.5174 -12.7741 10.8035 -8.5015 57.2238
#
#
#
# Elastic Compliance Matrix: (Units=1/GPa)
#
#
# Indices 1 2 3 4 5 6 
#
# 1 0.009214 -0.001078 -0.006691 0.007866 -0.007477 -0.005077
# 2 -0.001078 0.010581 -0.007372 0.013560 -0.004280 -0.002622
# 3 -0.006691 -0.007372 0.034973 -0.033522 0.007906 0.014386
# 4 0.007866 0.013560 -0.033522 0.079306 -0.017912 -0.023045
# 5 -0.007477 -0.004280 0.007906 -0.017912 0.055009 0.013083
# 6 -0.005077 -0.002622 0.014386 -0.023045 0.013083 0.026878
#
#
# Mechanical properties :
#
#
# Convention : Reuss Voigt Hill
#
# Bulk Modulus (GPa) = 40.84021 63.71560 52.27790
# Shear Modulus (GPa) = 19.65363 38.51079 29.08221
#
# Velocity S-wave (km/s) = 2.87158 4.01968 3.49312
# Velocity P-wave (km/s) = 5.30375 6.94813 6.18087
#
# Compressibility (1/GPa) = 0.02448567
#
# Stress axis : x y z
#
# Youngs Moduli (GPa) = 108.52547 94.51190 28.59323
#
# Poissons Ratio (x) = 0.10191 0.19131
# Poissons Ratio (y) = 0.11702 0.21080
# Poissons Ratio (z) = 0.72613 0.69677
#
# Static dielectric constant tensor:
#      x y z
#    x 1.840720 0.000000 -0.042130 
#    y 0.000000 1.969150 0.088660 
#    z -0.042130 0.088660 2.088220 
# 
# From -- ./inp_files/28390.got.cif
#   From: 2010.05.17/outbox.ucp.g08.bks.cvg/sg2_15_cif.got.tgz:28390.got - 2010.06.11 11:32:03.
