data_PCOD9075039
_publ_section_title
;
Structure prediction by ZEFSAII (Michael W. Deem and Ramdas Pophale) SiO2 
 PCOD9075039
Probable space group: P -1
;
_chemical_formula_sum "Si O2"
_cell_formula_units_Z 16
_cell_length_a 9.000000
_cell_length_b 15.000000
_cell_length_c 12.000000
_cell_angle_alpha 120.000000
_cell_angle_beta 110.000000
_cell_angle_gamma 120.000000
_cell_volume 745.925389
_symmetry_space_group_name_H-M "P -1"
_symmetry_group_IT_number 2
_symmetry_cell_setting 'triclinic'
loop_
_space_group_symop_operation_xyz
x,y,z
-x,-y,-z
loop_
_atom_site_type_symbol
_atom_site_label
_atom_site_fract_x
_atom_site_fract_y
_atom_site_fract_z
Si Si1 0.298809 0.372287 0.976062
Si Si2 0.832246 0.956381 0.616831
Si Si3 0.375414 0.004163 0.204489
Si Si4 0.174480 0.917127 0.694093
Si Si5 0.220623 0.550541 0.158495
Si Si6 0.599668 0.221936 0.176442
Si Si7 0.905198 0.610686 0.730743
Si Si8 0.658031 0.496471 0.363588
O O1 0.500000 0.500000 0.000000
O O2 0.182428 0.421154 0.006870
O O3 0.444029 0.420558 0.163175
O O4 0.060430 0.159720 0.753403
O O5 0.721641 0.966467 0.704450
O O6 0.535896 0.766525 0.364971
O O7 0.006726 0.938601 0.649481
O O8 0.592469 0.020108 0.286825
O O9 0.538652 0.155929 0.245835
O O10 0.090803 0.803235 0.952023
O O11 0.936584 0.705428 0.525426
O O12 0.356476 0.039650 0.926636
O O13 0.179815 0.503347 0.252757
O O14 0.000000 0.500000 0.000000
O O15 0.614522 0.351681 0.250665
O O16 0.881015 0.334889 0.260527
O O17 0.674343 0.516939 0.517820
#
# Coordination Sequence:
#
# PCOD9075039 Si02
#       8
#     2   2   2   2   2   2   2   2
#     4  12  30  54  77 115 156 208 270 321 399 479
#     4  12  27  54  77 112 157 211 261 330 396 462
#     4  11  23  45  76 115 165 203 260 320 404 464
#     4  11  23  43  72 111 157 201 256 323 387 466
#     4  12  30  53  79 116 155 208 267 326 394 478
#     4  11  22  41  70 116 160 206 250 323 398 457
#     4  11  23  46  77 115 160 199 262 328 386 467
#     4  12  23  45  79 112 153 207 257 320 395 462
#
# _framework density 21.449867000000001
#
# number of rings (size 3 to 8) (size 9 to 14) (size 15 to 20)
#    0.000    0.500    6.250    1.875    3.500    2.000 
#    9.000    0.000    0.000    0.000    0.000    0.000 
#    0.000    0.000    0.000    0.000    0.000    0.000 
#
# Total GULP energy -89067.812641 kJ/mol
# GULP energy per Si atom -5566.738290 kJ/mol
# Density = 2.140105 g / cm^3
# Si number density = 21.449867 Si / 1000 Ang^3
#
#
#
# Elastic Constant Matrix: (Units=GPa)
#
#
# Indices 1 2 3 4 5 6 
#
# 1 135.7686 45.0782 -2.3752 -3.3210 8.4051 -17.6571
# 2 45.0782 128.6821 26.5931 16.9534 8.4206 -2.3212
# 3 -2.3752 26.5931 76.8565 12.5873 16.3474 -20.4216
# 4 -3.3210 16.9534 12.5873 47.5222 -8.9938 -4.2615
# 5 8.4051 8.4206 16.3474 -8.9938 28.6183 5.8591
# 6 -17.6571 -2.3212 -20.4216 -4.2615 5.8591 42.2586
#
#
#
# Elastic Compliance Matrix: (Units=1/GPa)
#
#
# Indices 1 2 3 4 5 6 
#
# 1 0.010109 -0.004078 0.004805 0.000425 -0.005849 0.007176
# 2 -0.004078 0.010402 -0.004201 -0.003148 0.000268 -0.003517
# 3 0.004805 -0.004201 0.023798 -0.006697 -0.018993 0.015235
# 4 0.000425 -0.003148 -0.006697 0.026284 0.013386 -0.002437
# 5 -0.005849 0.000268 -0.018993 0.013386 0.055308 -0.017926
# 6 0.007176 -0.003517 0.015235 -0.002437 -0.017926 0.036071
#
#
# Mechanical properties :
#
#
# Convention : Reuss Voigt Hill
#
# Bulk Modulus (GPa) = 26.76663 53.32213 40.04438
# Shear Modulus (GPa) = 27.56716 41.81388 34.69052
#
# Velocity S-wave (km/s) = 3.58884 4.41997 4.02591
# Velocity P-wave (km/s) = 5.44783 7.13870 6.34980
#
# Compressibility (1/GPa) = 0.03735995
#
# Stress axis : x y z
#
# Youngs Moduli (GPa) = 98.91906 96.13917 42.01977
#
# Poissons Ratio (x) = 0.39206 -0.20189
# Poissons Ratio (y) = 0.40340 0.17653
# Poissons Ratio (z) = -0.47527 0.40390
#
# Static dielectric constant tensor:
#      x y z
#    x 1.865860 -0.008430 0.053920 
#    y -0.008430 1.803570 -0.031130 
#    z 0.053920 -0.031130 1.800840 
# 
# From -- ./inp_files/399456.got.cif
#   From: 2010.05.17/outbox.ucp.g08.bks.cvg/sg2_200_cif.got.tgz:399456.got - 2010.06.11 11:32:03.
