data_PCOD9075034
_publ_section_title
;
Structure prediction by ZEFSAII (Michael W. Deem and Ramdas Pophale) SiO2 
 PCOD9075034
Probable space group: P -1
;
_chemical_formula_sum "Si O2"
_cell_formula_units_Z 16
_cell_length_a 15.000000
_cell_length_b 15.000000
_cell_length_c 15.000000
_cell_angle_alpha 40.000000
_cell_angle_beta 20.000000
_cell_angle_gamma 40.000000
_cell_volume 725.414092
_symmetry_space_group_name_H-M "P -1"
_symmetry_group_IT_number 2
_symmetry_cell_setting 'triclinic'
loop_
_space_group_symop_operation_xyz
x,y,z
-x,-y,-z
loop_
_atom_site_type_symbol
_atom_site_label
_atom_site_fract_x
_atom_site_fract_y
_atom_site_fract_z
Si Si1 0.707589 0.055112 0.023464
Si Si2 0.880751 0.158746 0.532842
Si Si3 0.278750 0.027236 0.576443
Si Si4 0.081553 0.598088 0.152705
Si Si5 0.372999 0.277738 0.052461
Si Si6 0.892477 0.757029 0.029380
Si Si7 0.631412 0.344514 0.463007
Si Si8 0.555827 0.737505 0.642415
O O1 0.449727 0.004561 0.342528
O O2 0.572752 0.209313 0.996185
O O3 0.848641 0.926732 0.923657
O O4 0.958475 0.052838 0.854312
O O5 0.811564 0.257773 0.436380
O O6 0.122918 0.202102 0.327741
O O7 0.593745 0.215642 0.812715
O O8 0.000000 0.000000 0.500000
O O9 0.343172 0.174346 0.440428
O O10 0.409164 0.879698 0.615764
O O11 0.222691 0.442789 0.093558
O O12 0.959922 0.711985 0.102430
O O13 0.813232 0.625652 0.445617
O O14 0.319500 0.651778 0.939096
O O15 0.619116 0.718367 0.284472
O O16 0.152390 0.663937 0.810618
O O17 0.500000 0.500000 0.500000
#
# Coordination Sequence:
#
# PCOD9075034 Si02
#       8
#     2   2   2   2   2   2   2   2
#     4  12  23  42  64  97 123 167 211 263 306 369
#     4  12  24  45  64  90 125 174 214 256 316 377
#     4  11  22  41  67  97 127 162 216 264 304 369
#     4  12  23  42  64  97 131 169 205 257 326 376
#     4  12  26  43  65  94 133 167 209 261 317 384
#     4  12  22  39  63  90 119 161 211 257 309 364
#     4  12  24  39  60  90 121 158 206 262 312 366
#     4  11  22  41  67  97 127 167 208 261 316 372
#
# _framework density 22.056367999999999
#
# number of rings (size 3 to 8) (size 9 to 14) (size 15 to 20)
#    0.000    0.250    2.500    8.250    0.000    2.000 
#    0.000    3.750    0.000    0.000    0.000    0.000 
#    0.000    0.000    0.000    0.000    0.000    0.000 
#
# Total GULP energy -89080.826387 kJ/mol
# GULP energy per Si atom -5567.551649 kJ/mol
# Density = 2.200617 g / cm^3
# Si number density = 22.056368 Si / 1000 Ang^3
#
#
#
# Elastic Constant Matrix: (Units=GPa)
#
#
# Indices 1 2 3 4 5 6 
#
# 1 39.9227 30.5476 12.0896 3.4069 -22.5516 1.4354
# 2 30.5476 165.6503 9.7565 28.4746 -15.4387 1.5122
# 3 12.0896 9.7565 102.4749 36.4028 -27.4327 1.3284
# 4 3.4069 28.4746 36.4028 39.9494 0.2443 -4.1966
# 5 -22.5516 -15.4387 -27.4327 0.2443 36.8425 3.2438
# 6 1.4354 1.5122 1.3284 -4.1966 3.2438 34.0852
#
#
#
# Elastic Compliance Matrix: (Units=1/GPa)
#
#
# Indices 1 2 3 4 5 6 
#
# 1 0.044593 -0.004618 0.005521 -0.006305 0.029999 -0.005519
# 2 -0.004618 0.008852 0.004662 -0.010412 0.004608 -0.002100
# 3 0.005521 0.004662 0.025318 -0.027775 0.025004 -0.007225
# 4 -0.006305 -0.010412 -0.027775 0.059753 -0.030362 0.012056
# 5 0.029999 0.004608 0.025004 -0.030362 0.067364 -0.012591
# 6 -0.005519 -0.002100 -0.007225 0.012056 -0.012591 0.032628
#
#
# Mechanical properties :
#
#
# Convention : Reuss Voigt Hill
#
# Bulk Modulus (GPa) = 11.12463 45.87058 28.49760
# Shear Modulus (GPa) = 19.42934 39.21902 29.32418
#
# Velocity S-wave (km/s) = 2.97121 4.22136 3.65020
# Velocity P-wave (km/s) = 4.10188 6.67847 5.54199
#
# Compressibility (1/GPa) = 0.08989064
#
# Stress axis : x y z
#
# Youngs Moduli (GPa) = 22.42517 112.96393 39.49836
#
# Poissons Ratio (x) = 0.52172 -0.21807
# Poissons Ratio (y) = 0.10357 -0.18412
# Poissons Ratio (z) = -0.12381 -0.52659
#
# Static dielectric constant tensor:
#      x y z
#    x 1.882950 0.023600 0.054140 
#    y 0.023600 1.790430 -0.049030 
#    z 0.054140 -0.049030 1.802740 
# 
# From -- ./inp_files/110728.got.cif
#   From: 2010.05.17/outbox.ucp.g08.bks.cvg/sg2_56_cif.got.tgz:110728.got - 2010.06.11 11:32:03.
