data_PCOD9075476
_publ_section_title
;
Structure prediction by ZEFSAII (Michael W. Deem and Ramdas Pophale) SiO2 
 PCOD9075476
Probable space group: P -1
;
_chemical_formula_sum "Si O2"
_cell_formula_units_Z 16
_cell_length_a 12.000000
_cell_length_b 15.000000
_cell_length_c 15.000000
_cell_angle_alpha 140.000000
_cell_angle_beta 60.000000
_cell_angle_gamma 150.000000
_cell_volume 747.221570
_symmetry_space_group_name_H-M "P -1"
_symmetry_group_IT_number 2
_symmetry_cell_setting 'triclinic'
loop_
_space_group_symop_operation_xyz
x,y,z
-x,-y,-z
loop_
_atom_site_type_symbol
_atom_site_label
_atom_site_fract_x
_atom_site_fract_y
_atom_site_fract_z
Si Si1 0.739047 0.204947 0.744251
Si Si2 0.905576 0.598110 0.388580
Si Si3 0.178978 0.394871 0.974572
Si Si4 0.821435 0.327477 0.526469
Si Si5 0.652544 0.913763 0.715849
Si Si6 0.881481 0.685466 0.855467
Si Si7 0.758677 0.726430 0.446405
Si Si8 0.581991 0.652667 0.870402
O O1 0.978611 0.374950 0.720755
O O2 0.475635 0.945826 0.593940
O O3 0.727767 0.096159 0.751131
O O4 0.761397 0.387055 0.895459
O O5 0.613902 0.283098 0.286804
O O6 0.875751 0.731300 0.476295
O O7 0.092052 0.726754 0.493579
O O8 0.376742 0.498137 0.911124
O O9 0.193699 0.367551 0.051366
O O10 0.884341 0.104956 0.837925
O O11 0.872412 0.514569 0.705633
O O12 0.000000 0.500000 0.500000
O O13 0.619350 0.731657 0.544838
O O14 0.687966 0.596336 0.803925
O O15 0.167748 0.013818 0.973894
O O16 0.560735 0.468403 0.260080
O O17 0.000000 0.000000 0.500000
#
# Coordination Sequence:
#
# PCOD9075476 Si02
#       8
#     2   2   2   2   2   2   2   2
#     4  12  25  45  71 105 137 183 229 289 344 409
#     4  12  26  44  72 102 138 182 228 289 346 406
#     4  12  25  44  70 104 140 180 233 278 350 411
#     4  12  25  48  73 102 140 181 235 286 345 410
#     4  12  26  46  70 105 139 185 232 280 350 410
#     4  11  26  46  70 103 139 181 230 285 343 414
#     4  12  24  47  72 102 140 181 234 285 340 414
#     4  11  25  47  70 100 142 181 227 288 343 405
#
# _framework density 21.412658
#
# number of rings (size 3 to 8) (size 9 to 14) (size 15 to 20)
#    0.000    0.250    5.000    3.750    0.000    0.500 
#    4.500    0.000    0.000    0.000    0.000    0.000 
#    0.000    0.000    0.000    0.000    0.000    0.000 
#
# Total GULP energy -89572.206261 kJ/mol
# GULP energy per Si atom -5598.262891 kJ/mol
# Density = 2.136392 g / cm^3
# Si number density = 21.412658 Si / 1000 Ang^3
#
#
#
# Elastic Constant Matrix: (Units=GPa)
#
#
# Indices 1 2 3 4 5 6 
#
# 1 90.0144 30.4629 -10.4047 -15.5282 12.5688 -1.2604
# 2 30.4629 116.2283 22.9354 0.2205 -1.5076 14.6548
# 3 -10.4047 22.9354 48.4406 -4.8169 15.0442 11.0653
# 4 -15.5282 0.2205 -4.8169 -7.7250 3.5439 14.4560
# 5 12.5688 -1.5076 15.0442 3.5439 14.5691 0.5729
# 6 -1.2604 14.6548 11.0653 14.4560 0.5729 41.4934
#
#
#
# Elastic Compliance Matrix: (Units=1/GPa)
#
#
# Indices 1 2 3 4 5 6 
#
# 1 0.012006 -0.005241 0.005172 -0.018838 -0.011956 0.007564
# 2 -0.005241 0.012557 -0.008457 0.010353 0.012275 -0.006115
# 3 0.005172 -0.008457 0.030320 -0.031164 -0.029314 0.006320
# 4 -0.018838 0.010353 -0.031164 -0.024462 0.054989 0.011845
# 5 -0.011956 0.012275 -0.029314 0.054989 0.097801 -0.017389
# 6 0.007564 -0.006115 0.006320 0.011845 -0.017389 0.020918
#
#
# Mechanical properties :
#
#
# Convention : Reuss Voigt Hill
#
# Bulk Modulus (GPa) = 26.43206 37.85230 32.14218
# Shear Modulus (GPa) = 27.96412 23.78015 25.87214
#
# Velocity S-wave (km/s) = 3.61773 3.33613 3.47978
# Velocity P-wave (km/s) = 5.46091 5.70575 5.58467
#
# Compressibility (1/GPa) = 0.03783285
#
# Stress axis : x y z
#
# Youngs Moduli (GPa) = 83.28957 79.63895 32.98143
#
# Poissons Ratio (x) = 0.41735 -0.17058
# Poissons Ratio (y) = 0.43648 0.27891
# Poissons Ratio (z) = -0.43078 0.67348
#
# Static dielectric constant tensor:
#      x y z
#    x 1.742300 -0.029230 0.009830 
#    y -0.029230 1.760730 0.010320 
#    z 0.009830 0.010320 1.792900 
# 
# From -- ./inp_files/455607.got.cif
#   From: 2010.05.17/outbox.ucp.g08.bks.cvg/sg2_228_cif.got.tgz:455607.got - 2010.06.11 11:32:03.
