data_PCOD9075753
_publ_section_title
;
Structure prediction by ZEFSAII (Michael W. Deem and Ramdas Pophale) SiO2 
 PCOD9075753
Probable space group: P -1
;
_chemical_formula_sum "Si O2"
_cell_formula_units_Z 15
_cell_length_a 10.932952
_cell_length_b 16.676568
_cell_length_c 17.950284
_cell_angle_alpha 32.386273
_cell_angle_beta 159.894947
_cell_angle_gamma 149.846952
_cell_volume 555.019928
_symmetry_space_group_name_H-M "P -1"
_symmetry_group_IT_number 2
_symmetry_cell_setting 'triclinic'
loop_
_space_group_symop_operation_xyz
x,y,z
-x,-y,-z
loop_
_atom_site_type_symbol
_atom_site_label
_atom_site_fract_x
_atom_site_fract_y
_atom_site_fract_z
Si Si1 0.613268 0.824420 0.229169
Si Si2 0.500000 0.500000 0.500000
Si Si3 0.159785 0.149728 0.223649
Si Si4 0.252983 0.717071 0.944168
Si Si5 0.514385 0.989674 0.777869
Si Si6 0.535166 0.458950 0.300419
Si Si7 0.352070 0.159220 0.166997
Si Si8 0.897365 0.361248 0.708878
O O1 0.654461 0.675242 0.409350
O O2 0.987908 0.988283 0.302037
O O3 0.249069 0.848380 0.041034
O O4 0.445651 0.768097 0.094567
O O5 0.766479 0.439354 0.641735
O O6 0.379617 0.308232 0.273748
O O7 0.419785 0.154677 0.296906
O O8 0.244821 0.875381 0.775383
O O9 0.809826 0.592888 0.793503
O O10 0.498847 0.622673 0.120825
O O11 0.583493 0.175838 0.661070
O O12 0.938074 0.008279 0.035638
O O13 0.411100 0.881468 0.729950
O O14 0.896529 0.459136 0.555220
O O15 0.271094 0.320140 0.974143
#
# Coordination Sequence:
#
# PCOD9075753 Si02
#       8
#     2   1   2   2   2   2   2   2
#     4  10  18  32  55  79 112 145 188 226 270 335
#     4  12  20  30  54  86 116 136 180 246 268 324
#     4  10  19  35  56  80 106 155 186 219 277 336
#     4  10  19  36  54  83 112 156 179 222 288 338
#     4   9  19  37  62  76 106 152 203 219 260 335
#     4  10  22  33  53  85 125 137 174 240 297 323
#     4   9  18  37  63  78 103 153 201 226 251 338
#     4  10  20  35  53  86 113 143 178 235 284 318
#
# _framework density 27.026056000000001
#
# number of rings (size 3 to 8) (size 9 to 14) (size 15 to 20)
#    0.800    1.333    4.000    0.000    3.733    0.533 
#    0.000    2.000    2.933    0.000    0.000    0.000 
#    0.000    0.000    0.000    0.000    0.000    0.000 
#
# Total GULP energy -83600.171021 kJ/mol
# GULP energy per Si atom -5573.344735 kJ/mol
# Density = 2.696454 g / cm^3
# Si number density = 27.026056 Si / 1000 Ang^3
#
#
#
# Elastic Constant Matrix: (Units=GPa)
#
#
# Indices 1 2 3 4 5 6 
#
# 1 81.5133 43.2301 15.1577 -7.6795 1.1161 -27.0784
# 2 43.2301 104.6700 53.7610 -30.6818 -1.7246 1.9690
# 3 15.1577 53.7610 107.0018 -34.0898 -4.4664 0.6814
# 4 -7.6795 -30.6818 -34.0898 49.0438 2.2507 2.8848
# 5 1.1161 -1.7246 -4.4664 2.2507 33.0123 -13.7519
# 6 -27.0784 1.9690 0.6814 2.8848 -13.7519 31.7968
#
#
#
# Elastic Compliance Matrix: (Units=1/GPa)
#
#
# Indices 1 2 3 4 5 6 
#
# 1 0.030458 -0.015838 0.001953 -0.006290 0.012527 0.032866
# 2 -0.015838 0.022036 -0.006371 0.008326 -0.007548 -0.018736
# 3 0.001953 -0.006371 0.014257 0.006018 0.001979 0.002062
# 4 -0.006290 0.008326 0.006018 0.029672 -0.005102 -0.010899
# 5 0.012527 -0.007548 0.001979 -0.005102 0.042573 0.029968
# 6 0.032866 -0.018736 0.002062 -0.010899 0.029968 0.074505
#
#
# Mechanical properties :
#
#
# Convention : Reuss Voigt Hill
#
# Bulk Modulus (GPa) = 38.11342 57.49809 47.80575
# Shear Modulus (GPa) = 19.02873 34.83967 26.93420
#
# Velocity S-wave (km/s) = 2.65634 3.59432 3.16032
# Velocity P-wave (km/s) = 4.85194 6.20860 5.57172
#
# Compressibility (1/GPa) = 0.02623748
#
# Stress axis : x y z
#
# Youngs Moduli (GPa) = 32.83171 45.37968 70.14204
#
# Poissons Ratio (x) = 0.71873 -0.13696
# Poissons Ratio (y) = 0.52000 0.44690
# Poissons Ratio (z) = -0.06411 0.28913
#
# Static dielectric constant tensor:
#      x y z
#    x 2.021720 -0.018960 0.112550 
#    y -0.018960 2.026310 0.052830 
#    z 0.112550 0.052830 2.212510 
# 
# From -- ./inp_files/570063.got.cif
#   From: 2010.05.17/outbox.cif.g08.bks.cpg/sg2_286_cif.got.tgz:570063.got - 2010.06.03 11:33:40.
