data_PCOD9075976
_publ_section_title
;
Structure prediction by ZEFSAII (Michael W. Deem and Ramdas Pophale) SiO2 
 PCOD9075976
Probable space group: P -1
;
_chemical_formula_sum "Si O2"
_cell_formula_units_Z 13
_cell_length_a 7.507734
_cell_length_b 6.902794
_cell_length_c 10.863823
_cell_angle_alpha 90.765177
_cell_angle_beta 108.059507
_cell_angle_gamma 126.051387
_cell_volume 418.488104
_symmetry_space_group_name_H-M "P -1"
_symmetry_group_IT_number 2
_symmetry_cell_setting 'triclinic'
loop_
_space_group_symop_operation_xyz
x,y,z
-x,-y,-z
loop_
_atom_site_type_symbol
_atom_site_label
_atom_site_fract_x
_atom_site_fract_y
_atom_site_fract_z
Si Si1 0.924607 0.979648 0.307398
Si Si2 0.449309 0.726602 0.795899
Si Si3 0.430371 0.230679 0.462601
Si Si4 0.575188 0.233604 0.826401
Si Si5 0.815320 0.708468 0.025733
Si Si6 0.000000 0.500000 0.000000
Si Si7 0.060784 0.520187 0.364987
O O1 0.145776 0.018459 0.424855
O O2 0.007673 0.256735 0.326144
O O3 0.641092 0.794561 0.284386
O O4 0.889923 0.873623 0.160868
O O5 0.547516 0.784521 0.679173
O O6 0.608490 0.680109 0.906787
O O7 0.167020 0.500397 0.732792
O O8 0.471460 0.963888 0.838867
O O9 0.500000 0.500000 0.500000
O O10 0.649901 0.255089 0.571162
O O11 0.708591 0.410194 0.983515
O O12 0.840481 0.396832 0.828459
O O13 0.044100 0.775033 0.004259
O O14 0.000000 0.500000 0.500000
#
# Coordination Sequence:
#
# PCOD9075976 Si02
#       7
#     2   2   2   2   2   1   2
#     4  10  18  32  58  80 116 151 176 238 287 327
#     4  10  19  36  63  79 114 154 180 234 284 339
#     4   9  18  33  58  85 108 148 196 228 275 327
#     4   9  20  35  51  84 114 149 182 223 281 343
#     4  10  21  36  54  90 113 148 188 225 291 340
#     4   8  20  34  48  76 120 146 178 224 264 352
#     4   8  17  33  54  84 105 144 197 226 267 329
#
# _framework density 31.064202999999999
#
# number of rings (size 3 to 8) (size 9 to 14) (size 15 to 20)
#    0.923    1.846    0.000    1.385    0.000    4.923 
#    0.000    1.538    0.000   35.077    0.000    0.000 
#    0.000    0.000    0.000    0.000    0.000    0.000 
#
# Total GULP energy -72503.299405 kJ/mol
# GULP energy per Si atom -5577.176877 kJ/mol
# Density = 3.099350 g / cm^3
# Si number density = 31.064203 Si / 1000 Ang^3
#
#
#
# Elastic Constant Matrix: (Units=GPa)
#
#
# Indices 1 2 3 4 5 6 
#
# 1 236.4362 39.2273 100.4851 5.1256 78.6386 -6.4511
# 2 39.2273 123.1970 58.2572 25.1561 0.0749 -15.1012
# 3 100.4851 58.2572 278.4581 41.2198 65.5660 -35.4187
# 4 5.1256 25.1561 41.2198 53.1283 -0.5845 19.2647
# 5 78.6386 0.0749 65.5660 -0.5845 99.8355 15.7033
# 6 -6.4511 -15.1012 -35.4187 19.2647 15.7033 53.7278
#
#
#
# Elastic Compliance Matrix: (Units=1/GPa)
#
#
# Indices 1 2 3 4 5 6 
#
# 1 0.006415 -0.001601 -0.000781 0.000305 -0.004706 0.001072
# 2 -0.001601 0.010632 -0.000241 -0.006409 0.000626 0.004752
# 3 -0.000781 -0.000241 0.008521 -0.010571 -0.006810 0.011237
# 4 0.000305 -0.006409 -0.010571 0.039644 0.011057 -0.026180
# 5 -0.004706 0.000626 -0.006810 0.011057 0.020598 -0.014863
# 6 0.001072 0.004752 0.011237 -0.026180 -0.014863 0.041216
#
#
# Mechanical properties :
#
#
# Convention : Reuss Voigt Hill
#
# Bulk Modulus (GPa) = 49.20816 114.89228 82.05022
# Shear Modulus (GPa) = 35.95990 70.67976 53.31983
#
# Velocity S-wave (km/s) = 3.40604 4.77516 4.14749
# Velocity P-wave (km/s) = 5.59851 8.21393 7.02894
#
# Compressibility (1/GPa) = 0.02032183
#
# Stress axis : x y z
#
# Youngs Moduli (GPa) = 155.89392 94.05880 117.35865
#
# Poissons Ratio (x) = 0.15062 0.09161
# Poissons Ratio (y) = 0.24964 0.02825
# Poissons Ratio (z) = 0.12168 0.02264
#
# Static dielectric constant tensor:
#      x y z
#    x -1.865850 -4.748690 9.342450 
#    y -4.748690 -2.607050 10.047830 
#    z 9.342450 10.047830 -17.643620 
# 
# From -- ./inp_files/489835.got.cif
#   From: 2010.05.17/outbox.cif.g08.bks.cpg/sg2_245_cif.got.tgz:489835.got - 2010.06.03 11:33:40.
