data_PCOD9075426
_publ_section_title
;
Structure prediction by ZEFSAII (Michael W. Deem and Ramdas Pophale) SiO2 
 PCOD9075426
Probable space group: P -1
;
_chemical_formula_sum "Si O2"
_cell_formula_units_Z 16
_cell_length_a 6.000000
_cell_length_b 6.000000
_cell_length_c 27.000000
_cell_angle_alpha 130.000000
_cell_angle_beta 80.000000
_cell_angle_gamma 90.000000
_cell_volume 725.212580
_symmetry_space_group_name_H-M "P -1"
_symmetry_group_IT_number 2
_symmetry_cell_setting 'triclinic'
loop_
_space_group_symop_operation_xyz
x,y,z
-x,-y,-z
loop_
_atom_site_type_symbol
_atom_site_label
_atom_site_fract_x
_atom_site_fract_y
_atom_site_fract_z
Si Si1 0.172848 0.739128 0.025116
Si Si2 0.056170 0.218118 0.422480
Si Si3 0.029844 0.578015 0.736098
Si Si4 0.555343 0.381664 0.901152
Si Si5 0.583985 0.883105 0.382007
Si Si6 0.669540 0.916834 0.213631
Si Si7 0.954345 0.606626 0.855026
Si Si8 0.704052 0.615674 0.659776
O O1 0.321016 0.720483 0.067090
O O2 0.042892 0.069409 0.076746
O O3 0.352461 0.644140 0.960685
O O4 0.000000 0.500000 0.000000
O O5 0.107990 0.325678 0.380200
O O6 0.000000 0.500000 0.500000
O O7 0.330705 0.071419 0.404558
O O8 0.809778 0.062858 0.413954
O O9 0.911332 0.602309 0.797241
O O10 0.853009 0.525534 0.691412
O O11 0.258431 0.330693 0.692967
O O12 0.132949 0.877301 0.765402
O O13 0.748849 0.480813 0.872739
O O14 0.442580 0.128392 0.841780
O O15 0.466757 0.627982 0.381413
O O16 0.467033 0.083116 0.279292
O O17 0.802197 0.598089 0.176716
#
# Coordination Sequence:
#
# PCOD9075426 Si02
#       8
#     2   2   2   2   2   2   2   2
#     4  11  25  46  65  92 137 182 237 296 369 445
#     4  12  28  49  78 116 156 204 257 308 375 453
#     4  11  25  46  71 106 143 191 242 307 372 445
#     4  11  25  42  66  98 132 182 237 298 369 444
#     4  11  26  48  76 113 151 205 251 310 379 443
#     4  11  25  42  69 103 137 188 235 306 372 445
#     4  12  24  41  68  98 137 178 241 299 373 439
#     4  11  26  48  76 107 156 194 255 312 378 448
#
# _framework density 22.062495999999999
#
# number of rings (size 3 to 8) (size 9 to 14) (size 15 to 20)
#    0.000    0.750    1.250    5.250    7.000    8.000 
#    0.000    0.000    0.000    0.000    0.000    0.000 
#    0.000    0.000    0.000    0.000    0.000    0.000 
#
# Total GULP energy -89173.854928 kJ/mol
# GULP energy per Si atom -5573.365933 kJ/mol
# Density = 2.201228 g / cm^3
# Si number density = 22.062496 Si / 1000 Ang^3
#
#
#
# Elastic Constant Matrix: (Units=GPa)
#
#
# Indices 1 2 3 4 5 6 
#
# 1 146.9248 33.6304 47.9125 13.0107 -3.5829 5.9863
# 2 33.6304 42.1856 46.9615 9.6864 -11.4684 -3.2406
# 3 47.9125 46.9615 131.7102 10.6225 -17.3600 -0.5464
# 4 13.0107 9.6864 10.6225 36.4893 8.6364 -2.2638
# 5 -3.5829 -11.4684 -17.3600 8.6364 57.7838 9.7511
# 6 5.9863 -3.2406 -0.5464 -2.2638 9.7511 45.5516
#
#
#
# Elastic Compliance Matrix: (Units=1/GPa)
#
#
# Indices 1 2 3 4 5 6 
#
# 1 0.008606 -0.005585 -0.001106 -0.001246 -0.000467 -0.001503
# 2 -0.005585 0.046160 -0.013054 -0.007659 0.005655 0.002270
# 3 -0.001106 -0.013054 0.012852 -0.000272 0.001401 -0.000943
# 4 -0.001246 -0.007659 -0.000272 0.031755 -0.006875 0.002665
# 5 -0.000467 0.005655 0.001401 -0.006875 0.020567 -0.004264
# 6 -0.001503 0.002270 -0.000943 0.002665 -0.004264 0.023346
#
#
# Mechanical properties :
#
#
# Convention : Reuss Voigt Hill
#
# Bulk Modulus (GPa) = 35.55411 64.20327 49.87869
# Shear Modulus (GPa) = 26.02106 40.78603 33.40354
#
# Velocity S-wave (km/s) = 3.43800 4.30427 3.89529
# Velocity P-wave (km/s) = 5.64889 7.33935 6.54890
#
# Compressibility (1/GPa) = 0.02812614
#
# Stress axis : x y z
#
# Youngs Moduli (GPa) = 116.20273 21.66394 77.80833
#
# Poissons Ratio (x) = 0.12099 0.08609
# Poissons Ratio (y) = 0.64900 1.01572
# Poissons Ratio (z) = 0.12857 0.28280
#
# Static dielectric constant tensor:
#      x y z
#    x 1.832340 -0.027320 0.016960 
#    y -0.027320 1.901210 0.026900 
#    z 0.016960 0.026900 1.813700 
# 
# From -- ./inp_files/121627.got.cif
#   From: 2010.05.17/outbox.ucp.g08.bks.cvg/sg2_61_cif.got.tgz:121627.got - 2010.06.11 11:32:03.
