data_PCOD9075490
_publ_section_title
;
Structure prediction by ZEFSAII (Michael W. Deem and Ramdas Pophale) SiO2 
 PCOD9075490
Probable space group: P -1
;
_chemical_formula_sum "Si O2"
_cell_formula_units_Z 16
_cell_length_a 12.000000
_cell_length_b 12.000000
_cell_length_c 12.000000
_cell_angle_alpha 140.000000
_cell_angle_beta 70.000000
_cell_angle_gamma 80.000000
_cell_volume 722.981415
_symmetry_space_group_name_H-M "P -1"
_symmetry_group_IT_number 2
_symmetry_cell_setting 'triclinic'
loop_
_space_group_symop_operation_xyz
x,y,z
-x,-y,-z
loop_
_atom_site_type_symbol
_atom_site_label
_atom_site_fract_x
_atom_site_fract_y
_atom_site_fract_z
Si Si1 0.294136 0.355562 0.428107
Si Si2 0.034864 0.251809 0.797677
Si Si3 0.240398 0.503196 0.111965
Si Si4 0.056306 0.874912 0.048707
Si Si5 0.387046 0.995778 0.779983
Si Si6 0.718055 0.395168 0.592061
Si Si7 0.568055 0.259131 0.659355
Si Si8 0.152258 0.190381 0.222955
O O1 0.330650 0.414586 0.340764
O O2 0.253891 0.196913 0.286595
O O3 0.445141 0.180774 0.333354
O O4 0.154146 0.636563 0.748827
O O5 0.925671 0.316659 0.773875
O O6 0.950766 0.228356 0.910965
O O7 0.242999 0.987958 0.536643
O O8 0.000000 0.500000 0.000000
O O9 0.187501 0.639609 0.354230
O O10 0.309861 0.247893 0.940668
O O11 0.405348 0.402040 0.906396
O O12 0.121091 0.014330 0.127935
O O13 0.854164 0.118832 0.278938
O O14 0.438127 0.840638 0.530713
O O15 0.246277 0.088502 0.992416
O O16 0.568026 0.451440 0.751035
O O17 0.000000 0.500000 0.500000
#
# Coordination Sequence:
#
# PCOD9075490 Si02
#       8
#     2   2   2   2   2   2   2   2
#     4  12  26  47  77 108 156 203 241 318 390 446
#     4  11  26  47  79 107 152 203 252 318 378 445
#     4  12  25  50  72 112 151 197 259 314 378 455
#     4  11  26  47  77 116 145 200 261 305 384 464
#     4  12  26  47  72 111 153 193 260 306 381 463
#     4  11  25  48  71 110 153 190 255 319 372 459
#     4  11  26  46  77 108 147 201 254 315 377 453
#     4  12  26  47  76 112 154 199 247 320 380 457
#
# _framework density 22.130583000000001
#
# number of rings (size 3 to 8) (size 9 to 14) (size 15 to 20)
#    0.000    0.500    3.750    3.000    5.250    6.000 
#    2.250    0.000    0.000    0.000    0.000    0.000 
#    0.000    0.000    0.000    0.000    0.000    0.000 
#
# Total GULP energy -89081.373242 kJ/mol
# GULP energy per Si atom -5567.585828 kJ/mol
# Density = 2.208021 g / cm^3
# Si number density = 22.130583 Si / 1000 Ang^3
#
#
#
# Elastic Constant Matrix: (Units=GPa)
#
#
# Indices 1 2 3 4 5 6 
#
# 1 100.8584 56.5317 33.4531 -8.3582 6.6396 -13.2371
# 2 56.5317 163.7538 10.6827 -8.3311 1.2456 -6.3031
# 3 33.4531 10.6827 91.6263 -21.5350 5.9088 -9.1174
# 4 -8.3582 -8.3311 -21.5350 45.2442 -1.1443 1.8787
# 5 6.6396 1.2456 5.9088 -1.1443 42.3917 8.4629
# 6 -13.2371 -6.3031 -9.1174 1.8787 8.4629 64.9321
#
#
#
# Elastic Compliance Matrix: (Units=1/GPa)
#
#
# Indices 1 2 3 4 5 6 
#
# 1 0.014333 -0.004584 -0.004473 -0.000462 -0.001921 0.002113
# 2 -0.004584 0.007670 0.000986 0.001051 0.000410 -0.000135
# 3 -0.004473 0.000986 0.014034 0.005953 -0.001355 0.001159
# 4 -0.000462 0.001051 0.005953 0.025035 -0.000140 0.000138
# 5 -0.001921 0.000410 -0.001355 -0.000140 0.024817 -0.003772
# 6 0.002113 -0.000135 0.001159 0.000138 -0.003772 0.016469
#
#
# Mechanical properties :
#
#
# Convention : Reuss Voigt Hill
#
# Bulk Modulus (GPa) = 50.26149 61.95260 56.10704
# Shear Modulus (GPa) = 39.95841 47.55168 43.75505
#
# Velocity S-wave (km/s) = 4.25381 4.64042 4.45132
# Velocity P-wave (km/s) = 6.84742 7.53434 7.19908
#
# Compressibility (1/GPa) = 0.01989595
#
# Stress axis : x y z
#
# Youngs Moduli (GPa) = 69.76727 130.37796 71.25670
#
# Poissons Ratio (x) = 0.59765 0.31874
# Poissons Ratio (y) = 0.31981 -0.07029
# Poissons Ratio (z) = 0.31208 -0.12861
#
# Static dielectric constant tensor:
#      x y z
#    x 2.082590 0.035780 0.051210 
#    y 0.035780 1.766590 0.007680 
#    z 0.051210 0.007680 1.892740 
# 
# From -- ./inp_files/429042.got.cif
#   From: 2010.05.17/outbox.ucp.g08.bks.cvg/sg2_215_cif.got.tgz:429042.got - 2010.06.11 11:32:03.
