data_PCOD9075587
_publ_section_title
;
Structure prediction by ZEFSAII (Michael W. Deem and Ramdas Pophale) SiO2 
 PCOD9075587
Probable space group: P -1
;
_chemical_formula_sum "Si O2"
_cell_formula_units_Z 16
_cell_length_a 27.000000
_cell_length_b 27.000000
_cell_length_c 9.000000
_cell_angle_alpha 40.000000
_cell_angle_beta 140.000000
_cell_angle_gamma 170.000000
_cell_volume 728.340053
_symmetry_space_group_name_H-M "P -1"
_symmetry_group_IT_number 2
_symmetry_cell_setting 'triclinic'
loop_
_space_group_symop_operation_xyz
x,y,z
-x,-y,-z
loop_
_atom_site_type_symbol
_atom_site_label
_atom_site_fract_x
_atom_site_fract_y
_atom_site_fract_z
Si Si1 0.994238 0.565431 0.223772
Si Si2 0.304794 0.964357 0.459171
Si Si3 0.649161 0.559966 0.165289
Si Si4 0.190509 0.028161 0.147011
Si Si5 0.845953 0.392533 0.758053
Si Si6 0.962107 0.051986 0.336494
Si Si7 0.449069 0.601327 0.371622
Si Si8 0.557060 0.884140 0.916543
O O1 0.152701 0.676632 0.196151
O O2 0.666248 0.276697 0.139296
O O3 0.000000 0.500000 0.500000
O O4 0.146122 0.790739 0.102976
O O5 0.217834 0.960416 0.352442
O O6 0.437589 0.108110 0.269449
O O7 0.545084 0.142652 0.680242
O O8 0.037433 0.649029 0.551473
O O9 0.466496 0.331264 0.159108
O O10 0.665298 0.533619 0.421646
O O11 0.500000 0.500000 0.000000
O O12 0.951262 0.842107 0.125621
O O13 0.158659 0.023070 0.914763
O O14 0.000000 0.500000 0.000000
O O15 0.749778 0.851213 0.449671
O O16 0.000000 0.000000 0.500000
O O17 0.239361 0.366050 0.304147
O O18 0.503776 0.744885 0.157874
#
# Coordination Sequence:
#
# PCOD9075587 Si02
#       8
#     2   2   2   2   2   2   2   2
#     4  12  23  42  70  95 131 181 229 276 350 410
#     4  12  24  45  70  97 140 176 232 295 347 413
#     4  12  26  48  70 104 149 189 231 293 360 429
#     4  12  26  44  75 102 140 193 235 283 371 424
#     4  12  27  44  68 101 138 181 229 287 348 424
#     4  12  24  44  72 105 137 183 240 288 343 428
#     4  12  26  44  70 104 142 180 237 297 347 414
#     4  12  24  42  71 100 133 177 233 293 339 405
#
# _framework density 21.967760999999999
#
# number of rings (size 3 to 8) (size 9 to 14) (size 15 to 20)
#    0.000    0.000    3.750    6.750    1.750    3.000 
#    0.000    0.000    0.000    0.000    0.000    0.000 
#    0.000    0.000    0.000    0.000    0.000    0.000 
#
# Total GULP energy -89315.115790 kJ/mol
# GULP energy per Si atom -5582.194737 kJ/mol
# Density = 2.191776 g / cm^3
# Si number density = 21.967761 Si / 1000 Ang^3
#
#
#
# Elastic Constant Matrix: (Units=GPa)
#
#
# Indices 1 2 3 4 5 6 
#
# 1 122.8653 -0.2158 24.6508 8.5784 18.6204 -13.8353
# 2 -0.2158 71.3474 6.8083 -2.0558 -3.0089 -7.4833
# 3 24.6508 6.8083 90.6525 -7.3513 6.6374 -17.4993
# 4 8.5784 -2.0558 -7.3513 25.5892 -2.5659 6.2638
# 5 18.6204 -3.0089 6.6374 -2.5659 39.6093 1.9303
# 6 -13.8353 -7.4833 -17.4993 6.2638 1.9303 52.0746
#
#
#
# Elastic Compliance Matrix: (Units=1/GPa)
#
#
# Indices 1 2 3 4 5 6 
#
# 1 0.009979 0.000182 -0.002272 -0.005123 -0.004760 0.002707
# 2 0.000182 0.014338 -0.000830 0.000540 0.001093 0.001725
# 3 -0.002272 -0.000830 0.012679 0.003458 -0.001050 0.003161
# 4 -0.005123 0.000540 0.003458 0.043693 0.004971 -0.005561
# 5 -0.004760 0.001093 -0.001050 0.004971 0.028217 -0.003104
# 6 0.002707 0.001725 0.003161 -0.005561 -0.003104 0.022016
#
#
# Mechanical properties :
#
#
# Convention : Reuss Voigt Hill
#
# Bulk Modulus (GPa) = 32.09463 38.59462 35.34462
# Shear Modulus (GPa) = 33.97981 40.36275 37.17128
#
# Velocity S-wave (km/s) = 3.93721 4.29110 4.11796
# Velocity P-wave (km/s) = 5.94226 6.49294 6.22369
#
# Compressibility (1/GPa) = 0.03115787
#
# Stress axis : x y z
#
# Youngs Moduli (GPa) = 100.21006 69.74370 78.87294
#
# Poissons Ratio (x) = -0.01273 0.17917
# Poissons Ratio (y) = -0.01829 0.06545
# Poissons Ratio (z) = 0.22764 0.05788
#
# Static dielectric constant tensor:
#      x y z
#    x 1.767750 -0.076360 0.005650 
#    y -0.076360 1.780090 0.066720 
#    z 0.005650 0.066720 1.758720 
# 
# From -- ./inp_files/357991.got.cif
#   From: 2010.05.17/outbox.ucp.g08.bks.cvg/sg2_179_cif.got.tgz:357991.got - 2010.06.11 11:32:03.
