data_PCOD9075028
_publ_section_title
;
Structure prediction by ZEFSAII (Michael W. Deem and Ramdas Pophale) SiO2 
 PCOD9075028
Probable space group: P -1
;
_chemical_formula_sum "Si O2"
_cell_formula_units_Z 16
_cell_length_a 18.000000
_cell_length_b 9.000000
_cell_length_c 12.000000
_cell_angle_alpha 50.000000
_cell_angle_beta 40.000000
_cell_angle_gamma 80.000000
_cell_volume 729.599496
_symmetry_space_group_name_H-M "P -1"
_symmetry_group_IT_number 2
_symmetry_cell_setting 'triclinic'
loop_
_space_group_symop_operation_xyz
x,y,z
-x,-y,-z
loop_
_atom_site_type_symbol
_atom_site_label
_atom_site_fract_x
_atom_site_fract_y
_atom_site_fract_z
Si Si1 0.064681 0.852647 0.710265
Si Si2 0.123898 0.369581 0.338520
Si Si3 0.221030 0.511735 0.920011
Si Si4 0.642834 0.328076 0.727858
Si Si5 0.873327 0.825577 0.135168
Si Si6 0.640921 0.097396 0.618855
Si Si7 0.814681 0.269326 0.712323
Si Si8 0.675085 0.750334 0.192911
O O1 0.211976 0.879556 0.544014
O O2 0.108873 0.122480 0.494612
O O3 0.950333 0.637980 0.854337
O O4 0.959670 0.764643 0.984397
O O5 0.171318 0.532620 0.317259
O O6 0.963617 0.299132 0.528727
O O7 0.228864 0.532495 0.033578
O O8 0.330909 0.767335 0.596980
O O9 0.247290 0.316927 0.948434
O O10 0.731768 0.621252 0.474647
O O11 0.613794 0.236521 0.676945
O O12 0.765363 0.301556 0.636831
O O13 0.508021 0.187092 0.039404
O O14 0.782566 0.853434 0.131356
O O15 0.000000 0.000000 0.000000
O O16 0.683764 0.982650 0.038288
O O17 0.500000 0.500000 0.500000
#
# Coordination Sequence:
#
# PCOD9075028 Si02
#       8
#     2   2   2   2   2   2   2   2
#     4  11  22  41  65 104 135 180 240 290 342 421
#     4  11  24  41  66 101 135 175 236 288 352 402
#     4  11  22  41  65 104 135 180 240 290 342 421
#     4  11  24  42  67  97 140 182 227 289 353 418
#     4  11  24  44  69 101 139 181 236 285 350 425
#     4  11  24  41  66 101 135 175 236 288 352 402
#     4  11  24  42  67  97 140 182 227 289 353 418
#     4  11  24  44  69 101 139 181 236 285 350 425
#
# _framework density 21.929839999999999
#
# number of rings (size 3 to 8) (size 9 to 14) (size 15 to 20)
#    0.000    1.000    5.000    3.000    7.000    0.000 
#    0.000    6.250    0.000    0.000    0.000    0.000 
#    0.000    0.000    0.000    0.000    0.000    0.000 
#
# Total GULP energy -89138.086593 kJ/mol
# GULP energy per Si atom -5571.130412 kJ/mol
# Density = 2.187993 g / cm^3
# Si number density = 21.929840 Si / 1000 Ang^3
#
#
#
# Elastic Constant Matrix: (Units=GPa)
#
#
# Indices 1 2 3 4 5 6 
#
# 1 71.6990 13.2218 17.8123 6.7205 6.8504 7.5058
# 2 13.2218 30.1871 17.7973 11.8240 9.6267 -1.2199
# 3 17.8123 17.7973 97.7827 26.8823 34.3946 12.7777
# 4 6.7205 11.8240 26.8823 4.9450 -11.7226 -10.0270
# 5 6.8504 9.6267 34.3946 -11.7226 33.2799 -2.3678
# 6 7.5058 -1.2199 12.7777 -10.0270 -2.3678 30.4788
#
#
#
# Elastic Compliance Matrix: (Units=1/GPa)
#
#
# Indices 1 2 3 4 5 6 
#
# 1 0.015753 -0.006631 -0.001928 0.001198 0.000885 -0.002874
# 2 -0.006631 0.038520 -0.010734 0.007150 0.004573 0.010382
# 3 -0.001928 -0.010734 0.005401 0.018114 0.004592 0.004097
# 4 0.001198 0.007150 0.018114 -0.023731 -0.030660 -0.017792
# 5 0.000885 0.004573 0.004592 -0.030660 0.012208 -0.011098
# 6 -0.002874 0.010382 0.004097 -0.017792 -0.011098 0.025500
#
#
# Mechanical properties :
#
#
# Convention : Reuss Voigt Hill
#
# Bulk Modulus (GPa) = 47.41663 33.03684 40.22673
# Shear Modulus (GPa) = 41.92283 23.79657 32.85970
#
# Velocity S-wave (km/s) = 4.37702 3.29769 3.87512
# Velocity P-wave (km/s) = 6.87119 5.44033 6.19720
#
# Compressibility (1/GPa) = 0.02108965
#
# Stress axis : x y z
#
# Youngs Moduli (GPa) = 63.48051 25.96045 185.13961
#
# Poissons Ratio (x) = 0.17213 0.35693
# Poissons Ratio (y) = 0.42092 1.98725
# Poissons Ratio (z) = 0.12238 0.27865
#
# Static dielectric constant tensor:
#      x y z
#    x 1.173630 -0.067170 0.095780 
#    y -0.067170 1.774670 -0.054220 
#    z 0.095780 -0.054220 1.910220 
# 
# From -- ./inp_files/346231.got.cif
#   From: 2010.05.17/outbox.ucp.g08.bks.cvg/sg2_174_cif.got.tgz:346231.got - 2010.06.11 11:32:03.
