data_PCOD9075886
_publ_section_title
;
Structure prediction by ZEFSAII (Michael W. Deem and Ramdas Pophale) SiO2 
 PCOD9075886
Probable space group: P -1
;
_chemical_formula_sum "Si O2"
_cell_formula_units_Z 16
_cell_length_a 10.655693
_cell_length_b 11.428619
_cell_length_c 14.359447
_cell_angle_alpha 148.276736
_cell_angle_beta 135.031447
_cell_angle_gamma 37.878474
_cell_volume 561.015973
_symmetry_space_group_name_H-M "P -1"
_symmetry_group_IT_number 2
_symmetry_cell_setting 'triclinic'
loop_
_space_group_symop_operation_xyz
x,y,z
-x,-y,-z
loop_
_atom_site_type_symbol
_atom_site_label
_atom_site_fract_x
_atom_site_fract_y
_atom_site_fract_z
Si Si1 0.886377 0.869702 0.939261
Si Si2 0.574219 0.476996 0.719783
Si Si3 0.197016 0.238599 0.966582
Si Si4 0.188702 0.311123 0.738048
Si Si5 0.015593 0.951403 0.604771
Si Si6 0.082729 0.139069 0.310192
Si Si7 0.583533 0.459218 0.911531
Si Si8 0.389926 0.172654 0.381705
O O1 0.851048 0.820341 0.994648
O O2 0.695192 0.927277 0.813775
O O3 0.066724 0.585541 0.809182
O O4 0.952676 0.084027 0.127816
O O5 0.614486 0.710760 0.885799
O O6 0.803585 0.226314 0.675807
O O7 0.467761 0.518537 0.793421
O O8 0.449138 0.385700 0.527760
O O9 0.000000 0.500000 0.000000
O O10 0.199246 0.012697 0.751126
O O11 0.024070 0.218202 0.606345
O O12 0.391477 0.072641 0.636502
O O13 0.288559 0.390566 0.927325
O O14 0.014670 0.808259 0.603416
O O15 0.268170 0.844422 0.219041
O O16 0.206145 0.274106 0.429376
O O17 0.500000 0.500000 0.000000
#
# Coordination Sequence:
#
# PCOD9075886 Si02
#       8
#     2   2   2   2   2   2   2   2
#     4  10  22  37  59  85 117 152 190 238 287 335
#     4   9  20  33  56  84 115 156 191 233 294 337
#     4   9  17  39  60  80 114 154 192 235 288 343
#     4  10  20  35  58  88 112 149 198 232 285 335
#     4   8  17  32  58  82 109 153 194 232 286 343
#     4   9  18  34  55  83 117 153 187 233 292 343
#     4  10  18  32  56  87 115 150 190 237 284 340
#     4  11  21  36  57  86 121 150 191 235 285 350
#
# _framework density 28.519684000000002
#
# number of rings (size 3 to 8) (size 9 to 14) (size 15 to 20)
#    0.000    2.500    1.250    2.625    1.750    2.000 
#    0.000   13.125    0.000    3.750    0.000    0.000 
#    0.000    0.000    0.000    0.000    0.000    0.000 
#
# Total GULP energy -89392.007974 kJ/mol
# GULP energy per Si atom -5587.000498 kJ/mol
# Density = 2.845477 g / cm^3
# Si number density = 28.519684 Si / 1000 Ang^3
#
#
#
# Elastic Constant Matrix: (Units=GPa)
#
#
# Indices 1 2 3 4 5 6 
#
# 1 104.5569 25.3708 46.8614 -7.7520 14.0385 5.2101
# 2 25.3708 114.6106 12.6301 3.5522 15.7389 -17.2373
# 3 46.8614 12.6301 213.7301 -32.6036 64.8332 8.3490
# 4 -7.7520 3.5522 -32.6036 39.1057 -1.1541 1.6765
# 5 14.0385 15.7389 64.8332 -1.1541 64.6116 -2.3728
# 6 5.2101 -17.2373 8.3490 1.6765 -2.3728 33.0789
#
#
#
# Elastic Compliance Matrix: (Units=1/GPa)
#
#
# Indices 1 2 3 4 5 6 
#
# 1 0.011366 -0.002746 -0.002203 0.000790 0.000326 -0.002682
# 2 -0.002746 0.010516 0.000029 -0.001780 -0.001811 0.005865
# 3 -0.002203 0.000029 0.008858 0.006819 -0.008399 -0.002822
# 4 0.000790 -0.001780 0.006819 0.031599 -0.006193 -0.004819
# 5 0.000326 -0.001811 -0.008399 -0.006193 0.024281 0.003181
# 6 -0.002682 0.005865 -0.002822 -0.004819 0.003181 0.034894
#
#
# Mechanical properties :
#
#
# Convention : Reuss Voigt Hill
#
# Bulk Modulus (GPa) = 47.84589 66.95802 57.40196
# Shear Modulus (GPa) = 36.14754 50.56161 43.35458
#
# Velocity S-wave (km/s) = 3.56400 4.21511 3.90316
# Velocity P-wave (km/s) = 5.80939 6.87156 6.36268
#
# Compressibility (1/GPa) = 0.02090044
#
# Stress axis : x y z
#
# Youngs Moduli (GPa) = 87.97796 95.09547 112.88732
#
# Poissons Ratio (x) = 0.26112 0.24874
# Poissons Ratio (y) = 0.24158 -0.00330
# Poissons Ratio (z) = 0.19386 -0.00278
#
# Static dielectric constant tensor:
#      x y z
#    x 2.296330 0.006900 0.017660 
#    y 0.006900 2.279560 -0.027230 
#    z 0.017660 -0.027230 2.212010 
# 
# From -- ./inp_files/569818.got.cif
#   From: 2010.05.17/outbox.cif.g08.bks.cpg/sg2_285_cif.got.tgz:569818.got - 2010.06.03 11:33:40.
