data_PCOD9075890
_publ_section_title
;
Structure prediction by ZEFSAII (Michael W. Deem and Ramdas Pophale) SiO2 
 PCOD9075890
Probable space group: P -1
;
_chemical_formula_sum "Si O2"
_cell_formula_units_Z 14
_cell_length_a 11.417416
_cell_length_b 12.347463
_cell_length_c 10.539577
_cell_angle_alpha 132.838829
_cell_angle_beta 146.519300
_cell_angle_gamma 46.220412
_cell_volume 571.731527
_symmetry_space_group_name_H-M "P -1"
_symmetry_group_IT_number 2
_symmetry_cell_setting 'triclinic'
loop_
_space_group_symop_operation_xyz
x,y,z
-x,-y,-z
loop_
_atom_site_type_symbol
_atom_site_label
_atom_site_fract_x
_atom_site_fract_y
_atom_site_fract_z
Si Si1 0.542022 0.255323 0.925772
Si Si2 0.927776 0.749370 0.985348
Si Si3 0.566943 0.012125 0.284915
Si Si4 0.265163 0.754870 0.496066
Si Si5 0.762285 0.482491 0.288797
Si Si6 0.672826 0.532005 0.526050
Si Si7 0.202740 0.900100 0.191221
O O1 0.371162 0.423714 0.876656
O O2 0.588200 0.155417 0.758964
O O3 0.456824 0.159333 0.875732
O O4 0.766007 0.305786 0.174264
O O5 0.688436 0.876425 0.843181
O O6 0.876869 0.586674 0.806302
O O7 0.029487 0.778259 0.234092
O O8 0.104346 0.768860 0.056567
O O9 0.671788 0.086081 0.323759
O O10 0.719332 0.024842 0.554451
O O11 0.450959 0.637860 0.478787
O O12 0.287811 0.649284 0.555970
O O13 0.660621 0.565422 0.393599
O O14 0.000000 0.500000 0.500000
O O15 0.000000 0.000000 0.000000
#
# Coordination Sequence:
#
# PCOD9075890 Si02
#       7
#     2   2   2   2   2   2   2
#     4  11  23  38  54  86 120 154 198 231 294 357
#     4  10  18  32  56  88 115 147 185 248 302 337
#     4  10  21  34  56  87 118 142 192 247 294 346
#     4   9  20  36  61  88 113 149 194 256 294 332
#     4  11  25  39  58  81 122 166 191 231 286 359
#     4  10  20  38  58  85 118 151 203 240 286 349
#     4  11  21  32  59  90 116 151 187 247 301 339
#
# _framework density 24.487016000000001
#
# number of rings (size 3 to 8) (size 9 to 14) (size 15 to 20)
#    0.000    1.714    1.429    4.286    4.000    1.143 
#    0.000    0.714    0.000    1.714    0.000    0.000 
#    0.000    0.000    0.000    0.000    0.000    0.000 
#
# Total GULP energy -78152.276171 kJ/mol
# GULP energy per Si atom -5582.305441 kJ/mol
# Density = 2.443128 g / cm^3
# Si number density = 24.487016 Si / 1000 Ang^3
#
#
#
# Elastic Constant Matrix: (Units=GPa)
#
#
# Indices 1 2 3 4 5 6 
#
# 1 56.0753 29.1160 22.1852 -0.6576 8.4780 19.8303
# 2 29.1160 119.0802 50.6563 20.3991 17.1650 47.3126
# 3 22.1852 50.6563 115.1877 16.0852 30.5411 25.2540
# 4 -0.6576 20.3991 16.0852 47.4922 13.8140 10.3431
# 5 8.4780 17.1650 30.5411 13.8140 23.4332 12.0995
# 6 19.8303 47.3126 25.2540 10.3431 12.0995 38.5248
#
#
#
# Elastic Compliance Matrix: (Units=1/GPa)
#
#
# Indices 1 2 3 4 5 6 
#
# 1 0.023013 -0.001754 -0.001506 0.004421 -0.003076 -0.008925
# 2 -0.001754 0.018176 -0.004237 -0.003640 0.004905 -0.019205
# 3 -0.001506 -0.004237 0.014963 0.001521 -0.017380 0.001220
# 4 0.004421 -0.003640 0.001521 0.027150 -0.016441 -0.000927
# 5 -0.003076 0.004905 -0.017380 -0.016441 0.079574 -0.013626
# 6 -0.008925 -0.019205 0.001220 -0.000927 -0.013626 0.057866
#
#
# Mechanical properties :
#
#
# Convention : Reuss Voigt Hill
#
# Bulk Modulus (GPa) = 24.29664 54.91759 39.60712
# Shear Modulus (GPa) = 20.04373 34.44909 27.24641
#
# Velocity S-wave (km/s) = 2.86413 3.75484 3.33932
# Velocity P-wave (km/s) = 4.56962 6.42451 5.57476
#
# Compressibility (1/GPa) = 0.04115795
#
# Stress axis : x y z
#
# Youngs Moduli (GPa) = 43.45407 55.01739 66.83089
#
# Poissons Ratio (x) = 0.09650 0.10064
# Poissons Ratio (y) = 0.07621 0.28318
# Poissons Ratio (z) = 0.06544 0.23312
#
# Static dielectric constant tensor:
#      x y z
#    x 1.942120 0.006170 0.026810 
#    y 0.006170 2.001710 0.047540 
#    z 0.026810 0.047540 2.087940 
# 
# From -- ./inp_files/46148.got.cif
#   From: 2010.05.17/outbox.cif.g08.bks.cpg/sg2_24_cif.got.tgz:46148.got - 2010.06.03 11:33:40.
