data_PCOD9075138
_publ_section_title
;
Structure prediction by ZEFSAII (Michael W. Deem and Ramdas Pophale) SiO2 
 PCOD9075138
Probable space group: P -1
;
_chemical_formula_sum "Si O2"
_cell_formula_units_Z 16
_cell_length_a 15.000000
_cell_length_b 15.000000
_cell_length_c 15.000000
_cell_angle_alpha 40.000000
_cell_angle_beta 160.000000
_cell_angle_gamma 140.000000
_cell_volume 725.414092
_symmetry_space_group_name_H-M "P -1"
_symmetry_group_IT_number 2
_symmetry_cell_setting 'triclinic'
loop_
_space_group_symop_operation_xyz
x,y,z
-x,-y,-z
loop_
_atom_site_type_symbol
_atom_site_label
_atom_site_fract_x
_atom_site_fract_y
_atom_site_fract_z
Si Si1 0.398547 0.226444 0.078531
Si Si2 0.580320 0.222817 0.453654
Si Si3 0.274737 0.510787 0.478119
Si Si4 0.604772 0.131174 0.931458
Si Si5 0.125563 0.070746 0.382366
Si Si6 0.804302 0.453054 0.936939
Si Si7 0.981498 0.261037 0.522165
Si Si8 0.004404 0.914822 0.949749
O O1 0.517294 0.263043 0.261856
O O2 0.671664 0.267315 0.245259
O O3 0.230970 0.061208 0.045958
O O4 0.163842 0.289537 0.762051
O O5 0.621599 0.358171 0.456133
O O6 0.850821 0.168866 0.777124
O O7 0.308876 0.098867 0.308005
O O8 0.013624 0.506605 0.173538
O O9 0.157012 0.369574 0.534460
O O10 0.534260 0.509994 0.660463
O O11 0.402284 0.118013 0.663966
O O12 0.671097 0.284899 0.924702
O O13 0.893914 0.108157 0.194567
O O14 0.500000 0.000000 0.000000
O O15 0.061592 0.901676 0.429827
O O16 0.063004 0.136585 0.176666
O O17 0.000000 0.500000 0.000000
#
# Coordination Sequence:
#
# PCOD9075138 Si02
#       8
#     2   2   2   2   2   2   2   2
#     4  11  23  42  68 103 132 180 220 280 330 381
#     4  12  25  41  69  97 140 179 226 265 330 416
#     4  12  27  47  68  97 136 182 220 276 341 404
#     4  12  24  42  70  97 128 172 227 284 337 399
#     4  11  23  40  68  97 126 170 223 273 332 393
#     4  12  28  47  68  98 140 176 227 286 344 407
#     4  11  23  44  69  99 141 170 223 277 335 396
#     4  11  23  41  65  99 138 175 220 277 329 393
#
# _framework density 22.056367999999999
#
# number of rings (size 3 to 8) (size 9 to 14) (size 15 to 20)
#    0.000    0.500    0.000    9.750    5.250    1.000 
#    0.000    0.000    0.000    0.000    0.000    0.000 
#    0.000    0.000    0.000    0.000    0.000    0.000 
#
# Total GULP energy -89173.891592 kJ/mol
# GULP energy per Si atom -5573.368225 kJ/mol
# Density = 2.200617 g / cm^3
# Si number density = 22.056368 Si / 1000 Ang^3
#
#
#
# Elastic Constant Matrix: (Units=GPa)
#
#
# Indices 1 2 3 4 5 6 
#
# 1 43.4491 5.4329 7.6525 4.7878 -4.4533 -5.1360
# 2 5.4329 90.6673 24.8231 30.5281 -7.7096 -15.4049
# 3 7.6525 24.8231 163.3334 47.4808 -7.3864 -3.9731
# 4 4.7878 30.5281 47.4808 34.6035 1.0281 -7.6598
# 5 -4.4533 -7.7096 -7.3864 1.0281 49.8447 13.9285
# 6 -5.1360 -15.4049 -3.9731 -7.6598 13.9285 37.7673
#
#
#
# Elastic Compliance Matrix: (Units=1/GPa)
#
#
# Indices 1 2 3 4 5 6 
#
# 1 0.023747 -0.000027 -0.000271 -0.002466 0.001535 0.002124
# 2 -0.000027 0.017232 0.003085 -0.018971 0.002824 0.002461
# 3 -0.000271 0.003085 0.011184 -0.018697 0.003217 -0.002581
# 4 -0.002466 -0.018971 -0.018697 0.073818 -0.009840 0.008560
# 5 0.001535 0.002824 0.003217 -0.009840 0.023857 -0.009095
# 6 0.002124 0.002461 -0.002581 0.008560 -0.009095 0.032589
#
#
# Mechanical properties :
#
#
# Convention : Reuss Voigt Hill
#
# Bulk Modulus (GPa) = 17.32005 41.47408 29.39707
# Shear Modulus (GPa) = 25.49718 41.74587 33.62153
#
# Velocity S-wave (km/s) = 3.40369 4.35523 3.90852
# Velocity P-wave (km/s) = 4.82871 6.64343 5.80739
#
# Compressibility (1/GPa) = 0.05773655
#
# Stress axis : x y z
#
# Youngs Moduli (GPa) = 42.11140 58.03128 89.41143
#
# Poissons Ratio (x) = 0.00158 0.02419
# Poissons Ratio (y) = 0.00115 -0.27580
# Poissons Ratio (z) = 0.01139 -0.17901
#
# Static dielectric constant tensor:
#      x y z
#    x 1.911310 0.007470 -0.007990 
#    y 0.007470 1.903310 -0.094470 
#    z -0.007990 -0.094470 1.791200 
# 
# From -- ./inp_files/534298.got.cif
#   From: 2010.05.17/outbox.ucp.g08.bks.cvg/sg2_268_cif.got.tgz:534298.got - 2010.06.11 11:32:03.
