data_PCOD9075675
_publ_section_title
;
Structure prediction by ZEFSAII (Michael W. Deem and Ramdas Pophale) SiO2 
 PCOD9075675
Probable space group: P -1
;
_chemical_formula_sum "Si O2"
_cell_formula_units_Z 10
_cell_length_a 12.000000
_cell_length_b 6.000000
_cell_length_c 15.000000
_cell_angle_alpha 120.000000
_cell_angle_beta 30.000000
_cell_angle_gamma 130.000000
_cell_volume 409.111196
_symmetry_space_group_name_H-M "P -1"
_symmetry_group_IT_number 2
_symmetry_cell_setting 'triclinic'
loop_
_space_group_symop_operation_xyz
x,y,z
-x,-y,-z
loop_
_atom_site_type_symbol
_atom_site_label
_atom_site_fract_x
_atom_site_fract_y
_atom_site_fract_z
Si Si1 0.216163 0.299289 0.862525
Si Si2 0.900233 0.806785 0.277161
Si Si3 0.645453 0.162514 0.588203
Si Si4 0.966229 0.246602 0.629324
Si Si5 0.582219 0.040678 0.096305
O O1 0.164630 0.352491 0.806067
O O2 0.453489 0.241142 0.686181
O O3 0.290927 0.602461 0.923235
O O4 0.000000 0.000000 0.000000
O O5 0.910140 0.683286 0.343532
O O6 0.704533 0.928519 0.452462
O O7 0.198600 0.037980 0.097725
O O8 0.910300 0.463462 0.458171
O O9 0.527481 0.057809 0.747087
O O10 0.666659 0.116031 0.822336
O O11 0.000000 0.000000 0.500000
#
# Coordination Sequence:
#
# PCOD9075675 Si02
#       5
#     2   2   2   2   2
#     4  12  27  50  76 109 151 192 247 305 363 438
#     4  12  28  46  79 110 145 198 246 298 374 432
#     4  12  26  48  79 105 152 189 249 300 368 428
#     4  12  26  50  75 111 149 192 246 306 363 437
#     4  12  27  51  76 108 152 192 247 303 364 442
#
# _framework density 24.443231999999998
#
# number of rings (size 3 to 8) (size 9 to 14) (size 15 to 20)
#    0.000    0.000    6.000    2.400    2.800    4.000 
#    0.000    0.000    0.000    0.000    0.000    0.000 
#    0.000    0.000    0.000    0.000    0.000    0.000 
#
# Total GULP energy -55936.868397 kJ/mol
# GULP energy per Si atom -5593.686840 kJ/mol
# Density = 2.438760 g / cm^3
# Si number density = 24.443232 Si / 1000 Ang^3
#
#
#
# Elastic Constant Matrix: (Units=GPa)
#
#
# Indices 1 2 3 4 5 6 
#
# 1 127.8677 19.7275 18.3899 -4.3802 -0.2391 1.7294
# 2 19.7275 64.7283 9.4397 -34.7901 16.3675 -6.9825
# 3 18.3899 9.4397 148.5080 -7.8307 -1.4170 -8.3548
# 4 -4.3802 -34.7901 -7.8307 41.0596 -8.5161 -0.6105
# 5 -0.2391 16.3675 -1.4170 -8.5161 63.1161 -2.7697
# 6 1.7294 -6.9825 -8.3548 -0.6105 -2.7697 15.4579
#
#
#
# Elastic Compliance Matrix: (Units=1/GPa)
#
#
# Indices 1 2 3 4 5 6 
#
# 1 0.008668 -0.004819 -0.001148 -0.003300 0.000646 -0.003782
# 2 -0.004819 0.035339 0.000803 0.028904 -0.004507 0.017270
# 3 -0.001148 0.000803 0.007194 0.002087 0.000430 0.004539
# 4 -0.003300 0.028904 0.002087 0.049113 -0.000111 0.016473
# 5 0.000646 -0.004507 0.000430 -0.000111 0.017061 0.001177
# 6 -0.003782 0.017270 0.004539 0.016473 0.001177 0.076231
#
#
# Mechanical properties :
#
#
# Convention : Reuss Voigt Hill
#
# Bulk Modulus (GPa) = 24.46578 48.46868 36.46723
# Shear Modulus (GPa) = 22.98236 43.49651 33.23944
#
# Velocity S-wave (km/s) = 3.06965 4.22298 3.69163
# Velocity P-wave (km/s) = 4.75338 6.60683 5.75521
#
# Compressibility (1/GPa) = 0.04087341
#
# Stress axis : x y z
#
# Youngs Moduli (GPa) = 115.36026 28.29772 139.00086
#
# Poissons Ratio (x) = 0.13638 0.15953
# Poissons Ratio (y) = 0.55597 -0.11165
# Poissons Ratio (z) = 0.13240 -0.02273
#
# Static dielectric constant tensor:
#      x y z
#    x 2.014120 0.045410 -0.053910 
#    y 0.045410 1.953020 -0.032410 
#    z -0.053910 -0.032410 1.961870 
# 
# From -- ./inp_files/16074.got.cif
#   From: 2010.05.17/outbox.ucp.g08.bks.cvg/sg2_9_cif.got.tgz:16074.got - 2010.06.11 11:32:03.
