data_PCOD9075580
_publ_section_title
;
Structure prediction by ZEFSAII (Michael W. Deem and Ramdas Pophale) SiO2 
 PCOD9075580
Probable space group: P -1
;
_chemical_formula_sum "Si O2"
_cell_formula_units_Z 16
_cell_length_a 15.908407
_cell_length_b 6.892813
_cell_length_c 13.650806
_cell_angle_alpha 48.805035
_cell_angle_beta 34.455210
_cell_angle_gamma 58.891810
_cell_volume 636.015503
_symmetry_space_group_name_H-M "P -1"
_symmetry_group_IT_number 2
_symmetry_cell_setting 'triclinic'
loop_
_space_group_symop_operation_xyz
x,y,z
-x,-y,-z
loop_
_atom_site_type_symbol
_atom_site_label
_atom_site_fract_x
_atom_site_fract_y
_atom_site_fract_z
Si Si1 0.538828 0.328145 0.779760
Si Si2 0.196747 0.203774 0.812003
Si Si3 0.001535 0.735748 0.208768
Si Si4 0.912512 0.939449 0.466847
Si Si5 0.272357 0.448511 0.098460
Si Si6 0.697182 0.226249 0.462944
Si Si7 0.835236 0.294817 0.609165
Si Si8 0.536666 0.129632 0.299011
O O1 0.375914 0.256557 0.004280
O O2 0.599816 0.207124 0.663606
O O3 0.660861 0.313136 0.753301
O O4 0.522005 0.627987 0.668051
O O5 0.259144 0.477417 0.703907
O O6 0.333624 0.022743 0.727414
O O7 0.109674 0.264342 0.776084
O O8 0.079087 0.022007 0.047327
O O9 0.909591 0.585600 0.432416
O O10 0.141303 0.553627 0.123068
O O11 0.081979 0.853508 0.335556
O O12 0.844848 0.083060 0.393221
O O13 0.891943 0.146352 0.506798
O O14 0.803643 0.696907 0.689192
O O15 0.383137 0.703369 0.924156
O O16 0.596363 0.068838 0.535462
#
# Coordination Sequence:
#
# PCOD9075580 Si02
#       8
#     2   2   2   2   2   2   2   2
#     4   9  19  36  53  84 102 141 178 215 267 305
#     4  10  18  32  54  79 104 147 175 216 263 313
#     4   9  16  32  54  79 103 140 183 209 268 315
#     4   9  17  30  55  80 105 140 178 210 265 319
#     4   8  18  34  53  80 108 138 170 225 264 303
#     4  11  20  34  56  81 106 144 178 209 269 318
#     4   9  16  31  53  82 102 136 182 217 254 324
#     4   9  21  36  51  80 113 136 175 224 257 312
#
# _framework density 25.156621000000001
#
# number of rings (size 3 to 8) (size 9 to 14) (size 15 to 20)
#    0.750    2.000    2.500    0.375    0.000    3.000 
#    0.000    0.625    0.000    6.000    0.000    0.000 
#    0.000    0.000    0.000    0.000    0.000    0.000 
#
# Total GULP energy -89338.058737 kJ/mol
# GULP energy per Si atom -5583.628671 kJ/mol
# Density = 2.509936 g / cm^3
# Si number density = 25.156621 Si / 1000 Ang^3
#
#
#
# Elastic Constant Matrix: (Units=GPa)
#
#
# Indices 1 2 3 4 5 6 
#
# 1 65.7435 39.2124 29.0514 10.6948 -6.9201 -18.3453
# 2 39.2124 134.3397 38.5923 4.6614 -2.9291 -39.3478
# 3 29.0514 38.5923 88.7673 -20.1045 6.6963 -2.2081
# 4 10.6948 4.6614 -20.1045 51.6661 5.7078 -8.3859
# 5 -6.9201 -2.9291 6.6963 5.7078 27.5128 -0.5313
# 6 -18.3453 -39.3478 -2.2081 -8.3859 -0.5313 38.5794
#
#
#
# Elastic Compliance Matrix: (Units=1/GPa)
#
#
# Indices 1 2 3 4 5 6 
#
# 1 0.025625 -0.001546 -0.010384 -0.009075 0.010849 0.008191
# 2 -0.001546 0.013081 -0.005392 -0.001314 0.002821 0.012051
# 3 -0.010384 -0.005392 0.019960 0.010379 -0.010336 -0.007181
# 4 -0.009075 -0.001314 0.010379 0.026642 -0.010464 0.000586
# 5 0.010849 0.002821 -0.010336 -0.010464 0.044174 0.005779
# 6 0.008191 0.012051 -0.007181 0.000586 0.005779 0.041902
#
#
# Mechanical properties :
#
#
# Convention : Reuss Voigt Hill
#
# Bulk Modulus (GPa) = 41.62883 55.84029 48.73456
# Shear Modulus (GPa) = 23.36066 35.68464 29.52265
#
# Velocity S-wave (km/s) = 3.05061 3.77038 3.42943
# Velocity P-wave (km/s) = 5.38443 6.41869 5.92418
#
# Compressibility (1/GPa) = 0.02402181
#
# Stress axis : x y z
#
# Youngs Moduli (GPa) = 39.02384 76.44863 50.10080
#
# Poissons Ratio (x) = 0.11820 0.52026
# Poissons Ratio (y) = 0.06033 0.27012
# Poissons Ratio (z) = 0.40524 0.41218
#
# Static dielectric constant tensor:
#      x y z
#    x 1.995430 0.058270 0.022610 
#    y 0.058270 2.027400 0.011870 
#    z 0.022610 0.011870 2.035030 
# 
# From -- ./inp_files/575211.got.cif
#   From: 2010.05.17/outbox.cif.g08.bks.cpg/sg2_288_cif.got.tgz:575211.got - 2010.06.03 11:33:40.
