data_PCOD9075271
_publ_section_title
;
Structure prediction by ZEFSAII (Michael W. Deem and Ramdas Pophale) SiO2 
 PCOD9075271
Probable space group: P -1
;
_chemical_formula_sum "Si O2"
_cell_formula_units_Z 14
_cell_length_a 15.000000
_cell_length_b 15.000000
_cell_length_c 9.000000
_cell_angle_alpha 130.000000
_cell_angle_beta 110.000000
_cell_angle_gamma 30.000000
_cell_volume 642.379314
_symmetry_space_group_name_H-M "P -1"
_symmetry_group_IT_number 2
_symmetry_cell_setting 'triclinic'
loop_
_space_group_symop_operation_xyz
x,y,z
-x,-y,-z
loop_
_atom_site_type_symbol
_atom_site_label
_atom_site_fract_x
_atom_site_fract_y
_atom_site_fract_z
Si Si1 0.166217 0.990773 0.623754
Si Si2 0.451712 0.172912 0.066792
Si Si3 0.333668 0.963012 0.254167
Si Si4 0.372284 0.462388 0.557085
Si Si5 0.232313 0.591398 0.928816
Si Si6 0.956459 0.658576 0.242740
Si Si7 0.911420 0.000376 0.740717
O O1 0.175988 0.110063 0.691280
O O2 0.419164 0.682041 0.460537
O O3 0.077399 0.026568 0.461536
O O4 0.994130 0.176622 0.861262
O O5 0.464130 0.268269 0.285126
O O6 0.195013 0.448430 0.179740
O O7 0.605640 0.037215 0.866647
O O8 0.500000 0.000000 0.000000
O O9 0.569393 0.670573 0.139641
O O10 0.196572 0.991250 0.225337
O O11 0.186732 0.201428 0.540063
O O12 0.287231 0.486182 0.681129
O O13 0.151319 0.758343 0.680458
O O14 0.236175 0.724232 0.033687
O O15 0.000000 0.500000 0.000000
#
# Coordination Sequence:
#
# PCOD9075271 Si02
#       7
#     2   2   2   2   2   2   2
#     4  11  24  44  70 101 142 187 232 285 342 413
#     4  12  27  46  70 103 141 180 230 292 352 411
#     4  11  24  47  73  99 144 184 224 291 346 413
#     4  12  25  45  67 107 142 179 244 283 334 420
#     4  12  24  44  74 101 141 193 229 284 347 406
#     4  11  23  46  71 100 135 178 232 285 348 412
#     4  11  24  48  67 105 147 182 235 286 343 407
#
# _framework density 21.793977000000002
#
# number of rings (size 3 to 8) (size 9 to 14) (size 15 to 20)
#    0.000    0.571    7.143    2.143    2.000    2.857 
#    0.000    0.000    0.000    0.000    0.000    0.000 
#    0.000    0.000    0.000    0.000    0.000    0.000 
#
# Total GULP energy -78054.079148 kJ/mol
# GULP energy per Si atom -5575.291368 kJ/mol
# Density = 2.174437 g / cm^3
# Si number density = 21.793977 Si / 1000 Ang^3
#
#
#
# Elastic Constant Matrix: (Units=GPa)
#
#
# Indices 1 2 3 4 5 6 
#
# 1 84.4003 25.9440 50.9277 -8.2559 -50.6613 16.5184
# 2 25.9440 114.3353 23.7119 8.1164 -21.4732 -14.1122
# 3 50.9277 23.7119 138.9159 -6.7862 -49.6510 11.4970
# 4 -8.2559 8.1164 -6.7862 32.6882 5.0829 -11.5904
# 5 -50.6613 -21.4732 -49.6510 5.0829 65.3898 10.6738
# 6 16.5184 -14.1122 11.4970 -11.5904 10.6738 37.7773
#
#
#
# Elastic Compliance Matrix: (Units=1/GPa)
#
#
# Indices 1 2 3 4 5 6 
#
# 1 0.040107 -0.006305 0.001578 -0.004886 0.035802 -0.031988
# 2 -0.006305 0.010880 -0.001603 -0.001210 -0.003741 0.007995
# 3 0.001578 -0.001603 0.011355 -0.001439 0.010773 -0.008230
# 4 -0.004886 -0.001210 -0.001439 0.036897 -0.010838 0.016505
# 5 0.035802 -0.003741 0.010773 -0.010838 0.057331 -0.039855
# 6 -0.031988 0.007995 -0.008230 0.016505 -0.039855 0.062274
#
#
# Mechanical properties :
#
#
# Convention : Reuss Voigt Hill
#
# Bulk Modulus (GPa) = 20.12883 59.86876 39.99880
# Shear Modulus (GPa) = 20.15592 42.97557 31.56575
#
# Velocity S-wave (km/s) = 3.04442 4.44543 3.80987
# Velocity P-wave (km/s) = 4.64908 7.34024 6.14382
#
# Compressibility (1/GPa) = 0.04967998
#
# Stress axis : x y z
#
# Youngs Moduli (GPa) = 24.93316 91.91495 88.06487
#
# Poissons Ratio (x) = 0.57956 -0.13892
# Poissons Ratio (y) = 0.15721 0.14119
# Poissons Ratio (z) = -0.03933 0.14736
#
# Static dielectric constant tensor:
#      x y z
#    x 1.891370 -0.086330 0.148280 
#    y -0.086330 1.917970 -0.103100 
#    z 0.148280 -0.103100 2.014490 
# 
# From -- ./inp_files/315941.got.cif
#   From: 2010.05.17/outbox.ucp.g08.bks.cvg/sg2_158_cif.got.tgz:315941.got - 2010.06.11 11:32:03.
