data_PCOD9075194
_publ_section_title
;
Structure prediction by ZEFSAII (Michael W. Deem and Ramdas Pophale) SiO2 
 PCOD9075194
Probable space group: P -1
;
_chemical_formula_sum "Si O2"
_cell_formula_units_Z 16
_cell_length_a 24.000000
_cell_length_b 9.000000
_cell_length_c 21.000000
_cell_angle_alpha 30.000000
_cell_angle_beta 20.000000
_cell_angle_gamma 30.000000
_cell_volume 738.640068
_symmetry_space_group_name_H-M "P -1"
_symmetry_group_IT_number 2
_symmetry_cell_setting 'triclinic'
loop_
_space_group_symop_operation_xyz
x,y,z
-x,-y,-z
loop_
_atom_site_type_symbol
_atom_site_label
_atom_site_fract_x
_atom_site_fract_y
_atom_site_fract_z
Si Si1 0.782338 0.829500 0.472115
Si Si2 0.418420 0.843087 0.310825
Si Si3 0.643590 0.781587 0.881269
Si Si4 0.231287 0.174543 0.022416
Si Si5 0.353484 0.209543 0.625538
Si Si6 0.011665 0.715262 0.970064
Si Si7 0.990653 0.134225 0.531450
Si Si8 0.427411 0.849486 0.806190
O O1 0.902697 0.505684 0.489426
O O2 0.633833 0.732563 0.630035
O O3 0.673920 0.035064 0.568995
O O4 0.892389 0.031040 0.245957
O O5 0.341274 0.558930 0.485865
O O6 0.403417 0.139452 0.171342
O O7 0.623636 0.709737 0.142071
O O8 0.812676 0.889878 0.659072
O O9 0.649710 0.431405 0.024196
O O10 0.500000 0.000000 0.000000
O O11 0.116900 0.022590 0.246995
O O12 0.115133 0.469370 0.000919
O O13 0.337871 0.955727 0.931576
O O14 0.500000 0.000000 0.500000
O O15 0.400313 0.130197 0.679758
O O16 0.170793 0.146784 0.849685
O O17 0.000000 0.500000 0.000000
O O18 0.000000 0.000000 0.500000
#
# Coordination Sequence:
#
# PCOD9075194 Si02
#       8
#     2   2   2   2   2   2   2   2
#     4  11  24  43  70  97 133 177 226 284 330 407
#     4  11  23  43  67  97 132 177 227 271 343 399
#     4  12  25  42  65  91 134 177 219 279 337 403
#     4  11  24  43  70  97 133 177 226 284 330 407
#     4  12  25  41  65  99 137 176 227 280 339 397
#     4  12  23  43  69 101 134 174 231 275 332 403
#     4  12  27  44  67 101 137 174 226 282 342 402
#     4  11  23  43  67  97 132 177 227 271 343 399
#
# _framework density 21.661429999999999
#
# number of rings (size 3 to 8) (size 9 to 14) (size 15 to 20)
#    0.000    0.500    2.500    6.000    0.000    7.000 
#    0.000    1.875    0.000    0.000    0.000    0.000 
#    0.000    0.000    0.000    0.000    0.000    0.000 
#
# Total GULP energy -89170.604628 kJ/mol
# GULP energy per Si atom -5573.162789 kJ/mol
# Density = 2.161213 g / cm^3
# Si number density = 21.661430 Si / 1000 Ang^3
#
#
#
# Elastic Constant Matrix: (Units=GPa)
#
#
# Indices 1 2 3 4 5 6 
#
# 1 36.4472 1.1742 38.0517 2.0554 13.0741 -13.8380
# 2 1.1742 58.1154 52.7471 -3.2867 12.8168 -5.6218
# 3 38.0517 52.7471 239.2929 4.7720 32.9862 -9.1987
# 4 2.0554 -3.2867 4.7720 51.2396 -9.0401 5.0436
# 5 13.0741 12.8168 32.9862 -9.0401 31.9067 -3.7586
# 6 -13.8380 -5.6218 -9.1987 5.0436 -3.7586 32.7762
#
#
#
# Elastic Compliance Matrix: (Units=1/GPa)
#
#
# Indices 1 2 3 4 5 6 
#
# 1 0.047236 0.010169 -0.006759 -0.005237 -0.015723 0.018793
# 2 0.010169 0.024418 -0.005745 -0.000205 -0.007381 0.006054
# 3 -0.006759 -0.005745 0.006800 -0.000963 -0.002469 -0.002065
# 4 -0.005237 -0.000205 -0.000963 0.021841 0.008839 -0.004864
# 5 -0.015723 -0.007381 -0.002469 0.008839 0.045244 -0.004769
# 6 0.018793 0.006054 -0.002065 -0.004864 -0.004769 0.039105
#
#
# Mechanical properties :
#
#
# Convention : Reuss Voigt Hill
#
# Bulk Modulus (GPa) = 13.55284 57.53351 35.54318
# Shear Modulus (GPa) = 23.37443 39.31002 31.34222
#
# Velocity S-wave (km/s) = 3.28850 4.26461 3.80796
# Velocity P-wave (km/s) = 4.54854 7.13212 5.98149
#
# Compressibility (1/GPa) = 0.07378526
#
# Stress axis : x y z
#
# Youngs Moduli (GPa) = 21.17020 40.95320 147.05090
#
# Poissons Ratio (x) = -0.41647 0.99388
# Poissons Ratio (y) = -0.21529 0.84485
# Poissons Ratio (z) = 0.14308 0.23529
#
# Static dielectric constant tensor:
#      x y z
#    x 1.959340 -0.073820 -0.178940 
#    y -0.073820 1.848270 0.097790 
#    z -0.178940 0.097790 1.791060 
# 
# From -- ./inp_files/601904.got.cif
#   From: 2010.05.17/outbox.ucp.g08.bks.cvg/sg2_301_cif.got.tgz:601904.got - 2010.06.11 11:32:03.
