data_PCOD9075522
_publ_section_title
;
Structure prediction by ZEFSAII (Michael W. Deem and Ramdas Pophale) SiO2 
 PCOD9075522
Probable space group: P -1
;
_chemical_formula_sum "Si O2"
_cell_formula_units_Z 12
_cell_length_a 6.000000
_cell_length_b 15.000000
_cell_length_c 12.000000
_cell_angle_alpha 140.000000
_cell_angle_beta 130.000000
_cell_angle_gamma 70.000000
_cell_volume 506.387931
_symmetry_space_group_name_H-M "P -1"
_symmetry_group_IT_number 2
_symmetry_cell_setting 'triclinic'
loop_
_space_group_symop_operation_xyz
x,y,z
-x,-y,-z
loop_
_atom_site_type_symbol
_atom_site_label
_atom_site_fract_x
_atom_site_fract_y
_atom_site_fract_z
Si Si1 0.297810 0.581864 0.946651
Si Si2 0.914385 0.963312 0.676801
Si Si3 0.756829 0.348189 0.240583
Si Si4 0.221425 0.824559 0.320972
Si Si5 0.721730 0.782310 0.825607
Si Si6 0.152434 0.708688 0.428386
O O1 0.414277 0.621863 0.896950
O O2 0.973884 0.455452 0.724656
O O3 0.500000 0.500000 0.000000
O O4 0.264656 0.720172 0.135176
O O5 0.962361 0.070754 0.686920
O O6 0.559586 0.928894 0.559176
O O7 0.981127 0.813473 0.530412
O O8 0.129228 0.053863 0.927763
O O9 0.513056 0.290470 0.211457
O O10 0.000000 0.500000 0.500000
O O11 0.989044 0.266760 0.177656
O O12 0.110106 0.728039 0.302034
O O13 0.499636 0.766587 0.634685
#
# Coordination Sequence:
#
# PCOD9075522 Si02
#       6
#     2   2   2   2   2   2
#     4  12  26  47  76 113 145 198 257 317 372 448
#     4  11  26  49  69 114 147 206 245 315 379 452
#     4  12  28  52  78 113 155 199 252 312 384 444
#     4  11  26  47  75 105 155 195 256 309 385 443
#     4  12  29  48  82 110 153 203 252 312 375 455
#     4  12  27  45  77 108 150 198 259 310 376 451
#
# _framework density 23.697247000000001
#
# number of rings (size 3 to 8) (size 9 to 14) (size 15 to 20)
#    0.000    0.333    5.000    2.000    9.333    0.667 
#    0.000    0.000    0.000    0.000    0.000    0.000 
#    0.000    0.000    0.000    0.000    0.000    0.000 
#
# Total GULP energy -67076.505806 kJ/mol
# GULP energy per Si atom -5589.708817 kJ/mol
# Density = 2.364331 g / cm^3
# Si number density = 23.697247 Si / 1000 Ang^3
#
#
#
# Elastic Constant Matrix: (Units=GPa)
#
#
# Indices 1 2 3 4 5 6 
#
# 1 79.0289 3.4419 2.8568 4.1652 -12.4297 4.4349
# 2 3.4419 65.2843 -1.1191 -13.0738 3.1160 2.9027
# 3 2.8568 -1.1191 130.6523 2.8391 0.5815 0.1224
# 4 4.1652 -13.0738 2.8391 47.8629 -1.8957 3.6303
# 5 -12.4297 3.1160 0.5815 -1.8957 35.0091 -8.4635
# 6 4.4349 2.9027 0.1224 3.6303 -8.4635 41.8463
#
#
#
# Elastic Compliance Matrix: (Units=1/GPa)
#
#
# Indices 1 2 3 4 5 6 
#
# 1 0.013552 -0.001192 -0.000300 -0.001277 0.004787 -0.000274
# 2 -0.001192 0.016497 0.000077 0.004663 -0.002086 -0.001845
# 3 -0.000300 0.000077 0.007671 -0.000417 -0.000267 -0.000014
# 4 -0.001277 0.004663 -0.000417 0.022460 -0.000170 -0.002170
# 5 0.004787 -0.002086 -0.000267 -0.000170 0.031921 0.006109
# 6 -0.000274 -0.001845 -0.000014 -0.002170 0.006109 0.025478
#
#
# Mechanical properties :
#
#
# Convention : Reuss Voigt Hill
#
# Bulk Modulus (GPa) = 28.66017 31.70275 30.18146
# Shear Modulus (GPa) = 37.86753 42.92940 40.39847
#
# Velocity S-wave (km/s) = 4.00180 4.26088 4.13337
# Velocity P-wave (km/s) = 5.78559 6.13303 5.96185
#
# Compressibility (1/GPa) = 0.03489162
#
# Stress axis : x y z
#
# Youngs Moduli (GPa) = 73.79033 60.61671 130.35443
#
# Poissons Ratio (x) = 0.07223 0.03909
# Poissons Ratio (y) = 0.08793 -0.01004
# Poissons Ratio (z) = 0.02213 -0.00467
#
# Static dielectric constant tensor:
#      x y z
#    x 1.931330 0.008470 0.064360 
#    y 0.008470 1.940800 -0.031200 
#    z 0.064360 -0.031200 1.935910 
# 
# From -- ./inp_files/21162.got.cif
#   From: 2010.05.17/outbox.ucp.g08.bks.cvg/sg2_11_cif.got.tgz:21162.got - 2010.06.11 11:32:03.
