data_PCOD9075605
_publ_section_title
;
Structure prediction by ZEFSAII (Michael W. Deem and Ramdas Pophale) SiO2 
 PCOD9075605
Probable space group: P -1
;
_chemical_formula_sum "Si O2"
_cell_formula_units_Z 12
_cell_length_a 12.000000
_cell_length_b 12.000000
_cell_length_c 12.000000
_cell_angle_alpha 20.000000
_cell_angle_beta 130.000000
_cell_angle_gamma 130.000000
_cell_volume 447.757664
_symmetry_space_group_name_H-M "P -1"
_symmetry_group_IT_number 2
_symmetry_cell_setting 'triclinic'
loop_
_space_group_symop_operation_xyz
x,y,z
-x,-y,-z
loop_
_atom_site_type_symbol
_atom_site_label
_atom_site_fract_x
_atom_site_fract_y
_atom_site_fract_z
Si Si1 0.593835 0.443930 0.501046
Si Si2 0.144467 0.755534 0.866085
Si Si3 0.181742 0.991416 0.908325
Si Si4 0.900048 0.222373 0.619933
Si Si5 0.680267 0.749503 0.622281
Si Si6 0.677832 0.641219 0.981573
O O1 0.500000 0.500000 0.500000
O O2 0.482553 0.231258 0.544586
O O3 0.659097 0.797319 0.161225
O O4 0.760473 0.355511 0.707072
O O5 0.150467 0.976919 0.770326
O O6 0.181523 0.983503 0.570374
O O7 0.284077 0.564658 0.128615
O O8 0.000000 0.500000 0.000000
O O9 0.031674 0.043852 0.822579
O O10 0.000000 0.500000 0.500000
O O11 0.760428 0.941545 0.831967
O O12 0.798428 0.399308 0.305906
O O13 0.687308 0.729599 0.775788
O O14 0.500000 0.500000 0.000000
#
# Coordination Sequence:
#
# PCOD9075605 Si02
#       6
#     2   2   2   2   2   2
#     4  12  23  45  76 117 155 209 254 312 401 482
#     4  12  24  43  73 113 157 208 250 324 406 484
#     4  12  25  46  77 112 161 200 262 322 395 481
#     4  12  29  56  83 117 156 216 280 343 407 480
#     4  12  26  45  77 114 162 199 265 326 398 485
#     4  12  29  56  84 117 157 214 280 343 409 478
#
# _framework density 26.800211000000001
#
# number of rings (size 3 to 8) (size 9 to 14) (size 15 to 20)
#    0.000    0.000    3.333    6.000    2.333    2.667 
#    0.000    0.000    0.000    0.000    0.000    0.000 
#    0.000    0.000    0.000    0.000    0.000    0.000 
#
# Total GULP energy -66833.882939 kJ/mol
# GULP energy per Si atom -5569.490245 kJ/mol
# Density = 2.673921 g / cm^3
# Si number density = 26.800211 Si / 1000 Ang^3
#
#
#
# Elastic Constant Matrix: (Units=GPa)
#
#
# Indices 1 2 3 4 5 6 
#
# 1 167.1767 88.3647 66.7681 0.6512 9.9872 23.6783
# 2 88.3647 204.5604 76.0979 3.3993 -3.1422 44.2913
# 3 66.7681 76.0979 71.2112 20.5149 8.5523 10.0829
# 4 0.6512 3.3993 20.5149 53.9003 15.5512 -0.6986
# 5 9.9872 -3.1422 8.5523 15.5512 50.6673 0.0150
# 6 23.6783 44.2913 10.0829 -0.6986 0.0150 52.6175
#
#
#
# Elastic Compliance Matrix: (Units=1/GPa)
#
#
# Indices 1 2 3 4 5 6 
#
# 1 0.010756 -0.000322 -0.010423 0.004317 -0.001705 -0.002514
# 2 -0.000322 0.010566 -0.011124 0.003002 0.001677 -0.006578
# 3 -0.010423 -0.011124 0.038824 -0.013570 -0.001025 0.006434
# 4 0.004317 0.003002 -0.013570 0.025220 -0.006115 -0.001533
# 5 -0.001705 0.001677 -0.001025 -0.006115 0.022227 -0.000535
# 6 -0.002514 -0.006578 0.006434 -0.001533 -0.000535 0.024420
#
#
# Mechanical properties :
#
#
# Convention : Reuss Voigt Hill
#
# Bulk Modulus (GPa) = 60.94838 100.60107 80.77472
# Shear Modulus (GPa) = 27.59046 45.55154 36.57100
#
# Velocity S-wave (km/s) = 3.21204 4.12718 3.69803
# Velocity P-wave (km/s) = 6.04545 7.76726 6.95981
#
# Compressibility (1/GPa) = 0.01640733
#
# Stress axis : x y z
#
# Youngs Moduli (GPa) = 92.96959 94.64291 25.75709
#
# Poissons Ratio (x) = 0.03052 0.26848
# Poissons Ratio (y) = 0.02998 0.28651
# Poissons Ratio (z) = 0.96907 1.05278
#
# Static dielectric constant tensor:
#      x y z
#    x 2.031180 -0.024400 0.034610 
#    y -0.024400 1.983760 0.000720 
#    z 0.034610 0.000720 2.270400 
# 
# From -- ./inp_files/424790.got.cif
#   From: 2010.05.17/outbox.ucp.g08.bks.cvg/sg2_213_cif.got.tgz:424790.got - 2010.06.11 11:32:03.
