data_PCOD9075270
_publ_section_title
;
Structure prediction by ZEFSAII (Michael W. Deem and Ramdas Pophale) SiO2 
 PCOD9075270
Probable space group: P -1
;
_chemical_formula_sum "Si O2"
_cell_formula_units_Z 12
_cell_length_a 9.000000
_cell_length_b 9.000000
_cell_length_c 15.000000
_cell_angle_alpha 120.000000
_cell_angle_beta 110.000000
_cell_angle_gamma 30.000000
_cell_volume 514.363264
_symmetry_space_group_name_H-M "P -1"
_symmetry_group_IT_number 2
_symmetry_cell_setting 'triclinic'
loop_
_space_group_symop_operation_xyz
x,y,z
-x,-y,-z
loop_
_atom_site_type_symbol
_atom_site_label
_atom_site_fract_x
_atom_site_fract_y
_atom_site_fract_z
Si Si1 0.917295 0.260975 0.267632
Si Si2 0.276121 0.425747 0.265061
Si Si3 0.824938 0.682295 0.113562
Si Si4 0.077136 0.364885 0.574704
Si Si5 0.432163 0.424517 0.884265
Si Si6 0.862260 0.064006 0.587387
O O1 0.729036 0.353720 0.173090
O O2 0.802074 0.567096 0.339298
O O3 0.255938 0.941344 0.200833
O O4 0.952749 0.151972 0.345170
O O5 0.194997 0.439578 0.354086
O O6 0.323577 0.588772 0.322777
O O7 0.988147 0.647132 0.211697
O O8 0.520342 0.077540 0.162481
O O9 0.755318 0.558683 0.103863
O O10 0.000000 0.500000 0.000000
O O11 0.000000 0.500000 0.500000
O O12 0.255824 0.018048 0.490652
O O13 0.500000 0.500000 0.000000
O O14 0.000000 0.000000 0.500000
#
# Coordination Sequence:
#
# PCOD9075270 Si02
#       6
#     2   2   2   2   2   2
#     4  11  23  46  74 106 147 190 238 304 357 432
#     4  11  23  46  70 106 150 181 238 298 366 437
#     4  12  26  47  74 102 144 192 243 303 369 426
#     4   9  18  42  73 104 143 188 237 293 363 431
#     4  12  26  47  74 105 141 190 253 302 361 430
#     4   9  22  44  73 112 147 191 238 295 366 443
#
# _framework density 23.329815
#
# number of rings (size 3 to 8) (size 9 to 14) (size 15 to 20)
#    0.000    1.333    3.333    1.000    2.333    1.333 
#    0.000   33.333    0.000    0.000    0.000    0.000 
#    0.000    0.000    0.000    0.000    0.000    0.000 
#
# Total GULP energy -66903.018235 kJ/mol
# GULP energy per Si atom -5575.251520 kJ/mol
# Density = 2.327672 g / cm^3
# Si number density = 23.329815 Si / 1000 Ang^3
#
#
#
# Elastic Constant Matrix: (Units=GPa)
#
#
# Indices 1 2 3 4 5 6 
#
# 1 102.4295 27.7931 58.1164 6.3809 -20.2475 31.6319
# 2 27.7931 39.8067 11.8418 -14.9261 -14.2628 13.0015
# 3 58.1164 11.8418 165.8028 -15.5388 -12.0277 13.8699
# 4 6.3809 -14.9261 -15.5388 53.5055 7.8610 2.4631
# 5 -20.2475 -14.2628 -12.0277 7.8610 57.4770 1.2554
# 6 31.6319 13.0015 13.8699 2.4631 1.2554 44.6126
#
#
#
# Elastic Compliance Matrix: (Units=1/GPa)
#
#
# Indices 1 2 3 4 5 6 
#
# 1 0.020062 -0.010413 -0.005885 -0.007240 0.004440 -0.009085
# 2 -0.010413 0.040223 0.002870 0.012798 0.005296 -0.006087
# 3 -0.005885 0.002870 0.008190 0.003882 -0.000191 0.000581
# 4 -0.007240 0.012798 0.003882 0.024581 -0.001900 -0.001107
# 5 0.004440 0.005296 -0.000191 -0.001900 0.020608 -0.005108
# 6 -0.009085 -0.006087 0.000581 -0.001107 -0.005108 0.030655
#
#
# Mechanical properties :
#
#
# Convention : Reuss Voigt Hill
#
# Bulk Modulus (GPa) = 24.02733 55.94905 39.98819
# Shear Modulus (GPa) = 27.02016 45.13821 36.07919
#
# Velocity S-wave (km/s) = 3.40690 4.40339 3.93680
# Velocity P-wave (km/s) = 5.07910 7.06307 6.15160
#
# Compressibility (1/GPa) = 0.04161927
#
# Stress axis : x y z
#
# Youngs Moduli (GPa) = 49.84658 24.86171 122.09458
#
# Poissons Ratio (x) = 0.25888 0.71848
# Poissons Ratio (y) = 0.51905 -0.35041
# Poissons Ratio (z) = 0.29333 -0.07135
#
# Static dielectric constant tensor:
#      x y z
#    x 1.900040 -0.052120 0.001980 
#    y -0.052120 1.938610 0.008310 
#    z 0.001980 0.008310 1.843280 
# 
# From -- ./inp_files/34141.got.cif
#   From: 2010.05.17/outbox.ucp.g08.bks.cvg/sg2_18_cif.got.tgz:34141.got - 2010.06.11 11:32:03.
