data_PCOD9075432
_publ_section_title
;
Structure prediction by ZEFSAII (Michael W. Deem and Ramdas Pophale) SiO2 
 PCOD9075432
Probable space group: P -1
;
_chemical_formula_sum "Si O2"
_cell_formula_units_Z 15
_cell_length_a 9.000000
_cell_length_b 15.000000
_cell_length_c 12.000000
_cell_angle_alpha 130.000000
_cell_angle_beta 60.000000
_cell_angle_gamma 150.000000
_cell_volume 613.666794
_symmetry_space_group_name_H-M "P -1"
_symmetry_group_IT_number 2
_symmetry_cell_setting 'triclinic'
loop_
_space_group_symop_operation_xyz
x,y,z
-x,-y,-z
loop_
_atom_site_type_symbol
_atom_site_label
_atom_site_fract_x
_atom_site_fract_y
_atom_site_fract_z
Si Si1 0.295220 0.548290 0.560552
Si Si2 0.372575 0.804041 0.417748
Si Si3 0.288235 0.386794 0.836020
Si Si4 0.306490 0.034974 0.364993
Si Si5 0.000000 0.000000 0.000000
Si Si6 0.216678 0.493763 0.145607
Si Si7 0.622907 0.661430 0.735799
Si Si8 0.675924 0.073393 0.111783
O O1 0.535277 0.774520 0.609816
O O2 0.373174 0.579793 0.687261
O O3 0.351095 0.455391 0.407925
O O4 0.942070 0.371464 0.538130
O O5 0.620885 0.892681 0.478062
O O6 0.294701 0.671192 0.243167
O O7 0.500000 0.000000 0.500000
O O8 0.483762 0.403261 0.842547
O O9 0.516348 0.597450 0.852536
O O10 0.120168 0.376599 0.976083
O O11 0.043646 0.185090 0.693000
O O12 0.475573 0.012713 0.239096
O O13 0.803824 0.014287 0.040144
O O14 0.932967 0.901520 0.825131
O O15 0.964176 0.320647 0.191130
O O16 0.500000 0.000000 0.000000
#
# Coordination Sequence:
#
# PCOD9075432 Si02
#       8
#     2   2   2   2   1   2   2   2
#     4  11  25  46  74 103 143 201 246 307 377 450
#     4  12  27  46  70 106 146 191 254 312 372 448
#     4  11  25  45  71 109 146 195 239 312 373 446
#     4  12  25  45  78 103 145 198 253 303 383 446
#     4  12  26  42  76 110 148 194 254 304 364 454
#     4  11  25  46  73 102 154 191 249 304 381 441
#     4  11  25  44  70 107 152 186 249 308 370 446
#     4  12  24  48  77 113 146 205 253 312 370 452
#
# _framework density 24.443231999999998
#
# number of rings (size 3 to 8) (size 9 to 14) (size 15 to 20)
#    0.000    0.533    4.000    3.600    0.000    6.400 
#    0.000    2.000    0.000    0.000    0.000    0.000 
#    0.000    0.000    0.000    0.000    0.000    0.000 
#
# Total GULP energy -83544.622980 kJ/mol
# GULP energy per Si atom -5569.641532 kJ/mol
# Density = 2.438760 g / cm^3
# Si number density = 24.443232 Si / 1000 Ang^3
#
#
#
# Elastic Constant Matrix: (Units=GPa)
#
#
# Indices 1 2 3 4 5 6 
#
# 1 74.7559 -7.3568 41.3783 21.5450 -7.4885 -1.8840
# 2 -7.3568 17.0824 1.5181 3.8088 -7.1791 8.4639
# 3 41.3783 1.5181 77.5359 17.3080 1.1961 9.1057
# 4 21.5450 3.8088 17.3080 28.1896 -0.8487 6.7368
# 5 -7.4885 -7.1791 1.1961 -0.8487 36.7843 15.3494
# 6 -1.8840 8.4639 9.1057 6.7368 15.3494 34.5892
#
#
#
# Elastic Compliance Matrix: (Units=1/GPa)
#
#
# Indices 1 2 3 4 5 6 
#
# 1 0.027642 0.022682 -0.011426 -0.016147 0.011258 -0.002888
# 2 0.022682 0.110123 -0.006353 -0.017623 0.042351 -0.039400
# 3 -0.011426 -0.006353 0.019941 -0.002162 -0.003238 -0.002459
# 4 -0.016147 -0.017623 -0.002162 0.052537 -0.003491 -0.004681
# 5 0.011258 0.042351 -0.003238 -0.003491 0.050559 -0.030654
# 6 -0.002888 -0.039400 -0.002459 -0.004681 -0.030654 0.053557
#
#
# Mechanical properties :
#
#
# Convention : Reuss Voigt Hill
#
# Bulk Modulus (GPa) = 5.96973 26.71705 16.34339
# Shear Modulus (GPa) = 13.87391 28.83493 21.35442
#
# Velocity S-wave (km/s) = 2.38501 3.43836 2.95894
# Velocity P-wave (km/s) = 3.16733 5.16885 4.28655
#
# Compressibility (1/GPa) = 0.16751170
#
# Stress axis : x y z
#
# Youngs Moduli (GPa) = 36.17697 9.08078 50.14899
#
# Poissons Ratio (x) = -0.20597 0.57299
# Poissons Ratio (y) = -0.82058 0.31861
# Poissons Ratio (z) = 0.41335 0.05769
#
# Static dielectric constant tensor:
#      x y z
#    x 2.056660 -0.218030 -0.024040 
#    y -0.218030 1.153670 -0.185500 
#    z -0.024040 -0.185500 1.945390 
# 
# From -- ./inp_files/158310.got.cif
#   From: 2010.05.17/outbox.ucp.g08.bks.cvg/sg2_80_cif.got.tgz:158310.got - 2010.06.11 11:32:03.
