data_PCOD9075047
_publ_section_title
;
Structure prediction by ZEFSAII (Michael W. Deem and Ramdas Pophale) SiO2 
 PCOD9075047
Probable space group: P -1
;
_chemical_formula_sum "Si O2"
_cell_formula_units_Z 14
_cell_length_a 9.000000
_cell_length_b 15.000000
_cell_length_c 15.000000
_cell_angle_alpha 150.000000
_cell_angle_beta 70.000000
_cell_angle_gamma 130.000000
_cell_volume 642.379314
_symmetry_space_group_name_H-M "P -1"
_symmetry_group_IT_number 2
_symmetry_cell_setting 'triclinic'
loop_
_space_group_symop_operation_xyz
x,y,z
-x,-y,-z
loop_
_atom_site_type_symbol
_atom_site_label
_atom_site_fract_x
_atom_site_fract_y
_atom_site_fract_z
Si Si1 0.948698 0.513005 0.659568
Si Si2 0.689476 0.582302 0.100838
Si Si3 0.291984 0.812314 0.304823
Si Si4 0.217179 0.025474 0.343106
Si Si5 0.393031 0.451404 0.216029
Si Si6 0.194937 0.672743 0.924428
Si Si7 0.735697 0.043859 0.173898
O O1 0.772418 0.515331 0.737707
O O2 0.804648 0.223479 0.400436
O O3 0.130688 0.603634 0.774977
O O4 0.098183 0.734348 0.743735
O O5 0.581763 0.556935 0.193410
O O6 0.953467 0.873204 0.284216
O O7 0.500000 0.500000 0.000000
O O8 0.694285 0.372287 0.903462
O O9 0.292168 0.961151 0.356066
O O10 0.029621 0.603493 0.219841
O O11 0.500000 0.000000 0.500000
O O12 0.429097 0.341392 0.561997
O O13 0.194132 0.876667 0.134560
O O14 0.232551 0.142586 0.989092
O O15 0.457895 0.829305 0.025983
#
# Coordination Sequence:
#
# PCOD9075047 Si02
#       7
#     2   2   2   2   2   2   2
#     4  11  25  47  69  97 132 171 229 290 328 394
#     4  11  23  37  61 100 136 173 222 265 326 408
#     4  11  23  39  68 100 138 177 218 265 331 406
#     4  11  22  42  62  98 140 176 214 271 327 407
#     4  12  23  42  69  94 136 173 221 270 337 391
#     4  11  22  43  71  95 135 178 220 269 343 391
#     4  11  25  46  70  97 128 177 230 280 341 381
#
# _framework density 21.793977000000002
#
# number of rings (size 3 to 8) (size 9 to 14) (size 15 to 20)
#    0.000    0.857    1.429    8.143    2.000    1.143 
#    2.571    0.714    0.000    0.000    0.000    0.000 
#    0.000    0.000    0.000    0.000    0.000    0.000 
#
# Total GULP energy -78287.990571 kJ/mol
# GULP energy per Si atom -5591.999326 kJ/mol
# Density = 2.174437 g / cm^3
# Si number density = 21.793977 Si / 1000 Ang^3
#
#
#
# Elastic Constant Matrix: (Units=GPa)
#
#
# Indices 1 2 3 4 5 6 
#
# 1 81.9218 -3.8160 36.5436 -2.4213 16.2313 6.3503
# 2 -3.8160 -10.7262 -8.3549 -4.2311 -12.3920 7.5481
# 3 36.5436 -8.3549 149.1472 2.4751 4.8355 -11.5679
# 4 -2.4213 -4.2311 2.4751 34.5865 0.2095 3.5574
# 5 16.2313 -12.3920 4.8355 0.2095 44.5945 3.0284
# 6 6.3503 7.5481 -11.5679 3.5574 3.0284 28.0605
#
#
#
# Elastic Compliance Matrix: (Units=1/GPa)
#
#
# Indices 1 2 3 4 5 6 
#
# 1 0.015389 -0.000557 -0.004033 0.001810 -0.005009 -0.004684
# 2 -0.000557 -0.056938 -0.000976 -0.008679 -0.016691 0.017941
# 3 -0.004033 -0.000976 0.008024 -0.001456 0.000016 0.004666
# 4 0.001810 -0.008679 -0.001456 0.028300 -0.002913 -0.001949
# 5 -0.005009 -0.016691 0.000016 -0.002913 0.019356 0.003911
# 6 -0.004684 0.017941 0.004666 -0.001949 0.003911 0.033620
#
#
# Mechanical properties :
#
#
# Convention : Reuss Voigt Hill
#
# Bulk Modulus (GPa) = -22.39242 29.89868 3.75313
# Shear Modulus (GPa) = 113.64821 34.51297 74.08059
#
# Velocity S-wave (km/s) = 7.22910 3.98377 5.83653
# Velocity P-wave (km/s) = 7.70603 5.90839 6.86629
#
# Compressibility (1/GPa) = -0.04465797
#
# Stress axis : x y z
#
# Youngs Moduli (GPa) = 64.98262 -17.56282 124.63126
#
# Poissons Ratio (x) = -0.00978 0.50259
# Poissons Ratio (y) = 0.03619 0.12169
# Poissons Ratio (z) = 0.26205 -0.01715
#
# Static dielectric constant tensor:
#      x y z
#    x 1.807190 -0.028500 -0.017430 
#    y -0.028500 1.844010 -0.027880 
#    z -0.017430 -0.027880 1.871810 
# 
# From -- ./inp_files/186411.got.cif
#   From: 2010.05.17/outbox.ucp.g08.bks.cvg/sg2_94_cif.got.tgz:186411.got - 2010.06.11 11:32:03.
