data_PCOD9075137
_publ_section_title
;
Structure prediction by ZEFSAII (Michael W. Deem and Ramdas Pophale) SiO2 
 PCOD9075137
Probable space group: P -1
;
_chemical_formula_sum "Si O2"
_cell_formula_units_Z 14
_cell_length_a 30.000000
_cell_length_b 30.000000
_cell_length_c 12.000000
_cell_angle_alpha 160.000000
_cell_angle_beta 160.000000
_cell_angle_gamma 10.000000
_cell_volume 622.618477
_symmetry_space_group_name_H-M "P -1"
_symmetry_group_IT_number 2
_symmetry_cell_setting 'triclinic'
loop_
_space_group_symop_operation_xyz
x,y,z
-x,-y,-z
loop_
_atom_site_type_symbol
_atom_site_label
_atom_site_fract_x
_atom_site_fract_y
_atom_site_fract_z
Si Si1 0.970989 0.395734 0.420126
Si Si2 0.491413 0.934095 0.675017
Si Si3 0.320401 0.525871 0.640508
Si Si4 0.742695 0.970633 0.440051
Si Si5 0.266669 0.497987 0.194162
Si Si6 0.730743 0.902978 0.815618
Si Si7 0.206627 0.706885 0.315744
O O1 0.691185 0.712657 0.525717
O O2 0.211803 0.237694 0.690228
O O3 0.130746 0.232909 0.298280
O O4 0.868301 0.337081 0.055206
O O5 0.372141 0.926577 0.460417
O O6 0.683688 0.870280 0.037161
O O7 0.268017 0.551363 0.446445
O O8 0.041644 0.755063 0.596676
O O9 0.527039 0.238234 0.492570
O O10 0.500000 0.500000 0.000000
O O11 0.204348 0.652312 0.309139
O O12 0.549915 0.185190 0.091455
O O13 0.992724 0.651006 0.913580
O O14 0.500000 0.000000 0.500000
O O15 0.500000 0.500000 0.500000
O O16 0.000000 0.000000 0.500000
#
# Coordination Sequence:
#
# PCOD9075137 Si02
#       7
#     2   2   2   2   2   2   2
#     4  11  23  40  67 102 131 170 233 273 344 425
#     4  11  24  44  71 101 135 179 233 297 352 409
#     4  12  27  47  72 101 140 190 240 283 350 422
#     4  11  26  46  69 100 138 180 238 297 351 402
#     4  11  25  44  64 103 138 175 229 281 336 413
#     4  11  24  41  67 102 139 175 215 272 357 420
#     4  11  23  42  65  94 137 179 219 277 337 406
#
# _framework density 22.485679999999999
#
# number of rings (size 3 to 8) (size 9 to 14) (size 15 to 20)
#    0.000    0.857    0.000    7.714    6.000    5.714 
#    0.000    1.429    0.000    0.000    0.000    0.000 
#    0.000    0.000    0.000    0.000    0.000    0.000 
#
# Total GULP energy -77936.967200 kJ/mol
# GULP energy per Si atom -5566.926229 kJ/mol
# Density = 2.243450 g / cm^3
# Si number density = 22.485680 Si / 1000 Ang^3
#
#
#
# Elastic Constant Matrix: (Units=GPa)
#
#
# Indices 1 2 3 4 5 6 
#
# 1 109.6131 44.0923 15.1200 -17.0123 3.3024 -35.2347
# 2 44.0923 195.6491 33.6385 -18.5126 3.8608 -42.4661
# 3 15.1200 33.6385 63.2237 -26.7956 7.9829 -21.7292
# 4 -17.0123 -18.5126 -26.7956 47.2951 -4.0332 5.1609
# 5 3.3024 3.8608 7.9829 -4.0332 27.3241 -9.8643
# 6 -35.2347 -42.4661 -21.7292 5.1609 -9.8643 50.4505
#
#
#
# Elastic Compliance Matrix: (Units=1/GPa)
#
#
# Indices 1 2 3 4 5 6 
#
# 1 0.012739 -0.000901 0.002285 0.004700 0.001865 0.009006
# 2 -0.000901 0.006610 -0.001504 0.001043 0.001374 0.004449
# 3 0.002285 -0.001504 0.025212 0.013313 -0.002062 0.009424
# 4 0.004700 0.001043 0.013313 0.030202 0.002485 0.007291
# 5 0.001865 0.001374 -0.002062 0.002485 0.040480 0.009232
# 6 0.009006 0.004449 0.009424 0.007291 0.009232 0.034974
#
#
# Mechanical properties :
#
#
# Convention : Reuss Voigt Hill
#
# Bulk Modulus (GPa) = 22.56271 61.57637 42.06954
# Shear Modulus (GPa) = 30.26065 43.38960 36.82512
#
# Velocity S-wave (km/s) = 3.67246 4.39755 4.05126
# Velocity P-wave (km/s) = 5.29515 7.29580 6.37446
#
# Compressibility (1/GPa) = 0.04432091
#
# Stress axis : x y z
#
# Youngs Moduli (GPa) = 78.50189 151.28533 39.66324
#
# Poissons Ratio (x) = 0.13629 -0.09062
# Poissons Ratio (y) = 0.07072 0.05965
# Poissons Ratio (z) = -0.17936 0.22751
#
# Static dielectric constant tensor:
#      x y z
#    x 1.938050 0.020450 0.006840 
#    y 0.020450 1.855240 -0.036330 
#    z 0.006840 -0.036330 1.958870 
# 
# From -- ./inp_files/477851.got.cif
#   From: 2010.05.17/outbox.ucp.g08.bks.cvg/sg2_239_cif.got.tgz:477851.got - 2010.06.11 11:32:03.
