data_PCOD9075473
_publ_section_title
;
Structure prediction by ZEFSAII (Michael W. Deem and Ramdas Pophale) SiO2 
 PCOD9075473
Probable space group: P -1
;
_chemical_formula_sum "Si O2"
_cell_formula_units_Z 16
_cell_length_a 9.000000
_cell_length_b 12.000000
_cell_length_c 15.000000
_cell_angle_alpha 50.000000
_cell_angle_beta 70.000000
_cell_angle_gamma 110.000000
_cell_volume 728.972637
_symmetry_space_group_name_H-M "P -1"
_symmetry_group_IT_number 2
_symmetry_cell_setting 'triclinic'
loop_
_space_group_symop_operation_xyz
x,y,z
-x,-y,-z
loop_
_atom_site_type_symbol
_atom_site_label
_atom_site_fract_x
_atom_site_fract_y
_atom_site_fract_z
Si Si1 0.097516 0.101796 0.591310
Si Si2 0.539148 0.657980 0.980411
Si Si3 0.324349 0.992148 0.495282
Si Si4 0.873157 0.307532 0.735470
Si Si5 0.882735 0.622766 0.661806
Si Si6 0.378377 0.523877 0.443854
Si Si7 0.269259 0.705209 0.895435
Si Si8 0.388837 0.002863 0.876016
O O1 0.227935 0.052063 0.549415
O O2 0.003836 0.140195 0.512309
O O3 0.283491 0.346962 0.477037
O O4 0.840965 0.890146 0.808164
O O5 0.366610 0.661955 0.972538
O O6 0.500000 0.500000 0.000000
O O7 0.398725 0.541682 0.163158
O O8 0.512337 0.170542 0.285569
O O9 0.500000 0.000000 0.500000
O O10 0.080450 0.730416 0.644021
O O11 0.887323 0.490601 0.661308
O O12 0.657707 0.132773 0.793085
O O13 0.134008 0.429457 0.584448
O O14 0.795065 0.176053 0.912856
O O15 0.500000 0.500000 0.500000
O O16 0.567197 0.791827 0.243255
O O17 0.303504 0.877703 0.860763
O O18 0.000000 0.500000 0.000000
#
# Coordination Sequence:
#
# PCOD9075473 Si02
#       8
#     2   2   2   2   2   2   2   2
#     4  12  27  47  70 107 147 190 246 303 360 444
#     4  12  24  44  72 107 141 184 240 300 367 422
#     4  12  27  45  72 106 149 192 238 300 370 435
#     4  11  25  46  79 106 137 195 251 302 360 435
#     4  12  23  46  77 103 140 189 246 302 363 437
#     4  12  29  45  71 105 149 198 237 305 368 433
#     4  12  26  44  72 109 143 185 238 301 360 432
#     4  11  25  49  75 105 141 187 255 299 359 439
#
# _framework density 21.948698
#
# number of rings (size 3 to 8) (size 9 to 14) (size 15 to 20)
#    0.000    0.250    5.000    3.750    5.250    0.500 
#    0.000    0.000    0.000    0.000    0.000    0.000 
#    0.000    0.000    0.000    0.000    0.000    0.000 
#
# Total GULP energy -89274.865178 kJ/mol
# GULP energy per Si atom -5579.679074 kJ/mol
# Density = 2.189874 g / cm^3
# Si number density = 21.948698 Si / 1000 Ang^3
#
#
#
# Elastic Constant Matrix: (Units=GPa)
#
#
# Indices 1 2 3 4 5 6 
#
# 1 90.7232 44.3530 33.8139 -2.3754 -9.5951 -4.8482
# 2 44.3530 160.3497 31.3229 -18.1118 -23.8579 -15.9120
# 3 33.8139 31.3229 108.7621 7.7704 -25.2726 -15.5871
# 4 -2.3754 -18.1118 7.7704 35.5968 -9.3180 -5.4876
# 5 -9.5951 -23.8579 -25.2726 -9.3180 28.7994 -1.2941
# 6 -4.8482 -15.9120 -15.5871 -5.4876 -1.2941 24.6692
#
#
#
# Elastic Compliance Matrix: (Units=1/GPa)
#
#
# Indices 1 2 3 4 5 6 
#
# 1 0.014013 -0.003904 -0.004199 -0.001308 -0.002801 -0.002855
# 2 -0.003904 0.011110 0.001895 0.010085 0.013302 0.010537
# 3 -0.004199 0.001895 0.014716 0.002996 0.014554 0.011125
# 4 -0.001308 0.010085 0.002996 0.041908 0.024951 0.018772
# 5 -0.002801 0.013302 0.014554 0.024951 0.066835 0.026282
# 6 -0.002855 0.010537 0.011125 0.018772 0.026282 0.059356
#
#
# Mechanical properties :
#
#
# Convention : Reuss Voigt Hill
#
# Bulk Modulus (GPa) = 36.46527 64.31275 50.38901
# Shear Modulus (GPa) = 21.78689 34.50276 28.14483
#
# Velocity S-wave (km/s) = 3.15402 3.96911 3.58481
# Velocity P-wave (km/s) = 5.46934 7.09719 6.33577
#
# Compressibility (1/GPa) = 0.02742336
#
# Stress axis : x y z
#
# Youngs Moduli (GPa) = 71.36283 90.00867 67.95122
#
# Poissons Ratio (x) = 0.35136 0.28533
# Poissons Ratio (y) = 0.27857 -0.12874
# Poissons Ratio (z) = 0.29965 -0.17053
#
# Static dielectric constant tensor:
#      x y z
#    x 1.953310 0.067800 0.104020 
#    y 0.067800 1.733830 -0.112020 
#    z 0.104020 -0.112020 1.752120 
# 
# From -- ./inp_files/272446.got.cif
#   From: 2010.05.17/outbox.ucp.g08.bks.cvg/sg2_137_cif.got.tgz:272446.got - 2010.06.11 11:32:03.
