data_PCOD9075133
_publ_section_title
;
Structure prediction by ZEFSAII (Michael W. Deem and Ramdas Pophale) SiO2 
 PCOD9075133
Probable space group: P -1
;
_chemical_formula_sum "Si O2"
_cell_formula_units_Z 12
_cell_length_a 18.000000
_cell_length_b 9.000000
_cell_length_c 15.000000
_cell_angle_alpha 40.000000
_cell_angle_beta 20.000000
_cell_angle_gamma 40.000000
_cell_volume 522.298147
_symmetry_space_group_name_H-M "P -1"
_symmetry_group_IT_number 2
_symmetry_cell_setting 'triclinic'
loop_
_space_group_symop_operation_xyz
x,y,z
-x,-y,-z
loop_
_atom_site_type_symbol
_atom_site_label
_atom_site_fract_x
_atom_site_fract_y
_atom_site_fract_z
Si Si1 0.043647 0.705291 0.662145
Si Si2 0.612766 0.083360 0.920562
Si Si3 0.666990 0.894239 0.601753
Si Si4 0.037908 0.741340 0.123471
Si Si5 0.934539 0.245286 0.184036
Si Si6 0.362797 0.899542 0.776483
O O1 0.238052 0.733311 0.362346
O O2 0.014914 0.438288 0.806983
O O3 0.096360 0.798686 0.655996
O O4 0.803642 0.862859 0.837759
O O5 0.435167 0.158432 0.165078
O O6 0.500000 0.000000 0.000000
O O7 0.891837 0.739273 0.378368
O O8 0.501421 0.855465 0.729237
O O9 0.720916 0.160945 0.420910
O O10 0.284561 0.688235 0.909870
O O11 0.000000 0.000000 0.000000
O O12 0.144126 0.079263 0.976643
O O13 0.000000 0.500000 0.000000
O O14 0.500000 0.000000 0.500000
#
# Coordination Sequence:
#
# PCOD9075133 Si02
#       6
#     2   2   2   2   2   2
#     4  11  24  43  70 101 130 175 225 277 327 390
#     4  11  24  46  69  95 134 176 230 275 319 391
#     4  11  23  43  64  94 133 176 218 268 332 394
#     4  11  24  43  66 101 140 167 215 276 336 399
#     4  11  24  39  66  99 133 167 223 278 330 390
#     4  11  23  40  61  93 136 173 208 264 333 401
#
# _framework density 22.975383000000001
#
# number of rings (size 3 to 8) (size 9 to 14) (size 15 to 20)
#    0.000    1.000    5.000    2.000    0.000    4.000 
#    0.000    1.667    0.000    0.000    0.000    0.000 
#    0.000    0.000    0.000    0.000    0.000    0.000 
#
# Total GULP energy -66884.413811 kJ/mol
# GULP energy per Si atom -5573.701151 kJ/mol
# Density = 2.292309 g / cm^3
# Si number density = 22.975383 Si / 1000 Ang^3
#
#
#
# Elastic Constant Matrix: (Units=GPa)
#
#
# Indices 1 2 3 4 5 6 
#
# 1 123.3661 6.9053 28.3970 9.8910 11.1529 27.5047
# 2 6.9053 39.2478 6.9988 -15.8558 -10.2126 16.8487
# 3 28.3970 6.9988 105.1814 16.3001 22.2305 12.4987
# 4 9.8910 -15.8558 16.3001 20.7121 12.0367 0.7647
# 5 11.1529 -10.2126 22.2305 12.0367 50.2248 2.9811
# 6 27.5047 16.8487 12.4987 0.7647 2.9811 28.4984
#
#
#
# Elastic Compliance Matrix: (Units=1/GPa)
#
#
# Indices 1 2 3 4 5 6 
#
# 1 0.010992 0.002504 -0.001488 -0.001620 -0.000210 -0.011372
# 2 0.002504 0.070450 -0.011033 0.058881 0.007007 -0.041542
# 3 -0.001488 -0.011033 0.013714 -0.016145 -0.004282 0.002825
# 4 -0.001620 0.058881 -0.016145 0.111052 -0.005440 -0.028578
# 5 -0.000210 0.007007 -0.004282 -0.005440 0.024849 -0.004515
# 6 -0.011372 -0.041542 0.002825 -0.028578 -0.004515 0.070625
#
#
# Mechanical properties :
#
#
# Convention : Reuss Voigt Hill
#
# Bulk Modulus (GPa) = 13.31144 39.15528 26.23336
# Shear Modulus (GPa) = 14.41928 34.92001 24.66965
#
# Velocity S-wave (km/s) = 2.50791 3.90280 3.28036
# Velocity P-wave (km/s) = 3.76729 6.11461 5.07843
#
# Compressibility (1/GPa) = 0.07512338
#
# Stress axis : x y z
#
# Youngs Moduli (GPa) = 90.97191 14.19439 72.91593
#
# Poissons Ratio (x) = -0.03554 0.10847
# Poissons Ratio (y) = -0.22778 0.80449
# Poissons Ratio (z) = 0.13533 0.15661
#
# Static dielectric constant tensor:
#      x y z
#    x 1.900160 -0.044170 -0.038060 
#    y -0.044170 1.924650 -0.050920 
#    z -0.038060 -0.050920 1.899880 
# 
# From -- ./inp_files/23422.got.cif
#   From: 2010.05.17/outbox.ucp.g08.bks.cvg/sg2_12_cif.got.tgz:23422.got - 2010.06.11 11:32:03.
