data_PCOD9075076
_publ_section_title
;
Structure prediction by ZEFSAII (Michael W. Deem and Ramdas Pophale) SiO2 
 PCOD9075076
Probable space group: P -1
;
_chemical_formula_sum "Si O2"
_cell_formula_units_Z 14
_cell_length_a 14.691019
_cell_length_b 10.816030
_cell_length_c 7.835141
_cell_angle_alpha 123.399286
_cell_angle_beta 130.635364
_cell_angle_gamma 87.050174
_cell_volume 689.947923
_symmetry_space_group_name_H-M "P -1"
_symmetry_group_IT_number 2
_symmetry_cell_setting 'triclinic'
loop_
_space_group_symop_operation_xyz
x,y,z
-x,-y,-z
loop_
_atom_site_type_symbol
_atom_site_label
_atom_site_fract_x
_atom_site_fract_y
_atom_site_fract_z
Si Si1 0.878887 0.607439 0.954159
Si Si2 0.705195 0.212351 0.345971
Si Si3 0.646207 0.646451 0.847104
Si Si4 0.348974 0.359473 0.769220
Si Si5 0.074916 0.348379 0.320105
Si Si6 0.082555 0.700817 0.589139
Si Si7 0.604291 0.897878 0.189843
O O1 0.794571 0.407760 0.657617
O O2 0.767744 0.669168 0.892418
O O3 0.971393 0.692034 0.964073
O O4 0.963334 0.640322 0.255201
O O5 0.784277 0.174925 0.262075
O O6 0.676940 0.094795 0.387707
O O7 0.558530 0.175663 0.066332
O O8 0.500000 0.500000 0.500000
O O9 0.670724 0.594133 0.025831
O O10 0.636035 0.813704 0.999791
O O11 0.217417 0.343592 0.500180
O O12 0.351179 0.181993 0.661500
O O13 0.500000 0.500000 0.000000
O O14 0.106455 0.541180 0.538837
O O15 0.967133 0.245960 0.260188
#
# Coordination Sequence:
#
# PCOD9075076 Si02
#       7
#     2   2   2   2   2   2   2
#     4  11  19  36  60  84 106 147 187 230 267 324
#     4  10  18  34  55  80 115 143 183 226 277 334
#     4  10  18  33  54  83 106 139 186 224 267 322
#     4  10  18  32  53  80 109 142 185 228 269 322
#     4  10  19  32  54  83 109 139 189 230 266 319
#     4  10  20  34  56  84 110 147 188 224 272 325
#     4   9  20  32  55  85 108 149 178 226 290 318
#
# _framework density 20.291384999999998
#
# number of rings (size 3 to 8) (size 9 to 14) (size 15 to 20)
#    0.857    1.143    2.857    4.286    0.000    0.000 
#    0.000    2.857    0.000   18.857    0.000    0.000 
#    0.000    0.000    0.000    0.000    0.000    0.000 
#
# Total GULP energy -77955.667387 kJ/mol
# GULP energy per Si atom -5568.261956 kJ/mol
# Density = 2.024520 g / cm^3
# Si number density = 20.291385 Si / 1000 Ang^3
#
#
#
# Elastic Constant Matrix: (Units=GPa)
#
#
# Indices 1 2 3 4 5 6 
#
# 1 127.3583 23.0332 29.0850 1.0506 26.9751 21.8849
# 2 23.0332 63.2888 24.3846 -13.6909 16.4595 10.9561
# 3 29.0850 24.3846 36.2577 -13.2676 12.4198 -2.1757
# 4 1.0506 -13.6909 -13.2676 16.8592 -3.5866 1.3523
# 5 26.9751 16.4595 12.4198 -3.5866 32.1238 -12.0188
# 6 21.8849 10.9561 -2.1757 1.3523 -12.0188 29.0867
#
#
#
# Elastic Compliance Matrix: (Units=1/GPa)
#
#
# Indices 1 2 3 4 5 6 
#
# 1 0.025811 0.013337 -0.025508 -0.015153 -0.035407 -0.040278
# 2 0.013337 0.038387 -0.023952 0.007090 -0.036402 -0.041657
# 3 -0.025508 -0.023952 0.073082 0.041775 0.025994 0.042479
# 4 -0.015153 0.007090 0.041775 0.099753 0.008018 0.010531
# 5 -0.035407 -0.036402 0.025994 0.008018 0.101779 0.083979
# 6 -0.040278 -0.041657 0.042479 0.010531 0.083979 0.117764
#
#
# Mechanical properties :
#
#
# Convention : Reuss Voigt Hill
#
# Bulk Modulus (GPa) = 15.37626 42.21229 28.79428
# Shear Modulus (GPa) = 9.08268 25.64073 17.36170
#
# Velocity S-wave (km/s) = 2.11798 3.55861 2.92827
# Velocity P-wave (km/s) = 3.68447 6.14273 5.06500
#
# Compressibility (1/GPa) = 0.06503533
#
# Stress axis : x y z
#
# Youngs Moduli (GPa) = 38.74381 26.05035 13.68326
#
# Poissons Ratio (x) = -0.34744 0.34903
# Poissons Ratio (y) = -0.51674 0.32774
# Poissons Ratio (z) = 0.98827 0.62395
#
# Static dielectric constant tensor:
#      x y z
#    x 1.759720 0.014900 0.008310 
#    y 0.014900 1.778060 -0.032490 
#    z 0.008310 -0.032490 1.717000 
# 
# From -- ./inp_files/303760.got.cif
#   From: 2010.05.17/outbox.cif.g08.bks.cpg/sg2_152_cif.got.tgz:303760.got - 2010.06.03 11:33:40.
