data_PCOD9075670
_publ_section_title
;
Structure prediction by ZEFSAII (Michael W. Deem and Ramdas Pophale) SiO2 
 PCOD9075670
Probable space group: P -1
;
_chemical_formula_sum "Si O2"
_cell_formula_units_Z 16
_cell_length_a 6.000000
_cell_length_b 21.000000
_cell_length_c 18.000000
_cell_angle_alpha 160.000000
_cell_angle_beta 70.000000
_cell_angle_gamma 110.000000
_cell_volume 727.418465
_symmetry_space_group_name_H-M "P -1"
_symmetry_group_IT_number 2
_symmetry_cell_setting 'triclinic'
loop_
_space_group_symop_operation_xyz
x,y,z
-x,-y,-z
loop_
_atom_site_type_symbol
_atom_site_label
_atom_site_fract_x
_atom_site_fract_y
_atom_site_fract_z
Si Si1 0.613638 0.349785 0.053822
Si Si2 0.035471 0.083658 0.669328
Si Si3 0.511977 0.716629 0.721228
Si Si4 0.028212 0.136943 0.077891
Si Si5 0.624104 0.573350 0.990701
Si Si6 0.109525 0.774802 0.445140
Si Si7 0.352531 0.999706 0.776974
Si Si8 0.655744 0.740973 0.560490
O O1 0.527443 0.428204 0.069985
O O2 0.605307 0.526248 0.304074
O O3 0.841155 0.226980 0.875888
O O4 0.447619 0.194054 0.944126
O O5 0.000000 0.000000 0.500000
O O6 0.046304 0.910397 0.534527
O O7 0.278477 0.212896 0.780655
O O8 0.500000 0.500000 0.500000
O O9 0.710868 0.771243 0.822626
O O10 0.622822 0.760154 0.673961
O O11 0.233113 0.778085 0.814565
O O12 0.104235 0.044039 0.891537
O O13 0.000000 0.000000 0.000000
O O14 0.838554 0.435259 0.809525
O O15 0.500000 0.500000 0.000000
O O16 0.909363 0.773781 0.528977
O O17 0.340028 0.864165 0.558660
O O18 0.494778 0.889961 0.702349
#
# Coordination Sequence:
#
# PCOD9075670 Si02
#       8
#     2   2   2   2   2   2   2   2
#     4  12  26  47  70 108 139 188 249 293 367 447
#     4  12  28  46  72 105 144 188 240 302 368 447
#     4  12  28  49  76 114 157 203 259 318 384 457
#     4  12  26  48  76 112 153 203 259 309 387 459
#     4  12  28  46  72 104 145 187 238 301 369 451
#     4  12  26  46  73 106 143 193 246 302 374 444
#     4  12  26  45  77 104 149 194 246 314 371 443
#     4  12  26  46  76 105 147 195 247 312 374 444
#
# _framework density 21.995591999999998
#
# number of rings (size 3 to 8) (size 9 to 14) (size 15 to 20)
#    0.000    0.000    6.250    3.000    5.250    4.000 
#    0.000    0.000    0.000    0.000    0.000    0.000 
#    0.000    0.000    0.000    0.000    0.000    0.000 
#
# Total GULP energy -89138.076053 kJ/mol
# GULP energy per Si atom -5571.129753 kJ/mol
# Density = 2.194553 g / cm^3
# Si number density = 21.995592 Si / 1000 Ang^3
#
#
#
# Elastic Constant Matrix: (Units=GPa)
#
#
# Indices 1 2 3 4 5 6 
#
# 1 80.0984 15.5641 26.8514 1.7845 -19.6401 -8.8551
# 2 15.5641 125.6750 22.3358 3.1201 -11.8918 -10.0609
# 3 26.8514 22.3358 97.8753 11.5869 -0.9841 -1.9429
# 4 1.7845 3.1201 11.5869 47.6609 -3.3015 -7.6034
# 5 -19.6401 -11.8918 -0.9841 -3.3015 46.3955 1.2408
# 6 -8.8551 -10.0609 -1.9429 -7.6034 1.2408 32.2569
#
#
#
# Elastic Compliance Matrix: (Units=1/GPa)
#
#
# Indices 1 2 3 4 5 6 
#
# 1 0.016063 -0.000288 -0.004382 0.001609 0.006636 0.004180
# 2 -0.000288 0.008715 -0.001892 0.000448 0.002035 0.002553
# 3 -0.004382 -0.001892 0.012161 -0.003097 -0.002257 -0.001704
# 4 0.001609 0.000448 -0.003097 0.022700 0.002194 0.005661
# 5 0.006636 0.002035 -0.002257 0.002194 0.024943 0.001878
# 6 0.004180 0.002553 -0.001704 0.005661 0.001878 0.034104
#
#
# Mechanical properties :
#
#
# Convention : Reuss Voigt Hill
#
# Bulk Modulus (GPa) = 41.98937 48.12792 45.05865
# Shear Modulus (GPa) = 35.77902 41.18917 38.48410
#
# Velocity S-wave (km/s) = 4.03754 4.33206 4.18739
# Velocity P-wave (km/s) = 6.39273 6.85205 6.62637
#
# Compressibility (1/GPa) = 0.02381555
#
# Stress axis : x y z
#
# Youngs Moduli (GPa) = 62.25561 114.74864 82.23008
#
# Poissons Ratio (x) = 0.03304 0.36032
# Poissons Ratio (y) = 0.01793 0.15555
# Poissons Ratio (z) = 0.27279 0.21707
#
# Static dielectric constant tensor:
#      x y z
#    x 1.983790 0.054840 0.167800 
#    y 0.054840 1.734660 -0.010800 
#    z 0.167800 -0.010800 1.837000 
# 
# From -- ./inp_files/53355.got.cif
#   From: 2010.05.17/outbox.ucp.g08.bks.cvg/sg2_27_cif.got.tgz:53355.got - 2010.06.11 11:32:03.
