data_PCOD9075710
_publ_section_title
;
Structure prediction by ZEFSAII (Michael W. Deem and Ramdas Pophale) SiO2 
 PCOD9075710
Probable space group: P -1
;
_chemical_formula_sum "Si O2"
_cell_formula_units_Z 15
_cell_length_a 8.488504
_cell_length_b 17.829004
_cell_length_c 11.592760
_cell_angle_alpha 148.885439
_cell_angle_beta 64.619599
_cell_angle_gamma 92.390215
_cell_volume 587.628948
_symmetry_space_group_name_H-M "P -1"
_symmetry_group_IT_number 2
_symmetry_cell_setting 'triclinic'
loop_
_space_group_symop_operation_xyz
x,y,z
-x,-y,-z
loop_
_atom_site_type_symbol
_atom_site_label
_atom_site_fract_x
_atom_site_fract_y
_atom_site_fract_z
Si Si1 0.503927 0.742952 0.912312
Si Si2 0.901385 0.921164 0.999244
Si Si3 0.169014 0.611805 0.219380
Si Si4 0.000000 0.500000 0.000000
Si Si5 0.272726 0.219556 0.304168
Si Si6 0.403443 0.125052 0.522934
Si Si7 0.549987 0.687679 0.062298
Si Si8 0.997887 0.019615 0.730196
O O1 0.624754 0.595234 0.789540
O O2 0.486110 0.913828 0.199683
O O3 0.640781 0.694697 0.685178
O O4 0.236224 0.844749 0.097704
O O5 0.627157 0.090438 0.357774
O O6 0.039187 0.842937 0.975233
O O7 0.875629 0.799671 0.761705
O O8 0.000000 0.000000 0.000000
O O9 0.041182 0.838536 0.541262
O O10 0.238739 0.490555 0.922090
O O11 0.934297 0.631186 0.337954
O O12 0.357864 0.481331 0.092199
O O13 0.828013 0.722001 0.280614
O O14 0.500000 0.000000 0.000000
O O15 0.349049 0.221583 0.793473
O O16 0.259017 0.879754 0.403141
#
# Coordination Sequence:
#
# PCOD9075710 Si02
#       8
#     2   2   2   1   2   2   2   2
#     4  11  20  37  57  79 112 147 187 225 274 330
#     4  10  18  32  54  85 106 137 181 232 270 317
#     4  11  20  36  57  84 111 141 188 225 279 319
#     4  10  18  34  54  84 108 138 180 232 268 322
#     4  11  20  36  60  84 107 144 189 228 269 328
#     4   9  19  33  55  78 110 144 185 225 270 324
#     4  10  23  34  53  83 114 148 179 228 282 325
#     4  11  20  36  58  81 111 145 186 229 271 329
#
# _framework density 25.526312999999998
#
# number of rings (size 3 to 8) (size 9 to 14) (size 15 to 20)
#    0.000    1.600    4.000    2.000    0.000    0.533 
#    0.000    0.000    0.000    0.800    0.000    0.000 
#    0.000    0.000    0.000    0.000    0.000    0.000 
#
# Total GULP energy -83522.967213 kJ/mol
# GULP energy per Si atom -5568.197814 kJ/mol
# Density = 2.546821 g / cm^3
# Si number density = 25.526313 Si / 1000 Ang^3
#
#
#
# Elastic Constant Matrix: (Units=GPa)
#
#
# Indices 1 2 3 4 5 6 
#
# 1 118.1856 44.3389 19.5029 0.6757 -11.8345 -38.8163
# 2 44.3389 115.6914 13.3288 -11.9986 -14.5006 -37.5459
# 3 19.5029 13.3288 55.2088 -9.1787 11.4740 -5.5668
# 4 0.6757 -11.9986 -9.1787 30.4341 -2.4457 -3.6297
# 5 -11.8345 -14.5006 11.4740 -2.4457 36.7959 -3.0024
# 6 -38.8163 -37.5459 -5.5668 -3.6297 -3.0024 47.1319
#
#
#
# Elastic Compliance Matrix: (Units=1/GPa)
#
#
# Indices 1 2 3 4 5 6 
#
# 1 0.013635 -0.000305 -0.005071 -0.000123 0.006720 0.010806
# 2 -0.000305 0.014815 -0.002718 0.007142 0.008066 0.012293
# 3 -0.005071 -0.002718 0.023007 0.004722 -0.009880 -0.003890
# 4 -0.000123 0.007142 0.004722 0.038596 0.004636 0.009413
# 5 0.006720 0.008066 -0.009880 0.004636 0.037008 0.013507
# 6 0.010806 0.012293 -0.003890 0.009413 0.013507 0.041035
#
#
# Mechanical properties :
#
#
# Convention : Reuss Voigt Hill
#
# Bulk Modulus (GPa) = 28.35356 49.26965 38.81161
# Shear Modulus (GPa) = 25.50504 37.00005 31.25255
#
# Velocity S-wave (km/s) = 3.16439 3.81134 3.50283
# Velocity P-wave (km/s) = 4.94801 6.22189 5.62115
#
# Compressibility (1/GPa) = 0.03526894
#
# Stress axis : x y z
#
# Youngs Moduli (GPa) = 73.33986 67.49888 43.46581
#
# Poissons Ratio (x) = 0.02060 0.22040
# Poissons Ratio (y) = 0.02238 0.11815
# Poissons Ratio (z) = 0.37187 0.18348
#
# Static dielectric constant tensor:
#      x y z
#    x 2.202460 0.015560 0.109110 
#    y 0.015560 2.379210 -0.149880 
#    z 0.109110 -0.149880 2.144080 
# 
# From -- ./inp_files/168559.got.cif
#   From: 2010.05.17/outbox.cif.g08.bks.cpg/sg2_85_cif.got.tgz:168559.got - 2010.06.03 11:33:40.
