data_PCOD9075518
_publ_section_title
;
Structure prediction by ZEFSAII (Michael W. Deem and Ramdas Pophale) SiO2 
 PCOD9075518
Probable space group: P -1
;
_chemical_formula_sum "Si O2"
_cell_formula_units_Z 16
_cell_length_a 9.000000
_cell_length_b 27.000000
_cell_length_c 27.000000
_cell_angle_alpha 10.000000
_cell_angle_beta 40.000000
_cell_angle_gamma 40.000000
_cell_volume 728.340053
_symmetry_space_group_name_H-M "P -1"
_symmetry_group_IT_number 2
_symmetry_cell_setting 'triclinic'
loop_
_space_group_symop_operation_xyz
x,y,z
-x,-y,-z
loop_
_atom_site_type_symbol
_atom_site_label
_atom_site_fract_x
_atom_site_fract_y
_atom_site_fract_z
Si Si1 0.580976 0.453545 0.196551
Si Si2 0.519306 0.422885 0.492957
Si Si3 0.048956 0.262906 0.321692
Si Si4 0.253482 0.837251 0.980525
Si Si5 0.048667 0.820083 0.836819
Si Si6 0.100041 0.607742 0.491243
Si Si7 0.483988 0.077034 0.328476
Si Si8 0.434293 0.130369 0.035709
O O1 0.419902 0.644251 0.089268
O O2 0.841617 0.389039 0.214566
O O3 0.500021 0.155844 0.490465
O O4 0.572521 0.626718 0.977409
O O5 0.308323 0.576704 0.428133
O O6 0.756495 0.443835 0.443112
O O7 0.511025 0.094176 0.802166
O O8 0.516374 0.571451 0.294272
O O9 0.265003 0.085226 0.413597
O O10 0.949610 0.037736 0.605285
O O11 0.115125 0.518122 0.089313
O O12 0.062782 0.630787 0.248293
O O13 0.410584 0.925319 0.899610
O O14 0.083687 0.109319 0.736169
O O15 0.276952 0.924113 0.701376
O O16 0.838018 0.828076 0.921367
#
# Coordination Sequence:
#
# PCOD9075518 Si02
#       8
#     2   2   2   2   2   2   2   2
#     4  12  26  44  67 105 136 178 228 284 335 399
#     4  11  26  47  72 103 136 175 225 278 334 404
#     4  12  24  48  70  96 142 178 226 284 341 399
#     4  12  26  44  69 101 141 181 221 280 333 402
#     4  12  26  44  69 103 136 180 225 283 338 399
#     4  11  26  47  73 102 137 176 222 279 338 396
#     4  12  26  44  72 101 132 183 233 278 340 400
#     4  12  26  44  70 102 140 180 223 277 337 401
#
# _framework density 21.967760999999999
#
# number of rings (size 3 to 8) (size 9 to 14) (size 15 to 20)
#    0.000    0.250    1.250    7.500    7.000    5.000 
#    0.000    0.000    0.000    0.000    0.000    0.000 
#    0.000    0.000    0.000    0.000    0.000    0.000 
#
# Total GULP energy -89413.640438 kJ/mol
# GULP energy per Si atom -5588.352527 kJ/mol
# Density = 2.191776 g / cm^3
# Si number density = 21.967761 Si / 1000 Ang^3
#
#
#
# Elastic Constant Matrix: (Units=GPa)
#
#
# Indices 1 2 3 4 5 6 
#
# 1 107.0277 37.1439 -3.7512 -14.2583 -11.6928 -15.5911
# 2 37.1439 104.7107 -1.5481 -17.2827 -10.3889 -6.5671
# 3 -3.7512 -1.5481 59.2396 -10.2677 -3.5852 0.0458
# 4 -14.2583 -17.2827 -10.2677 39.7304 9.1490 -0.1576
# 5 -11.6928 -10.3889 -3.5852 9.1490 36.3763 -7.2445
# 6 -15.5911 -6.5671 0.0458 -0.1576 -7.2445 42.0667
#
#
#
# Elastic Compliance Matrix: (Units=1/GPa)
#
#
# Indices 1 2 3 4 5 6 
#
# 1 0.011824 -0.003162 0.001288 0.002460 0.003295 0.004464
# 2 -0.003162 0.011516 0.000843 0.003727 0.001600 0.000914
# 3 0.001288 0.000843 0.017959 0.005177 0.001288 0.000831
# 4 0.002460 0.003727 0.005177 0.030185 -0.005082 0.000726
# 5 0.003295 0.001600 0.001288 -0.005082 0.031791 0.006925
# 6 0.004464 0.000914 0.000831 0.000726 0.006925 0.026763
#
#
# Mechanical properties :
#
#
# Convention : Reuss Voigt Hill
#
# Bulk Modulus (GPa) = 25.48681 37.18524 31.33603
# Shear Modulus (GPa) = 34.44040 39.57692 37.00866
#
# Velocity S-wave (km/s) = 3.96380 4.24912 4.10894
# Velocity P-wave (km/s) = 5.70755 6.40604 6.06685
#
# Compressibility (1/GPa) = 0.03923598
#
# Stress axis : x y z
#
# Youngs Moduli (GPa) = 84.57415 86.83805 55.68301
#
# Poissons Ratio (x) = 0.27462 -0.07174
# Poissons Ratio (y) = 0.26746 -0.04693
# Poissons Ratio (z) = -0.10896 -0.07319
#
# Static dielectric constant tensor:
#      x y z
#    x 1.718630 -0.013530 -0.000440 
#    y -0.013530 1.647850 -0.020400 
#    z -0.000440 -0.020400 1.853990 
# 
# From -- ./inp_files/50611.got.cif
#   From: 2010.05.17/outbox.ucp.g08.bks.cvg/sg2_26_cif.got.tgz:50611.got - 2010.06.11 11:32:03.
