data_PCOD9075517
_publ_section_title
;
Structure prediction by ZEFSAII (Michael W. Deem and Ramdas Pophale) SiO2 
 PCOD9075517
Probable space group: P -1
;
_chemical_formula_sum "Si O2"
_cell_formula_units_Z 14
_cell_length_a 9.000000
_cell_length_b 18.000000
_cell_length_c 9.000000
_cell_angle_alpha 150.000000
_cell_angle_beta 70.000000
_cell_angle_gamma 120.000000
_cell_volume 617.235917
_symmetry_space_group_name_H-M "P -1"
_symmetry_group_IT_number 2
_symmetry_cell_setting 'triclinic'
loop_
_space_group_symop_operation_xyz
x,y,z
-x,-y,-z
loop_
_atom_site_type_symbol
_atom_site_label
_atom_site_fract_x
_atom_site_fract_y
_atom_site_fract_z
Si Si1 0.761283 0.004913 0.124975
Si Si2 0.162881 0.423841 0.177890
Si Si3 0.418190 0.328011 0.582938
Si Si4 0.891020 0.066784 0.538803
Si Si5 0.995896 0.678921 0.622751
Si Si6 0.198065 0.518354 0.919423
Si Si7 0.483758 0.141353 0.524191
O O1 0.853012 0.027517 0.301262
O O2 0.890728 0.147263 0.206946
O O3 0.586884 0.036077 0.254119
O O4 0.683472 0.819802 0.759709
O O5 0.381593 0.525198 0.269212
O O6 0.114156 0.578271 0.433875
O O7 0.098390 0.337224 0.212918
O O8 0.018779 0.266198 0.855911
O O9 0.290164 0.419347 0.806702
O O10 0.431697 0.227231 0.550772
O O11 0.691764 0.974661 0.521348
O O12 0.000000 0.000000 0.500000
O O13 0.840128 0.566338 0.373312
O O14 0.352431 0.704687 0.185885
O O15 0.000000 0.500000 0.000000
#
# Coordination Sequence:
#
# PCOD9075517 Si02
#       7
#     2   2   2   2   2   2   2
#     4  12  27  50  77 119 158 207 263 335 391 466
#     4  11  26  50  77 115 157 212 262 322 392 477
#     4  12  28  46  84 117 159 203 268 331 393 469
#     4  12  30  48  77 113 165 211 268 317 398 476
#     4  11  26  46  80 108 161 204 265 319 400 460
#     4  12  26  48  79 114 156 213 264 322 396 476
#     4  12  26  49  78 114 160 208 266 323 402 471
#
# _framework density 22.681764999999999
#
# number of rings (size 3 to 8) (size 9 to 14) (size 15 to 20)
#    0.000    0.286    2.857    3.857   12.000    1.143 
#    0.000    0.000    0.000    0.000    0.000    0.000 
#    0.000    0.000    0.000    0.000    0.000    0.000 
#
# Total GULP energy -78124.119547 kJ/mol
# GULP energy per Si atom -5580.294253 kJ/mol
# Density = 2.263014 g / cm^3
# Si number density = 22.681765 Si / 1000 Ang^3
#
#
#
# Elastic Constant Matrix: (Units=GPa)
#
#
# Indices 1 2 3 4 5 6 
#
# 1 153.5762 58.7890 45.0340 0.8884 8.7793 14.0337
# 2 58.7890 199.2314 52.9909 13.4684 20.1428 19.1252
# 3 45.0340 52.9909 164.7447 16.8695 32.4653 15.8075
# 4 0.8884 13.4684 16.8695 40.6940 -8.9573 18.6241
# 5 8.7793 20.1428 32.4653 -8.9573 61.3627 6.9508
# 6 14.0337 19.1252 15.8075 18.6241 6.9508 63.2157
#
#
#
# Elastic Compliance Matrix: (Units=1/GPa)
#
#
# Indices 1 2 3 4 5 6 
#
# 1 0.007838 -0.001936 -0.001774 0.002054 0.000913 -0.001416
# 2 -0.001936 0.006151 -0.000946 -0.001664 -0.001422 -0.000548
# 3 -0.001774 -0.000946 0.008110 -0.004132 -0.004369 0.000350
# 4 0.002054 -0.001664 -0.004132 0.033003 0.008339 -0.009559
# 5 0.000913 -0.001422 -0.004369 0.008339 0.020546 -0.003396
# 6 -0.001416 -0.000548 0.000350 -0.009559 -0.003396 0.019401
#
#
# Mechanical properties :
#
#
# Convention : Reuss Voigt Hill
#
# Bulk Modulus (GPa) = 78.20962 92.35335 85.28149
# Shear Modulus (GPa) = 46.03020 57.10371 51.56696
#
# Velocity S-wave (km/s) = 4.50976 5.02302 4.77329
# Velocity P-wave (km/s) = 7.85324 8.62823 8.24984
#
# Compressibility (1/GPa) = 0.01278615
#
# Stress axis : x y z
#
# Youngs Moduli (GPa) = 127.57995 162.57170 123.30752
#
# Poissons Ratio (x) = 0.31478 0.21878
# Poissons Ratio (y) = 0.24702 0.11665
# Poissons Ratio (z) = 0.22636 0.15379
#
# Static dielectric constant tensor:
#      x y z
#    x 1.877890 -0.024670 -0.039190 
#    y -0.024670 1.885570 -0.053120 
#    z -0.039190 -0.053120 1.941290 
# 
# From -- ./inp_files/219013.got.cif
#   From: 2010.05.17/outbox.ucp.g08.bks.cvg/sg2_110_cif.got.tgz:219013.got - 2010.06.11 11:32:03.
