data_PCOD9075173
_publ_section_title
;
Structure prediction by ZEFSAII (Michael W. Deem and Ramdas Pophale) SiO2 
 PCOD9075173
Probable space group: P -1
;
_chemical_formula_sum "Si O2"
_cell_formula_units_Z 16
_cell_length_a 9.000000
_cell_length_b 9.000000
_cell_length_c 21.000000
_cell_angle_alpha 60.000000
_cell_angle_beta 150.000000
_cell_angle_gamma 120.000000
_cell_volume 727.687525
_symmetry_space_group_name_H-M "P -1"
_symmetry_group_IT_number 2
_symmetry_cell_setting 'triclinic'
loop_
_space_group_symop_operation_xyz
x,y,z
-x,-y,-z
loop_
_atom_site_type_symbol
_atom_site_label
_atom_site_fract_x
_atom_site_fract_y
_atom_site_fract_z
Si Si1 0.726627 0.649468 0.177442
Si Si2 0.260907 0.146005 0.977644
Si Si3 0.796829 0.952650 0.236978
Si Si4 0.185469 0.300374 0.246401
Si Si5 0.116731 0.931409 0.623384
Si Si6 0.158848 0.400845 0.000673
Si Si7 0.738346 0.862771 0.815695
Si Si8 0.775790 0.573032 0.629555
O O1 0.584862 0.754497 0.047151
O O2 0.462779 0.494380 0.127105
O O3 0.988678 0.562300 0.260289
O O4 0.814865 0.781706 0.239253
O O5 0.466193 0.007539 0.105478
O O6 0.225247 0.285359 0.989076
O O7 0.948397 0.048763 0.854287
O O8 0.891809 0.938231 0.348489
O O9 0.983529 0.123813 0.236238
O O10 0.357443 0.220600 0.270103
O O11 0.320427 0.390391 0.342070
O O12 0.031062 0.453998 0.123917
O O13 0.449572 0.889804 0.742859
O O14 0.927443 0.753373 0.616168
O O15 0.000000 0.000000 0.500000
O O16 0.051419 0.259948 0.044895
O O17 0.500000 0.500000 0.500000
#
# Coordination Sequence:
#
# PCOD9075173 Si02
#       8
#     2   2   2   2   2   2   2   2
#     4  12  22  42  70  98 131 171 220 265 320 391
#     4  12  22  40  69 100 135 173 212 259 332 398
#     4  11  23  43  69  97 132 176 217 259 323 397
#     4  11  23  42  69  98 133 174 213 264 324 394
#     4  11  27  48  67  92 131 172 219 277 326 373
#     4  12  22  40  66 102 139 169 206 271 328 386
#     4  12  25  43  63 103 138 167 212 269 332 387
#     4  11  26  48  69  93 123 175 231 265 315 390
#
# _framework density 21.987459999999999
#
# number of rings (size 3 to 8) (size 9 to 14) (size 15 to 20)
#    0.000    0.500    6.250    3.000    1.750    1.000 
#    2.250    3.750    0.000    0.000    0.000    0.000 
#    0.000    0.000    0.000    0.000    0.000    0.000 
#
# Total GULP energy -89287.884483 kJ/mol
# GULP energy per Si atom -5580.492780 kJ/mol
# Density = 2.193742 g / cm^3
# Si number density = 21.987460 Si / 1000 Ang^3
#
#
#
# Elastic Constant Matrix: (Units=GPa)
#
#
# Indices 1 2 3 4 5 6 
#
# 1 114.2915 38.4469 15.2492 12.7077 -38.2938 -31.2882
# 2 38.4469 97.3093 7.4154 8.3305 -17.2699 -28.5050
# 3 15.2492 7.4154 37.2210 -1.9324 -27.4586 -3.5252
# 4 12.7077 8.3305 -1.9324 21.6406 7.1705 -18.2400
# 5 -38.2938 -17.2699 -27.4586 7.1705 32.2389 13.0902
# 6 -31.2882 -28.5050 -3.5252 -18.2400 13.0902 39.8407
#
#
#
# Elastic Compliance Matrix: (Units=1/GPa)
#
#
# Indices 1 2 3 4 5 6 
#
# 1 -0.001453 -0.000469 -0.037629 0.049270 -0.060228 0.037540
# 2 -0.000469 0.013547 0.003959 -0.002273 0.008161 0.005953
# 3 -0.037629 0.003959 -0.055325 0.131093 -0.150460 0.077839
# 4 0.049270 -0.002273 0.131093 -0.103352 0.220866 -0.071218
# 5 -0.060228 0.008161 -0.150460 0.220866 -0.267994 0.134397
# 6 0.037540 0.005953 0.077839 -0.071218 0.134397 -0.011036
#
#
# Mechanical properties :
#
#
# Convention : Reuss Voigt Hill
#
# Bulk Modulus (GPa) = -8.96798 41.22722 16.12962
# Shear Modulus (GPa) = -12.67411 31.25806 9.29198
#
# Velocity S-wave (km/s) = -2.40349 3.77454 2.05796
# Velocity P-wave (km/s) = 3.43364 6.14714 3.60537
#
# Compressibility (1/GPa) = -0.11150787
#
# Stress axis : x y z
#
# Youngs Moduli (GPa) = -688.15993 73.81942 -18.07514
#
# Poissons Ratio (x) = 0.03459 -0.68015
# Poissons Ratio (y) = -0.32248 0.07157
# Poissons Ratio (z) = -25.89485 -0.29228
#
# Static dielectric constant tensor:
#      x y z
#    x 1.836060 0.113150 0.013120 
#    y 0.113150 2.118570 0.041370 
#    z 0.013120 0.041370 1.838800 
# 
# From -- ./inp_files/184840.got.cif
#   From: 2010.05.17/outbox.ucp.g08.bks.cvg/sg2_93_cif.got.tgz:184840.got - 2010.06.11 11:32:03.
