data_PCOD9075955
_publ_section_title
;
Structure prediction by ZEFSAII (Michael W. Deem and Ramdas Pophale) SiO2 
 PCOD9075955
Probable space group: P -1
;
_chemical_formula_sum "Si O2"
_cell_formula_units_Z 16
_cell_length_a 14.966879
_cell_length_b 8.637821
_cell_length_c 23.471652
_cell_angle_alpha 142.403136
_cell_angle_beta 158.490633
_cell_angle_gamma 38.941718
_cell_volume 667.495369
_symmetry_space_group_name_H-M "P -1"
_symmetry_group_IT_number 2
_symmetry_cell_setting 'triclinic'
loop_
_space_group_symop_operation_xyz
x,y,z
-x,-y,-z
loop_
_atom_site_type_symbol
_atom_site_label
_atom_site_fract_x
_atom_site_fract_y
_atom_site_fract_z
Si Si1 0.637682 0.663814 0.283999
Si Si2 0.335105 0.626366 0.888183
Si Si3 0.907071 0.286582 0.550173
Si Si4 0.799913 0.557778 0.465438
Si Si5 0.699274 0.104755 0.609427
Si Si6 0.254280 0.359452 0.347691
Si Si7 0.959705 0.922537 0.099250
Si Si8 0.782346 0.863061 0.855358
O O1 0.561562 0.446102 0.134297
O O2 0.598096 0.610203 0.311075
O O3 0.477181 0.931115 0.244413
O O4 0.940690 0.630235 0.453501
O O5 0.116765 0.458281 0.713029
O O6 0.260687 0.920089 0.947406
O O7 0.500000 0.500000 0.000000
O O8 0.702527 0.424376 0.423983
O O9 0.830940 0.363521 0.591707
O O10 0.000000 0.000000 0.500000
O O11 0.853877 0.841463 0.596570
O O12 0.861637 0.219436 0.786677
O O13 0.500000 0.000000 0.500000
O O14 0.530994 0.254509 0.503914
O O15 0.095428 0.151222 0.219467
O O16 0.226223 0.348213 0.260157
O O17 0.855268 0.802179 0.946504
O O18 0.000000 0.000000 0.000000
#
# Coordination Sequence:
#
# PCOD9075955 Si02
#       8
#     2   2   2   2   2   2   2   2
#     4  10  18  27  45  76 106 128 164 219 259 300
#     4  10  17  30  50  76 101 131 169 208 260 299
#     4  10  20  34  51  72 103 138 172 205 253 319
#     4  10  18  29  47  74 103 135 169 211 265 293
#     4  10  14  26  45  69 102 122 164 219 256 293
#     4   9  17  28  45  69 101 127 167 212 257 292
#     4   9  16  25  41  73 101 125 154 208 265 297
#     4  10  18  25  42  74 106 127 157 213 273 295
#
# _framework density 23.970202
#
# number of rings (size 3 to 8) (size 9 to 14) (size 15 to 20)
#    0.000    2.250    7.500    0.000    0.000    0.000 
#    0.000    0.000    0.000    3.750    0.000    0.875 
#    0.000    0.000    0.000    0.000    0.000    0.000 
#
# Total GULP energy -89074.999432 kJ/mol
# GULP energy per Si atom -5567.187465 kJ/mol
# Density = 2.391565 g / cm^3
# Si number density = 23.970202 Si / 1000 Ang^3
#
#
#
# Elastic Constant Matrix: (Units=GPa)
#
#
# Indices 1 2 3 4 5 6 
#
# 1 52.0509 12.6093 64.1961 32.4691 -53.6744 -22.4375
# 2 12.6093 107.9887 53.8372 24.1753 -17.5978 -28.2797
# 3 64.1961 53.8372 104.7573 0.6104 -67.4865 0.7101
# 4 32.4691 24.1753 0.6104 32.7860 -8.5913 -4.1842
# 5 -53.6744 -17.5978 -67.4865 -8.5913 74.3237 10.6756
# 6 -22.4375 -28.2797 0.7101 -4.1842 10.6756 24.4606
#
#
#
# Elastic Compliance Matrix: (Units=1/GPa)
#
#
# Indices 1 2 3 4 5 6 
#
# 1 0.002547 -0.015787 0.020430 0.011292 0.021392 -0.023913
# 2 -0.015787 0.007793 0.000206 0.007614 -0.008416 -0.000501
# 3 0.020430 0.000206 0.011786 -0.013777 0.023016 0.006234
# 4 0.011292 0.007614 -0.013777 0.015944 -0.004172 0.024109
# 5 0.021392 -0.008416 0.023016 -0.004172 0.049188 -0.012957
# 6 -0.023913 -0.000501 0.006234 0.024109 -0.012957 0.027966
#
#
# Mechanical properties :
#
#
# Convention : Reuss Voigt Hill
#
# Bulk Modulus (GPa) = 31.42226 58.45355 44.93790
# Shear Modulus (GPa) = 43.05407 35.25766 39.15587
#
# Velocity S-wave (km/s) = 4.24270 3.83939 4.04607
# Velocity P-wave (km/s) = 6.09409 6.64028 6.37304
#
# Compressibility (1/GPa) = 0.03182458
#
# Stress axis : x y z
#
# Youngs Moduli (GPa) = 392.66852 128.31388 84.84725
#
# Poissons Ratio (x) = 2.02564 -1.73339
# Poissons Ratio (y) = 6.19889 -0.01750
# Poissons Ratio (z) = -8.02205 -0.02647
#
# Static dielectric constant tensor:
#      x y z
#    x 2.294340 0.030780 -0.197600 
#    y 0.030780 2.049230 -0.109730 
#    z -0.197600 -0.109730 2.159090 
# 
# From -- ./inp_files/439429.got.cif
#   From: 2010.05.17/outbox.cif.g08.bks.cpg/sg2_220_cif.got.tgz:439429.got - 2010.06.03 11:33:40.
