data_PCOD9075962
_publ_section_title
;
Structure prediction by ZEFSAII (Michael W. Deem and Ramdas Pophale) SiO2 
 PCOD9075962
Probable space group: P -1
;
_chemical_formula_sum "Si O2"
_cell_formula_units_Z 16
_cell_length_a 11.021572
_cell_length_b 7.871283
_cell_length_c 14.302975
_cell_angle_alpha 70.330201
_cell_angle_beta 42.417339
_cell_angle_gamma 52.796503
_cell_volume 652.580776
_symmetry_space_group_name_H-M "P -1"
_symmetry_group_IT_number 2
_symmetry_cell_setting 'triclinic'
loop_
_space_group_symop_operation_xyz
x,y,z
-x,-y,-z
loop_
_atom_site_type_symbol
_atom_site_label
_atom_site_fract_x
_atom_site_fract_y
_atom_site_fract_z
Si Si1 0.433470 0.557312 0.761996
Si Si2 0.104937 0.560139 0.244091
Si Si3 0.748055 0.911420 0.907720
Si Si4 0.782985 0.029240 0.072944
Si Si5 0.381918 0.224601 0.474621
Si Si6 0.062589 0.577864 0.061033
Si Si7 0.826554 0.743179 0.597485
Si Si8 0.868286 0.152148 0.663951
O O1 0.491622 0.656498 0.624262
O O2 0.641578 0.321182 0.710876
O O3 0.392825 0.731654 0.832402
O O4 0.221888 0.551833 0.891205
O O5 0.856506 0.626956 0.372583
O O6 0.152824 0.599047 0.105962
O O7 0.232669 0.317440 0.260296
O O8 0.122395 0.716008 0.276430
O O9 0.891976 0.656527 0.900669
O O10 0.861305 0.962711 0.751331
O O11 0.753081 0.022210 0.980991
O O12 0.500000 0.000000 0.000000
O O13 0.830071 0.799983 0.130363
O O14 0.000000 0.000000 0.000000
O O15 0.349356 0.162698 0.400227
O O16 0.500000 0.000000 0.500000
O O17 0.000000 0.500000 0.500000
O O18 0.941627 0.872264 0.505556
#
# Coordination Sequence:
#
# PCOD9075962 Si02
#       8
#     2   2   2   2   2   2   2   2
#     4  11  19  36  65  91 118 159 213 262 300 363
#     4  10  19  37  60  86 120 163 208 255 309 362
#     4  12  25  38  61  94 130 168 205 254 311 374
#     4  10  24  42  60  90 124 166 206 256 315 363
#     4  10  18  32  57  90 118 152 205 263 309 357
#     4  11  24  39  58  90 130 165 198 252 321 376
#     4   8  16  32  54  81 116 155 200 260 300 352
#     4  10  18  36  59  89 121 158 211 256 304 360
#
# _framework density 24.518038000000001
#
# number of rings (size 3 to 8) (size 9 to 14) (size 15 to 20)
#    0.000    2.000    5.000    2.625    1.750    4.000 
#    0.000    0.625    0.000    1.500    0.000   14.875 
#    0.000    0.000    0.000    0.000    0.000    0.000 
#
# Total GULP energy -89189.178383 kJ/mol
# GULP energy per Si atom -5574.323649 kJ/mol
# Density = 2.446223 g / cm^3
# Si number density = 24.518038 Si / 1000 Ang^3
#
#
#
# Elastic Constant Matrix: (Units=GPa)
#
#
# Indices 1 2 3 4 5 6 
#
# 1 73.6157 18.7746 22.2905 -13.9888 12.5336 -11.0365
# 2 18.7746 151.1832 47.2102 -40.1226 -5.7840 -9.1077
# 3 22.2905 47.2102 83.2973 -31.9433 -21.8745 -13.6884
# 4 -13.9888 -40.1226 -31.9433 52.3066 6.7449 6.6434
# 5 12.5336 -5.7840 -21.8745 6.7449 29.5655 -8.5471
# 6 -11.0365 -9.1077 -13.6884 6.6434 -8.5471 45.7124
#
#
#
# Elastic Compliance Matrix: (Units=1/GPa)
#
#
# Indices 1 2 3 4 5 6 
#
# 1 0.018906 0.000229 -0.008505 0.002113 -0.015051 -0.001058
# 2 0.000229 0.009028 -0.004084 0.004905 -0.002638 -0.000575
# 3 -0.008505 -0.004084 0.026818 0.006842 0.023566 0.008575
# 4 0.002113 0.004905 0.006842 0.027915 -0.001473 -0.000796
# 5 -0.015051 -0.002638 0.023566 -0.001473 0.061694 0.014647
# 6 -0.001058 -0.000575 0.008575 -0.000796 0.014647 0.026928
#
#
# Mechanical properties :
#
#
# Convention : Reuss Voigt Hill
#
# Bulk Modulus (GPa) = 33.29839 53.84966 43.57402
# Shear Modulus (GPa) = 24.26957 40.17161 32.22059
#
# Velocity S-wave (km/s) = 3.14963 4.05217 3.62907
# Velocity P-wave (km/s) = 5.18049 6.62604 5.94735
#
# Compressibility (1/GPa) = 0.03003148
#
# Stress axis : x y z
#
# Youngs Moduli (GPa) = 52.89205 110.77158 37.28885
#
# Poissons Ratio (x) = -0.02541 0.31715
# Poissons Ratio (y) = -0.01213 0.15229
# Poissons Ratio (z) = 0.44986 0.45241
#
# Static dielectric constant tensor:
#      x y z
#    x 1.368350 0.972930 -0.883040 
#    y 0.972930 0.712080 1.211580 
#    z -0.883040 1.211580 0.936540 
# 
# From -- ./inp_files/514170.got.cif
#   From: 2010.05.17/outbox.cif.g08.bks.cpg/sg2_258_cif.got.tgz:514170.got - 2010.06.03 11:33:40.
