data_PCOD9075089
_publ_section_title
;
Structure prediction by ZEFSAII (Michael W. Deem and Ramdas Pophale) SiO2 
 PCOD9075089
Probable space group: P -1
;
_chemical_formula_sum "Si O2"
_cell_formula_units_Z 16
_cell_length_a 9.000000
_cell_length_b 12.000000
_cell_length_c 9.000000
_cell_angle_alpha 100.000000
_cell_angle_beta 50.000000
_cell_angle_gamma 90.000000
_cell_volume 725.212580
_symmetry_space_group_name_H-M "P -1"
_symmetry_group_IT_number 2
_symmetry_cell_setting 'triclinic'
loop_
_space_group_symop_operation_xyz
x,y,z
-x,-y,-z
loop_
_atom_site_type_symbol
_atom_site_label
_atom_site_fract_x
_atom_site_fract_y
_atom_site_fract_z
Si Si1 0.416933 0.416603 0.418615
Si Si2 0.077950 0.259605 0.261131
Si Si3 0.990837 0.645058 0.340433
Si Si4 0.310107 0.449509 0.161414
Si Si5 0.287803 0.033862 0.215268
Si Si6 0.618524 0.897284 0.489844
Si Si7 0.272772 0.770752 0.745526
Si Si8 0.069193 0.857335 0.169753
O O1 0.500000 0.500000 0.500000
O O2 0.327742 0.464585 0.331067
O O3 0.613334 0.328351 0.246334
O O4 0.228104 0.360391 0.579877
O O5 0.267363 0.322748 0.117746
O O6 0.164725 0.131410 0.217264
O O7 0.010964 0.314335 0.477274
O O8 0.897977 0.263398 0.260436
O O9 0.118996 0.522653 0.231074
O O10 0.089452 0.731729 0.198158
O O11 0.500000 0.500000 0.000000
O O12 0.332581 0.077902 0.361880
O O13 0.156986 0.932486 0.256600
O O14 0.500000 0.000000 0.000000
O O15 0.462668 0.808060 0.552596
O O16 0.839237 0.879709 0.282849
O O17 0.500000 0.000000 0.500000
O O18 0.181169 0.864940 0.944629
#
# Coordination Sequence:
#
# PCOD9075089 Si02
#       8
#     2   2   2   2   2   2   2   2
#     4  11  22  44  70  98 138 177 227 286 342 404
#     4  11  25  46  68  98 140 182 232 281 344 413
#     4  11  23  44  71  99 136 185 227 280 354 409
#     4  11  24  43  69 102 134 180 232 284 344 413
#     4  12  26  46  72 100 140 188 227 284 346 409
#     4  12  26  46  69 102 136 180 233 282 342 405
#     4  12  25  45  68 104 139 179 228 289 339 403
#     4  12  26  45  71 101 145 180 231 282 343 415
#
# _framework density 22.062495999999999
#
# number of rings (size 3 to 8) (size 9 to 14) (size 15 to 20)
#    0.000    0.500    3.750    5.625    5.250    2.000 
#    2.250    2.500    0.000    0.000    0.000    0.000 
#    0.000    0.000    0.000    0.000    0.000    0.000 
#
# Total GULP energy -89164.527797 kJ/mol
# GULP energy per Si atom -5572.782987 kJ/mol
# Density = 2.201228 g / cm^3
# Si number density = 22.062496 Si / 1000 Ang^3
#
#
#
# Elastic Constant Matrix: (Units=GPa)
#
#
# Indices 1 2 3 4 5 6 
#
# 1 180.7979 41.3436 17.9212 -5.5886 -17.0331 18.7147
# 2 41.3436 78.0373 14.9897 -15.2590 -6.6537 9.2362
# 3 17.9212 14.9897 44.9198 -1.8921 -29.1884 4.8809
# 4 -5.5886 -15.2590 -1.8921 21.2825 7.2831 -7.5965
# 5 -17.0331 -6.6537 -29.1884 7.2831 21.1748 -0.2658
# 6 18.7147 9.2362 4.8809 -7.5965 -0.2658 54.3969
#
#
#
# Elastic Compliance Matrix: (Units=1/GPa)
#
#
# Indices 1 2 3 4 5 6 
#
# 1 0.003937 0.003010 -0.031115 0.016740 -0.044497 0.003047
# 2 0.003010 0.002511 0.067127 -0.032004 0.106605 -0.011433
# 3 -0.031115 0.067127 -0.313039 0.203986 -0.504937 0.053414
# 4 0.016740 -0.032004 0.203986 -0.068252 0.307736 -0.026656
# 5 -0.044497 0.106605 -0.504937 0.307736 -0.755922 0.081795
# 6 0.003047 -0.011433 0.053414 -0.026656 0.081795 0.011161
#
#
# Mechanical properties :
#
#
# Convention : Reuss Voigt Hill
#
# Bulk Modulus (GPa) = -4.37543 50.25157 22.93807
# Shear Modulus (GPa) = -3.92517 34.67087 15.37285
#
# Velocity S-wave (km/s) = -1.33528 3.96850 2.64253
# Velocity P-wave (km/s) = 2.08921 6.62004 4.44186
#
# Compressibility (1/GPa) = -0.22854872
#
# Stress axis : x y z
#
# Youngs Moduli (GPa) = 254.00255 398.29165 -3.19449
#
# Poissons Ratio (x) = -1.19871 -0.09940
# Poissons Ratio (y) = -0.76445 0.21443
# Poissons Ratio (z) = 7.90325 -26.73593
#
# Static dielectric constant tensor:
#      x y z
#    x 1.693960 0.028390 -0.011240 
#    y 0.028390 2.095510 -0.050630 
#    z -0.011240 -0.050630 1.878100 
# 
# From -- ./inp_files/188149.got.cif
#   From: 2010.05.17/outbox.ucp.g08.bks.cvg/sg2_95_cif.got.tgz:188149.got - 2010.06.11 11:32:03.
