data_PCOD9075748
_publ_section_title
;
Structure prediction by ZEFSAII (Michael W. Deem and Ramdas Pophale) SiO2 
 PCOD9075748
Probable space group: P -1
;
_chemical_formula_sum "Si O2"
_cell_formula_units_Z 16
_cell_length_a 12.178663
_cell_length_b 8.325318
_cell_length_c 7.856394
_cell_angle_alpha 78.488046
_cell_angle_beta 87.072486
_cell_angle_gamma 51.232538
_cell_volume 605.732983
_symmetry_space_group_name_H-M "P -1"
_symmetry_group_IT_number 2
_symmetry_cell_setting 'triclinic'
loop_
_space_group_symop_operation_xyz
x,y,z
-x,-y,-z
loop_
_atom_site_type_symbol
_atom_site_label
_atom_site_fract_x
_atom_site_fract_y
_atom_site_fract_z
Si Si1 0.577654 0.755875 0.054786
Si Si2 0.124122 0.010418 0.932030
Si Si3 0.759913 0.574299 0.367062
Si Si4 0.743215 0.232986 0.528461
Si Si5 0.451510 0.840502 0.382033
Si Si6 0.850389 0.830419 0.754928
Si Si7 0.950668 0.420913 0.701530
Si Si8 0.291941 0.580921 0.137082
O O1 0.727076 0.655340 0.159005
O O2 0.493954 0.735316 0.212022
O O3 0.588978 0.642838 0.907919
O O4 0.500000 0.000000 0.000000
O O5 0.082048 0.170371 0.746989
O O6 0.146485 0.113034 0.065062
O O7 0.254575 0.762413 0.969501
O O8 0.000000 0.000000 0.000000
O O9 0.779725 0.359029 0.396630
O O10 0.606206 0.761987 0.431435
O O11 0.876153 0.520970 0.504130
O O12 0.389955 0.752471 0.520247
O O13 0.864367 0.985837 0.611819
O O14 0.701116 0.346240 0.692848
O O15 0.309057 0.077128 0.305721
O O16 0.959686 0.586475 0.758679
O O17 0.838272 0.423337 0.823129
#
# Coordination Sequence:
#
# PCOD9075748 Si02
#       8
#     2   2   2   2   2   2   2   2
#     4  10  20  34  49  77 112 143 169 209 266 319
#     4   9  18  33  53  78 102 134 180 225 254 304
#     4   9  19  33  51  76 112 136 174 211 263 314
#     4   8  16  33  49  76 102 134 176 216 244 309
#     4   8  18  30  52  72 114 129 176 204 262 306
#     4   9  17  30  52  81 105 130 173 220 265 298
#     4  10  18  32  55  79 102 140 176 223 256 297
#     4   9  18  33  53  74 106 139 180 208 263 309
#
# _framework density 26.414279000000001
#
# number of rings (size 3 to 8) (size 9 to 14) (size 15 to 20)
#    1.500    1.500    0.000    2.250    0.000    1.000 
#    2.250    0.625    0.000    0.000    0.000    7.875 
#    0.000    0.000    0.000    0.000    0.000    0.000 
#
# Total GULP energy -89146.781458 kJ/mol
# GULP energy per Si atom -5571.673841 kJ/mol
# Density = 2.635416 g / cm^3
# Si number density = 26.414279 Si / 1000 Ang^3
#
#
#
# Elastic Constant Matrix: (Units=GPa)
#
#
# Indices 1 2 3 4 5 6 
#
# 1 66.3041 18.9800 15.2185 -0.0296 18.4304 2.3568
# 2 18.9800 118.1283 51.2535 -10.2239 -0.3261 14.1879
# 3 15.2185 51.2535 100.5618 -7.3456 21.0406 7.4949
# 4 -0.0296 -10.2239 -7.3456 43.9688 -5.5180 2.4120
# 5 18.4304 -0.3261 21.0406 -5.5180 28.5977 1.9478
# 6 2.3568 14.1879 7.4949 2.4120 1.9478 26.6098
#
#
#
# Elastic Compliance Matrix: (Units=1/GPa)
#
#
# Indices 1 2 3 4 5 6 
#
# 1 0.020084 -0.004629 0.002205 -0.002685 -0.015234 0.001427
# 2 -0.004629 0.013481 -0.007533 0.003405 0.009723 -0.005676
# 3 0.002205 -0.007533 0.016217 -0.000766 -0.013608 0.000319
# 4 -0.002685 0.003405 -0.000766 0.024554 0.007351 -0.004126
# 5 -0.015234 0.009723 -0.013608 0.007351 0.056655 -0.004815
# 6 0.001427 -0.005676 0.000319 -0.004126 -0.004815 0.041117
#
#
# Mechanical properties :
#
#
# Convention : Reuss Voigt Hill
#
# Bulk Modulus (GPa) = 33.48145 50.65535 42.06840
# Shear Modulus (GPa) = 24.75528 33.13809 28.94668
#
# Velocity S-wave (km/s) = 3.06468 3.54581 3.31399
# Velocity P-wave (km/s) = 5.02256 5.99855 5.53212
#
# Compressibility (1/GPa) = 0.02986729
#
# Stress axis : x y z
#
# Youngs Moduli (GPa) = 49.79184 74.17981 61.66306
#
# Poissons Ratio (x) = 0.34340 -0.13596
# Poissons Ratio (y) = 0.23050 0.46449
# Poissons Ratio (z) = -0.10979 0.55878
#
# Static dielectric constant tensor:
#      x y z
#    x 2.260500 -0.031690 0.032770 
#    y -0.031690 2.071600 -0.070360 
#    z 0.032770 -0.070360 2.122110 
# 
# From -- ./inp_files/326202.got.cif
#   From: 2010.05.17/outbox.cif.g08.bks.cpg/sg2_164_cif.got.tgz:326202.got - 2010.06.03 11:33:40.
