data_PCOD9075673
_publ_section_title
;
Structure prediction by ZEFSAII (Michael W. Deem and Ramdas Pophale) SiO2 
 PCOD9075673
Probable space group: P -1
;
_chemical_formula_sum "Si O2"
_cell_formula_units_Z 10
_cell_length_a 12.000000
_cell_length_b 9.000000
_cell_length_c 6.000000
_cell_angle_alpha 80.000000
_cell_angle_beta 60.000000
_cell_angle_gamma 50.000000
_cell_volume 419.095870
_symmetry_space_group_name_H-M "P -1"
_symmetry_group_IT_number 2
_symmetry_cell_setting 'triclinic'
loop_
_space_group_symop_operation_xyz
x,y,z
-x,-y,-z
loop_
_atom_site_type_symbol
_atom_site_label
_atom_site_fract_x
_atom_site_fract_y
_atom_site_fract_z
Si Si1 0.090472 0.074655 0.786353
Si Si2 0.381876 0.665125 0.380881
Si Si3 0.138226 0.602771 0.416543
Si Si4 0.401547 0.232676 0.024319
Si Si5 0.856877 0.714778 0.994690
O O1 0.933356 0.280111 0.774821
O O2 0.241711 0.892694 0.538626
O O3 0.181417 0.116703 0.854729
O O4 0.000000 0.000000 0.000000
O O5 0.500000 0.500000 0.500000
O O6 0.263188 0.627430 0.399986
O O7 0.499668 0.684301 0.105727
O O8 0.960151 0.709955 0.688407
O O9 0.253496 0.367725 0.320734
O O10 0.298164 0.278056 0.891802
O O11 0.500000 0.000000 0.000000
O O12 0.000000 0.500000 0.000000
#
# Coordination Sequence:
#
# PCOD9075673 Si02
#       5
#     2   2   2   2   2
#     4  12  26  47  78 103 138 195 247 284 351 438
#     4  12  27  48  73 107 146 190 237 298 360 426
#     4  12  26  51  74 101 147 194 242 287 353 442
#     4  12  28  44  72 110 145 184 232 307 365 403
#     4  12  26  48  74 104 142 188 244 292 354 430
#
# _framework density 23.860889
#
# number of rings (size 3 to 8) (size 9 to 14) (size 15 to 20)
#    0.000    0.000    4.000    5.400    8.400    0.800 
#    0.000    0.000    0.000    0.000    0.000    0.000 
#    0.000    0.000    0.000    0.000    0.000    0.000 
#
# Total GULP energy -55794.040296 kJ/mol
# GULP energy per Si atom -5579.404030 kJ/mol
# Density = 2.380658 g / cm^3
# Si number density = 23.860889 Si / 1000 Ang^3
#
#
#
# Elastic Constant Matrix: (Units=GPa)
#
#
# Indices 1 2 3 4 5 6 
#
# 1 95.3878 -13.5154 11.6099 10.9947 -9.2109 27.7544
# 2 -13.5154 115.2953 22.6519 23.8377 12.2162 3.5843
# 3 11.6099 22.6519 43.7419 14.9653 1.4554 8.7636
# 4 10.9947 23.8377 14.9653 48.7162 12.7339 2.0214
# 5 -9.2109 12.2162 1.4554 12.7339 23.7768 9.4938
# 6 27.7544 3.5843 8.7636 2.0214 9.4938 46.1837
#
#
#
# Elastic Compliance Matrix: (Units=1/GPa)
#
#
# Indices 1 2 3 4 5 6 
#
# 1 0.017202 0.002753 -0.001038 -0.008280 0.014965 -0.013068
# 2 0.002753 0.010980 -0.004760 -0.004047 -0.001685 -0.001080
# 3 -0.001038 -0.004760 0.029214 -0.007940 0.006739 -0.005588
# 4 -0.008280 -0.004047 -0.007940 0.032096 -0.021772 0.009867
# 5 0.014965 -0.001685 0.006739 -0.021772 0.069328 -0.023440
# 6 -0.013068 -0.001080 -0.005588 0.009867 -0.023440 0.035037
#
#
# Mechanical properties :
#
#
# Convention : Reuss Voigt Hill
#
# Bulk Modulus (GPa) = 19.49127 32.87976 26.18552
# Shear Modulus (GPa) = 23.03633 39.31392 31.17512
#
# Velocity S-wave (km/s) = 3.11053 4.06350 3.61853
# Velocity P-wave (km/s) = 4.59205 5.98546 5.33445
#
# Compressibility (1/GPa) = 0.05130502
#
# Stress axis : x y z
#
# Youngs Moduli (GPa) = 58.13371 91.07447 34.23040
#
# Poissons Ratio (x) = -0.25073 0.03554
# Poissons Ratio (y) = -0.16004 0.16293
# Poissons Ratio (z) = 0.06036 0.43351
#
# Static dielectric constant tensor:
#      x y z
#    x 1.807270 0.153900 0.001890 
#    y 0.153900 1.522090 0.313240 
#    z 0.001890 0.313240 1.107830 
# 
# From -- ./inp_files/15272.got.cif
#   From: 2010.05.17/outbox.ucp.g08.bks.cvg/sg2_8_cif.got.tgz:15272.got - 2010.06.11 11:32:03.
