data_PCOD9075412
_publ_section_title
;
Structure prediction by ZEFSAII (Michael W. Deem and Ramdas Pophale) SiO2 
 PCOD9075412
Probable space group: P -1
;
_chemical_formula_sum "Si O2"
_cell_formula_units_Z 15
_cell_length_a 21.000000
_cell_length_b 12.000000
_cell_length_c 15.000000
_cell_angle_alpha 140.000000
_cell_angle_beta 160.000000
_cell_angle_gamma 30.000000
_cell_volume 620.704002
_symmetry_space_group_name_H-M "P -1"
_symmetry_group_IT_number 2
_symmetry_cell_setting 'triclinic'
loop_
_space_group_symop_operation_xyz
x,y,z
-x,-y,-z
loop_
_atom_site_type_symbol
_atom_site_label
_atom_site_fract_x
_atom_site_fract_y
_atom_site_fract_z
Si Si1 0.469941 0.965796 0.802464
Si Si2 0.438847 0.312167 0.078022
Si Si3 0.914005 0.571830 0.034133
Si Si4 0.951670 0.143379 0.610769
Si Si5 0.274376 0.152901 0.368815
Si Si6 0.000000 0.000000 0.000000
Si Si7 0.935503 0.201177 0.200811
Si Si8 0.423309 0.727136 0.085963
O O1 0.590533 0.790881 0.938085
O O2 0.628225 0.795048 0.822344
O O3 0.168985 0.134460 0.518256
O O4 0.493323 0.156879 0.968570
O O5 0.694406 0.259264 0.392702
O O6 0.200461 0.581837 0.913661
O O7 0.059012 0.652724 0.307315
O O8 0.028859 0.349438 0.108316
O O9 0.000000 0.500000 0.000000
O O10 0.000000 0.000000 0.500000
O O11 0.190022 0.963710 0.876037
O O12 0.361270 0.263664 0.612004
O O13 0.500000 0.000000 0.500000
O O14 0.214233 0.020087 0.265606
O O15 0.068666 0.975967 0.178799
O O16 0.705411 0.263227 0.987792
O O17 0.500000 0.500000 0.000000
#
# Coordination Sequence:
#
# PCOD9075412 Si02
#       8
#     2   2   2   2   2   1   2   2
#     4  11  26  46  74 111 157 200 264 335 397 482
#     4  11  24  47  74 109 153 201 265 330 398 474
#     4  12  28  47  77 113 154 211 261 336 404 482
#     4  12  24  47  73 112 151 202 266 324 401 479
#     4  12  27  54  78 116 163 212 275 327 413 487
#     4  12  30  48  82 112 160 218 272 328 394 494
#     4  12  26  48  75 115 153 211 264 327 405 478
#     4  12  27  47  83 117 158 211 266 336 404 484
#
# _framework density 24.166108000000001
#
# number of rings (size 3 to 8) (size 9 to 14) (size 15 to 20)
#    0.000    0.267    4.000    4.400    3.733    1.067 
#    0.000    2.000    0.000    0.000    0.000    0.000 
#    0.000    0.000    0.000    0.000    0.000    0.000 
#
# Total GULP energy -83555.187530 kJ/mol
# GULP energy per Si atom -5570.345835 kJ/mol
# Density = 2.411110 g / cm^3
# Si number density = 24.166108 Si / 1000 Ang^3
#
#
#
# Elastic Constant Matrix: (Units=GPa)
#
#
# Indices 1 2 3 4 5 6 
#
# 1 87.3977 12.6671 22.4005 14.8648 17.7078 -10.8491
# 2 12.6671 15.3938 23.7534 7.3297 12.7588 9.8410
# 3 22.4005 23.7534 111.8918 1.8750 14.3356 14.9398
# 4 14.8648 7.3297 1.8750 46.3007 9.1946 0.7643
# 5 17.7078 12.7588 14.3356 9.1946 44.0208 -4.6573
# 6 -10.8491 9.8410 14.9398 0.7643 -4.6573 40.5775
#
#
#
# Elastic Compliance Matrix: (Units=1/GPa)
#
#
# Indices 1 2 3 4 5 6 
#
# 1 0.015335 -0.015135 -0.000889 -0.002608 -0.000087 0.008137
# 2 -0.015135 0.184924 -0.024821 -0.014525 -0.041068 -0.044196
# 3 -0.000889 -0.024821 0.013897 0.003148 0.002462 0.000889
# 4 -0.002608 -0.014525 0.003148 0.024752 -0.000819 0.001106
# 5 -0.000087 -0.041068 0.002462 -0.000819 0.035411 0.013110
# 6 0.008137 -0.044196 0.000889 0.001106 0.013110 0.038695
#
#
# Mechanical properties :
#
#
# Convention : Reuss Voigt Hill
#
# Bulk Modulus (GPa) = 7.54912 36.92506 22.23709
# Shear Modulus (GPa) = 11.39318 36.57061 23.98190
#
# Velocity S-wave (km/s) = 2.17365 3.89434 3.15362
# Velocity P-wave (km/s) = 3.07088 5.96104 4.74154
#
# Compressibility (1/GPa) = 0.13246584
#
# Stress axis : x y z
#
# Youngs Moduli (GPa) = 65.21185 5.40763 71.95546
#
# Poissons Ratio (x) = 0.08185 0.06393
# Poissons Ratio (y) = 0.98701 1.78602
# Poissons Ratio (z) = 0.05794 0.13422
#
# Static dielectric constant tensor:
#      x y z
#    x 2.011570 0.002540 -0.012000 
#    y 0.002540 1.942250 0.136130 
#    z -0.012000 0.136130 1.937110 
# 
# From -- ./inp_files/541145.got.cif
#   From: 2010.05.17/outbox.ucp.g08.bks.cvg/sg2_271_cif.got.tgz:541145.got - 2010.06.11 11:32:03.
