data_PCOD9075766
_publ_section_title
;
Structure prediction by ZEFSAII (Michael W. Deem and Ramdas Pophale) SiO2 
 PCOD9075766
Probable space group: P -1
;
_chemical_formula_sum "Si O2"
_cell_formula_units_Z 16
_cell_length_a 10.969646
_cell_length_b 11.906282
_cell_length_c 18.498538
_cell_angle_alpha 44.498769
_cell_angle_beta 146.059113
_cell_angle_gamma 122.283228
_cell_volume 935.177374
_symmetry_space_group_name_H-M "P -1"
_symmetry_group_IT_number 2
_symmetry_cell_setting 'triclinic'
loop_
_space_group_symop_operation_xyz
x,y,z
-x,-y,-z
loop_
_atom_site_type_symbol
_atom_site_label
_atom_site_fract_x
_atom_site_fract_y
_atom_site_fract_z
Si Si1 0.221834 0.575707 0.393554
Si Si2 0.263506 0.891710 0.354370
Si Si3 0.666947 0.510312 0.971105
Si Si4 0.720080 0.662405 0.084331
Si Si5 0.547061 0.798677 0.664695
Si Si6 0.368717 0.637683 0.275690
Si Si7 0.140498 0.998325 0.994447
Si Si8 0.111235 0.404515 0.166523
O O1 0.309837 0.728768 0.404459
O O2 0.271493 0.594533 0.325038
O O3 0.368971 0.414144 0.568354
O O4 0.960492 0.588645 0.267912
O O5 0.320146 0.833267 0.491475
O O6 0.407915 0.037404 0.349046
O O7 0.024098 0.967245 0.170874
O O8 0.477485 0.400558 0.941599
O O9 0.584437 0.647073 0.807253
O O10 0.705002 0.603522 0.021328
O O11 0.900160 0.401632 0.115444
O O12 0.719863 0.854483 0.998448
O O13 0.738226 0.754561 0.717243
O O14 0.284624 0.824741 0.135622
O O15 0.268886 0.521472 0.224509
O O16 0.000000 0.000000 0.000000
O O17 0.000000 0.500000 0.000000
#
# Coordination Sequence:
#
# PCOD9075766 Si02
#       8
#     2   2   2   2   2   2   2   2
#     4  10  20  33  54  84 111 136 186 229 274 319
#     4  10  19  33  54  85 105 139 185 230 274 319
#     4  10  20  35  56  79 114 147 184 218 282 331
#     4  10  20  35  57  83 109 147 183 225 275 339
#     4  10  20  33  56  81 113 144 183 229 271 324
#     4  11  19  32  57  83 109 139 180 237 274 307
#     4  11  18  32  55  81 107 139 183 234 271 310
#     4  10  18  32  55  82 106 142 180 223 270 324
#
# _framework density 17.109052999999999
#
# number of rings (size 3 to 8) (size 9 to 14) (size 15 to 20)
#    0.000    1.750    5.000    2.250    0.000    0.000 
#    0.000    2.500    5.500    7.500    0.000    0.000 
#    0.000    0.000    0.000    0.000    0.000    0.000 
#
# Total GULP energy -89084.481405 kJ/mol
# GULP energy per Si atom -5567.780088 kJ/mol
# Density = 1.707011 g / cm^3
# Si number density = 17.109053 Si / 1000 Ang^3
#
#
#
# Elastic Constant Matrix: (Units=GPa)
#
#
# Indices 1 2 3 4 5 6 
#
# 1 48.7164 27.0174 26.0069 1.5480 1.2244 8.4392
# 2 27.0174 89.7215 45.9073 7.6859 -2.5631 1.3629
# 3 26.0069 45.9073 129.9628 -10.0734 5.6632 3.5381
# 4 1.5480 7.6859 -10.0734 29.1646 -6.6333 -1.4491
# 5 1.2244 -2.5631 5.6632 -6.6333 23.7857 2.9179
# 6 8.4392 1.3629 3.5381 -1.4491 2.9179 21.8812
#
#
#
# Elastic Compliance Matrix: (Units=1/GPa)
#
#
# Indices 1 2 3 4 5 6 
#
# 1 0.027478 -0.006470 -0.003033 -0.001419 -0.000593 -0.009719
# 2 -0.006470 0.016054 -0.004890 -0.005130 0.001584 0.001735
# 3 -0.003033 -0.004890 0.010455 0.004716 -0.001583 0.000307
# 4 -0.001419 -0.005130 0.004716 0.039519 0.009236 0.001490
# 5 -0.000593 0.001584 -0.001583 0.009236 0.045823 -0.005113
# 6 -0.009719 0.001735 0.000307 0.001490 -0.005113 0.050073
#
#
# Mechanical properties :
#
#
# Convention : Reuss Voigt Hill
#
# Bulk Modulus (GPa) = 39.68080 51.80711 45.74396
# Shear Modulus (GPa) = 22.06648 26.26425 24.16536
#
# Velocity S-wave (km/s) = 3.59521 3.92230 3.76231
# Velocity P-wave (km/s) = 6.36218 7.13154 6.75781
#
# Compressibility (1/GPa) = 0.02520111
#
# Stress axis : x y z
#
# Youngs Moduli (GPa) = 36.39282 62.28814 95.64945
#
# Poissons Ratio (x) = 0.40303 0.29006
# Poissons Ratio (y) = 0.23548 0.46773
# Poissons Ratio (z) = 0.11036 0.30459
#
# Static dielectric constant tensor:
#      x y z
#    x 1.590660 -0.022770 0.005750 
#    y -0.022770 1.562130 0.008730 
#    z 0.005750 0.008730 1.650360 
# 
# From -- ./inp_files/418259.got.cif
#   From: 2010.05.17/outbox.cif.g08.bks.cpg/sg2_210_cif.got.tgz:418259.got - 2010.06.03 11:33:40.
