data_PCOD9075367
_publ_section_title
;
Structure prediction by ZEFSAII (Michael W. Deem and Ramdas Pophale) SiO2 
 PCOD9075367
Probable space group: P -1
;
_chemical_formula_sum "Si O2"
_cell_formula_units_Z 15
_cell_length_a 9.000000
_cell_length_b 9.000000
_cell_length_c 21.000000
_cell_angle_alpha 140.000000
_cell_angle_beta 40.000000
_cell_angle_gamma 140.000000
_cell_volume 633.252849
_symmetry_space_group_name_H-M "P -1"
_symmetry_group_IT_number 2
_symmetry_cell_setting 'triclinic'
loop_
_space_group_symop_operation_xyz
x,y,z
-x,-y,-z
loop_
_atom_site_type_symbol
_atom_site_label
_atom_site_fract_x
_atom_site_fract_y
_atom_site_fract_z
Si Si1 0.573726 0.653901 0.280217
Si Si2 0.439899 0.938649 0.801535
Si Si3 0.724185 0.560023 0.396746
Si Si4 0.027952 0.406822 0.340570
Si Si5 0.985411 0.963766 0.353729
Si Si6 0.139215 0.080126 0.842129
Si Si7 0.319497 0.829348 0.947023
Si Si8 0.000000 0.500000 0.500000
O O1 0.268195 0.566461 0.363489
O O2 0.794576 0.811602 0.308900
O O3 0.628421 0.799298 0.243566
O O4 0.611222 0.402866 0.168182
O O5 0.353406 0.654030 0.704553
O O6 0.368802 0.961865 0.905359
O O7 0.272705 0.041457 0.848141
O O8 0.750422 0.069034 0.741378
O O9 0.500000 0.500000 0.500000
O O10 0.819280 0.838139 0.428390
O O11 0.958854 0.555121 0.358143
O O12 0.823373 0.317952 0.434996
O O13 0.047733 0.179443 0.219863
O O14 0.059401 0.259156 0.424666
O O15 0.972571 0.235799 0.959759
O O16 0.500000 0.000000 0.000000
#
# Coordination Sequence:
#
# PCOD9075367 Si02
#       8
#     2   2   2   2   2   2   2   1
#     4  12  24  45  73 105 144 189 241 304 362 428
#     4  11  25  47  71 105 151 189 239 304 360 436
#     4  11  26  48  74 104 147 195 244 301 369 436
#     4  11  25  44  68 104 141 188 240 303 358 430
#     4  12  26  47  74 109 146 193 245 302 369 434
#     4  11  24  45  70 106 145 187 243 296 364 433
#     4  12  23  45  75 105 146 190 241 303 361 429
#     4  12  26  44  74 102 146 182 252 298 362 426
#
# _framework density 23.687221000000001
#
# number of rings (size 3 to 8) (size 9 to 14) (size 15 to 20)
#    0.000    0.533    4.000    4.000    1.867    4.800 
#    0.000    1.333    0.000    0.000    0.000    0.000 
#    0.000    0.000    0.000    0.000    0.000    0.000 
#
# Total GULP energy -83570.347969 kJ/mol
# GULP energy per Si atom -5571.356531 kJ/mol
# Density = 2.363331 g / cm^3
# Si number density = 23.687221 Si / 1000 Ang^3
#
#
#
# Elastic Constant Matrix: (Units=GPa)
#
#
# Indices 1 2 3 4 5 6 
#
# 1 161.8185 54.3739 50.4941 6.6883 18.6455 10.3348
# 2 54.3739 63.5723 9.1859 -17.7402 -1.9671 -2.9527
# 3 50.4941 9.1859 77.7566 2.9655 1.9575 -1.8862
# 4 6.6883 -17.7402 2.9655 38.0902 0.8308 6.9286
# 5 18.6455 -1.9671 1.9575 0.8308 45.8753 -14.3549
# 6 10.3348 -2.9527 -1.8862 6.9286 -14.3549 34.7401
#
#
#
# Elastic Compliance Matrix: (Units=1/GPa)
#
#
# Indices 1 2 3 4 5 6 
#
# 1 0.015658 -0.014948 -0.008103 -0.007288 -0.009263 -0.008742
# 2 -0.014948 0.032859 0.005183 0.015801 0.009584 0.008330
# 3 -0.008103 0.005183 0.017475 0.001408 0.004417 0.005344
# 4 -0.007288 0.015801 0.001408 0.035199 0.002146 -0.002546
# 5 -0.009263 0.009584 0.004417 0.002146 0.030785 0.016103
# 6 -0.008742 0.008330 0.005344 -0.002546 0.016103 0.039546
#
#
# Mechanical properties :
#
#
# Convention : Reuss Voigt Hill
#
# Bulk Modulus (GPa) = 33.05063 59.02834 46.03948
# Shear Modulus (GPa) = 23.00514 36.34735 29.67625
#
# Velocity S-wave (km/s) = 3.11980 3.92148 3.54338
# Velocity P-wave (km/s) = 5.19237 6.74374 6.01825
#
# Compressibility (1/GPa) = 0.03025661
#
# Stress axis : x y z
#
# Youngs Moduli (GPa) = 63.86550 30.43304 57.22440
#
# Poissons Ratio (x) = 0.45491 0.46369
# Poissons Ratio (y) = 0.95466 -0.29661
# Poissons Ratio (z) = 0.51751 -0.15774
#
# Static dielectric constant tensor:
#      x y z
#    x 1.956810 -0.203220 0.159870 
#    y -0.203220 3.228320 -1.089930 
#    z 0.159870 -1.089930 2.823470 
# 
# From -- ./inp_files/53031.got.cif
#   From: 2010.05.17/outbox.ucp.g08.bks.cvg/sg2_27_cif.got.tgz:53031.got - 2010.06.11 11:32:03.
