data_PCOD9075804
_publ_section_title
;
Structure prediction by ZEFSAII (Michael W. Deem and Ramdas Pophale) SiO2 
 PCOD9075804
Probable space group: P -1
;
_chemical_formula_sum "Si O2"
_cell_formula_units_Z 14
_cell_length_a 20.433487
_cell_length_b 7.981242
_cell_length_c 11.930027
_cell_angle_alpha 36.159636
_cell_angle_beta 152.729865
_cell_angle_gamma 137.666874
_cell_volume 524.306296
_symmetry_space_group_name_H-M "P -1"
_symmetry_group_IT_number 2
_symmetry_cell_setting 'triclinic'
loop_
_space_group_symop_operation_xyz
x,y,z
-x,-y,-z
loop_
_atom_site_type_symbol
_atom_site_label
_atom_site_fract_x
_atom_site_fract_y
_atom_site_fract_z
Si Si1 0.452255 0.891359 0.364469
Si Si2 0.964923 0.042434 0.139975
Si Si3 0.338048 0.303886 0.790630
Si Si4 0.822982 0.429790 0.894474
Si Si5 0.173627 0.745652 0.750564
Si Si6 0.258816 0.923145 0.398411
Si Si7 0.393212 0.766957 0.902782
O O1 0.596025 0.889686 0.513051
O O2 0.500000 0.000000 0.500000
O O3 0.363725 0.122199 0.039739
O O4 0.349565 0.601251 0.366014
O O5 0.871991 0.965868 0.928834
O O6 0.084502 0.287785 0.152196
O O7 0.871674 0.187370 0.015010
O O8 0.032757 0.784286 0.444079
O O9 0.268872 0.598863 0.543360
O O10 0.238746 0.075143 0.692607
O O11 0.493020 0.369442 0.932043
O O12 0.851513 0.375710 0.098195
O O13 0.296212 0.612225 0.934916
O O14 0.275033 0.887072 0.575203
O O15 0.500000 0.000000 0.000000
#
# Coordination Sequence:
#
# PCOD9075804 Si02
#       7
#     2   2   2   2   2   2   2
#     4  10  18  32  55  87 118 144 197 255 291 338
#     4  11  22  37  61  90 125 156 203 253 293 364
#     4   9  19  36  63  88 116 156 205 250 295 351
#     4  10  21  38  59  89 125 159 203 249 300 355
#     4  10  21  38  63  86 125 167 194 239 314 365
#     4  11  21  38  64  92 117 156 208 252 297 351
#     4   9  19  37  61  86 121 161 197 245 310 360
#
# _framework density 26.701948000000002
#
# number of rings (size 3 to 8) (size 9 to 14) (size 15 to 20)
#    0.000    2.000    1.429    4.714    0.000    1.714 
#    0.000    0.714   12.571    6.857    0.000    0.000 
#    0.000    0.000    0.000    0.000    0.000    0.000 
#
# Total GULP energy -78432.927549 kJ/mol
# GULP energy per Si atom -5602.351968 kJ/mol
# Density = 2.664117 g / cm^3
# Si number density = 26.701948 Si / 1000 Ang^3
#
#
#
# Elastic Constant Matrix: (Units=GPa)
#
#
# Indices 1 2 3 4 5 6 
#
# 1 149.1139 37.8397 39.3831 -9.5503 -33.1702 13.1847
# 2 37.8397 102.2217 35.0202 22.8252 0.7218 3.4473
# 3 39.3831 35.0202 159.0365 13.6057 -57.8873 2.7190
# 4 -9.5503 22.8252 13.6057 27.1822 -4.6357 3.7061
# 5 -33.1702 0.7218 -57.8873 -4.6357 44.3229 -1.5983
# 6 13.1847 3.4473 2.7190 3.7061 -1.5983 40.4634
#
#
#
# Elastic Compliance Matrix: (Units=1/GPa)
#
#
# Indices 1 2 3 4 5 6 
#
# 1 0.012624 -0.008686 0.003171 0.013268 0.014966 -0.004211
# 2 -0.008686 0.019891 -0.007229 -0.019611 -0.018220 0.002698
# 3 0.003171 -0.007229 0.014928 0.003641 0.022337 -0.000872
# 4 0.013268 -0.019611 0.003641 0.060731 0.021081 -0.007627
# 5 0.014966 -0.018220 0.022337 0.021081 0.065286 -0.004177
# 6 -0.004211 0.002698 -0.000872 -0.007627 -0.004177 0.026448
#
#
# Mechanical properties :
#
#
# Convention : Reuss Voigt Hill
#
# Bulk Modulus (GPa) = 45.54704 70.53978 58.04341
# Shear Modulus (GPa) = 21.48536 42.26897 31.87716
#
# Velocity S-wave (km/s) = 2.83969 3.98300 3.45891
# Velocity P-wave (km/s) = 5.27697 6.90125 6.14303
#
# Compressibility (1/GPa) = 0.02195532
#
# Stress axis : x y z
#
# Youngs Moduli (GPa) = 79.21202 50.27318 66.98602
#
# Poissons Ratio (x) = 0.43667 -0.21240
# Poissons Ratio (y) = 0.68803 0.48427
# Poissons Ratio (z) = -0.25117 0.36344
#
# Static dielectric constant tensor:
#      x y z
#    x 2.117470 -0.042350 -0.000150 
#    y -0.042350 2.093630 -0.019920 
#    z -0.000150 -0.019920 2.121120 
# 
# From -- ./inp_files/469256.got.cif
#   From: 2010.05.17/outbox.cif.g08.bks.cpg/sg2_235_cif.got.tgz:469256.got - 2010.06.03 11:33:40.
