data_PCOD9075081
_publ_section_title
;
Structure prediction by ZEFSAII (Michael W. Deem and Ramdas Pophale) SiO2 
 PCOD9075081
Probable space group: P -1
;
_chemical_formula_sum "Si O2"
_cell_formula_units_Z 16
_cell_length_a 9.000000
_cell_length_b 15.000000
_cell_length_c 9.000000
_cell_angle_alpha 140.000000
_cell_angle_beta 70.000000
_cell_angle_gamma 110.000000
_cell_volume 727.419504
_symmetry_space_group_name_H-M "P -1"
_symmetry_group_IT_number 2
_symmetry_cell_setting 'triclinic'
loop_
_space_group_symop_operation_xyz
x,y,z
-x,-y,-z
loop_
_atom_site_type_symbol
_atom_site_label
_atom_site_fract_x
_atom_site_fract_y
_atom_site_fract_z
Si Si1 0.924150 0.783435 0.936090
Si Si2 0.371822 0.544119 0.897059
Si Si3 0.894499 0.105821 0.383194
Si Si4 0.200419 0.303994 0.446728
Si Si5 0.495404 0.851319 0.887071
Si Si6 0.273593 0.443611 0.128537
Si Si7 0.380837 0.876512 0.296889
Si Si8 0.780622 0.277651 0.370854
O O1 0.867950 0.693000 0.692586
O O2 0.818712 0.709538 0.008330
O O3 0.106333 0.760080 0.849102
O O4 0.916801 0.947492 0.130112
O O5 0.272210 0.452256 0.685289
O O6 0.560416 0.539199 0.816755
O O7 0.311311 0.471387 0.979055
O O8 0.369250 0.710701 0.130240
O O9 0.793900 0.093871 0.554091
O O10 0.797017 0.170361 0.364823
O O11 0.057640 0.213667 0.472826
O O12 0.336957 0.206158 0.248715
O O13 0.388515 0.746031 0.679957
O O14 0.432721 0.871082 0.100613
O O15 0.500000 0.000000 0.000000
O O16 0.181202 0.567332 0.378432
O O17 0.500000 0.000000 0.500000
#
# Coordination Sequence:
#
# PCOD9075081 Si02
#       8
#     2   2   2   2   2   2   2   2
#     4  11  24  43  71  98 136 180 224 280 338 402
#     4  11  25  43  68  98 137 181 222 281 341 405
#     4  11  24  48  70  98 140 185 222 274 344 407
#     4  11  24  44  70  99 137 178 228 279 336 403
#     4  12  25  41  71 102 134 173 230 283 330 400
#     4  11  23  42  66  99 140 172 225 280 342 394
#     4  12  26  45  69 100 138 183 226 274 344 410
#     4  11  22  44  67 101 134 174 229 278 337 398
#
# _framework density 21.995560999999999
#
# number of rings (size 3 to 8) (size 9 to 14) (size 15 to 20)
#    0.000    0.750    2.500    6.375    1.750    3.500 
#    0.000    1.875    0.000    0.000    0.000    0.000 
#    0.000    0.000    0.000    0.000    0.000    0.000 
#
# Total GULP energy -89333.218310 kJ/mol
# GULP energy per Si atom -5583.326144 kJ/mol
# Density = 2.194550 g / cm^3
# Si number density = 21.995561 Si / 1000 Ang^3
#
#
#
# Elastic Constant Matrix: (Units=GPa)
#
#
# Indices 1 2 3 4 5 6 
#
# 1 33.2888 -18.1462 -13.2495 -2.7093 -23.4898 13.9487
# 2 -18.1462 67.2536 -25.1287 16.2038 -17.1016 30.0751
# 3 -13.2495 -25.1287 64.5214 23.2459 -15.7688 12.6377
# 4 -2.7093 16.2038 23.2459 34.3146 9.4693 -11.0833
# 5 -23.4898 -17.1016 -15.7688 9.4693 27.8992 -4.9112
# 6 13.9487 30.0751 12.6377 -11.0833 -4.9112 15.6080
#
#
#
# Elastic Compliance Matrix: (Units=1/GPa)
#
#
# Indices 1 2 3 4 5 6 
#
# 1 0.018838 -0.008638 -0.007645 0.015506 0.004209 0.018335
# 2 -0.008638 0.003921 -0.005771 0.005858 -0.009036 0.006154
# 3 -0.007645 -0.005771 0.007800 0.001704 -0.004110 0.011554
# 4 0.015506 0.005858 0.001704 0.021189 0.008889 -0.008681
# 5 0.004209 -0.009036 -0.004110 0.008889 0.034520 0.034153
# 6 0.018335 0.006154 0.011554 -0.008681 0.034153 0.031052
#
#
# Mechanical properties :
#
#
# Convention : Reuss Voigt Hill
#
# Bulk Modulus (GPa) = -73.79762 5.77947 -34.00907
# Shear Modulus (GPa) = 31.86514 30.33689 31.10101
#
# Velocity S-wave (km/s) = 3.81032 3.71782 3.76436
# Velocity P-wave (km/s) = 3.77703 4.58943 1.84350
#
# Compressibility (1/GPa) = -0.01355057
#
# Stress axis : x y z
#
# Youngs Moduli (GPa) = 53.08413 255.05706 128.21293
#
# Poissons Ratio (x) = 2.20327 0.98017
# Poissons Ratio (y) = 0.45856 0.73995
# Poissons Ratio (z) = 0.40582 1.47199
#
# Static dielectric constant tensor:
#      x y z
#    x 1.807000 -0.003630 -0.064490 
#    y -0.003630 1.807480 -0.017980 
#    z -0.064490 -0.017980 1.801840 
# 
# From -- ./inp_files/209213.got.cif
#   From: 2010.05.17/outbox.ucp.g08.bks.cvg/sg2_105_cif.got.tgz:209213.got - 2010.06.11 11:32:03.
