data_PCOD9075190
_publ_section_title
;
Structure prediction by ZEFSAII (Michael W. Deem and Ramdas Pophale) SiO2 
 PCOD9075190
Probable space group: P -1
;
_chemical_formula_sum "Si O2"
_cell_formula_units_Z 16
_cell_length_a 18.000000
_cell_length_b 6.000000
_cell_length_c 9.000000
_cell_angle_alpha 70.000000
_cell_angle_beta 110.000000
_cell_angle_gamma 70.000000
_cell_volume 733.231569
_symmetry_space_group_name_H-M "P -1"
_symmetry_group_IT_number 2
_symmetry_cell_setting 'triclinic'
loop_
_space_group_symop_operation_xyz
x,y,z
-x,-y,-z
loop_
_atom_site_type_symbol
_atom_site_label
_atom_site_fract_x
_atom_site_fract_y
_atom_site_fract_z
Si Si1 0.083717 0.484431 0.782959
Si Si2 0.767779 0.142836 0.876440
Si Si3 0.633946 0.372892 0.980984
Si Si4 0.201716 0.722670 0.688405
Si Si5 0.458905 0.922589 0.846655
Si Si6 0.889415 0.645718 0.618972
Si Si7 0.282599 0.454195 0.515841
Si Si8 0.927909 0.264662 0.988878
O O1 0.135099 0.598973 0.690651
O O2 0.995890 0.467350 0.669706
O O3 0.039872 0.714977 0.830994
O O4 0.164511 0.187759 0.971808
O O5 0.670266 0.253397 0.868625
O O6 0.739848 0.284889 0.662448
O O7 0.835033 0.256713 0.943867
O O8 0.547447 0.686510 0.868853
O O9 0.732131 0.319525 0.119843
O O10 0.600792 0.199236 0.093878
O O11 0.278241 0.549631 0.657770
O O12 0.145737 0.042417 0.526449
O O13 0.384087 0.179075 0.634744
O O14 0.500000 0.000000 0.000000
O O15 0.804218 0.596196 0.539184
O O16 0.906818 0.541571 0.825082
O O17 0.000000 0.000000 0.000000
#
# Coordination Sequence:
#
# PCOD9075190 Si02
#       8
#     2   2   2   2   2   2   2   2
#     4  12  25  41  68  98 142 190 226 272 338 402
#     4  11  25  44  68 100 140 181 229 276 334 409
#     4  11  24  45  71 101 133 174 229 282 346 411
#     4  12  24  42  67 101 138 178 233 279 340 400
#     4  11  23  46  77  99 131 177 221 287 358 402
#     4  11  25  40  64  98 140 179 234 276 323 399
#     4  11  25  44  69 100 138 179 227 287 337 402
#     4  11  23  43  65  93 137 188 229 269 336 399
#
# _framework density 21.821210000000001
#
# number of rings (size 3 to 8) (size 9 to 14) (size 15 to 20)
#    0.000    0.750    5.000    2.250    3.500    1.000 
#    0.000    0.625    0.000    0.000    0.000    0.000 
#    0.000    0.000    0.000    0.000    0.000    0.000 
#
# Total GULP energy -89216.823280 kJ/mol
# GULP energy per Si atom -5576.051455 kJ/mol
# Density = 2.177154 g / cm^3
# Si number density = 21.821210 Si / 1000 Ang^3
#
#
#
# Elastic Constant Matrix: (Units=GPa)
#
#
# Indices 1 2 3 4 5 6 
#
# 1 116.4676 23.8518 28.8860 -17.5506 -9.2810 -22.6843
# 2 23.8518 57.5541 23.4545 -25.8813 -12.2113 -23.2686
# 3 28.8860 23.4545 79.4250 -31.8812 -0.6426 -12.9560
# 4 -17.5506 -25.8813 -31.8812 45.3644 3.6173 1.0471
# 5 -9.2810 -12.2113 -0.6426 3.6173 38.8898 -6.3588
# 6 -22.6843 -23.2686 -12.9560 1.0471 -6.3588 34.2196
#
#
#
# Elastic Compliance Matrix: (Units=1/GPa)
#
#
# Indices 1 2 3 4 5 6 
#
# 1 0.011272 0.002615 -0.001663 0.004099 0.004632 0.009356
# 2 0.002615 0.046006 0.002194 0.026474 0.018611 0.036495
# 3 -0.001663 0.002194 0.019386 0.014020 0.000518 0.007396
# 4 0.004099 0.026474 0.014020 0.047227 0.009436 0.026336
# 5 0.004632 0.018611 0.000518 0.009436 0.035426 0.022216
# 6 0.009356 0.036495 0.007396 0.026336 0.022216 0.066364
#
#
# Mechanical properties :
#
#
# Convention : Reuss Voigt Hill
#
# Bulk Modulus (GPa) = 12.05467 45.09237 28.57352
# Shear Modulus (GPa) = 20.23965 35.51172 27.87569
#
# Velocity S-wave (km/s) = 3.04883 4.03847 3.57803
# Velocity P-wave (km/s) = 4.23439 6.51575 5.49478
#
# Compressibility (1/GPa) = 0.08295539
#
# Stress axis : x y z
#
# Youngs Moduli (GPa) = 88.71509 21.73648 51.58408
#
# Poissons Ratio (x) = -0.05684 0.08577
# Poissons Ratio (y) = -0.23197 -0.11317
# Poissons Ratio (z) = 0.14751 -0.04769
#
# Static dielectric constant tensor:
#      x y z
#    x 1.780420 -0.019160 -0.018320 
#    y -0.019160 1.862500 0.035690 
#    z -0.018320 0.035690 1.835570 
# 
# From -- ./inp_files/111578.got.cif
#   From: 2010.05.17/outbox.ucp.g08.bks.cvg/sg2_56_cif.got.tgz:111578.got - 2010.06.11 11:32:03.
