data_PCOD9075542
_publ_section_title
;
Structure prediction by ZEFSAII (Michael W. Deem and Ramdas Pophale) SiO2 
 PCOD9075542
Probable space group: P -1
;
_chemical_formula_sum "Si O2"
_cell_formula_units_Z 16
_cell_length_a 12.527467
_cell_length_b 11.726671
_cell_length_c 14.620485
_cell_angle_alpha 32.628735
_cell_angle_beta 60.439091
_cell_angle_gamma 87.207452
_cell_volume 627.842923
_symmetry_space_group_name_H-M "P -1"
_symmetry_group_IT_number 2
_symmetry_cell_setting 'triclinic'
loop_
_space_group_symop_operation_xyz
x,y,z
-x,-y,-z
loop_
_atom_site_type_symbol
_atom_site_label
_atom_site_fract_x
_atom_site_fract_y
_atom_site_fract_z
Si Si1 0.716111 0.902901 0.135547
Si Si2 0.173786 0.089697 0.102180
Si Si3 0.937602 0.228435 0.451171
Si Si4 0.630178 0.086229 0.605439
Si Si5 0.842683 0.925178 0.385036
Si Si6 0.405167 0.199143 0.554845
Si Si7 0.277592 0.389802 0.155428
Si Si8 0.401907 0.802958 0.079446
O O1 0.500000 0.500000 0.500000
O O2 0.849586 0.974419 0.954067
O O3 0.750092 0.954921 0.194358
O O4 0.702294 0.122697 0.958706
O O5 0.409845 0.391191 0.812074
O O6 0.079978 0.801249 0.411022
O O7 0.072325 0.179015 0.106659
O O8 0.853315 0.312355 0.373393
O O9 0.792057 0.837535 0.747582
O O10 0.150608 0.436195 0.187238
O O11 0.535908 0.175779 0.547699
O O12 0.505180 0.749743 0.826364
O O13 0.556201 0.970339 0.819941
O O14 0.727128 0.970472 0.364689
O O15 0.793359 0.827177 0.577570
O O16 0.743993 0.592877 0.595917
O O17 0.500000 0.000000 0.000000
#
# Coordination Sequence:
#
# PCOD9075542 Si02
#       8
#     2   2   2   2   2   2   2   2
#     4   9  18  33  51  76 109 139 173 215 263 313
#     4  10  20  36  57  78 105 144 182 217 266 318
#     4  10  19  36  60  80 104 138 180 228 269 312
#     4  10  20  34  56  79 106 144 177 216 272 321
#     4  10  21  36  55  79 108 143 181 219 263 318
#     4  10  21  36  52  77 114 144 173 220 264 316
#     4   9  20  37  57  82 106 134 180 230 268 312
#     4  10  18  32  54  78 106 140 179 223 262 308
#
# _framework density 25.484079000000001
#
# number of rings (size 3 to 8) (size 9 to 14) (size 15 to 20)
#    0.000    2.250    0.000    4.125    0.000    2.000 
#    0.000    5.000    0.000    4.500    0.000    0.000 
#    0.000    0.000    0.000    0.000    0.000    0.000 
#
# Total GULP energy -89300.607845 kJ/mol
# GULP energy per Si atom -5581.287990 kJ/mol
# Density = 2.542608 g / cm^3
# Si number density = 25.484079 Si / 1000 Ang^3
#
#
#
# Elastic Constant Matrix: (Units=GPa)
#
#
# Indices 1 2 3 4 5 6 
#
# 1 173.2778 14.8574 39.0555 20.5505 0.8851 1.6326
# 2 14.8574 89.6893 27.1453 11.5961 -3.8705 8.3584
# 3 39.0555 27.1453 62.3258 2.0140 -8.5801 2.2397
# 4 20.5505 11.5961 2.0140 27.9400 -1.6346 -10.4240
# 5 0.8851 -3.8705 -8.5801 -1.6346 42.1114 -0.2440
# 6 1.6326 8.3584 2.2397 -10.4240 -0.2440 40.2348
#
#
#
# Elastic Compliance Matrix: (Units=1/GPa)
#
#
# Indices 1 2 3 4 5 6 
#
# 1 0.007660 0.001314 -0.005276 -0.006633 -0.001384 -0.002017
# 2 0.001314 0.014483 -0.006746 -0.008324 -0.000422 -0.004846
# 3 -0.005276 -0.006746 0.022623 0.006030 0.004345 0.001945
# 4 -0.006633 -0.008324 0.006030 0.049226 0.002597 0.014432
# 5 -0.001384 -0.000422 0.004345 0.002597 0.024727 0.000725
# 6 -0.002017 -0.004846 0.001945 0.014432 0.000725 0.029578
#
#
# Mechanical properties :
#
#
# Convention : Reuss Voigt Hill
#
# Bulk Modulus (GPa) = 42.82862 54.15659 48.49260
# Shear Modulus (GPa) = 28.16939 38.33954 33.25447
#
# Velocity S-wave (km/s) = 3.32832 3.88293 3.61627
# Velocity P-wave (km/s) = 5.62253 6.43430 6.04206
#
# Compressibility (1/GPa) = 0.02334887
#
# Stress axis : x y z
#
# Youngs Moduli (GPa) = 130.54221 69.04480 44.20336
#
# Poissons Ratio (x) = -0.09070 0.23322
# Poissons Ratio (y) = -0.17149 0.29821
# Poissons Ratio (z) = 0.68876 0.46580
#
# Static dielectric constant tensor:
#      x y z
#    x 2.019090 -0.064700 0.038300 
#    y -0.064700 2.048890 -0.055050 
#    z 0.038300 -0.055050 2.044910 
# 
# From -- ./inp_files/277531.got.cif
#   From: 2010.05.17/outbox.cif.g08.bks.cpg/sg2_139_cif.got.tgz:277531.got - 2010.06.03 11:33:40.
