data_PCOD9075940
_publ_section_title
;
Structure prediction by ZEFSAII (Michael W. Deem and Ramdas Pophale) SiO2 
 PCOD9075940
Probable space group: P -1
;
_chemical_formula_sum "Si O2"
_cell_formula_units_Z 16
_cell_length_a 7.973433
_cell_length_b 16.174820
_cell_length_c 9.437000
_cell_angle_alpha 50.545982
_cell_angle_beta 133.533862
_cell_angle_gamma 131.354680
_cell_volume 624.878709
_symmetry_space_group_name_H-M "P -1"
_symmetry_group_IT_number 2
_symmetry_cell_setting 'triclinic'
loop_
_space_group_symop_operation_xyz
x,y,z
-x,-y,-z
loop_
_atom_site_type_symbol
_atom_site_label
_atom_site_fract_x
_atom_site_fract_y
_atom_site_fract_z
Si Si1 0.854956 0.260733 0.758405
Si Si2 0.888529 0.948738 0.196773
Si Si3 0.651032 0.192011 0.035002
Si Si4 0.283675 0.552739 0.162783
Si Si5 0.591501 0.416726 0.481185
Si Si6 0.149134 0.178284 0.431894
Si Si7 0.277697 0.203713 0.146612
Si Si8 0.312885 0.870400 0.479370
O O1 0.748117 0.214422 0.903638
O O2 0.788396 0.372835 0.569101
O O3 0.708890 0.165309 0.659632
O O4 0.150244 0.284449 0.916071
O O5 0.841406 0.931710 0.357626
O O6 0.032641 0.863174 0.350783
O O7 0.622077 0.910616 0.009474
O O8 0.079867 0.075150 0.124930
O O9 0.621109 0.308823 0.937281
O O10 0.865937 0.171118 0.268975
O O11 0.462515 0.498143 0.252612
O O12 0.284003 0.526381 0.359784
O O13 0.000000 0.500000 0.000000
O O14 0.346799 0.294791 0.495529
O O15 0.239274 0.197949 0.300591
O O16 0.560074 0.211191 0.286214
O O17 0.500000 0.000000 0.500000
#
# Coordination Sequence:
#
# PCOD9075940 Si02
#       8
#     2   2   2   2   2   2   2   2
#     4  10  20  37  57  79 112 143 196 224 268 329
#     4  11  22  35  52  82 119 147 180 232 280 321
#     4  10  21  35  57  87 112 143 182 234 284 325
#     4  10  18  32  57  87 110 139 179 231 287 326
#     4  10  19  32  58  84 111 140 179 236 271 329
#     4  11  19  35  56  84 116 141 185 227 281 331
#     4  10  22  36  58  78 110 155 192 224 265 332
#     4  10  22  37  56  77 108 155 194 227 266 326
#
# _framework density 25.604970000000002
#
# number of rings (size 3 to 8) (size 9 to 14) (size 15 to 20)
#    0.000    1.750    5.000    0.375    0.000    8.000 
#    0.000    0.000    0.000    0.750    0.000    5.250 
#    0.000    0.000    0.000    0.000    0.000    0.000 
#
# Total GULP energy -89440.413031 kJ/mol
# GULP energy per Si atom -5590.025814 kJ/mol
# Density = 2.554669 g / cm^3
# Si number density = 25.604970 Si / 1000 Ang^3
#
#
#
# Elastic Constant Matrix: (Units=GPa)
#
#
# Indices 1 2 3 4 5 6 
#
# 1 71.1048 24.7760 39.2334 -3.1353 13.4637 -10.6033
# 2 24.7760 70.1792 37.8591 8.5193 -0.3789 -16.3404
# 3 39.2334 37.8591 194.8949 11.7369 42.9902 -13.2226
# 4 -3.1353 8.5193 11.7369 44.1346 -5.0261 8.8481
# 5 13.4637 -0.3789 42.9902 -5.0261 51.5145 -0.8626
# 6 -10.6033 -16.3404 -13.2226 8.8481 -0.8626 34.1434
#
#
#
# Elastic Compliance Matrix: (Units=1/GPa)
#
#
# Indices 1 2 3 4 5 6 
#
# 1 0.017813 -0.005089 -0.001993 0.002117 -0.002795 0.001705
# 2 -0.005089 0.020075 -0.002798 -0.004752 0.003487 0.008263
# 3 -0.001993 -0.002798 0.007700 -0.002663 -0.006160 0.001559
# 4 0.002117 -0.004752 -0.002663 0.026802 0.004090 -0.009490
# 5 -0.002795 0.003487 -0.006160 0.004090 0.025674 -0.001996
# 6 0.001705 0.008263 0.001559 -0.009490 -0.001996 0.036785
#
#
# Mechanical properties :
#
#
# Convention : Reuss Voigt Hill
#
# Bulk Modulus (GPa) = 38.71434 59.99066 49.35250
# Shear Modulus (GPa) = 30.63375 41.57918 36.10647
#
# Velocity S-wave (km/s) = 3.46265 4.03410 3.75925
# Velocity P-wave (km/s) = 5.58026 6.72152 6.17730
#
# Compressibility (1/GPa) = 0.02583022
#
# Stress axis : x y z
#
# Youngs Moduli (GPa) = 56.13761 49.81407 129.86285
#
# Poissons Ratio (x) = 0.25350 0.25878
# Poissons Ratio (y) = 0.28568 0.36330
# Poissons Ratio (z) = 0.11186 0.13936
#
# Static dielectric constant tensor:
#      x y z
#    x 2.153290 -0.068140 -0.028080 
#    y -0.068140 2.037970 -0.035280 
#    z -0.028080 -0.035280 2.043480 
# 
# From -- ./inp_files/398852.got.cif
#   From: 2010.05.17/outbox.cif.g08.bks.cpg/sg2_200_cif.got.tgz:398852.got - 2010.06.03 11:33:40.
