data_PCOD9075292
_publ_section_title
;
Structure prediction by ZEFSAII (Michael W. Deem and Ramdas Pophale) SiO2 
 PCOD9075292
Probable space group: P -1
;
_chemical_formula_sum "Si O2"
_cell_formula_units_Z 14
_cell_length_a 12.000000
_cell_length_b 6.000000
_cell_length_c 12.000000
_cell_angle_alpha 110.000000
_cell_angle_beta 70.000000
_cell_angle_gamma 130.000000
_cell_volume 612.923978
_symmetry_space_group_name_H-M "P -1"
_symmetry_group_IT_number 2
_symmetry_cell_setting 'triclinic'
loop_
_space_group_symop_operation_xyz
x,y,z
-x,-y,-z
loop_
_atom_site_type_symbol
_atom_site_label
_atom_site_fract_x
_atom_site_fract_y
_atom_site_fract_z
Si Si1 0.781750 0.443225 0.345218
Si Si2 0.240211 0.770329 0.454447
Si Si3 0.456762 0.526154 0.143798
Si Si4 0.953907 0.313508 0.095440
Si Si5 0.500610 0.160457 0.258511
Si Si6 0.134360 0.194066 0.120490
Si Si7 0.014693 0.906130 0.629956
O O1 0.700122 0.252310 0.451186
O O2 0.855155 0.331529 0.221796
O O3 0.653293 0.409978 0.310834
O O4 0.920374 0.774909 0.392528
O O5 0.134706 0.428172 0.390395
O O6 0.137303 0.863357 0.545106
O O7 0.358155 0.000023 0.362402
O O8 0.490270 0.349384 0.193030
O O9 0.280008 0.323724 0.161494
O O10 0.508074 0.871669 0.192664
O O11 0.500000 0.500000 0.000000
O O12 0.108122 0.423519 0.119474
O O13 0.000000 0.500000 0.000000
O O14 0.872749 0.987275 0.014811
O O15 0.998440 0.017625 0.223953
#
# Coordination Sequence:
#
# PCOD9075292 Si02
#       7
#     2   2   2   2   2   2   2
#     4  12  26  46  77 111 156 201 261 320 384 465
#     4  11  26  48  72 113 150 206 257 317 387 459
#     4  12  29  51  79 111 157 208 258 314 389 473
#     4  11  24  40  73 109 144 193 252 320 387 440
#     4  12  30  49  80 111 160 205 258 314 396 459
#     4  11  24  45  74 108 150 193 258 319 384 450
#     4  11  24  44  77 107 150 198 262 314 387 448
#
# _framework density 22.841332000000001
#
# number of rings (size 3 to 8) (size 9 to 14) (size 15 to 20)
#    0.000    0.571    4.286    2.143    8.000    2.857 
#    0.000    0.000    0.000    0.000    0.000    0.000 
#    0.000    0.000    0.000    0.000    0.000    0.000 
#
# Total GULP energy -77977.973262 kJ/mol
# GULP energy per Si atom -5569.855233 kJ/mol
# Density = 2.278934 g / cm^3
# Si number density = 22.841332 Si / 1000 Ang^3
#
#
#
# Elastic Constant Matrix: (Units=GPa)
#
#
# Indices 1 2 3 4 5 6 
#
# 1 134.0694 29.5804 42.1615 -10.1450 15.5980 -12.4363
# 2 29.5804 90.0936 37.1838 -11.9419 1.1527 -9.2826
# 3 42.1615 37.1838 140.3203 -15.7828 -17.4737 -9.4943
# 4 -10.1450 -11.9419 -15.7828 46.2136 -8.2657 14.6988
# 5 15.5980 1.1527 -17.4737 -8.2657 42.8111 -12.8922
# 6 -12.4363 -9.2826 -9.4943 14.6988 -12.8922 34.5070
#
#
#
# Elastic Compliance Matrix: (Units=1/GPa)
#
#
# Indices 1 2 3 4 5 6 
#
# 1 0.009297 -0.001802 -0.002867 -0.000380 -0.004403 0.000594
# 2 -0.001802 0.013158 -0.002669 0.001625 -0.000037 0.001450
# 3 -0.002867 -0.002669 0.009916 0.002472 0.006330 0.002290
# 4 -0.000380 0.001625 0.002472 0.026277 0.003495 -0.008907
# 5 -0.004403 -0.000037 0.006330 0.003495 0.031344 0.010367
# 6 0.000594 0.001450 0.002290 -0.008907 0.010367 0.037881
#
#
# Mechanical properties :
#
#
# Convention : Reuss Voigt Hill
#
# Bulk Modulus (GPa) = 56.51150 64.70386 60.60768
# Shear Modulus (GPa) = 33.68192 41.74351 37.71272
#
# Velocity S-wave (km/s) = 3.84422 4.27961 4.06775
# Velocity P-wave (km/s) = 6.67073 7.26699 6.97524
#
# Compressibility (1/GPa) = 0.01769551
#
# Stress axis : x y z
#
# Youngs Moduli (GPa) = 107.56719 75.99892 100.84312
#
# Poissons Ratio (x) = 0.13695 0.28908
# Poissons Ratio (y) = 0.19384 0.26915
# Poissons Ratio (z) = 0.30836 0.20284
#
# Static dielectric constant tensor:
#      x y z
#    x 1.945420 -0.035480 0.017850 
#    y -0.035480 1.949680 0.016160 
#    z 0.017850 0.016160 1.908310 
# 
# From -- ./inp_files/411038.got.cif
#   From: 2010.05.17/outbox.ucp.g08.bks.cvg/sg2_206_cif.got.tgz:411038.got - 2010.06.11 11:32:03.
