data_PCOD9075205
_publ_section_title
;
Structure prediction by ZEFSAII (Michael W. Deem and Ramdas Pophale) SiO2 
 PCOD9075205
Probable space group: P -1
;
_chemical_formula_sum "Si O2"
_cell_formula_units_Z 16
_cell_length_a 12.000000
_cell_length_b 9.000000
_cell_length_c 9.000000
_cell_angle_alpha 110.000000
_cell_angle_beta 70.000000
_cell_angle_gamma 70.000000
_cell_volume 733.231569
_symmetry_space_group_name_H-M "P -1"
_symmetry_group_IT_number 2
_symmetry_cell_setting 'triclinic'
loop_
_space_group_symop_operation_xyz
x,y,z
-x,-y,-z
loop_
_atom_site_type_symbol
_atom_site_label
_atom_site_fract_x
_atom_site_fract_y
_atom_site_fract_z
Si Si1 0.758626 0.339963 0.003688
Si Si2 0.162458 0.920387 0.384337
Si Si3 0.807696 0.623258 0.891055
Si Si4 0.401616 0.003535 0.764373
Si Si5 0.909039 0.403635 0.210443
Si Si6 0.788297 0.419109 0.571066
Si Si7 0.520494 0.380754 0.305016
Si Si8 0.712173 0.850520 0.461270
O O1 0.794279 0.162694 0.828799
O O2 0.773180 0.489700 0.953637
O O3 0.862289 0.306024 0.079426
O O4 0.603530 0.426109 0.163902
O O5 0.226282 0.740740 0.399320
O O6 0.206276 0.063933 0.465191
O O7 0.000000 0.000000 0.500000
O O8 0.844817 0.521905 0.681669
O O9 0.938809 0.630193 0.893838
O O10 0.673084 0.826454 0.029991
O O11 0.389565 0.833964 0.768640
O O12 0.563639 0.928288 0.635350
O O13 0.324897 0.076720 0.666102
O O14 0.887505 0.339779 0.358079
O O15 0.802052 0.627305 0.335853
O O16 0.630353 0.571304 0.657868
O O17 0.500000 0.500000 0.500000
#
# Coordination Sequence:
#
# PCOD9075205 Si02
#       8
#     2   2   2   2   2   2   2   2
#     4  11  25  44  71  99 139 184 222 283 347 412
#     4  11  27  45  69 103 141 179 229 282 349 409
#     4  11  26  42  71 102 135 179 235 280 340 408
#     4  11  25  41  68 104 131 180 232 283 333 402
#     4  12  23  48  73  98 140 183 230 277 345 415
#     4  11  25  44  70  99 139 183 223 284 348 399
#     4  12  24  45  67 101 140 179 231 283 345 407
#     4  11  23  43  71  97 139 179 228 280 340 405
#
# _framework density 21.821210000000001
#
# number of rings (size 3 to 8) (size 9 to 14) (size 15 to 20)
#    0.000    0.750    3.750    3.000    7.000    3.500 
#    0.000    1.250    0.000    0.000    0.000    0.000 
#    0.000    0.000    0.000    0.000    0.000    0.000 
#
# Total GULP energy -89482.318510 kJ/mol
# GULP energy per Si atom -5592.644907 kJ/mol
# Density = 2.177154 g / cm^3
# Si number density = 21.821210 Si / 1000 Ang^3
#
#
#
# Elastic Constant Matrix: (Units=GPa)
#
#
# Indices 1 2 3 4 5 6 
#
# 1 83.5293 11.7544 14.3562 -2.4770 -6.9649 20.6777
# 2 11.7544 -6.2173 30.3098 -18.8162 10.8821 -7.8006
# 3 14.3562 30.3098 68.0300 -5.7438 -0.4908 5.7171
# 4 -2.4770 -18.8162 -5.7438 14.7442 6.0702 -9.3728
# 5 -6.9649 10.8821 -0.4908 6.0702 45.6804 8.6310
# 6 20.6777 -7.8006 5.7171 -9.3728 8.6310 21.4410
#
#
#
# Elastic Compliance Matrix: (Units=1/GPa)
#
#
# Indices 1 2 3 4 5 6 
#
# 1 0.014368 0.007229 -0.005210 0.003029 0.001752 -0.009218
# 2 0.007229 -0.006224 0.001202 -0.027397 0.011156 -0.026024
# 3 -0.005210 0.001202 0.015670 0.014854 -0.004714 0.009674
# 4 0.003029 -0.027397 0.014854 0.037040 0.002544 -0.001681
# 5 0.001752 0.011156 -0.004714 0.002544 0.019716 -0.003199
# 6 -0.009218 -0.026024 0.009674 -0.001681 -0.003199 0.044035
#
#
# Mechanical properties :
#
#
# Convention : Reuss Voigt Hill
#
# Bulk Modulus (GPa) = 33.05061 28.68698 30.86879
# Shear Modulus (GPa) = 38.98699 22.30121 30.64410
#
# Velocity S-wave (km/s) = 4.23147 3.20034 3.75150
# Velocity P-wave (km/s) = 6.24922 5.17988 5.73951
#
# Compressibility (1/GPa) = 0.03025663
#
# Stress axis : x y z
#
# Youngs Moduli (GPa) = 69.60035 -160.66369 63.81428
#
# Poissons Ratio (x) = 1.16149 0.33246
# Poissons Ratio (y) = -0.50316 -0.07670
# Poissons Ratio (z) = 0.36261 0.19310
#
# Static dielectric constant tensor:
#      x y z
#    x 1.735340 -0.091710 0.031840 
#    y -0.091710 1.862070 -0.053930 
#    z 0.031840 -0.053930 1.796630 
# 
# From -- ./inp_files/185268.got.cif
#   From: 2010.05.17/outbox.ucp.g08.bks.cvg/sg2_93_cif.got.tgz:185268.got - 2010.06.11 11:32:03.
