data_PCOD9075156
_publ_section_title
;
Structure prediction by ZEFSAII (Michael W. Deem and Ramdas Pophale) SiO2 
 PCOD9075156
Probable space group: P -1
;
_chemical_formula_sum "Si O2"
_cell_formula_units_Z 15
_cell_length_a 18.000000
_cell_length_b 9.000000
_cell_length_c 18.000000
_cell_angle_alpha 140.000000
_cell_angle_beta 150.000000
_cell_angle_gamma 30.000000
_cell_volume 727.497153
_symmetry_space_group_name_H-M "P -1"
_symmetry_group_IT_number 2
_symmetry_cell_setting 'triclinic'
loop_
_space_group_symop_operation_xyz
x,y,z
-x,-y,-z
loop_
_atom_site_type_symbol
_atom_site_label
_atom_site_fract_x
_atom_site_fract_y
_atom_site_fract_z
Si Si1 0.642836 0.643194 0.483326
Si Si2 0.718370 0.439674 0.300267
Si Si3 0.061936 0.243038 0.754365
Si Si4 0.758940 0.761630 0.245715
Si Si5 0.594119 0.568327 0.794432
Si Si6 0.000000 0.500000 0.500000
Si Si7 0.963202 0.374132 0.990265
Si Si8 0.300295 0.675619 0.037586
O O1 0.701356 0.535130 0.407700
O O2 0.533411 0.526276 0.372691
O O3 0.836954 0.477782 0.633382
O O4 0.500000 0.000000 0.500000
O O5 0.798481 0.565885 0.368533
O O6 0.503499 0.570868 0.145103
O O7 0.859312 0.082166 0.277078
O O8 0.170845 0.192242 0.752920
O O9 0.093398 0.403766 0.905540
O O10 0.909539 0.672909 0.406565
O O11 0.546537 0.073201 0.193191
O O12 0.758440 0.488389 0.124449
O O13 0.772207 0.409232 0.832184
O O14 0.667117 0.442004 0.893779
O O15 0.000000 0.500000 0.000000
O O16 0.140931 0.032377 0.031637
#
# Coordination Sequence:
#
# PCOD9075156 Si02
#       8
#     2   2   2   2   2   1   2   2
#     4  11  23  41  72 101 135 183 234 281 338 421
#     4  11  24  44  70 104 136 181 239 285 346 407
#     4  12  22  47  72  98 138 188 235 283 347 426
#     4  12  24  44  77 104 136 184 236 290 347 413
#     4  11  23  46  72 103 135 185 242 279 344 424
#     4  12  28  40  68 108 146 174 232 294 344 406
#     4  12  29  45  67 108 146 177 230 298 359 410
#     4  11  24  45  73 103 134 187 237 284 349 419
#
# _framework density 20.618637
#
# number of rings (size 3 to 8) (size 9 to 14) (size 15 to 20)
#    0.000    0.533    5.333    4.400    5.600    0.533 
#    0.000    0.667    0.000    0.000    0.000    0.000 
#    0.000    0.000    0.000    0.000    0.000    0.000 
#
# Total GULP energy -83634.975769 kJ/mol
# GULP energy per Si atom -5575.665051 kJ/mol
# Density = 2.057171 g / cm^3
# Si number density = 20.618637 Si / 1000 Ang^3
#
#
#
# Elastic Constant Matrix: (Units=GPa)
#
#
# Indices 1 2 3 4 5 6 
#
# 1 79.8479 5.3336 12.2665 -6.9376 32.3633 3.3231
# 2 5.3336 127.9328 2.7055 -8.0029 -2.5894 -13.0567
# 3 12.2665 2.7055 36.8450 -8.8137 14.6526 -2.0155
# 4 -6.9376 -8.0029 -8.8137 34.3234 -0.0912 5.6681
# 5 32.3633 -2.5894 14.6526 -0.0912 39.1961 -10.0383
# 6 3.3231 -13.0567 -2.0155 5.6681 -10.0383 15.8682
#
#
#
# Elastic Compliance Matrix: (Units=1/GPa)
#
#
# Indices 1 2 3 4 5 6 
#
# 1 0.029044 -0.005021 0.005845 0.012125 -0.035805 -0.036453
# 2 -0.005021 0.009746 -0.002521 -0.001939 0.009721 0.015593
# 3 0.005845 -0.002521 0.036764 0.012945 -0.023316 -0.018002
# 4 0.012125 -0.001939 0.012945 0.039526 -0.022841 -0.031058
# 5 -0.035805 0.009721 -0.023316 -0.022841 0.083153 0.073297
# 6 -0.036453 0.015593 -0.018002 -0.031058 0.073297 0.138658
#
#
# Mechanical properties :
#
#
# Convention : Reuss Voigt Hill
#
# Bulk Modulus (GPa) = 13.85793 31.69300 22.77547
# Shear Modulus (GPa) = 13.72348 32.83223 23.27786
#
# Velocity S-wave (km/s) = 2.58269 3.99476 3.36366
# Velocity P-wave (km/s) = 3.95340 6.05656 5.11426
#
# Compressibility (1/GPa) = 0.07216084
#
# Stress axis : x y z
#
# Youngs Moduli (GPa) = 34.43016 102.60550 27.20036
#
# Poissons Ratio (x) = 0.51519 -0.15898
# Poissons Ratio (y) = 0.17288 0.06856
# Poissons Ratio (z) = -0.20124 0.25863
#
# Static dielectric constant tensor:
#      x y z
#    x 1.729890 -0.022400 0.050690 
#    y -0.022400 1.698940 0.015600 
#    z 0.050690 0.015600 1.749940 
# 
# From -- ./inp_files/158560.got.cif
#   From: 2010.05.17/outbox.ucp.g08.bks.cvg/sg2_80_cif.got.tgz:158560.got - 2010.06.11 11:32:03.
