data_PCOD9075985
_publ_section_title
;
Structure prediction by ZEFSAII (Michael W. Deem and Ramdas Pophale) SiO2 
 PCOD9075985
Probable space group: P -1
;
_chemical_formula_sum "Si O2"
_cell_formula_units_Z 14
_cell_length_a 11.462921
_cell_length_b 22.389780
_cell_length_c 7.701403
_cell_angle_alpha 147.930769
_cell_angle_beta 36.635899
_cell_angle_gamma 139.302845
_cell_volume 606.878165
_symmetry_space_group_name_H-M "P -1"
_symmetry_group_IT_number 2
_symmetry_cell_setting 'triclinic'
loop_
_space_group_symop_operation_xyz
x,y,z
-x,-y,-z
loop_
_atom_site_type_symbol
_atom_site_label
_atom_site_fract_x
_atom_site_fract_y
_atom_site_fract_z
Si Si1 0.562858 0.059993 0.839382
Si Si2 0.824049 0.342438 0.607506
Si Si3 0.057809 0.572066 0.788289
Si Si4 0.464644 0.691591 0.431131
Si Si5 0.039843 0.993766 0.639779
Si Si6 0.768077 0.139094 0.422522
Si Si7 0.884583 0.735172 0.203712
O O1 0.663701 0.113558 0.669425
O O2 0.733544 0.012233 0.611829
O O3 0.375391 0.953966 0.762718
O O4 0.512634 0.170031 0.261734
O O5 0.969366 0.469843 0.774695
O O6 0.626152 0.352372 0.758117
O O7 0.784446 0.266027 0.639137
O O8 0.940169 0.272888 0.164432
O O9 0.000000 0.500000 0.500000
O O10 0.293003 0.631163 0.627080
O O11 0.934833 0.670267 0.155118
O O12 0.676469 0.676244 0.210983
O O13 0.901278 0.868723 0.556309
O O14 0.000000 0.000000 0.500000
O O15 0.976356 0.099259 0.069979
#
# Coordination Sequence:
#
# PCOD9075985 Si02
#       7
#     2   2   2   2   2   2   2
#     4  11  23  38  54  81 115 149 179 222 278 328
#     4  10  21  36  55  83 111 139 185 229 266 325
#     4   8  18  34  53  82 111 137 180 228 272 316
#     4  10  18  34  59  79 108 143 182 226 267 322
#     4  12  21  36  59  84 109 139 189 229 271 326
#     4  11  24  37  54  83 115 147 180 222 278 327
#     4  10  18  32  58  84 104 138 183 225 274 309
#
# _framework density 23.068881000000001
#
# number of rings (size 3 to 8) (size 9 to 14) (size 15 to 20)
#    0.000    2.000    5.714    0.429    2.000    6.286 
#    0.000    0.714    0.000    0.857    0.000    0.000 
#    0.000    0.000    0.000    0.000    0.000    0.000 
#
# Total GULP energy -78236.305017 kJ/mol
# GULP energy per Si atom -5588.307501 kJ/mol
# Density = 2.301637 g / cm^3
# Si number density = 23.068881 Si / 1000 Ang^3
#
#
#
# Elastic Constant Matrix: (Units=GPa)
#
#
# Indices 1 2 3 4 5 6 
#
# 1 68.3213 24.1451 8.9954 -8.0010 -10.5788 -5.5037
# 2 24.1451 93.0995 16.8263 24.5136 -8.2446 -28.8680
# 3 8.9954 16.8263 25.0538 9.6336 -6.3286 -8.7079
# 4 -8.0010 24.5136 9.6336 33.3714 -0.5884 -12.5459
# 5 -10.5788 -8.2446 -6.3286 -0.5884 27.7647 -2.1910
# 6 -5.5037 -28.8680 -8.7079 -12.5459 -2.1910 46.7226
#
#
#
# Elastic Compliance Matrix: (Units=1/GPa)
#
#
# Indices 1 2 3 4 5 6 
#
# 1 0.019816 -0.006562 -0.005809 0.011518 0.004562 0.000504
# 2 -0.006562 0.018402 -0.002330 -0.011679 0.002750 0.007155
# 3 -0.005809 -0.002330 0.052446 -0.012928 0.009139 0.004608
# 4 0.011518 -0.011679 -0.012928 0.046610 -0.000706 0.004214
# 5 0.004562 0.002750 0.009139 -0.000706 0.041088 0.005677
# 6 0.000504 0.007155 0.004608 0.004214 0.005677 0.028140
#
#
# Mechanical properties :
#
#
# Convention : Reuss Voigt Hill
#
# Bulk Modulus (GPa) = 16.32371 31.82312 24.07341
# Shear Modulus (GPa) = 19.50653 30.67226 25.08939
#
# Velocity S-wave (km/s) = 2.91104 3.65032 3.30143
# Velocity P-wave (km/s) = 4.28839 5.62060 4.99907
#
# Compressibility (1/GPa) = 0.06126060
#
# Stress axis : x y z
#
# Youngs Moduli (GPa) = 50.46320 54.34313 19.06736
#
# Poissons Ratio (x) = 0.35660 0.11077
# Poissons Ratio (y) = 0.33114 0.04443
# Poissons Ratio (z) = 0.29316 0.12663
#
# Static dielectric constant tensor:
#      x y z
#    x 1.906970 -0.028800 -0.013380 
#    y -0.028800 1.929530 0.021910 
#    z -0.013380 0.021910 1.898710 
# 
# From -- ./inp_files/284517.got.cif
#   From: 2010.05.17/outbox.cif.g08.bks.cpg/sg2_143_cif.got.tgz:284517.got - 2010.06.03 11:33:40.
