data_PCOD9075926
_publ_section_title
;
Structure prediction by ZEFSAII (Michael W. Deem and Ramdas Pophale) SiO2 
 PCOD9075926
Probable space group: P -1
;
_chemical_formula_sum "Si O2"
_cell_formula_units_Z 16
_cell_length_a 10.173991
_cell_length_b 10.152603
_cell_length_c 8.887905
_cell_angle_alpha 100.894186
_cell_angle_beta 109.859812
_cell_angle_gamma 53.899524
_cell_volume 697.582612
_symmetry_space_group_name_H-M "P -1"
_symmetry_group_IT_number 2
_symmetry_cell_setting 'triclinic'
loop_
_space_group_symop_operation_xyz
x,y,z
-x,-y,-z
loop_
_atom_site_type_symbol
_atom_site_label
_atom_site_fract_x
_atom_site_fract_y
_atom_site_fract_z
Si Si1 0.738131 0.933126 0.186947
Si Si2 0.479427 0.326994 0.879645
Si Si3 0.691578 0.284406 0.521319
Si Si4 0.271176 0.691306 0.801416
Si Si5 0.623674 0.848149 0.403715
Si Si6 0.009444 0.007396 0.323176
Si Si7 0.647622 0.743636 0.915798
Si Si8 0.697209 0.580368 0.586726
O O1 0.739409 0.878591 0.348351
O O2 0.883271 0.959452 0.209683
O O3 0.545911 0.095238 0.135573
O O4 0.752697 0.804152 0.047031
O O5 0.374947 0.497096 0.787606
O O6 0.485044 0.183806 0.763097
O O7 0.653406 0.283832 0.012480
O O8 0.363641 0.367687 0.991022
O O9 0.690244 0.259280 0.334908
O O10 0.774796 0.388524 0.585400
O O11 0.498109 0.359879 0.502190
O O12 0.795163 0.135976 0.646493
O O13 0.067132 0.816170 0.740891
O O14 0.731521 0.677249 0.498959
O O15 0.500000 0.000000 0.500000
O O16 0.000000 0.000000 0.500000
O O17 0.709328 0.650904 0.764078
#
# Coordination Sequence:
#
# PCOD9075926 Si02
#       8
#     2   2   2   2   2   2   2   2
#     4  10  20  35  55  89 106 153 192 234 282 337
#     4  10  19  33  55  88 113 144 193 237 282 322
#     4  10  21  35  60  86 117 149 189 243 282 344
#     4  10  18  32  57  84 110 146 189 237 278 334
#     4  11  22  32  56  85 121 142 187 245 280 333
#     4  10  20  36  58  83 116 148 191 235 288 341
#     4  10  18  33  58  81 113 146 195 237 271 340
#     4  11  20  37  57  90 112 147 197 235 294 323
#
# _framework density 22.936350000000001
#
# number of rings (size 3 to 8) (size 9 to 14) (size 15 to 20)
#    0.000    1.750    5.000    0.750    0.000    0.000 
#    0.000    1.250    0.000    3.000    6.500    0.000 
#    0.000    0.000    0.000    0.000    0.000    0.000 
#
# Total GULP energy -89122.898707 kJ/mol
# GULP energy per Si atom -5570.181169 kJ/mol
# Density = 2.288415 g / cm^3
# Si number density = 22.936350 Si / 1000 Ang^3
#
#
#
# Elastic Constant Matrix: (Units=GPa)
#
#
# Indices 1 2 3 4 5 6 
#
# 1 21.6973 0.4389 7.0244 -3.3121 -3.0737 10.2687
# 2 0.4389 89.1794 43.8676 -16.7804 11.4629 7.5079
# 3 7.0244 43.8676 105.0527 8.3953 -0.0512 5.5097
# 4 -3.3121 -16.7804 8.3953 51.7654 6.9814 6.1065
# 5 -3.0737 11.4629 -0.0512 6.9814 24.4819 -0.0488
# 6 10.2687 7.5079 5.5097 6.1065 -0.0488 15.6433
#
#
#
# Elastic Compliance Matrix: (Units=1/GPa)
#
#
# Indices 1 2 3 4 5 6 
#
# 1 0.081776 0.013178 -0.009106 0.018732 -0.001392 -0.064114
# 2 0.013178 0.022179 -0.010148 0.013898 -0.012757 -0.021186
# 3 -0.009106 -0.010148 0.014548 -0.008086 0.005962 0.008899
# 4 0.018732 0.013898 -0.008086 0.031469 -0.013203 -0.028444
# 5 -0.001392 -0.012757 0.005962 -0.013203 0.050443 0.010248
# 6 -0.064114 -0.021186 0.008899 -0.028444 0.010248 0.124181
#
#
# Mechanical properties :
#
#
# Convention : Reuss Voigt Hill
#
# Bulk Modulus (GPa) = 9.40286 35.39900 22.40093
# Shear Modulus (GPa) = 13.43369 29.35135 21.39252
#
# Velocity S-wave (km/s) = 2.42274 3.58115 3.05731
# Velocity P-wave (km/s) = 3.45466 5.70672 4.71706
#
# Compressibility (1/GPa) = 0.10635060
#
# Stress axis : x y z
#
# Youngs Moduli (GPa) = 12.22855 45.08741 68.73807
#
# Poissons Ratio (x) = -0.59417 0.62592
# Poissons Ratio (y) = -0.16115 0.69758
# Poissons Ratio (z) = 0.11135 0.45757
#
# Static dielectric constant tensor:
#      x y z
#    x 1.956410 -0.049550 -0.025990 
#    y -0.049550 2.140980 0.008820 
#    z -0.025990 0.008820 1.889860 
# 
# From -- ./inp_files/254259.got.cif
#   From: 2010.05.17/outbox.cif.g08.bks.cpg/sg2_128_cif.got.tgz:254259.got - 2010.06.03 11:33:40.
