data_PCOD9075360
_publ_section_title
;
Structure prediction by ZEFSAII (Michael W. Deem and Ramdas Pophale) SiO2 
 PCOD9075360
Probable space group: P -1
;
_chemical_formula_sum "Si O2"
_cell_formula_units_Z 16
_cell_length_a 6.000000
_cell_length_b 18.000000
_cell_length_c 9.000000
_cell_angle_alpha 100.000000
_cell_angle_beta 130.000000
_cell_angle_gamma 90.000000
_cell_volume 725.212580
_symmetry_space_group_name_H-M "P -1"
_symmetry_group_IT_number 2
_symmetry_cell_setting 'triclinic'
loop_
_space_group_symop_operation_xyz
x,y,z
-x,-y,-z
loop_
_atom_site_type_symbol
_atom_site_label
_atom_site_fract_x
_atom_site_fract_y
_atom_site_fract_z
Si Si1 0.305086 0.995541 0.207603
Si Si2 0.322694 0.265702 0.295628
Si Si3 0.910591 0.194689 0.557070
Si Si4 0.063740 0.950906 0.649370
Si Si5 0.643660 0.435359 0.451289
Si Si6 0.626389 0.700083 0.342185
Si Si7 0.820646 0.178283 0.841801
Si Si8 0.308797 0.461557 0.772196
O O1 0.332226 0.905186 0.199495
O O2 0.567891 0.032606 0.217442
O O3 0.188922 0.030589 0.329464
O O4 0.000000 0.000000 0.000000
O O5 0.590223 0.216609 0.401498
O O6 0.452327 0.351742 0.329588
O O7 0.225614 0.281583 0.427422
O O8 0.075537 0.216268 0.074250
O O9 0.995830 0.137932 0.447881
O O10 0.930510 0.160925 0.717687
O O11 0.140838 0.270915 0.674230
O O12 0.000000 0.000000 0.500000
O O13 0.500000 0.500000 0.500000
O O14 0.693924 0.470819 0.322699
O O15 0.968029 0.431429 0.654248
O O16 0.376937 0.754151 0.239059
O O17 0.549341 0.609555 0.259342
O O18 0.500000 0.500000 0.000000
#
# Coordination Sequence:
#
# PCOD9075360 Si02
#       8
#     2   2   2   2   2   2   2   2
#     4  12  27  48  72 110 141 191 250 301 365 440
#     4  11  25  45  68  99 139 181 226 290 354 415
#     4  11  25  45  69  98 140 183 231 286 358 428
#     4  12  25  46  75  98 148 188 237 306 366 424
#     4  11  24  45  67  97 138 175 228 281 345 414
#     4  11  25  45  66 101 138 178 231 285 352 426
#     4  11  27  43  70 101 136 182 235 287 355 428
#     4  11  26  43  69 101 135 182 231 283 345 422
#
# _framework density 22.062495999999999
#
# number of rings (size 3 to 8) (size 9 to 14) (size 15 to 20)
#    0.000    0.750    3.750    2.250    8.750    1.500 
#    0.000    0.000    0.000    0.000    0.000    0.000 
#    0.000    0.000    0.000    0.000    0.000    0.000 
#
# Total GULP energy -89105.476927 kJ/mol
# GULP energy per Si atom -5569.092308 kJ/mol
# Density = 2.201228 g / cm^3
# Si number density = 22.062496 Si / 1000 Ang^3
#
#
#
# Elastic Constant Matrix: (Units=GPa)
#
#
# Indices 1 2 3 4 5 6 
#
# 1 63.8793 2.3445 19.2804 9.6927 -3.6187 -15.3764
# 2 2.3445 121.9303 27.2340 24.1951 -14.1330 -10.3167
# 3 19.2804 27.2340 108.9511 15.1387 -1.7066 -14.2341
# 4 9.6927 24.1951 15.1387 30.7283 -6.1125 -0.7968
# 5 -3.6187 -14.1330 -1.7066 -6.1125 23.8979 1.0869
# 6 -15.3764 -10.3167 -14.2341 -0.7968 1.0869 48.6749
#
#
#
# Elastic Compliance Matrix: (Units=1/GPa)
#
#
# Indices 1 2 3 4 5 6 
#
# 1 0.018573 0.001995 -0.002233 -0.005768 0.002108 0.005496
# 2 0.001995 0.010688 -0.001658 -0.007267 0.004546 0.002190
# 3 -0.002233 -0.001658 0.010722 -0.003528 -0.001548 0.002056
# 4 -0.005768 -0.007267 -0.003528 0.042860 0.005713 -0.003820
# 5 0.002108 0.004546 -0.001548 0.005713 0.046192 0.000239
# 6 0.005496 0.002190 0.002056 -0.003820 0.000239 0.023278
#
#
# Mechanical properties :
#
#
# Convention : Reuss Voigt Hill
#
# Bulk Modulus (GPa) = 27.63016 43.60873 35.61944
# Shear Modulus (GPa) = 29.73232 37.05368 33.39300
#
# Velocity S-wave (km/s) = 3.67501 4.10260 3.89468
# Velocity P-wave (km/s) = 5.52796 6.50005 6.03361
#
# Compressibility (1/GPa) = 0.03619233
#
# Stress axis : x y z
#
# Youngs Moduli (GPa) = 53.84256 93.56707 93.26254
#
# Poissons Ratio (x) = -0.18671 0.20826
# Poissons Ratio (y) = -0.10744 0.15458
# Poissons Ratio (z) = 0.12023 0.15509
#
# Static dielectric constant tensor:
#      x y z
#    x 1.958470 0.053940 -0.015440 
#    y 0.053940 1.611830 0.026910 
#    z -0.015440 0.026910 1.887490 
# 
# From -- ./inp_files/120116.got.cif
#   From: 2010.05.17/outbox.ucp.g08.bks.cvg/sg2_61_cif.got.tgz:120116.got - 2010.06.11 11:32:03.
