data_PCOD9075997
_publ_section_title
;
Structure prediction by ZEFSAII (Michael W. Deem and Ramdas Pophale) SiO2 
 PCOD9075997
Probable space group: P -1
;
_chemical_formula_sum "Si O2"
_cell_formula_units_Z 16
_cell_length_a 15.644398
_cell_length_b 12.174098
_cell_length_c 8.504867
_cell_angle_alpha 57.288771
_cell_angle_beta 58.791265
_cell_angle_gamma 32.621303
_cell_volume 727.603327
_symmetry_space_group_name_H-M "P -1"
_symmetry_group_IT_number 2
_symmetry_cell_setting 'triclinic'
loop_
_space_group_symop_operation_xyz
x,y,z
-x,-y,-z
loop_
_atom_site_type_symbol
_atom_site_label
_atom_site_fract_x
_atom_site_fract_y
_atom_site_fract_z
Si Si1 0.619566 0.436257 0.808780
Si Si2 0.333202 0.139619 0.312682
Si Si3 0.538143 0.270968 0.845990
Si Si4 0.049923 0.298582 0.595883
Si Si5 0.086393 0.584126 0.705458
Si Si6 0.567345 0.691814 0.413409
Si Si7 0.772167 0.464904 0.866159
Si Si8 0.783335 0.807130 0.970366
O O1 0.636268 0.298141 0.782654
O O2 0.540128 0.635517 0.636331
O O3 0.759515 0.363128 0.828322
O O4 0.500000 0.500000 0.000000
O O5 0.304578 0.313268 0.273342
O O6 0.264917 0.207863 0.143584
O O7 0.236927 0.127878 0.514469
O O8 0.510011 0.899754 0.322907
O O9 0.529265 0.268505 0.669730
O O10 0.634258 0.044615 0.985467
O O11 0.354375 0.452514 0.943993
O O12 0.971204 0.333253 0.480277
O O13 0.961261 0.310111 0.810819
O O14 0.000000 0.500000 0.500000
O O15 0.243623 0.506840 0.648607
O O16 0.931095 0.752839 0.831952
O O17 0.147045 0.373449 0.841071
#
# Coordination Sequence:
#
# PCOD9075997 Si02
#       8
#     2   2   2   2   2   2   2   2
#     4  10  22  38  55  79 111 151 190 231 266 323
#     4   9  19  33  58  88 113 140 178 232 287 326
#     4  10  21  37  58  79 114 151 187 225 270 323
#     4   9  18  34  50  81 115 149 169 221 285 333
#     4  10  18  32  58  85 112 143 180 228 286 328
#     4  11  20  36  61  84 107 144 194 230 275 329
#     4  10  18  35  57  81 113 146 181 221 276 333
#     4   9  19  35  54  88 118 139 179 232 278 330
#
# _framework density 21.990003000000002
#
# number of rings (size 3 to 8) (size 9 to 14) (size 15 to 20)
#    0.000    2.250    1.250    1.875    0.000    3.500 
#    9.000    0.625    2.750    1.500    0.000    0.000 
#    0.000    0.000    0.000    0.000    0.000    0.000 
#
# Total GULP energy -89079.853329 kJ/mol
# GULP energy per Si atom -5567.490833 kJ/mol
# Density = 2.193995 g / cm^3
# Si number density = 21.990003 Si / 1000 Ang^3
#
#
#
# Elastic Constant Matrix: (Units=GPa)
#
#
# Indices 1 2 3 4 5 6 
#
# 1 76.2069 6.8922 4.3811 5.9600 -23.4139 12.7668
# 2 6.8922 26.8897 -8.5637 9.5080 2.0158 -7.7130
# 3 4.3811 -8.5637 43.2979 -0.2785 -10.0064 -13.0360
# 4 5.9600 9.5080 -0.2785 22.8761 -3.7774 -9.4007
# 5 -23.4139 2.0158 -10.0064 -3.7774 20.7403 3.0976
# 6 12.7668 -7.7130 -13.0360 -9.4007 3.0976 25.3537
#
#
#
# Elastic Compliance Matrix: (Units=1/GPa)
#
#
# Indices 1 2 3 4 5 6 
#
# 1 0.036221 -0.024017 -0.010524 -0.008763 0.042434 -0.039390
# 2 -0.024017 0.068825 0.022320 -0.008719 -0.031358 0.045105
# 3 -0.010524 0.022320 0.039659 0.008793 0.001373 0.035574
# 4 -0.008763 -0.008719 0.008793 0.062004 0.002158 0.029007
# 5 0.042434 -0.031358 0.001373 0.002158 0.106557 -0.042420
# 6 -0.039390 0.045105 0.035574 0.029007 -0.042420 0.107227
#
#
# Mechanical properties :
#
#
# Convention : Reuss Voigt Hill
#
# Bulk Modulus (GPa) = 8.31509 16.86816 12.59162
# Shear Modulus (GPa) = 10.30879 23.37301 16.84090
#
# Velocity S-wave (km/s) = 2.16751 3.26374 2.77039
# Velocity P-wave (km/s) = 3.17075 4.67869 3.99649
#
# Compressibility (1/GPa) = 0.12026324
#
# Stress axis : x y z
#
# Youngs Moduli (GPa) = 27.60847 14.52964 25.21470
#
# Poissons Ratio (x) = 0.34895 0.26536
# Poissons Ratio (y) = 0.66306 -0.56279
# Poissons Ratio (z) = 0.29056 -0.32430
#
# Static dielectric constant tensor:
#      x y z
#    x 1.849990 0.011560 -0.018460 
#    y 0.011560 1.840500 0.074190 
#    z -0.018460 0.074190 1.868720 
# 
# From -- ./inp_files/223604.got.cif
#   From: 2010.05.17/outbox.cif.g08.bks.cpg/sg2_112_cif.got.tgz:223604.got - 2010.06.03 11:33:40.
