data_PCOD9075946
_publ_section_title
;
Structure prediction by ZEFSAII (Michael W. Deem and Ramdas Pophale) SiO2 
 PCOD9075946
Probable space group: P -1
;
_chemical_formula_sum "Si O2"
_cell_formula_units_Z 16
_cell_length_a 15.575824
_cell_length_b 11.316494
_cell_length_c 16.356550
_cell_angle_alpha 34.927730
_cell_angle_beta 148.453142
_cell_angle_gamma 155.647987
_cell_volume 609.213507
_symmetry_space_group_name_H-M "P -1"
_symmetry_group_IT_number 2
_symmetry_cell_setting 'triclinic'
loop_
_space_group_symop_operation_xyz
x,y,z
-x,-y,-z
loop_
_atom_site_type_symbol
_atom_site_label
_atom_site_fract_x
_atom_site_fract_y
_atom_site_fract_z
Si Si1 0.356702 0.624949 0.260890
Si Si2 0.099203 0.069170 0.285147
Si Si3 0.352367 0.483559 0.959753
Si Si4 0.977628 0.210077 0.330567
Si Si5 0.696029 0.989853 0.078377
Si Si6 0.294627 0.868046 0.626262
Si Si7 0.295015 0.129579 0.247904
Si Si8 0.313613 0.705059 0.438462
O O1 0.334275 0.393010 0.324643
O O2 0.173619 0.430558 0.295988
O O3 0.596872 0.909434 0.334932
O O4 0.277530 0.748189 0.073040
O O5 0.090555 0.830382 0.448190
O O6 0.123227 0.074693 0.205250
O O7 0.893521 0.027432 0.173319
O O8 0.472231 0.702312 0.012890
O O9 0.251793 0.198707 0.087939
O O10 0.500000 0.500000 0.000000
O O11 0.249484 0.591663 0.769011
O O12 0.070633 0.432199 0.353608
O O13 0.000000 0.000000 0.500000
O O14 0.738311 0.018992 0.193757
O O15 0.496962 0.059948 0.611151
O O16 0.558018 0.363404 0.367648
O O17 0.266988 0.860735 0.367616
#
# Coordination Sequence:
#
# PCOD9075946 Si02
#       8
#     2   2   2   2   2   2   2   2
#     4   9  19  37  60  82 118 164 194 230 298 367
#     4  10  19  36  58  88 120 150 197 246 297 342
#     4  11  21  39  63  84 117 158 205 235 291 359
#     4  10  18  32  57  87 113 143 197 247 283 335
#     4  10  22  40  63  87 117 160 194 244 302 353
#     4   9  18  34  60  85 113 156 200 236 290 352
#     4  10  20  35  60  87 116 161 200 239 285 356
#     4   9  18  34  57  84 116 158 200 231 290 363
#
# _framework density 26.263372
#
# number of rings (size 3 to 8) (size 9 to 14) (size 15 to 20)
#    0.000    2.250    1.250    2.625    0.000    1.000 
#    0.000    8.750    2.750    0.000    0.000    0.000 
#    0.000    0.000    0.000    0.000    0.000    0.000 
#
# Total GULP energy -89495.209743 kJ/mol
# GULP energy per Si atom -5593.450609 kJ/mol
# Density = 2.620360 g / cm^3
# Si number density = 26.263372 Si / 1000 Ang^3
#
#
#
# Elastic Constant Matrix: (Units=GPa)
#
#
# Indices 1 2 3 4 5 6 
#
# 1 100.8044 12.9426 41.4596 6.4207 -0.4147 -15.6730
# 2 12.9426 60.7623 10.2635 14.2576 1.8433 -10.6930
# 3 41.4596 10.2635 204.7677 -15.3576 -16.5533 8.2993
# 4 6.4207 14.2576 -15.3576 32.0432 -11.5330 2.1854
# 5 -0.4147 1.8433 -16.5533 -11.5330 42.4221 2.5938
# 6 -15.6730 -10.6930 8.2993 2.1854 2.5938 44.1472
#
#
#
# Elastic Compliance Matrix: (Units=1/GPa)
#
#
# Indices 1 2 3 4 5 6 
#
# 1 0.012556 0.000405 -0.003497 -0.005918 -0.003217 0.005695
# 2 0.000405 0.021543 -0.002991 -0.013839 -0.006288 0.006978
# 3 -0.003497 -0.002991 0.006861 0.007395 0.005023 -0.003917
# 4 -0.005918 -0.013839 0.007395 0.049059 0.017396 -0.010294
# 5 -0.003217 -0.006288 0.005023 0.017396 0.030888 -0.006285
# 6 0.005695 0.006978 -0.003917 -0.010294 -0.006285 0.027979
#
#
# Mechanical properties :
#
#
# Convention : Reuss Voigt Hill
#
# Bulk Modulus (GPa) = 34.73079 55.07396 44.90238
# Shear Modulus (GPa) = 29.29988 43.83374 36.56681
#
# Velocity S-wave (km/s) = 3.34371 4.08978 3.73542
# Velocity P-wave (km/s) = 5.30659 6.58157 5.97817
#
# Compressibility (1/GPa) = 0.02879289
#
# Stress axis : x y z
#
# Youngs Moduli (GPa) = 79.64472 46.41951 145.75161
#
# Poissons Ratio (x) = -0.01879 0.50972
# Poissons Ratio (y) = -0.03224 0.43592
# Poissons Ratio (z) = 0.27853 0.13883
#
# Static dielectric constant tensor:
#      x y z
#    x 2.046760 0.060240 -0.018730 
#    y 0.060240 2.261440 0.110060 
#    z -0.018730 0.110060 2.032720 
# 
# From -- ./inp_files/469372.got.cif
#   From: 2010.05.17/outbox.cif.g08.bks.cpg/sg2_235_cif.got.tgz:469372.got - 2010.06.03 11:33:40.
