data_PCOD9075463
_publ_section_title
;
Structure prediction by ZEFSAII (Michael W. Deem and Ramdas Pophale) SiO2 
 PCOD9075463
Probable space group: P -1
;
_chemical_formula_sum "Si O2"
_cell_formula_units_Z 14
_cell_length_a 9.000000
_cell_length_b 18.000000
_cell_length_c 12.000000
_cell_angle_alpha 40.000000
_cell_angle_beta 150.000000
_cell_angle_gamma 130.000000
_cell_volume 623.501542
_symmetry_space_group_name_H-M "P -1"
_symmetry_group_IT_number 2
_symmetry_cell_setting 'triclinic'
loop_
_space_group_symop_operation_xyz
x,y,z
-x,-y,-z
loop_
_atom_site_type_symbol
_atom_site_label
_atom_site_fract_x
_atom_site_fract_y
_atom_site_fract_z
Si Si1 0.670419 0.183302 0.317379
Si Si2 0.486556 0.322019 0.431961
Si Si3 0.856449 0.976189 0.819771
Si Si4 0.290954 0.615789 0.731942
Si Si5 0.145578 0.751352 0.864715
Si Si6 0.380463 0.456684 0.591157
Si Si7 0.691623 0.110507 0.971228
O O1 0.382305 0.112660 0.193549
O O2 0.614073 0.309027 0.188099
O O3 0.883464 0.183752 0.347756
O O4 0.793860 0.107095 0.587334
O O5 0.652467 0.319353 0.423563
O O6 0.571521 0.438923 0.413078
O O7 0.549549 0.213137 0.681460
O O8 0.131088 0.318361 0.193247
O O9 0.021048 0.925101 0.876078
O O10 0.000000 0.000000 0.000000
O O11 0.956404 0.580036 0.577271
O O12 0.500000 0.500000 0.000000
O O13 0.416663 0.659174 0.121732
O O14 0.224834 0.836350 0.917296
O O15 0.500000 0.500000 0.500000
O O16 0.500000 0.000000 0.000000
#
# Coordination Sequence:
#
# PCOD9075463 Si02
#       7
#     2   2   2   2   2   2   2
#     4  11  26  44  72 105 142 190 237 299 358 424
#     4  12  26  47  72 106 146 188 242 298 359 428
#     4  11  25  46  72 102 146 189 243 293 360 422
#     4  12  27  46  76 109 146 188 243 297 364 432
#     4  12  26  46  74 104 148 186 241 296 361 429
#     4  12  25  46  75 104 146 192 235 295 367 428
#     4  12  27  44  74 104 145 191 244 294 360 426
#
# _framework density 22.453834000000001
#
# number of rings (size 3 to 8) (size 9 to 14) (size 15 to 20)
#    0.000    0.286    1.429    6.857    8.000    4.571 
#    0.000    0.000    0.000    0.000    0.000    0.000 
#    0.000    0.000    0.000    0.000    0.000    0.000 
#
# Total GULP energy -78154.193361 kJ/mol
# GULP energy per Si atom -5582.442383 kJ/mol
# Density = 2.240273 g / cm^3
# Si number density = 22.453834 Si / 1000 Ang^3
#
#
#
# Elastic Constant Matrix: (Units=GPa)
#
#
# Indices 1 2 3 4 5 6 
#
# 1 161.0437 58.3641 7.3875 24.7312 -26.0392 10.6905
# 2 58.3641 234.9851 23.4188 38.7345 24.3001 -0.9446
# 3 7.3875 23.4188 50.7187 4.4343 -8.4035 -4.1176
# 4 24.7312 38.7345 4.4343 32.1626 7.6226 6.6241
# 5 -26.0392 24.3001 -8.4035 7.6226 52.6349 5.6727
# 6 10.6905 -0.9446 -4.1176 6.6241 5.6727 54.3072
#
#
#
# Elastic Compliance Matrix: (Units=1/GPa)
#
#
# Indices 1 2 3 4 5 6 
#
# 1 0.008977 -0.002079 0.001111 -0.005764 0.006597 -0.001705
# 2 -0.002079 0.006246 -0.002667 -0.004933 -0.003765 0.001311
# 3 0.001111 -0.002667 0.021977 -0.002199 0.005490 0.001096
# 4 -0.005764 -0.004933 -0.002199 0.044187 -0.006917 -0.003785
# 5 0.006597 -0.003765 0.005490 -0.006917 0.026185 -0.002839
# 6 -0.001705 0.001311 0.001096 -0.003785 -0.002839 0.019614
#
#
# Mechanical properties :
#
#
# Convention : Reuss Voigt Hill
#
# Bulk Modulus (GPa) = 33.41195 69.45423 51.43309
# Shear Modulus (GPa) = 34.61825 51.65940 43.13882
#
# Velocity S-wave (km/s) = 3.93077 4.80176 4.38793
# Velocity P-wave (km/s) = 5.95936 7.85759 6.97336
#
# Compressibility (1/GPa) = 0.02992941
#
# Stress axis : x y z
#
# Youngs Moduli (GPa) = 111.39361 160.11433 45.50177
#
# Poissons Ratio (x) = 0.33293 -0.05056
# Poissons Ratio (y) = 0.23162 0.12135
# Poissons Ratio (z) = -0.12377 0.42703
#
# Static dielectric constant tensor:
#      x y z
#    x 1.774710 0.011610 0.020670 
#    y 0.011610 1.771540 0.001420 
#    z 0.020670 0.001420 2.064760 
# 
# From -- ./inp_files/46100.got.cif
#   From: 2010.05.17/outbox.ucp.g08.bks.cvg/sg2_24_cif.got.tgz:46100.got - 2010.06.11 11:32:03.
