data_PCOD9075239
_publ_section_title
;
Structure prediction by ZEFSAII (Michael W. Deem and Ramdas Pophale) SiO2 
 PCOD9075239
Probable space group: P -1
;
_chemical_formula_sum "Si O2"
_cell_formula_units_Z 16
_cell_length_a 18.000000
_cell_length_b 9.000000
_cell_length_c 12.000000
_cell_angle_alpha 140.000000
_cell_angle_beta 50.000000
_cell_angle_gamma 100.000000
_cell_volume 729.599496
_symmetry_space_group_name_H-M "P -1"
_symmetry_group_IT_number 2
_symmetry_cell_setting 'triclinic'
loop_
_space_group_symop_operation_xyz
x,y,z
-x,-y,-z
loop_
_atom_site_type_symbol
_atom_site_label
_atom_site_fract_x
_atom_site_fract_y
_atom_site_fract_z
Si Si1 0.718691 0.933250 0.923753
Si Si2 0.800479 0.233975 0.154254
Si Si3 0.498170 0.916005 0.150791
Si Si4 0.713767 0.251085 0.485688
Si Si5 0.243079 0.182134 0.436454
Si Si6 0.633509 0.841957 0.345979
Si Si7 0.130390 0.846609 0.355906
Si Si8 0.088966 0.743259 0.581817
O O1 0.765637 0.817669 0.687531
O O2 0.818198 0.620697 0.714545
O O3 0.579498 0.027178 0.119358
O O4 0.737005 0.167830 0.083180
O O5 0.714103 0.336947 0.406904
O O6 0.813624 0.490868 0.271118
O O7 0.943806 0.924033 0.861244
O O8 0.392893 0.985001 0.205534
O O9 0.415614 0.080056 0.435222
O O10 0.605522 0.549292 0.833981
O O11 0.845089 0.151169 0.351032
O O12 0.689668 0.014148 0.371203
O O13 0.177105 0.039404 0.447373
O O14 0.500000 0.000000 0.500000
O O15 0.745746 0.484932 0.002811
O O16 0.090170 0.812378 0.493430
O O17 0.000000 0.000000 0.500000
#
# Coordination Sequence:
#
# PCOD9075239 Si02
#       8
#     2   2   2   2   2   2   2   2
#     4  11  25  46  73 106 145 189 246 295 353 434
#     4  12  25  42  75 103 142 194 233 290 371 420
#     4  11  24  45  71 107 146 187 241 304 356 428
#     4  11  23  44  73 107 138 188 249 297 350 434
#     4  12  27  46  70 107 151 183 238 297 365 430
#     4  12  25  46  76 105 144 198 246 295 366 426
#     4  12  29  48  71 109 152 186 243 309 360 431
#     4  11  24  47  71 100 145 189 245 295 353 435
#
# _framework density 21.929839999999999
#
# number of rings (size 3 to 8) (size 9 to 14) (size 15 to 20)
#    0.000    0.500    2.500    6.750    5.250    1.000 
#    0.000    0.000    0.000    0.000    0.000    0.000 
#    0.000    0.000    0.000    0.000    0.000    0.000 
#
# Total GULP energy -89379.187261 kJ/mol
# GULP energy per Si atom -5586.199204 kJ/mol
# Density = 2.187993 g / cm^3
# Si number density = 21.929840 Si / 1000 Ang^3
#
#
#
# Elastic Constant Matrix: (Units=GPa)
#
#
# Indices 1 2 3 4 5 6 
#
# 1 173.0493 36.1974 32.7466 23.0523 5.8983 26.7869
# 2 36.1974 72.4516 15.4745 8.9794 12.4612 17.6966
# 3 32.7466 15.4745 99.6574 0.5761 5.8968 5.4275
# 4 23.0523 8.9794 0.5761 30.2817 3.3112 16.1832
# 5 5.8983 12.4612 5.8968 3.3112 50.5775 -3.1843
# 6 26.7869 17.6966 5.4275 16.1832 -3.1843 64.0520
#
#
#
# Elastic Compliance Matrix: (Units=1/GPa)
#
#
# Indices 1 2 3 4 5 6 
#
# 1 0.007417 -0.002506 -0.001972 -0.004269 0.000189 -0.001154
# 2 -0.002506 0.016979 -0.001386 -0.000794 -0.003899 -0.003519
# 3 -0.001972 -0.001386 0.010950 0.001930 -0.000847 -0.000250
# 4 -0.004269 -0.000794 0.001930 0.041468 -0.002799 -0.008775
# 5 0.000189 -0.003899 -0.000847 -0.002799 0.021170 0.002830
# 6 -0.001154 -0.003519 -0.000250 -0.008775 0.002830 0.019446
#
#
# Mechanical properties :
#
#
# Convention : Reuss Voigt Hill
#
# Bulk Modulus (GPa) = 42.33963 57.11057 49.72510
# Shear Modulus (GPa) = 36.48833 46.36489 41.42661
#
# Velocity S-wave (km/s) = 4.08348 4.60307 4.35104
# Velocity P-wave (km/s) = 6.44840 7.37224 6.92574
#
# Compressibility (1/GPa) = 0.02361853
#
# Stress axis : x y z
#
# Youngs Moduli (GPa) = 134.82625 58.89698 91.32355
#
# Poissons Ratio (x) = 0.14759 0.18006
# Poissons Ratio (y) = 0.33786 0.12658
# Poissons Ratio (z) = 0.26583 0.08164
#
# Static dielectric constant tensor:
#      x y z
#    x 1.853640 -0.017880 -0.013290 
#    y -0.017880 1.980800 0.067520 
#    z -0.013290 0.067520 1.789860 
# 
# From -- ./inp_files/462564.got.cif
#   From: 2010.05.17/outbox.ucp.g08.bks.cvg/sg2_232_cif.got.tgz:462564.got - 2010.06.11 11:32:03.
