data_PCOD9075146
_publ_section_title
;
Structure prediction by ZEFSAII (Michael W. Deem and Ramdas Pophale) SiO2 
 PCOD9075146
Probable space group: P -1
;
_chemical_formula_sum "Si O2"
_cell_formula_units_Z 14
_cell_length_a 9.000000
_cell_length_b 9.000000
_cell_length_c 12.000000
_cell_angle_alpha 110.000000
_cell_angle_beta 120.000000
_cell_angle_gamma 110.000000
_cell_volume 614.029152
_symmetry_space_group_name_H-M "P -1"
_symmetry_group_IT_number 2
_symmetry_cell_setting 'triclinic'
loop_
_space_group_symop_operation_xyz
x,y,z
-x,-y,-z
loop_
_atom_site_type_symbol
_atom_site_label
_atom_site_fract_x
_atom_site_fract_y
_atom_site_fract_z
Si Si1 0.287838 0.811557 0.088985
Si Si2 0.049423 0.069118 0.408284
Si Si3 0.645475 0.498744 0.463499
Si Si4 0.991968 0.505561 0.710314
Si Si5 0.442622 0.283868 0.919355
Si Si6 0.581579 0.245296 0.198188
Si Si7 0.751599 0.111807 0.656083
O O1 0.413392 0.716380 0.122701
O O2 0.213632 0.828306 0.185736
O O3 0.474242 0.033478 0.162744
O O4 0.094438 0.676403 0.890100
O O5 0.156993 0.295887 0.473010
O O6 0.216068 0.048911 0.405335
O O7 0.000000 0.000000 0.500000
O O8 0.811704 0.899946 0.227382
O O9 0.500000 0.500000 0.500000
O O10 0.505298 0.345624 0.271776
O O11 0.760042 0.425419 0.555344
O O12 0.157966 0.604756 0.693159
O O13 0.935695 0.309724 0.701251
O O14 0.500000 0.500000 0.000000
O O15 0.506978 0.234582 0.043628
O O16 0.500000 0.000000 0.500000
#
# Coordination Sequence:
#
# PCOD9075146 Si02
#       7
#     2   2   2   2   2   2   2
#     4  11  23  43  66  93 125 163 208 257 309 372
#     4  12  24  42  65  93 126 166 208 257 310 366
#     4  12  25  41  62  94 128 162 206 260 309 360
#     4  11  23  42  65  90 122 166 208 251 308 375
#     4  11  23  41  66  96 124 160 208 261 310 366
#     4  11  23  43  66  91 123 166 209 252 307 375
#     4  12  25  42  63  93 128 167 207 254 310 370
#
# _framework density 22.800219999999999
#
# number of rings (size 3 to 8) (size 9 to 14) (size 15 to 20)
#    0.000    0.571    0.000   11.143    0.000    2.286 
#    0.000    2.857    0.000    0.000    0.000    0.000 
#    0.000    0.000    0.000    0.000    0.000    0.000 
#
# Total GULP energy -78102.331139 kJ/mol
# GULP energy per Si atom -5578.737939 kJ/mol
# Density = 2.274833 g / cm^3
# Si number density = 22.800220 Si / 1000 Ang^3
#
#
#
# Elastic Constant Matrix: (Units=GPa)
#
#
# Indices 1 2 3 4 5 6 
#
# 1 65.3119 -0.8607 18.1745 -12.7405 -25.5542 -11.5296
# 2 -0.8607 111.7240 -2.4863 19.0430 -16.7520 6.4170
# 3 18.1745 -2.4863 59.9678 6.6390 -8.6165 -5.1045
# 4 -12.7405 19.0430 6.6390 28.4668 -0.9082 0.9582
# 5 -25.5542 -16.7520 -8.6165 -0.9082 36.4359 -2.2868
# 6 -11.5296 6.4170 -5.1045 0.9582 -2.2868 22.5873
#
#
#
# Elastic Compliance Matrix: (Units=1/GPa)
#
#
# Indices 1 2 3 4 5 6 
#
# 1 0.031915 -0.000316 -0.006928 0.016264 0.022031 0.016355
# 2 -0.000316 0.011214 0.001988 -0.007876 0.005079 -0.002050
# 3 -0.006928 0.001988 0.020030 -0.009112 0.000619 0.000874
# 4 0.016264 -0.007876 -0.009112 0.049795 0.007318 0.007108
# 5 0.022031 0.005079 0.000619 0.007318 0.046461 0.014336
# 6 0.016355 -0.002050 0.000874 0.007108 0.014336 0.054551
#
#
# Mechanical properties :
#
#
# Convention : Reuss Voigt Hill
#
# Bulk Modulus (GPa) = 18.99485 29.62875 24.31180
# Shear Modulus (GPa) = 20.65874 32.30975 26.48424
#
# Velocity S-wave (km/s) = 3.01338 3.76850 3.41189
# Velocity P-wave (km/s) = 4.52287 5.65319 5.11932
#
# Compressibility (1/GPa) = 0.05264584
#
# Stress axis : x y z
#
# Youngs Moduli (GPa) = 31.33336 89.17278 49.92505
#
# Poissons Ratio (x) = 0.02821 0.34590
# Poissons Ratio (y) = 0.00991 -0.09926
# Poissons Ratio (z) = 0.21709 -0.17729
#
# Static dielectric constant tensor:
#      x y z
#    x 1.861720 -0.127300 -0.048800 
#    y -0.127300 1.884990 -0.019760 
#    z -0.048800 -0.019760 1.954700 
# 
# From -- ./inp_files/156690.got.cif
#   From: 2010.05.17/outbox.ucp.g08.bks.cvg/sg2_79_cif.got.tgz:156690.got - 2010.06.11 11:32:03.
