data_PCOD9075082
_publ_section_title
;
Structure prediction by ZEFSAII (Michael W. Deem and Ramdas Pophale) SiO2 
 PCOD9075082
Probable space group: P -1
;
_chemical_formula_sum "Si O2"
_cell_formula_units_Z 12
_cell_length_a 12.000000
_cell_length_b 15.000000
_cell_length_c 6.000000
_cell_angle_alpha 80.000000
_cell_angle_beta 90.000000
_cell_angle_gamma 150.000000
_cell_volume 506.387931
_symmetry_space_group_name_H-M "P -1"
_symmetry_group_IT_number 2
_symmetry_cell_setting 'triclinic'
loop_
_space_group_symop_operation_xyz
x,y,z
-x,-y,-z
loop_
_atom_site_type_symbol
_atom_site_label
_atom_site_fract_x
_atom_site_fract_y
_atom_site_fract_z
Si Si1 0.035736 0.667539 0.945806
Si Si2 0.234661 0.372559 0.845561
Si Si3 0.253079 0.043098 0.167024
Si Si4 0.269381 0.666208 0.202199
Si Si5 0.438724 0.056409 0.562801
Si Si6 0.769273 0.784744 0.717132
O O1 0.906667 0.538695 0.780104
O O2 0.228914 0.880908 0.804860
O O3 0.840250 0.577611 0.129715
O O4 0.167406 0.680426 0.065874
O O5 0.513151 0.579832 0.688619
O O6 0.200097 0.285466 0.107438
O O7 0.019883 0.179496 0.778511
O O8 0.276246 0.167537 0.128107
O O9 0.331833 0.048768 0.389678
O O10 0.468127 0.169149 0.951832
O O11 0.324133 0.732657 0.425765
O O12 0.500000 0.000000 0.500000
O O13 0.000000 0.000000 0.500000
#
# Coordination Sequence:
#
# PCOD9075082 Si02
#       6
#     2   2   2   2   2   2
#     4  11  22  44  67 101 139 184 226 280 352 413
#     4  11  24  46  74  99 141 186 232 292 352 412
#     4  12  24  45  70 101 141 181 227 292 349 414
#     4  11  24  42  69 100 146 178 221 286 347 416
#     4  12  24  40  67 104 140 183 227 275 346 425
#     4  11  26  47  71 105 134 182 245 292 349 410
#
# _framework density 23.697247000000001
#
# number of rings (size 3 to 8) (size 9 to 14) (size 15 to 20)
#    0.000    0.667    5.000    3.000    0.000    2.667 
#    0.000    0.000    0.000    0.000    0.000    0.000 
#    0.000    0.000    0.000    0.000    0.000    0.000 
#
# Total GULP energy -66941.661091 kJ/mol
# GULP energy per Si atom -5578.471758 kJ/mol
# Density = 2.364331 g / cm^3
# Si number density = 23.697247 Si / 1000 Ang^3
#
#
#
# Elastic Constant Matrix: (Units=GPa)
#
#
# Indices 1 2 3 4 5 6 
#
# 1 97.8574 32.5863 0.8225 2.3989 -11.9105 2.6191
# 2 32.5863 205.1635 12.3287 16.1222 -11.1464 12.0136
# 3 0.8225 12.3287 22.8479 -15.2198 -5.2210 6.9821
# 4 2.3989 16.1222 -15.2198 50.0937 3.6658 -0.2199
# 5 -11.9105 -11.1464 -5.2210 3.6658 15.4818 -5.4842
# 6 2.6191 12.0136 6.9821 -0.2199 -5.4842 45.5063
#
#
#
# Elastic Compliance Matrix: (Units=1/GPa)
#
#
# Indices 1 2 3 4 5 6 
#
# 1 0.011787 -0.001552 0.002296 -0.000016 0.008888 0.000450
# 2 -0.001552 0.005808 -0.004716 -0.003378 0.002022 -0.000493
# 3 0.002296 -0.004716 0.064767 0.020109 0.012912 -0.007171
# 4 -0.000016 -0.003378 0.020109 0.027369 -0.003001 -0.002422
# 5 0.008888 0.002022 0.012912 -0.003001 0.080301 0.006637
# 6 0.000450 -0.000493 -0.007171 -0.002422 0.006637 0.023968
#
#
# Mechanical properties :
#
#
# Convention : Reuss Voigt Hill
#
# Bulk Modulus (GPa) = 13.43746 46.37153 29.90450
# Shear Modulus (GPa) = 20.26350 40.89179 30.57765
#
# Velocity S-wave (km/s) = 2.92738 4.15853 3.59604
# Velocity P-wave (km/s) = 4.13629 6.53212 5.46706
#
# Compressibility (1/GPa) = 0.07441880
#
# Stress axis : x y z
#
# Youngs Moduli (GPa) = 84.84169 172.16806 15.43999
#
# Poissons Ratio (x) = 0.26727 -0.03546
# Poissons Ratio (y) = 0.13170 0.07281
# Poissons Ratio (z) = -0.19483 0.81186
#
# Static dielectric constant tensor:
#      x y z
#    x 1.968210 0.026420 -0.157760 
#    y 0.026420 1.943380 -0.015690 
#    z -0.157760 -0.015690 2.108090 
# 
# From -- ./inp_files/77635.got.cif
#   From: 2010.05.17/outbox.ucp.g08.bks.cvg/sg2_39_cif.got.tgz:77635.got - 2010.06.11 11:32:03.
