data_PCOD9075024
_publ_section_title
;
Structure prediction by ZEFSAII (Michael W. Deem and Ramdas Pophale) SiO2 
 PCOD9075024
Probable space group: P -1
;
_chemical_formula_sum "Si O2"
_cell_formula_units_Z 14
_cell_length_a 5.390957
_cell_length_b 24.682769
_cell_length_c 17.797139
_cell_angle_alpha 155.859420
_cell_angle_beta 72.143415
_cell_angle_gamma 91.522547
_cell_volume 700.111133
_symmetry_space_group_name_H-M "P -1"
_symmetry_group_IT_number 2
_symmetry_cell_setting 'triclinic'
loop_
_space_group_symop_operation_xyz
x,y,z
-x,-y,-z
loop_
_atom_site_type_symbol
_atom_site_label
_atom_site_fract_x
_atom_site_fract_y
_atom_site_fract_z
Si Si1 0.238389 0.563925 0.271720
Si Si2 0.804471 0.594113 0.214035
Si Si3 0.039259 0.109662 0.203433
Si Si4 0.299860 0.191738 0.167513
Si Si5 0.189407 0.426880 0.259791
Si Si6 0.310274 0.979888 0.786375
Si Si7 0.260647 0.669025 0.792190
O O1 0.573676 0.541283 0.190771
O O2 0.263555 0.463281 0.216285
O O3 0.072293 0.541575 0.189179
O O4 0.979349 0.765654 0.577181
O O5 0.567428 0.805676 0.493287
O O6 0.000000 0.500000 0.000000
O O7 0.009776 0.190227 0.228561
O O8 0.748325 0.104268 0.246362
O O9 0.395860 0.917810 0.939906
O O10 0.116956 0.390723 0.438863
O O11 0.418408 0.084577 0.944401
O O12 0.511322 0.347622 0.183173
O O13 0.037338 0.330052 0.147972
O O14 0.945651 0.142179 0.989381
O O15 0.500000 0.500000 0.500000
#
# Coordination Sequence:
#
# PCOD9075024 Si02
#       7
#     2   2   2   2   2   2   2
#     4  10  21  40  63  86 118 150 194 246 298 354
#     4  11  23  41  66  92 113 144 193 257 313 343
#     4   9  19  31  52  84 113 150 188 233 297 348
#     4  10  18  32  53  79 119 152 189 233 282 356
#     4  11  24  38  57  86 121 168 196 228 282 349
#     4  11  22  34  56  81 121 150 193 237 293 343
#     4  12  24  37  56  84 129 166 199 228 273 346
#
# _framework density 19.996822999999999
#
# number of rings (size 3 to 8) (size 9 to 14) (size 15 to 20)
#    0.000    1.429    2.857    3.000    2.000    0.000 
#    0.000    0.000    0.000    5.143    0.000    0.000 
#    0.000    0.000    0.000    0.000    0.000    0.000 
#
# Total GULP energy -78039.361938 kJ/mol
# GULP energy per Si atom -5574.240138 kJ/mol
# Density = 1.995131 g / cm^3
# Si number density = 19.996823 Si / 1000 Ang^3
#
#
#
# Elastic Constant Matrix: (Units=GPa)
#
#
# Indices 1 2 3 4 5 6 
#
# 1 153.2742 68.7263 24.1265 -9.3774 13.0137 4.3541
# 2 68.7263 112.2801 39.6153 -3.5935 6.4758 5.5864
# 3 24.1265 39.6153 85.7860 -17.0479 7.4566 2.7745
# 4 -9.3774 -3.5935 -17.0479 31.4669 -3.3937 2.2955
# 5 13.0137 6.4758 7.4566 -3.3937 21.0701 -0.4098
# 6 4.3541 5.5864 2.7745 2.2955 -0.4098 40.8237
#
#
#
# Elastic Compliance Matrix: (Units=1/GPa)
#
#
# Indices 1 2 3 4 5 6 
#
# 1 0.009465 -0.005749 0.000792 0.002192 -0.004015 -0.000440
# 2 -0.005749 0.014314 -0.005619 -0.002996 0.000642 -0.000789
# 3 0.000792 -0.005619 0.015907 0.007938 -0.003130 -0.000874
# 4 0.002192 -0.002996 0.007938 0.036853 0.002646 -0.002409
# 5 -0.004015 0.000642 -0.003130 0.002646 0.051295 0.000919
# 6 -0.000440 -0.000789 -0.000874 -0.002409 0.000919 0.024855
#
#
# Mechanical properties :
#
#
# Convention : Reuss Voigt Hill
#
# Bulk Modulus (GPa) = 53.95664 68.47517 61.21590
# Shear Modulus (GPa) = 27.77491 33.26361 30.51926
#
# Velocity S-wave (km/s) = 3.73093 4.08296 3.91091
# Velocity P-wave (km/s) = 6.75285 7.51963 7.14653
#
# Compressibility (1/GPa) = 0.01853340
#
# Stress axis : x y z
#
# Youngs Moduli (GPa) = 105.65219 69.86034 62.86572
#
# Poissons Ratio (x) = 0.40165 -0.04978
# Poissons Ratio (y) = 0.60743 0.35324
# Poissons Ratio (z) = -0.08366 0.39254
#
# Static dielectric constant tensor:
#      x y z
#    x 1.808150 0.027100 -0.000200 
#    y 0.027100 1.763130 0.002640 
#    z -0.000200 0.002640 1.719730 
# 
# From -- ./inp_files/68655.got.cif
#   From: 2010.05.17/outbox.cif.g08.bks.cpg/sg2_35_cif.got.tgz:68655.got - 2010.06.03 11:33:40.
