data_PCOD9075720
_publ_section_title
;
Structure prediction by ZEFSAII (Michael W. Deem and Ramdas Pophale) SiO2 
 PCOD9075720
Probable space group: P -1
;
_chemical_formula_sum "Si O2"
_cell_formula_units_Z 16
_cell_length_a 11.043627
_cell_length_b 9.843273
_cell_length_c 16.537796
_cell_angle_alpha 150.406599
_cell_angle_beta 133.915704
_cell_angle_gamma 62.472378
_cell_volume 587.202838
_symmetry_space_group_name_H-M "P -1"
_symmetry_group_IT_number 2
_symmetry_cell_setting 'triclinic'
loop_
_space_group_symop_operation_xyz
x,y,z
-x,-y,-z
loop_
_atom_site_type_symbol
_atom_site_label
_atom_site_fract_x
_atom_site_fract_y
_atom_site_fract_z
Si Si1 0.837320 0.248956 0.081901
Si Si2 0.458198 0.786605 0.600782
Si Si3 0.602804 0.665909 0.453657
Si Si4 0.507297 0.411319 0.816346
Si Si5 0.340802 0.904905 0.763884
Si Si6 0.998470 0.127319 0.937310
Si Si7 0.146778 0.121825 0.560233
Si Si8 0.108273 0.242136 0.873330
O O1 0.857152 0.555408 0.290308
O O2 0.879055 0.041449 0.059096
O O3 0.972455 0.297905 0.092700
O O4 0.641130 0.067207 0.856332
O O5 0.500000 0.500000 0.500000
O O6 0.456894 0.732670 0.476439
O O7 0.304364 0.790576 0.594665
O O8 0.572073 0.720916 0.375498
O O9 0.590301 0.326141 0.281215
O O10 0.802525 0.875707 0.688424
O O11 0.366751 0.217291 0.719408
O O12 0.724723 0.488011 0.953962
O O13 0.517065 0.750426 0.996023
O O14 0.176293 0.963853 0.760227
O O15 0.078786 0.304615 0.984063
O O16 0.068535 0.888525 0.331372
O O17 0.000000 0.000000 0.500000
#
# Coordination Sequence:
#
# PCOD9075720 Si02
#       8
#     2   2   2   2   2   2   2   2
#     4  10  21  38  57  94 127 162 195 246 303 360
#     4   9  18  31  53  85 128 161 189 229 308 372
#     4  10  18  32  54  86 125 159 187 238 309 374
#     4  10  22  37  57  86 118 152 205 251 300 348
#     4   9  19  32  52  89 119 156 187 242 302 362
#     4  10  21  35  62  91 129 153 188 248 317 372
#     4  12  25  44  65  83 118 168 214 250 290 351
#     4  10  23  38  61  91 116 158 199 254 306 357
#
# _framework density 27.247827000000001
#
# number of rings (size 3 to 8) (size 9 to 14) (size 15 to 20)
#    0.750    1.250    2.500    1.125    5.250    2.500 
#    0.000    0.625    0.000    0.750    0.000    0.000 
#    0.000    0.000    0.000    0.000    0.000    0.000 
#
# Total GULP energy -89516.006962 kJ/mol
# GULP energy per Si atom -5594.750435 kJ/mol
# Density = 2.718581 g / cm^3
# Si number density = 27.247827 Si / 1000 Ang^3
#
#
#
# Elastic Constant Matrix: (Units=GPa)
#
#
# Indices 1 2 3 4 5 6 
#
# 1 106.3842 24.6005 54.9053 6.8114 2.5381 15.1482
# 2 24.6005 99.4315 43.2006 0.3546 2.3847 11.0486
# 3 54.9053 43.2006 125.8523 -21.1650 11.5978 2.9591
# 4 6.8114 0.3546 -21.1650 39.4297 0.9784 -4.1439
# 5 2.5381 2.3847 11.5978 0.9784 54.7610 2.6614
# 6 15.1482 11.0486 2.9591 -4.1439 2.6614 47.4748
#
#
#
# Elastic Compliance Matrix: (Units=1/GPa)
#
#
# Indices 1 2 3 4 5 6 
#
# 1 0.014345 0.000261 -0.007541 -0.007071 0.001283 -0.004857
# 2 0.000261 0.012450 -0.004906 -0.003121 0.000686 -0.002986
# 3 -0.007541 -0.004906 0.014735 0.009711 -0.002908 0.003640
# 4 -0.007071 -0.003121 0.009711 0.032446 -0.002433 0.005346
# 5 0.001283 0.000686 -0.002908 -0.002433 0.018912 -0.001660
# 6 -0.004857 -0.002986 0.003640 0.005346 -0.001660 0.023641
#
#
# Mechanical properties :
#
#
# Convention : Reuss Voigt Hill
#
# Bulk Modulus (GPa) = 58.27530 64.12006 61.19768
# Shear Modulus (GPa) = 34.10148 42.26387 38.18268
#
# Velocity S-wave (km/s) = 3.54154 3.94266 3.74747
# Velocity P-wave (km/s) = 6.17712 6.65653 6.42130
#
# Compressibility (1/GPa) = 0.01715993
#
# Stress axis : x y z
#
# Youngs Moduli (GPa) = 69.70960 80.31878 67.86399
#
# Poissons Ratio (x) = -0.02100 0.51178
# Poissons Ratio (y) = -0.01823 0.33292
# Poissons Ratio (z) = 0.52570 0.39402
#
# Static dielectric constant tensor:
#      x y z
#    x 2.274300 -0.061240 0.073480 
#    y -0.061240 2.177870 0.030160 
#    z 0.073480 0.030160 2.068360 
# 
# From -- ./inp_files/568355.got.cif
#   From: 2010.05.17/outbox.cif.g08.bks.cpg/sg2_285_cif.got.tgz:568355.got - 2010.06.03 11:33:40.
