data_PCOD9075504
_publ_section_title
;
Structure prediction by ZEFSAII (Michael W. Deem and Ramdas Pophale) SiO2 
 PCOD9075504
Probable space group: P -1
;
_chemical_formula_sum "Si O2"
_cell_formula_units_Z 10
_cell_length_a 6.000000
_cell_length_b 15.000000
_cell_length_c 18.000000
_cell_angle_alpha 20.000000
_cell_angle_beta 50.000000
_cell_angle_gamma 50.000000
_cell_volume 419.772810
_symmetry_space_group_name_H-M "P -1"
_symmetry_group_IT_number 2
_symmetry_cell_setting 'triclinic'
loop_
_space_group_symop_operation_xyz
x,y,z
-x,-y,-z
loop_
_atom_site_type_symbol
_atom_site_label
_atom_site_fract_x
_atom_site_fract_y
_atom_site_fract_z
Si Si1 0.263078 0.134356 0.180724
Si Si2 0.194264 0.380612 0.155188
Si Si3 0.937784 0.088697 0.027935
Si Si4 0.691364 0.402640 0.613101
Si Si5 0.093918 0.621965 0.625586
O O1 0.242353 0.156418 0.257574
O O2 0.603587 0.069117 0.137015
O O3 0.098329 0.901968 0.367666
O O4 0.082553 0.405009 0.978650
O O5 0.097533 0.314068 0.309826
O O6 0.500000 0.500000 0.000000
O O7 0.186783 0.910570 0.164281
O O8 0.961949 0.395467 0.788737
O O9 0.000000 0.000000 0.000000
O O10 0.500000 0.500000 0.500000
O O11 0.440718 0.498214 0.653694
O O12 0.000000 0.500000 0.500000
#
# Coordination Sequence:
#
# PCOD9075504 Si02
#       5
#     2   2   2   2   2
#     4  11  26  49  76 107 153 198 261 322 390 471
#     4  11  25  50  73 111 148 197 263 322 386 469
#     4  12  26  50  77 117 157 206 265 323 396 481
#     4  12  27  48  78 117 159 207 261 328 400 479
#     4  12  26  46  81 106 152 207 253 324 395 463
#
# _framework density 23.822410000000001
#
# number of rings (size 3 to 8) (size 9 to 14) (size 15 to 20)
#    0.000    0.400    4.000    3.600    2.800    0.800 
#    7.200    0.000    0.000    0.000    0.000    0.000 
#    0.000    0.000    0.000    0.000    0.000    0.000 
#
# Total GULP energy -55874.057888 kJ/mol
# GULP energy per Si atom -5587.405789 kJ/mol
# Density = 2.376819 g / cm^3
# Si number density = 23.822410 Si / 1000 Ang^3
#
#
#
# Elastic Constant Matrix: (Units=GPa)
#
#
# Indices 1 2 3 4 5 6 
#
# 1 103.2178 38.6168 31.8985 14.9758 0.0782 -2.2631
# 2 38.6168 187.5623 49.2560 25.6375 2.5514 -6.5995
# 3 31.8985 49.2560 93.5795 -6.4745 -28.3878 12.3432
# 4 14.9758 25.6375 -6.4745 37.0754 -6.0279 -10.7502
# 5 0.0782 2.5514 -28.3878 -6.0279 46.0330 -5.9245
# 6 -2.2631 -6.5995 12.3432 -10.7502 -5.9245 55.5588
#
#
#
# Elastic Compliance Matrix: (Units=1/GPa)
#
#
# Indices 1 2 3 4 5 6 
#
# 1 0.012632 0.000085 -0.006310 -0.007034 -0.004832 0.000050
# 2 0.000085 0.008159 -0.006548 -0.007594 -0.005436 0.000378
# 3 -0.006310 -0.006548 0.022107 0.012932 0.015469 -0.001795
# 4 -0.007034 -0.007594 0.012932 0.041269 0.014516 0.005472
# 5 -0.004832 -0.005436 0.015469 0.014516 0.033747 0.002128
# 6 0.000050 0.000378 -0.001795 0.005472 0.002128 0.019730
#
#
# Mechanical properties :
#
#
# Convention : Reuss Voigt Hill
#
# Bulk Modulus (GPa) = 57.62544 69.32246 63.47395
# Shear Modulus (GPa) = 29.59041 45.37267 37.48154
#
# Velocity S-wave (km/s) = 3.52820 4.36893 3.97088
# Velocity P-wave (km/s) = 6.39060 7.39006 6.90842
#
# Compressibility (1/GPa) = 0.01735345
#
# Stress axis : x y z
#
# Youngs Moduli (GPa) = 79.16624 122.56779 45.23359
#
# Poissons Ratio (x) = -0.01045 0.28541
# Poissons Ratio (y) = -0.00675 0.29618
# Poissons Ratio (z) = 0.49952 0.80255
#
# Static dielectric constant tensor:
#      x y z
#    x 1.903850 0.073590 -0.014900 
#    y 0.073590 1.911000 0.025200 
#    z -0.014900 0.025200 2.054870 
# 
# From -- ./inp_files/2231.got.cif
#   From: 2010.05.17/outbox.ucp.g08.bks.cvg/sg2_2_cif.got.tgz:2231.got - 2010.06.11 11:32:03.
