data_PCOD9075438
_publ_section_title
;
Structure prediction by ZEFSAII (Michael W. Deem and Ramdas Pophale) SiO2 
 PCOD9075438
Probable space group: P -1
;
_chemical_formula_sum "Si O2"
_cell_formula_units_Z 14
_cell_length_a 15.000000
_cell_length_b 15.000000
_cell_length_c 9.000000
_cell_angle_alpha 50.000000
_cell_angle_beta 110.000000
_cell_angle_gamma 150.000000
_cell_volume 642.379314
_symmetry_space_group_name_H-M "P -1"
_symmetry_group_IT_number 2
_symmetry_cell_setting 'triclinic'
loop_
_space_group_symop_operation_xyz
x,y,z
-x,-y,-z
loop_
_atom_site_type_symbol
_atom_site_label
_atom_site_fract_x
_atom_site_fract_y
_atom_site_fract_z
Si Si1 0.456236 0.762171 0.981818
Si Si2 0.964134 0.835208 0.736869
Si Si3 0.252857 0.255067 0.051733
Si Si4 0.929104 0.305781 0.577717
Si Si5 0.824942 0.342513 0.945154
Si Si6 0.369841 0.120371 0.752094
Si Si7 0.855000 0.689107 0.312543
O O1 0.227973 0.452821 0.136744
O O2 0.371118 0.792347 0.964186
O O3 0.570123 0.801897 0.123693
O O4 0.666858 0.013319 0.727777
O O5 0.846511 0.746326 0.914632
O O6 0.000000 0.000000 0.500000
O O7 0.191562 0.016776 0.698665
O O8 0.500000 0.500000 0.000000
O O9 0.227340 0.279680 0.844802
O O10 0.055251 0.942048 0.270701
O O11 0.000000 0.500000 0.500000
O O12 0.045010 0.446034 0.334523
O O13 0.032923 0.301266 0.710395
O O14 0.000000 0.500000 0.000000
O O15 0.734518 0.121437 0.068674
O O16 0.613753 0.382683 0.547143
#
# Coordination Sequence:
#
# PCOD9075438 Si02
#       7
#     2   2   2   2   2   2   2
#     4  12  25  47  75 105 146 191 241 299 367 438
#     4  12  27  44  70 105 141 190 244 299 363 433
#     4  11  25  46  69 104 145 184 247 304 359 431
#     4  12  25  45  77 107 145 192 244 297 368 442
#     4  12  26  47  73 109 149 189 242 306 369 433
#     4  12  24  46  72 101 146 188 238 300 362 435
#     4  11  25  44  74 103 142 196 235 300 372 427
#
# _framework density 21.793977000000002
#
# number of rings (size 3 to 8) (size 9 to 14) (size 15 to 20)
#    0.000    0.286    4.286    4.714    0.000    7.429 
#    0.000    0.000    0.000    0.000    0.000    0.000 
#    0.000    0.000    0.000    0.000    0.000    0.000 
#
# Total GULP energy -77943.205321 kJ/mol
# GULP energy per Si atom -5567.371809 kJ/mol
# Density = 2.174437 g / cm^3
# Si number density = 21.793977 Si / 1000 Ang^3
#
#
#
# Elastic Constant Matrix: (Units=GPa)
#
#
# Indices 1 2 3 4 5 6 
#
# 1 145.3981 47.1592 25.5067 -14.2923 1.2985 43.8320
# 2 47.1592 162.6598 26.2621 -32.0010 5.2844 40.4045
# 3 25.5067 26.2621 81.2393 -29.8162 -6.5034 28.6160
# 4 -14.2923 -32.0010 -29.8162 40.9879 12.1173 -1.4338
# 5 1.2985 5.2844 -6.5034 12.1173 42.1891 -12.6450
# 6 43.8320 40.4045 28.6160 -1.4338 -12.6450 54.6528
#
#
#
# Elastic Compliance Matrix: (Units=1/GPa)
#
#
# Indices 1 2 3 4 5 6 
#
# 1 0.010442 0.001329 0.003166 0.008345 -0.006052 -0.012196
# 2 0.001329 0.012299 0.006638 0.017367 -0.010204 -0.015539
# 3 0.003166 0.006638 0.027090 0.028742 -0.012105 -0.023677
# 4 0.008345 0.017367 0.028742 0.069185 -0.029757 -0.039651
# 5 -0.006052 -0.010204 -0.012105 -0.029757 0.040003 0.027210
# 6 -0.012196 -0.015539 -0.023677 -0.039651 0.027210 0.057220
#
#
# Mechanical properties :
#
#
# Convention : Reuss Voigt Hill
#
# Bulk Modulus (GPa) = 13.87033 65.23924 39.55478
# Shear Modulus (GPa) = 22.93531 46.92392 34.92961
#
# Velocity S-wave (km/s) = 3.24754 4.64515 4.00774
# Velocity P-wave (km/s) = 4.52108 7.66612 6.29323
#
# Compressibility (1/GPa) = 0.07209635
#
# Stress axis : x y z
#
# Youngs Moduli (GPa) = 95.76528 81.30791 36.91465
#
# Poissons Ratio (x) = -0.10808 -0.11687
# Poissons Ratio (y) = -0.12730 -0.24502
# Poissons Ratio (z) = -0.30319 -0.53969
#
# Static dielectric constant tensor:
#      x y z
#    x 1.802780 -0.086240 -0.020000 
#    y -0.086240 1.880920 0.082400 
#    z -0.020000 0.082400 1.990010 
# 
# From -- ./inp_files/314717.got.cif
#   From: 2010.05.17/outbox.ucp.g08.bks.cvg/sg2_158_cif.got.tgz:314717.got - 2010.06.11 11:32:03.
