data_PCOD9075565
_publ_section_title
;
Structure prediction by ZEFSAII (Michael W. Deem and Ramdas Pophale) SiO2 
 PCOD9075565
Probable space group: P -1
;
_chemical_formula_sum "Si O2"
_cell_formula_units_Z 16
_cell_length_a 24.000000
_cell_length_b 12.000000
_cell_length_c 6.000000
_cell_angle_alpha 120.000000
_cell_angle_beta 60.000000
_cell_angle_gamma 150.000000
_cell_volume 739.238121
_symmetry_space_group_name_H-M "P -1"
_symmetry_group_IT_number 2
_symmetry_cell_setting 'triclinic'
loop_
_space_group_symop_operation_xyz
x,y,z
-x,-y,-z
loop_
_atom_site_type_symbol
_atom_site_label
_atom_site_fract_x
_atom_site_fract_y
_atom_site_fract_z
Si Si1 0.724248 0.172718 0.047546
Si Si2 0.820455 0.586247 0.342374
Si Si3 0.117817 0.633016 0.468987
Si Si4 0.494007 0.913371 0.170269
Si Si5 0.289656 0.377004 0.111244
Si Si6 0.120530 0.140157 0.837766
Si Si7 0.015678 0.769174 0.343199
Si Si8 0.769877 0.000040 0.071437
O O1 0.822640 0.333688 0.827481
O O2 0.748452 0.343997 0.306170
O O3 0.603550 0.004091 0.023502
O O4 0.725496 0.041477 0.044472
O O5 0.781541 0.649267 0.608636
O O6 0.812666 0.623255 0.144159
O O7 0.947843 0.756442 0.311405
O O8 0.000000 0.500000 0.500000
O O9 0.076842 0.467456 0.576833
O O10 0.204940 0.884789 0.632385
O O11 0.392578 0.641863 0.112544
O O12 0.500000 0.000000 0.500000
O O13 0.500000 0.000000 0.000000
O O14 0.202376 0.212676 0.922816
O O15 0.304488 0.253028 0.038269
O O16 0.088427 0.973293 0.569289
O O17 0.000000 0.000000 0.000000
O O18 0.103954 0.828398 0.092675
#
# Coordination Sequence:
#
# PCOD9075565 Si02
#       8
#     2   2   2   2   2   2   2   2
#     4  12  27  47  76 105 148 200 259 319 382 466
#     4  12  23  42  70 102 146 191 250 312 374 451
#     4  12  24  43  68 107 154 202 246 299 388 469
#     4  12  30  55  86 116 146 202 266 332 390 457
#     4  12  27  47  73 108 147 194 253 321 382 453
#     4  12  23  39  66 106 147 192 248 310 382 452
#     4  12  22  41  65 106 153 199 244 307 383 463
#     4  12  26  45  69 106 155 196 248 312 391 464
#
# _framework density 21.643905
#
# number of rings (size 3 to 8) (size 9 to 14) (size 15 to 20)
#    0.000    0.000    6.250    4.500    3.500    0.500 
#    0.000    0.625    0.000    0.000    0.000    0.000 
#    0.000    0.000    0.000    0.000    0.000    0.000 
#
# Total GULP energy -89148.506995 kJ/mol
# GULP energy per Si atom -5571.781687 kJ/mol
# Density = 2.159464 g / cm^3
# Si number density = 21.643905 Si / 1000 Ang^3
#
#
#
# Elastic Constant Matrix: (Units=GPa)
#
#
# Indices 1 2 3 4 5 6 
#
# 1 109.5916 61.3297 19.4193 -8.5418 -8.0255 -25.3804
# 2 61.3297 95.5638 17.0958 20.7066 -7.5220 -9.5185
# 3 19.4193 17.0958 55.1062 18.0875 -7.4024 -8.6088
# 4 -8.5418 20.7066 18.0875 28.6517 -6.4763 -13.2308
# 5 -8.0255 -7.5220 -7.4024 -6.4763 22.4247 3.7230
# 6 -25.3804 -9.5185 -8.6088 -13.2308 3.7230 46.8505
#
#
#
# Elastic Compliance Matrix: (Units=1/GPa)
#
#
# Indices 1 2 3 4 5 6 
#
# 1 0.057162 -0.046019 -0.026830 0.089502 0.015247 0.040751
# 2 -0.046019 0.049561 0.020563 -0.080118 -0.010741 -0.032855
# 3 -0.026830 0.020563 0.035847 -0.055102 -0.003623 -0.019043
# 4 0.089502 -0.080118 -0.055102 0.195907 0.031105 0.074937
# 5 0.015247 -0.010741 -0.003623 0.031105 0.052571 0.010019
# 6 0.040751 -0.032855 -0.019043 0.074937 0.010019 0.053613
#
#
# Mechanical properties :
#
#
# Convention : Reuss Voigt Hill
#
# Bulk Modulus (GPa) = 26.31667 50.66124 38.48896
# Shear Modulus (GPa) = 8.89839 30.41317 19.65578
#
# Velocity S-wave (km/s) = 2.02983 3.75261 3.01681
# Velocity P-wave (km/s) = 4.20463 6.49874 5.47323
#
# Compressibility (1/GPa) = 0.03799873
#
# Stress axis : x y z
#
# Youngs Moduli (GPa) = 17.49404 20.17705 27.89650
#
# Poissons Ratio (x) = 0.92853 0.74846
# Poissons Ratio (y) = 0.80506 -0.57365
# Poissons Ratio (z) = 0.46937 -0.41491
#
# Static dielectric constant tensor:
#      x y z
#    x 1.480800 -0.012350 0.361110 
#    y -0.012350 1.880240 -0.101040 
#    z 0.361110 -0.101040 1.652010 
# 
# From -- ./inp_files/68577.got.cif
#   From: 2010.05.17/outbox.ucp.g08.bks.cvg/sg2_35_cif.got.tgz:68577.got - 2010.06.11 11:32:03.
