data_PCOD9075567
_publ_section_title
;
Structure prediction by ZEFSAII (Michael W. Deem and Ramdas Pophale) SiO2 
 PCOD9075567
Probable space group: P -1
;
_chemical_formula_sum "Si O2"
_cell_formula_units_Z 14
_cell_length_a 15.000000
_cell_length_b 9.000000
_cell_length_c 12.000000
_cell_angle_alpha 120.000000
_cell_angle_beta 50.000000
_cell_angle_gamma 150.000000
_cell_volume 613.666794
_symmetry_space_group_name_H-M "P -1"
_symmetry_group_IT_number 2
_symmetry_cell_setting 'triclinic'
loop_
_space_group_symop_operation_xyz
x,y,z
-x,-y,-z
loop_
_atom_site_type_symbol
_atom_site_label
_atom_site_fract_x
_atom_site_fract_y
_atom_site_fract_z
Si Si1 0.558682 0.879803 0.866839
Si Si2 0.527153 0.044479 0.624839
Si Si3 0.360829 0.170750 0.450900
Si Si4 0.126226 0.761997 0.910218
Si Si5 0.714422 0.809854 0.889972
Si Si6 0.874440 0.683931 0.948010
Si Si7 0.890463 0.683774 0.677359
O O1 0.668411 0.945232 0.693074
O O2 0.671990 0.922334 0.891148
O O3 0.331048 0.536880 0.901583
O O4 0.500000 0.000000 0.000000
O O5 0.746324 0.381048 0.612801
O O6 0.500000 0.000000 0.500000
O O7 0.521300 0.844044 0.594126
O O8 0.344102 0.940301 0.779548
O O9 0.500000 0.500000 0.500000
O O10 0.128504 0.931539 0.582157
O O11 0.995133 0.654800 0.868458
O O12 0.000000 0.500000 0.000000
O O13 0.152500 0.972077 0.031749
O O14 0.827184 0.796412 0.728052
O O15 0.500000 0.500000 0.000000
O O16 0.818352 0.601674 0.832828
O O17 0.000000 0.000000 0.000000
#
# Coordination Sequence:
#
# PCOD9075567 Si02
#       7
#     2   2   2   2   2   2   2
#     4  12  26  47  72 104 145 189 238 303 361 427
#     4  12  28  49  72 101 147 196 246 293 360 442
#     4  12  29  49  72 110 150 188 241 307 377 429
#     4  12  25  42  71 110 143 180 242 308 355 421
#     4  12  23  45  75 106 140 187 248 292 358 438
#     4  12  22  42  74 105 140 189 240 291 360 436
#     4  12  26  47  77 104 146 196 244 295 366 441
#
# _framework density 22.813683000000001
#
# number of rings (size 3 to 8) (size 9 to 14) (size 15 to 20)
#    0.000    0.000    4.286    5.571    4.000    2.857 
#    0.000    0.000    0.000    0.000    0.000    0.000 
#    0.000    0.000    0.000    0.000    0.000    0.000 
#
# Total GULP energy -78093.774349 kJ/mol
# GULP energy per Si atom -5578.126739 kJ/mol
# Density = 2.276176 g / cm^3
# Si number density = 22.813683 Si / 1000 Ang^3
#
#
#
# Elastic Constant Matrix: (Units=GPa)
#
#
# Indices 1 2 3 4 5 6 
#
# 1 138.3630 -0.7096 8.1231 16.2595 3.7069 -5.9365
# 2 -0.7096 57.4930 -0.5556 18.4201 16.7097 6.3366
# 3 8.1231 -0.5556 68.6605 8.9914 5.2256 -11.8375
# 4 16.2595 18.4201 8.9914 42.1431 9.4603 -12.5581
# 5 3.7069 16.7097 5.2256 9.4603 34.5765 4.0605
# 6 -5.9365 6.3366 -11.8375 -12.5581 4.0605 22.6936
#
#
#
# Elastic Compliance Matrix: (Units=1/GPa)
#
#
# Indices 1 2 3 4 5 6 
#
# 1 0.007666 0.001392 -0.000494 -0.003529 -0.000393 -0.000523
# 2 0.001392 0.025399 0.000149 -0.013994 -0.007076 -0.013128
# 3 -0.000494 0.000149 0.016457 0.000153 -0.003622 0.009146
# 4 -0.003529 -0.013994 0.000153 0.040824 -0.007216 0.026946
# 5 -0.000393 -0.007076 -0.003622 -0.007216 0.036135 -0.010475
# 6 -0.000523 -0.013128 0.009146 0.026946 -0.010475 0.069151
#
#
# Mechanical properties :
#
#
# Convention : Reuss Voigt Hill
#
# Bulk Modulus (GPa) = 19.37398 30.91471 25.14435
# Shear Modulus (GPa) = 23.72566 37.05987 30.39277
#
# Velocity S-wave (km/s) = 3.22836 4.03483 3.65391
# Velocity P-wave (km/s) = 4.73362 5.94027 5.37094
#
# Compressibility (1/GPa) = 0.05161562
#
# Stress axis : x y z
#
# Youngs Moduli (GPa) = 130.44197 39.37160 60.76613
#
# Poissons Ratio (x) = -0.05482 0.03001
# Poissons Ratio (y) = -0.18162 -0.00902
# Poissons Ratio (z) = 0.06443 -0.00585
#
# Static dielectric constant tensor:
#      x y z
#    x 1.846760 -0.084220 -0.005620 
#    y -0.084220 1.760000 -0.104530 
#    z -0.005620 -0.104530 1.653870 
# 
# From -- ./inp_files/155933.got.cif
#   From: 2010.05.17/outbox.ucp.g08.bks.cvg/sg2_78_cif.got.tgz:155933.got - 2010.06.11 11:32:03.
