data_PCOD9075919
_publ_section_title
;
Structure prediction by ZEFSAII (Michael W. Deem and Ramdas Pophale) SiO2 
 PCOD9075919
Probable space group: P -1
;
_chemical_formula_sum "Si O2"
_cell_formula_units_Z 12
_cell_length_a 16.460655
_cell_length_b 11.492722
_cell_length_c 13.257498
_cell_angle_alpha 124.262904
_cell_angle_beta 28.090722
_cell_angle_gamma 142.089685
_cell_volume 644.334498
_symmetry_space_group_name_H-M "P -1"
_symmetry_group_IT_number 2
_symmetry_cell_setting 'triclinic'
loop_
_space_group_symop_operation_xyz
x,y,z
-x,-y,-z
loop_
_atom_site_type_symbol
_atom_site_label
_atom_site_fract_x
_atom_site_fract_y
_atom_site_fract_z
Si Si1 0.431751 0.612216 0.864850
Si Si2 0.072706 0.240607 0.502111
Si Si3 0.457463 0.090282 0.960411
Si Si4 0.068330 0.139584 0.086694
Si Si5 0.479064 0.639516 0.148615
Si Si6 0.715495 0.948066 0.569200
O O1 0.683337 0.691820 0.681977
O O2 0.515114 0.704457 0.705522
O O3 0.401341 0.740636 0.020104
O O4 0.187439 0.360701 0.025382
O O5 0.200515 0.459330 0.422126
O O6 0.947201 0.084685 0.466506
O O7 0.839877 0.112767 0.774628
O O8 0.488100 0.214922 0.894381
O O9 0.586098 0.020832 0.761740
O O10 0.299153 0.216566 0.939879
O O11 0.830460 0.008334 0.361446
O O12 0.000000 0.000000 0.000000
O O13 0.500000 0.500000 0.000000
#
# Coordination Sequence:
#
# PCOD9075919 Si02
#       6
#     2   2   2   2   2   2
#     4  10  19  35  58  83 111 146 190 226 278 331
#     4  10  18  32  57  82 113 142 183 232 274 325
#     4  11  20  32  57  90 115 138 178 244 287 320
#     4  11  23  39  58  80 112 153 192 227 269 335
#     4  11  19  37  59  82 108 150 192 225 272 329
#     4  11  21  33  55  88 117 141 182 236 287 323
#
# _framework density 18.623867000000001
#
# number of rings (size 3 to 8) (size 9 to 14) (size 15 to 20)
#    0.000    1.333    5.000    5.000    0.000    4.667 
#    0.000    0.833    0.000    5.000    0.000    0.000 
#    0.000    0.000    0.000    0.000    0.000    0.000 
#
# Total GULP energy -66961.783600 kJ/mol
# GULP energy per Si atom -5580.148633 kJ/mol
# Density = 1.858148 g / cm^3
# Si number density = 18.623867 Si / 1000 Ang^3
#
#
#
# Elastic Constant Matrix: (Units=GPa)
#
#
# Indices 1 2 3 4 5 6 
#
# 1 100.3564 65.7899 58.5657 -9.5345 32.8679 -21.6974
# 2 65.7899 67.6059 55.3756 -4.4238 31.6245 -9.0179
# 3 58.5657 55.3756 108.3963 -4.1500 44.5515 -17.5547
# 4 -9.5345 -4.4238 -4.1500 24.6031 -12.9175 12.9145
# 5 32.8679 31.6245 44.5515 -12.9175 38.1117 -11.4354
# 6 -21.6974 -9.0179 -17.5547 12.9145 -11.4354 40.2879
#
#
#
# Elastic Compliance Matrix: (Units=1/GPa)
#
#
# Indices 1 2 3 4 5 6 
#
# 1 0.031400 -0.029106 -0.001639 0.003217 0.002923 0.009480
# 2 -0.029106 0.055604 -0.007061 -0.007098 -0.017925 -0.009119
# 3 -0.001639 -0.007061 0.023545 -0.012826 -0.022983 0.005384
# 4 0.003217 -0.007098 -0.012826 0.065691 0.035440 -0.016443
# 5 0.002923 -0.017925 -0.022983 0.035440 0.076872 -0.001994
# 6 0.009480 -0.009119 0.005384 -0.016443 -0.001994 0.034937
#
#
# Mechanical properties :
#
#
# Convention : Reuss Voigt Hill
#
# Bulk Modulus (GPa) = 28.62330 70.64678 49.63504
# Shear Modulus (GPa) = 13.32244 27.04237 20.18240
#
# Velocity S-wave (km/s) = 2.67749 3.81468 3.29551
# Velocity P-wave (km/s) = 4.99611 7.57748 6.41792
#
# Compressibility (1/GPa) = 0.03493657
#
# Stress axis : x y z
#
# Youngs Moduli (GPa) = 31.84751 17.98428 42.47173
#
# Poissons Ratio (x) = 0.52345 0.06959
# Poissons Ratio (y) = 0.92696 0.29991
# Poissons Ratio (z) = 0.05218 0.12699
#
# Static dielectric constant tensor:
#      x y z
#    x 1.669520 -0.043180 0.021380 
#    y -0.043180 1.633610 -0.032100 
#    z 0.021380 -0.032100 1.705530 
# 
# From -- ./inp_files/152216.got.cif
#   From: 2010.05.17/outbox.cif.g08.bks.cpg/sg2_77_cif.got.tgz:152216.got - 2010.06.03 11:33:40.
