data_PCOD9075208
_publ_section_title
;
Structure prediction by ZEFSAII (Michael W. Deem and Ramdas Pophale) SiO2 
 PCOD9075208
Probable space group: P -1
;
_chemical_formula_sum "Si O2"
_cell_formula_units_Z 14
_cell_length_a 12.000000
_cell_length_b 6.000000
_cell_length_c 12.000000
_cell_angle_alpha 70.000000
_cell_angle_beta 130.000000
_cell_angle_gamma 100.000000
_cell_volume 620.665057
_symmetry_space_group_name_H-M "P -1"
_symmetry_group_IT_number 2
_symmetry_cell_setting 'triclinic'
loop_
_space_group_symop_operation_xyz
x,y,z
-x,-y,-z
loop_
_atom_site_type_symbol
_atom_site_label
_atom_site_fract_x
_atom_site_fract_y
_atom_site_fract_z
Si Si1 0.280213 0.979869 0.526961
Si Si2 0.867347 0.797571 0.397718
Si Si3 0.565804 0.683782 0.835633
Si Si4 0.951463 0.290972 0.913743
Si Si5 0.591977 0.753528 0.084043
Si Si6 0.049868 0.677064 0.342685
Si Si7 0.648890 0.560014 0.653006
O O1 0.185356 0.017050 0.573243
O O2 0.291898 0.219942 0.419743
O O3 0.436187 0.880537 0.689902
O O4 0.208729 0.782965 0.437979
O O5 0.723626 0.717298 0.260388
O O6 0.945555 0.580502 0.553433
O O7 0.955875 0.855284 0.333557
O O8 0.506569 0.450591 0.896668
O O9 0.626736 0.629955 0.758762
O O10 0.646167 0.764057 0.987270
O O11 0.003804 0.347738 0.812722
O O12 0.775733 0.346625 0.780252
O O13 0.000000 0.500000 0.000000
O O14 0.000000 0.000000 0.000000
O O15 0.500000 0.000000 0.000000
O O16 0.500000 0.500000 0.500000
#
# Coordination Sequence:
#
# PCOD9075208 Si02
#       7
#     2   2   2   2   2   2   2
#     4  12  22  47  74 107 151 193 260 327 374 466
#     4  11  23  43  73 101 141 194 260 300 385 452
#     4  11  25  41  70 108 144 190 250 309 390 447
#     4  12  29  53  77 115 164 201 259 332 398 467
#     4  11  23  44  66 102 149 186 236 320 373 455
#     4  11  25  46  73 102 145 200 254 309 383 463
#     4  12  27  49  80 110 147 207 263 317 392 471
#
# _framework density 22.556449000000001
#
# number of rings (size 3 to 8) (size 9 to 14) (size 15 to 20)
#    0.000    0.571    4.286    3.429    2.000    2.286 
#    0.000    0.000    0.000    0.000    0.000    0.000 
#    0.000    0.000    0.000    0.000    0.000    0.000 
#
# Total GULP energy -77968.905838 kJ/mol
# GULP energy per Si atom -5569.207560 kJ/mol
# Density = 2.250511 g / cm^3
# Si number density = 22.556449 Si / 1000 Ang^3
#
#
#
# Elastic Constant Matrix: (Units=GPa)
#
#
# Indices 1 2 3 4 5 6 
#
# 1 100.4940 14.3670 47.6183 14.9636 -23.3481 -47.2268
# 2 14.3670 63.1719 46.4571 7.0430 -5.0742 -19.4061
# 3 47.6183 46.4571 114.9134 -4.1943 -36.0151 -25.9097
# 4 14.9636 7.0430 -4.1943 56.5366 -13.6243 -4.3872
# 5 -23.3481 -5.0742 -36.0151 -13.6243 54.4745 6.6377
# 6 -47.2268 -19.4061 -25.9097 -4.3872 6.6377 42.2789
#
#
#
# Elastic Compliance Matrix: (Units=1/GPa)
#
#
# Indices 1 2 3 4 5 6 
#
# 1 0.027790 0.009794 -0.008443 -0.006427 0.002055 0.029374
# 2 0.009794 0.029753 -0.014967 -0.007830 -0.006795 0.015679
# 3 -0.008443 -0.014967 0.021208 0.008127 0.011562 -0.004276
# 4 -0.006427 -0.007830 0.008127 0.022554 0.008105 -0.004725
# 5 0.002055 -0.006795 0.011562 0.008105 0.027945 0.002716
# 6 0.029374 0.015679 -0.004276 -0.004725 0.002716 0.060124
#
#
# Mechanical properties :
#
#
# Convention : Reuss Voigt Hill
#
# Bulk Modulus (GPa) = 19.41056 55.05157 37.23106
# Shear Modulus (GPa) = 21.38784 42.00048 31.69416
#
# Velocity S-wave (km/s) = 3.08261 4.31979 3.75254
# Velocity P-wave (km/s) = 4.61454 7.02424 5.94281
#
# Compressibility (1/GPa) = 0.05151836
#
# Stress axis : x y z
#
# Youngs Moduli (GPa) = 35.98457 33.61018 47.15242
#
# Poissons Ratio (x) = -0.32917 0.39809
# Poissons Ratio (y) = -0.35242 0.70574
# Poissons Ratio (z) = 0.30380 0.50305
#
# Static dielectric constant tensor:
#      x y z
#    x 1.950800 0.013060 0.057210 
#    y 0.013060 1.919650 0.070280 
#    z 0.057210 0.070280 1.824210 
# 
# From -- ./inp_files/410152.got.cif
#   From: 2010.05.17/outbox.ucp.g08.bks.cvg/sg2_206_cif.got.tgz:410152.got - 2010.06.11 11:32:03.
