data_PCOD9075694
_publ_section_title
;
Structure prediction by ZEFSAII (Michael W. Deem and Ramdas Pophale) SiO2 
 PCOD9075694
Probable space group: P -1
;
_chemical_formula_sum "Si O2"
_cell_formula_units_Z 16
_cell_length_a 9.146191
_cell_length_b 16.654209
_cell_length_c 9.532333
_cell_angle_alpha 80.407315
_cell_angle_beta 135.280590
_cell_angle_gamma 130.174853
_cell_volume 655.694934
_symmetry_space_group_name_H-M "P -1"
_symmetry_group_IT_number 2
_symmetry_cell_setting 'triclinic'
loop_
_space_group_symop_operation_xyz
x,y,z
-x,-y,-z
loop_
_atom_site_type_symbol
_atom_site_label
_atom_site_fract_x
_atom_site_fract_y
_atom_site_fract_z
Si Si1 0.669446 0.810267 0.554773
Si Si2 0.225651 0.513019 0.050642
Si Si3 0.160470 0.061989 0.940022
Si Si4 0.760321 0.263403 0.451524
Si Si5 0.027319 0.201623 0.842533
Si Si6 0.191707 0.762024 0.077420
Si Si7 0.723754 0.642071 0.563940
Si Si8 0.330367 0.532453 0.816308
O O1 0.458254 0.770337 0.558221
O O2 0.516579 0.811348 0.316992
O O3 0.645521 0.707064 0.555311
O O4 0.020543 0.951161 0.777457
O O5 0.590950 0.615922 0.323445
O O6 0.210439 0.539226 0.874936
O O7 0.000000 0.500000 0.000000
O O8 0.070630 0.377254 0.991297
O O9 0.026563 0.112021 0.802886
O O10 0.534836 0.176193 0.193145
O O11 0.000000 0.000000 0.000000
O O12 0.913304 0.229140 0.636572
O O13 0.030579 0.410951 0.560751
O O14 0.828482 0.163029 0.860402
O O15 0.393295 0.330290 0.097865
O O16 0.070971 0.731559 0.844290
O O17 0.500000 0.500000 0.500000
O O18 0.500000 0.500000 0.000000
#
# Coordination Sequence:
#
# PCOD9075694 Si02
#       8
#     2   2   2   2   2   2   2   2
#     4  10  18  34  50  77 118 140 183 246 280 319
#     4  11  18  33  56  82 117 148 186 237 287 336
#     4  10  21  32  53  82 116 153 190 235 283 345
#     4   9  18  33  53  79 115 148 184 230 286 340
#     4  10  20  34  56  82 117 155 188 223 304 347
#     4  10  18  32  54  81 115 144 182 238 284 337
#     4  10  21  30  52  81 106 144 188 231 280 338
#     4  10  18  35  58  82 121 155 178 242 297 346
#
# _framework density 24.401592000000001
#
# number of rings (size 3 to 8) (size 9 to 14) (size 15 to 20)
#    0.000    2.000    5.000    1.500    0.000    6.000 
#    0.000    0.000    2.750    0.750    0.000    4.375 
#    0.000    0.000    0.000    0.000    0.000    0.000 
#
# Total GULP energy -89324.186033 kJ/mol
# GULP energy per Si atom -5582.761627 kJ/mol
# Density = 2.434605 g / cm^3
# Si number density = 24.401592 Si / 1000 Ang^3
#
#
#
# Elastic Constant Matrix: (Units=GPa)
#
#
# Indices 1 2 3 4 5 6 
#
# 1 68.0220 26.2149 26.3902 0.1274 -7.8531 -9.0184
# 2 26.2149 80.9422 35.8094 3.2175 -0.3834 -29.7604
# 3 26.3902 35.8094 177.6451 0.4034 -10.6426 -16.5976
# 4 0.1274 3.2175 0.4034 34.9405 -3.8394 -7.2024
# 5 -7.8531 -0.3834 -10.6426 -3.8394 15.3124 3.1559
# 6 -9.0184 -29.7604 -16.5976 -7.2024 3.1559 26.3312
#
#
#
# Elastic Compliance Matrix: (Units=1/GPa)
#
#
# Indices 1 2 3 4 5 6 
#
# 1 0.018313 -0.006309 -0.001122 0.001048 0.009208 -0.002382
# 2 -0.006309 0.024889 -0.002168 0.002185 -0.008987 0.026278
# 3 -0.001122 -0.002168 0.006563 0.000773 0.003910 0.001045
# 4 0.001048 0.002185 0.000773 0.031435 0.006722 0.011109
# 5 0.009208 -0.008987 0.003910 0.006722 0.076657 -0.011888
# 6 -0.002382 0.026278 0.001045 0.011109 -0.011888 0.071984
#
#
# Mechanical properties :
#
#
# Convention : Reuss Voigt Hill
#
# Bulk Modulus (GPa) = 32.71435 55.93759 44.32597
# Shear Modulus (GPa) = 19.28802 31.19648 25.24225
#
# Velocity S-wave (km/s) = 2.81453 3.57944 3.21978
# Velocity P-wave (km/s) = 4.89876 6.32903 5.65926
#
# Compressibility (1/GPa) = 0.03056763
#
# Stress axis : x y z
#
# Youngs Moduli (GPa) = 54.60612 40.17796 152.36736
#
# Poissons Ratio (x) = 0.25346 0.17098
# Poissons Ratio (y) = 0.34449 0.33035
# Poissons Ratio (z) = 0.06128 0.08711
#
# Static dielectric constant tensor:
#      x y z
#    x 2.056010 -0.031680 0.006960 
#    y -0.031680 1.973160 -0.013270 
#    z 0.006960 -0.013270 2.030620 
# 
# From -- ./inp_files/436754.got.cif
#   From: 2010.05.17/outbox.cif.g08.bks.cpg/sg2_219_cif.got.tgz:436754.got - 2010.06.03 11:33:40.
