data_PCOD9075443
_publ_section_title
;
Structure prediction by ZEFSAII (Michael W. Deem and Ramdas Pophale) SiO2 
 PCOD9075443
Probable space group: P -1
;
_chemical_formula_sum "Si O2"
_cell_formula_units_Z 14
_cell_length_a 6.000000
_cell_length_b 21.000000
_cell_length_c 6.000000
_cell_angle_alpha 80.000000
_cell_angle_beta 100.000000
_cell_angle_gamma 60.000000
_cell_volume 613.962737
_symmetry_space_group_name_H-M "P -1"
_symmetry_group_IT_number 2
_symmetry_cell_setting 'triclinic'
loop_
_space_group_symop_operation_xyz
x,y,z
-x,-y,-z
loop_
_atom_site_type_symbol
_atom_site_label
_atom_site_fract_x
_atom_site_fract_y
_atom_site_fract_z
Si Si1 0.720064 0.458717 0.761044
Si Si2 0.230426 0.173610 0.052823
Si Si3 0.712757 0.688149 0.139517
Si Si4 0.285536 0.745310 0.402984
Si Si5 0.467862 0.612966 0.846891
Si Si6 0.215209 0.966042 0.857515
Si Si7 0.034475 0.109051 0.439028
O O1 0.500000 0.500000 0.500000
O O2 0.703064 0.532608 0.824720
O O3 0.993259 0.390006 0.741361
O O4 0.664055 0.416032 0.978966
O O5 0.474257 0.101594 0.002234
O O6 0.193756 0.136790 0.295735
O O7 0.286063 0.242132 0.023861
O O8 0.948104 0.215921 0.847277
O O9 0.561524 0.715711 0.334557
O O10 0.561471 0.659566 0.977558
O O11 0.301196 0.674447 0.581472
O O12 0.190754 0.815665 0.512342
O O13 0.111560 0.922151 0.717242
O O14 0.202772 0.036400 0.680961
O O15 0.000000 0.000000 0.000000
#
# Coordination Sequence:
#
# PCOD9075443 Si02
#       7
#     2   2   2   2   2   2   2
#     4  11  25  47  72 100 135 176 226 281 336 398
#     4  12  25  44  69  99 138 179 224 276 335 400
#     4  12  25  44  69  99 138 179 224 276 335 400
#     4  12  26  44  68 100 138 178 226 276 332 402
#     4  11  25  45  69 101 136 178 226 275 339 401
#     4  11  25  47  72 100 135 176 226 281 336 398
#     4  11  25  45  69 101 136 178 226 275 339 401
#
# _framework density 22.802686999999999
#
# number of rings (size 3 to 8) (size 9 to 14) (size 15 to 20)
#    0.000    0.571    0.000    8.571    0.000   12.571 
#    0.000    2.857    0.000    0.000    0.000    0.000 
#    0.000    0.000    0.000    0.000    0.000    0.000 
#
# Total GULP energy -78318.806362 kJ/mol
# GULP energy per Si atom -5594.200454 kJ/mol
# Density = 2.275079 g / cm^3
# Si number density = 22.802687 Si / 1000 Ang^3
#
#
#
# Elastic Constant Matrix: (Units=GPa)
#
#
# Indices 1 2 3 4 5 6 
#
# 1 69.8587 71.4588 26.4019 0.6148 -28.4435 -15.2028
# 2 71.4588 226.8523 54.5278 -4.4934 -20.8727 -11.1571
# 3 26.4019 54.5278 84.3006 -22.5855 -30.7612 -6.7544
# 4 0.6148 -4.4934 -22.5855 60.9692 4.6010 1.5114
# 5 -28.4435 -20.8727 -30.7612 4.6010 39.1184 -6.8858
# 6 -15.2028 -11.1571 -6.7544 1.5114 -6.8858 65.0232
#
#
#
# Elastic Compliance Matrix: (Units=1/GPa)
#
#
# Indices 1 2 3 4 5 6 
#
# 1 0.034721 -0.009301 0.005136 -0.001356 0.026217 0.009863
# 2 -0.009301 0.007784 -0.004913 -0.000591 -0.006765 -0.002052
# 3 0.005136 -0.004913 0.022316 0.006329 0.018711 0.004510
# 4 -0.001356 -0.000591 0.006329 0.018606 0.001481 -0.000037
# 5 0.026217 -0.006765 0.018711 0.001481 0.057845 0.013004
# 6 0.009863 -0.002052 0.004510 -0.000037 0.013004 0.019180
#
#
# Mechanical properties :
#
#
# Convention : Reuss Voigt Hill
#
# Bulk Modulus (GPa) = 21.42977 76.19874 48.81425
# Shear Modulus (GPa) = 25.75155 48.26371 37.00763
#
# Velocity S-wave (km/s) = 3.36418 4.60562 4.03296
# Velocity P-wave (km/s) = 4.95062 7.85948 6.56811
#
# Compressibility (1/GPa) = 0.04666407
#
# Stress axis : x y z
#
# Youngs Moduli (GPa) = 28.80127 128.47063 44.80991
#
# Poissons Ratio (x) = 1.19491 -0.23013
# Poissons Ratio (y) = 0.26788 0.22016
# Poissons Ratio (z) = -0.14791 0.63119
#
# Static dielectric constant tensor:
#      x y z
#    x 1.873740 -0.007010 0.045580 
#    y -0.007010 1.816070 0.033080 
#    z 0.045580 0.033080 1.894620 
# 
# From -- ./inp_files/10797.got.cif
#   From: 2010.05.17/outbox.ucp.g08.bks.cvg/sg2_6_cif.got.tgz:10797.got - 2010.06.11 11:32:03.
