data_PCOD9075413
_publ_section_title
;
Structure prediction by ZEFSAII (Michael W. Deem and Ramdas Pophale) SiO2 
 PCOD9075413
Probable space group: P -1
;
_chemical_formula_sum "Si O2"
_cell_formula_units_Z 16
_cell_length_a 9.000000
_cell_length_b 15.000000
_cell_length_c 12.000000
_cell_angle_alpha 120.000000
_cell_angle_beta 70.000000
_cell_angle_gamma 60.000000
_cell_volume 745.925389
_symmetry_space_group_name_H-M "P -1"
_symmetry_group_IT_number 2
_symmetry_cell_setting 'triclinic'
loop_
_space_group_symop_operation_xyz
x,y,z
-x,-y,-z
loop_
_atom_site_type_symbol
_atom_site_label
_atom_site_fract_x
_atom_site_fract_y
_atom_site_fract_z
Si Si1 0.579855 0.083857 0.905814
Si Si2 0.203821 0.609646 0.120588
Si Si3 0.807139 0.000966 0.548018
Si Si4 0.717400 0.611878 0.199539
Si Si5 0.349545 0.299581 0.462901
Si Si6 0.757032 0.528419 0.744179
Si Si7 0.575039 0.372779 0.312642
Si Si8 0.217889 0.079294 0.996495
O O1 0.744041 0.994986 0.688224
O O2 0.316251 0.146080 0.007788
O O3 0.464865 0.260867 0.054958
O O4 0.739060 0.974159 0.915032
O O5 0.171486 0.554127 0.203090
O O6 0.500000 0.500000 0.000000
O O7 0.256844 0.519773 0.934840
O O8 0.962964 0.825962 0.329563
O O9 0.529470 0.191333 0.675549
O O10 0.000000 0.000000 0.500000
O O11 0.685969 0.646677 0.363531
O O12 0.000000 0.500000 0.000000
O O13 0.481937 0.319148 0.366848
O O14 0.051940 0.420810 0.566552
O O15 0.563375 0.092584 0.251154
O O16 0.611672 0.529472 0.692234
O O17 0.500000 0.500000 0.500000
O O18 0.910456 0.209636 0.114710
#
# Coordination Sequence:
#
# PCOD9075413 Si02
#       8
#     2   2   2   2   2   2   2   2
#     4  11  24  47  78 105 157 192 256 307 390 452
#     4  12  26  48  75 112 148 200 254 310 375 454
#     4  12  26  48  81 110 148 206 252 318 382 445
#     4  12  27  51  75 113 149 196 257 311 379 453
#     4  12  26  49  73 107 152 191 251 313 375 451
#     4  12  25  50  74 103 153 199 243 313 381 450
#     4  12  29  44  73 110 146 197 251 311 379 446
#     4  11  27  46  73 115 146 201 249 314 380 457
#
# _framework density 21.449866
#
# number of rings (size 3 to 8) (size 9 to 14) (size 15 to 20)
#    0.000    0.250    5.000    2.250    8.750    1.500 
#    2.250    0.000    0.000    0.000    0.000    0.000 
#    0.000    0.000    0.000    0.000    0.000    0.000 
#
# Total GULP energy -89376.100824 kJ/mol
# GULP energy per Si atom -5586.006302 kJ/mol
# Density = 2.140105 g / cm^3
# Si number density = 21.449866 Si / 1000 Ang^3
#
#
#
# Elastic Constant Matrix: (Units=GPa)
#
#
# Indices 1 2 3 4 5 6 
#
# 1 125.5310 15.3997 36.9378 -0.6907 -4.5736 -18.4468
# 2 15.3997 80.7834 22.8006 -8.8427 1.1254 -10.7787
# 3 36.9378 22.8006 141.4907 4.5424 12.8794 -20.9500
# 4 -0.6907 -8.8427 4.5424 46.2360 0.5371 2.5994
# 5 -4.5736 1.1254 12.8794 0.5371 58.5239 -1.9386
# 6 -18.4468 -10.7787 -20.9500 2.5994 -1.9386 47.9118
#
#
#
# Elastic Compliance Matrix: (Units=1/GPa)
#
#
# Indices 1 2 3 4 5 6 
#
# 1 0.009062 -0.000855 -0.001974 0.000012 0.001241 0.002483
# 2 -0.000855 0.013578 -0.001793 0.002658 0.000102 0.001801
# 3 -0.001974 -0.001793 0.008461 -0.001324 -0.001886 0.002532
# 4 0.000012 0.002658 -0.001324 0.022334 -0.000003 -0.001188
# 5 0.001241 0.000102 -0.001886 -0.000003 0.017610 0.000389
# 6 0.002483 0.001801 0.002532 -0.001188 0.000389 0.023420
#
#
# Mechanical properties :
#
#
# Convention : Reuss Voigt Hill
#
# Bulk Modulus (GPa) = 45.75051 55.34239 50.54645
# Shear Modulus (GPa) = 45.04799 48.71214 46.88007
#
# Velocity S-wave (km/s) = 4.58771 4.77065 4.68007
# Velocity P-wave (km/s) = 7.03123 7.49682 7.26775
#
# Compressibility (1/GPa) = 0.02185768
#
# Stress axis : x y z
#
# Youngs Moduli (GPa) = 110.35093 73.65082 118.19278
#
# Poissons Ratio (x) = 0.06298 0.23327
# Poissons Ratio (y) = 0.09436 0.21187
# Poissons Ratio (z) = 0.21779 0.13203
#
# Static dielectric constant tensor:
#      x y z
#    x 1.864940 0.030950 -0.006100 
#    y 0.030950 1.828340 -0.055300 
#    z -0.006100 -0.055300 1.879200 
# 
# From -- ./inp_files/399424.got.cif
#   From: 2010.05.17/outbox.ucp.g08.bks.cvg/sg2_200_cif.got.tgz:399424.got - 2010.06.11 11:32:03.
