data_PCOD9075906
_publ_section_title
;
Structure prediction by ZEFSAII (Michael W. Deem and Ramdas Pophale) SiO2 
 PCOD9075906
Probable space group: P -1
;
_chemical_formula_sum "Si O2"
_cell_formula_units_Z 16
_cell_length_a 12.151671
_cell_length_b 17.384472
_cell_length_c 9.892841
_cell_angle_alpha 94.961840
_cell_angle_beta 128.429086
_cell_angle_gamma 129.139916
_cell_volume 781.675079
_symmetry_space_group_name_H-M "P -1"
_symmetry_group_IT_number 2
_symmetry_cell_setting 'triclinic'
loop_
_space_group_symop_operation_xyz
x,y,z
-x,-y,-z
loop_
_atom_site_type_symbol
_atom_site_label
_atom_site_fract_x
_atom_site_fract_y
_atom_site_fract_z
Si Si1 0.512926 0.264540 0.471759
Si Si2 0.777452 0.142442 0.829288
Si Si3 0.830467 0.872727 0.549935
Si Si4 0.255251 0.683430 0.757835
Si Si5 0.041541 0.402925 0.219359
Si Si6 0.771249 0.809757 0.204860
Si Si7 0.610786 0.929101 0.842448
Si Si8 0.329086 0.314361 0.165415
O O1 0.426106 0.238262 0.555299
O O2 0.657399 0.496635 0.490447
O O3 0.461892 0.154429 0.361574
O O4 0.309840 0.221302 0.211830
O O5 0.500000 0.000000 0.500000
O O6 0.681708 0.050533 0.877246
O O7 0.871830 0.274169 0.957398
O O8 0.064928 0.239243 0.002817
O O9 0.778522 0.794359 0.366645
O O10 0.930277 0.004076 0.586746
O O11 0.098461 0.966129 0.852498
O O12 0.346275 0.783875 0.721168
O O13 0.000000 0.500000 0.500000
O O14 0.157776 0.681062 0.815669
O O15 0.531077 0.761427 0.004400
O O16 0.168194 0.546377 0.288477
O O17 0.690584 0.708763 0.013853
#
# Coordination Sequence:
#
# PCOD9075906 Si02
#       8
#     2   2   2   2   2   2   2   2
#     4  10  18  37  70  90 112 166 222 259 309 375
#     4  12  27  42  61  94 133 170 215 263 312 382
#     4  10  18  32  56  99 125 151 209 263 321 369
#     4  11  18  39  62  94 127 158 206 265 318 369
#     4  10  22  41  65  91 126 176 205 254 325 380
#     4  10  20  32  62  99 127 156 201 279 318 361
#     4  11  20  38  67  89 124 172 211 258 324 378
#     4  10  19  41  69  85 123 170 216 248 321 377
#
# _framework density 20.468862000000001
#
# number of rings (size 3 to 8) (size 9 to 14) (size 15 to 20)
#    0.750    0.750    6.250    1.500    0.000    4.500 
#    2.250    1.250    0.000    2.250    0.000    0.000 
#    0.000    0.000    0.000    0.000    0.000    0.000 
#
# Total GULP energy -89251.702656 kJ/mol
# GULP energy per Si atom -5578.231416 kJ/mol
# Density = 2.042227 g / cm^3
# Si number density = 20.468862 Si / 1000 Ang^3
#
#
#
# Elastic Constant Matrix: (Units=GPa)
#
#
# Indices 1 2 3 4 5 6 
#
# 1 62.3281 12.5147 22.5059 1.3275 -1.4045 28.1745
# 2 12.5147 53.0454 8.7915 -3.9589 -2.4134 28.6343
# 3 22.5059 8.7915 81.2959 4.0917 -23.3517 8.6610
# 4 1.3275 -3.9589 4.0917 20.3277 6.5125 -3.9043
# 5 -1.4045 -2.4134 -23.3517 6.5125 29.5008 -0.7046
# 6 28.1745 28.6343 8.6610 -3.9043 -0.7046 38.2589
#
#
#
# Elastic Compliance Matrix: (Units=1/GPa)
#
#
# Indices 1 2 3 4 5 6 
#
# 1 0.028560 0.007949 -0.006863 -0.002790 -0.003422 -0.025776
# 2 0.007949 0.034011 -0.002576 0.000657 0.000245 -0.030654
# 3 -0.006863 -0.002576 0.019632 -0.009101 0.017057 0.001923
# 4 -0.002790 0.000657 -0.009101 0.059606 -0.020218 0.009334
# 5 -0.003422 0.000245 0.017057 -0.020218 0.051657 -0.002637
# 6 -0.025776 -0.030654 0.001923 0.009334 -0.002637 0.068531
#
#
# Mechanical properties :
#
#
# Convention : Reuss Voigt Hill
#
# Bulk Modulus (GPa) = 12.62231 31.58817 22.10524
# Shear Modulus (GPa) = 17.15962 27.80799 22.48380
#
# Velocity S-wave (km/s) = 2.89853 3.68985 3.31787
# Velocity P-wave (km/s) = 4.16917 5.79820 5.04981
#
# Compressibility (1/GPa) = 0.07922478
#
# Stress axis : x y z
#
# Youngs Moduli (GPa) = 35.01427 29.40253 50.93749
#
# Poissons Ratio (x) = -0.23373 0.34956
# Poissons Ratio (y) = -0.27834 0.13120
# Poissons Ratio (z) = 0.24029 0.07573
#
# Static dielectric constant tensor:
#      x y z
#    x 1.721080 0.018820 0.017520 
#    y 0.018820 1.746470 -0.004770 
#    z 0.017520 -0.004770 1.799870 
# 
# From -- ./inp_files/279542.got.cif
#   From: 2010.05.17/outbox.cif.g08.bks.cpg/sg2_140_cif.got.tgz:279542.got - 2010.06.03 11:33:40.
