data_PCOD9075393
_publ_section_title
;
Structure prediction by ZEFSAII (Michael W. Deem and Ramdas Pophale) SiO2 
 PCOD9075393
Probable space group: P -1
;
_chemical_formula_sum "Si O2"
_cell_formula_units_Z 13
_cell_length_a 9.000000
_cell_length_b 15.000000
_cell_length_c 15.000000
_cell_angle_alpha 20.000000
_cell_angle_beta 100.000000
_cell_angle_gamma 110.000000
_cell_volume 577.977739
_symmetry_space_group_name_H-M "P -1"
_symmetry_group_IT_number 2
_symmetry_cell_setting 'triclinic'
loop_
_space_group_symop_operation_xyz
x,y,z
-x,-y,-z
loop_
_atom_site_type_symbol
_atom_site_label
_atom_site_fract_x
_atom_site_fract_y
_atom_site_fract_z
Si Si1 0.823930 0.302250 0.725150
Si Si2 0.610795 0.314616 0.368434
Si Si3 0.239530 0.181997 0.687554
Si Si4 0.459662 0.934525 0.223829
Si Si5 0.330255 0.206207 0.211904
Si Si6 0.000000 0.000000 0.500000
Si Si7 0.281703 0.368747 0.327521
O O1 0.766337 0.533735 0.539248
O O2 0.662832 0.061955 0.869793
O O3 0.000000 0.500000 0.500000
O O4 0.857031 0.117182 0.978835
O O5 0.662497 0.288818 0.499155
O O6 0.413170 0.256209 0.415489
O O7 0.621375 0.047512 0.569919
O O8 0.708794 0.638737 0.022473
O O9 0.429245 0.208509 0.668766
O O10 0.177661 0.167429 0.592816
O O11 0.594788 0.274951 0.960790
O O12 0.500000 0.500000 0.000000
O O13 0.163161 0.057932 0.398545
O O14 0.853858 0.704058 0.697718
#
# Coordination Sequence:
#
# PCOD9075393 Si02
#       7
#     2   2   2   2   2   1   2
#     4  12  27  44  73 109 147 187 240 297 369 432
#     4  11  24  46  72 102 144 190 229 305 365 423
#     4  11  25  47  72 105 143 190 239 299 357 443
#     4  11  24  46  78 102 147 190 241 290 372 435
#     4  12  25  47  72 100 144 187 245 301 361 422
#     4  12  28  48  76 110 142 200 250 300 364 432
#     4  11  25  48  73 109 142 193 250 301 368 430
#
# _framework density 22.492215999999999
#
# number of rings (size 3 to 8) (size 9 to 14) (size 15 to 20)
#    0.000    0.615    4.615    1.846    4.308    3.077 
#    5.538    0.000    0.000    0.000    0.000    0.000 
#    0.000    0.000    0.000    0.000    0.000    0.000 
#
# Total GULP energy -72413.798448 kJ/mol
# GULP energy per Si atom -5570.292188 kJ/mol
# Density = 2.244102 g / cm^3
# Si number density = 22.492216 Si / 1000 Ang^3
#
#
#
# Elastic Constant Matrix: (Units=GPa)
#
#
# Indices 1 2 3 4 5 6 
#
# 1 106.9455 51.5358 53.7700 -22.3170 -8.3818 -34.6994
# 2 51.5358 91.9141 43.2182 -6.1877 -4.0519 -21.2627
# 3 53.7700 43.2182 109.5884 -5.8741 24.7963 -12.7513
# 4 -22.3170 -6.1877 -5.8741 39.6920 -2.8089 0.6265
# 5 -8.3818 -4.0519 24.7963 -2.8089 40.0867 -1.7933
# 6 -34.6994 -21.2627 -12.7513 0.6265 -1.7933 31.8702
#
#
#
# Elastic Compliance Matrix: (Units=1/GPa)
#
#
# Indices 1 2 3 4 5 6 
#
# 1 0.031355 -0.002749 -0.014211 0.015899 0.017403 0.027285
# 2 -0.002749 0.016745 -0.005617 0.000483 0.004903 0.006197
# 3 -0.014211 -0.005617 0.020457 -0.006869 -0.017205 -0.011868
# 4 0.015899 0.000483 -0.006869 0.033711 0.010647 0.014820
# 5 0.017403 0.004903 -0.017205 0.010647 0.041250 0.017447
# 6 0.027285 0.006197 -0.011868 0.014820 0.017447 0.061161
#
#
# Mechanical properties :
#
#
# Convention : Reuss Voigt Hill
#
# Bulk Modulus (GPa) = 42.73196 67.27733 55.00465
# Shear Modulus (GPa) = 19.40744 32.99138 26.19941
#
# Velocity S-wave (km/s) = 2.94062 3.83403 3.41665
# Velocity P-wave (km/s) = 5.52897 7.04102 6.33030
#
# Compressibility (1/GPa) = 0.02340169
#
# Stress axis : x y z
#
# Youngs Moduli (GPa) = 31.89312 59.72068 48.88332
#
# Poissons Ratio (x) = 0.16417 0.69468
# Poissons Ratio (y) = 0.08767 0.27459
# Poissons Ratio (z) = 0.45323 0.33547
#
# Static dielectric constant tensor:
#      x y z
#    x 1.739370 -0.060480 -0.018550 
#    y -0.060480 1.844370 0.061560 
#    z -0.018550 0.061560 1.856660 
# 
# From -- ./inp_files/503523.got.cif
#   From: 2010.05.17/outbox.ucp.g08.bks.cvg/sg2_252_cif.got.tgz:503523.got - 2010.06.11 11:32:03.
