data_PCOD9075090
_publ_section_title
;
Structure prediction by ZEFSAII (Michael W. Deem and Ramdas Pophale) SiO2 
 PCOD9075090
Probable space group: P -1
;
_chemical_formula_sum "Si O2"
_cell_formula_units_Z 14
_cell_length_a 12.000000
_cell_length_b 12.000000
_cell_length_c 27.000000
_cell_angle_alpha 20.000000
_cell_angle_beta 30.000000
_cell_angle_gamma 40.000000
_cell_volume 638.438402
_symmetry_space_group_name_H-M "P -1"
_symmetry_group_IT_number 2
_symmetry_cell_setting 'triclinic'
loop_
_space_group_symop_operation_xyz
x,y,z
-x,-y,-z
loop_
_atom_site_type_symbol
_atom_site_label
_atom_site_fract_x
_atom_site_fract_y
_atom_site_fract_z
Si Si1 0.380072 0.478284 0.253586
Si Si2 0.145519 0.777913 0.970572
Si Si3 0.113788 0.338282 0.067335
Si Si4 0.002625 0.624581 0.266886
Si Si5 0.019555 0.798300 0.648378
Si Si6 0.231250 0.390714 0.464529
Si Si7 0.636187 0.204326 0.652127
O O1 0.635336 0.657323 0.056931
O O2 0.201268 0.651546 0.221117
O O3 0.357497 0.454367 0.333756
O O4 0.263138 0.087688 0.442763
O O5 0.180799 0.564341 0.997342
O O6 0.384924 0.991325 0.816769
O O7 0.001903 0.513910 0.176171
O O8 0.000564 0.029832 0.902633
O O9 0.000000 0.500000 0.000000
O O10 0.898878 0.004075 0.305162
O O11 0.012984 0.355979 0.330782
O O12 0.759572 0.499541 0.442576
O O13 0.814611 0.965444 0.676374
O O14 0.355996 0.622116 0.368023
O O15 0.000000 0.500000 0.500000
#
# Coordination Sequence:
#
# PCOD9075090 Si02
#       7
#     2   2   2   2   2   2   2
#     4  11  25  50  77 102 154 197 243 305 368 446
#     4  12  24  46  71 112 150 190 248 311 365 436
#     4  12  28  50  77 110 151 193 249 305 377 439
#     4  11  23  42  71 108 146 192 247 303 370 435
#     4  11  22  44  72 111 146 190 249 304 367 439
#     4  12  24  50  74 115 148 193 251 300 372 443
#     4  11  23  44  75 102 153 193 242 309 365 439
#
# _framework density 21.928505000000001
#
# number of rings (size 3 to 8) (size 9 to 14) (size 15 to 20)
#    0.000    0.571    4.286    5.571    0.000    3.429 
#    7.714    0.000    0.000    0.000    0.000    0.000 
#    0.000    0.000    0.000    0.000    0.000    0.000 
#
# Total GULP energy -78176.793011 kJ/mol
# GULP energy per Si atom -5584.056644 kJ/mol
# Density = 2.187860 g / cm^3
# Si number density = 21.928505 Si / 1000 Ang^3
#
#
#
# Elastic Constant Matrix: (Units=GPa)
#
#
# Indices 1 2 3 4 5 6 
#
# 1 158.6573 38.3797 44.0165 -8.7004 -0.8165 42.6905
# 2 38.3797 79.2839 20.9632 -0.3043 -0.1566 38.7874
# 3 44.0165 20.9632 92.1146 -10.9623 9.0981 2.5948
# 4 -8.7004 -0.3043 -10.9623 38.8612 -1.5116 5.8026
# 5 -0.8165 -0.1566 9.0981 -1.5116 55.1811 -5.7022
# 6 42.6905 38.7874 2.5948 5.8026 -5.7022 61.4208
#
#
#
# Elastic Compliance Matrix: (Units=1/GPa)
#
#
# Indices 1 2 3 4 5 6 
#
# 1 0.009265 -0.000412 -0.003955 0.001885 0.000202 -0.006171
# 2 -0.000412 0.019774 -0.003812 0.000782 -0.000557 -0.012165
# 3 -0.003955 -0.003812 0.013958 0.002326 -0.001876 0.004173
# 4 0.001885 0.000782 0.002326 0.027487 -0.000066 -0.004505
# 5 0.000202 -0.000557 -0.001876 -0.000066 0.018641 0.002027
# 6 -0.006171 -0.012165 0.004173 -0.004505 0.002027 0.028690
#
#
# Mechanical properties :
#
#
# Convention : Reuss Voigt Hill
#
# Bulk Modulus (GPa) = 37.54138 59.64162 48.59150
# Shear Modulus (GPa) = 34.95199 46.20571 40.57885
#
# Velocity S-wave (km/s) = 3.99671 4.59530 4.30642
# Velocity P-wave (km/s) = 6.20123 7.44399 6.85085
#
# Compressibility (1/GPa) = 0.02663727
#
# Stress axis : x y z
#
# Youngs Moduli (GPa) = 107.93457 50.57176 71.64285
#
# Poissons Ratio (x) = 0.02085 0.28336
# Poissons Ratio (y) = 0.04451 0.27312
# Poissons Ratio (z) = 0.42690 0.19279
#
# Static dielectric constant tensor:
#      x y z
#    x 1.804140 -0.011590 0.036940 
#    y -0.011590 1.883450 -0.096340 
#    z 0.036940 -0.096340 1.973370 
# 
# From -- ./inp_files/618391.got.cif
#   From: 2010.05.17/outbox.ucp.g08.bks.cvg/sg2_310_cif.got.tgz:618391.got - 2010.06.11 11:32:03.
