data_PCOD9075130
_publ_section_title
;
Structure prediction by ZEFSAII (Michael W. Deem and Ramdas Pophale) SiO2 
 PCOD9075130
Probable space group: P -1
;
_chemical_formula_sum "Si O2"
_cell_formula_units_Z 15
_cell_length_a 12.000000
_cell_length_b 9.000000
_cell_length_c 9.000000
_cell_angle_alpha 110.000000
_cell_angle_beta 120.000000
_cell_angle_gamma 50.000000
_cell_volume 644.526612
_symmetry_space_group_name_H-M "P -1"
_symmetry_group_IT_number 2
_symmetry_cell_setting 'triclinic'
loop_
_space_group_symop_operation_xyz
x,y,z
-x,-y,-z
loop_
_atom_site_type_symbol
_atom_site_label
_atom_site_fract_x
_atom_site_fract_y
_atom_site_fract_z
Si Si1 0.287691 0.799370 0.853646
Si Si2 0.107496 0.079600 0.084757
Si Si3 0.383697 0.386366 0.869277
Si Si4 0.000000 0.000000 0.500000
Si Si5 0.816714 0.478701 0.740239
Si Si6 0.893060 0.546790 0.125926
Si Si7 0.756859 0.145487 0.617341
Si Si8 0.535841 0.787785 0.463974
O O1 0.305427 0.617011 0.886724
O O2 0.195548 0.994381 0.958291
O O3 0.473084 0.717380 0.950627
O O4 0.180457 0.853246 0.654312
O O5 0.230038 0.959564 0.255493
O O6 0.009685 0.309396 0.122655
O O7 0.000000 0.000000 0.000000
O O8 0.242325 0.370287 0.814253
O O9 0.452879 0.296784 0.722467
O O10 0.909633 0.982686 0.572197
O O11 0.780775 0.319563 0.694786
O O12 0.706512 0.632080 0.595983
O O13 0.997075 0.376450 0.768809
O O14 0.810266 0.583120 0.923185
O O15 0.577861 0.222163 0.495214
O O16 0.500000 0.000000 0.500000
#
# Coordination Sequence:
#
# PCOD9075130 Si02
#       8
#     2   2   2   1   2   2   2   2
#     4  11  23  39  70 110 140 181 241 287 359 421
#     4  12  19  42  71  99 139 187 229 275 354 427
#     4  11  24  43  71 105 138 188 239 298 347 424
#     4  12  24  38  68 108 140 182 236 292 346 432
#     4  11  25  43  67 101 143 184 233 286 365 413
#     4  11  24  43  72 105 142 184 236 294 351 429
#     4  12  24  43  70  99 137 187 231 292 348 427
#     4  12  28  47  69 101 142 190 238 295 353 417
#
# _framework density 23.272894999999998
#
# number of rings (size 3 to 8) (size 9 to 14) (size 15 to 20)
#    0.000    0.533    5.333    2.000    3.733    1.600 
#    0.000    0.667    0.000    0.000    0.000    0.000 
#    0.000    0.000    0.000    0.000    0.000    0.000 
#
# Total GULP energy -83569.405901 kJ/mol
# GULP energy per Si atom -5571.293727 kJ/mol
# Density = 2.321992 g / cm^3
# Si number density = 23.272895 Si / 1000 Ang^3
#
#
#
# Elastic Constant Matrix: (Units=GPa)
#
#
# Indices 1 2 3 4 5 6 
#
# 1 170.9745 28.1623 8.2024 9.6183 19.6180 -11.7952
# 2 28.1623 95.5307 29.9652 -16.3053 3.7616 0.3685
# 3 8.2024 29.9652 71.7580 -27.2624 10.0125 -2.7442
# 4 9.6183 -16.3053 -27.2624 37.3169 -3.6456 0.0209
# 5 19.6180 3.7616 10.0125 -3.6456 33.9796 3.9478
# 6 -11.7952 0.3685 -2.7442 0.0209 3.9478 36.6523
#
#
#
# Elastic Compliance Matrix: (Units=1/GPa)
#
#
# Indices 1 2 3 4 5 6 
#
# 1 0.007185 -0.002434 -0.000485 -0.003706 -0.004457 0.002783
# 2 -0.002434 0.013010 -0.004134 0.003461 0.001718 -0.001411
# 3 -0.000485 -0.004134 0.021597 0.013667 -0.004389 0.001967
# 4 -0.003706 0.003461 0.013667 0.039447 0.002013 -0.000444
# 5 -0.004457 0.001718 -0.004389 0.002013 0.033953 -0.005438
# 6 0.002783 -0.001411 0.001967 -0.000444 -0.005438 0.028926
#
#
# Mechanical properties :
#
#
# Convention : Reuss Voigt Hill
#
# Bulk Modulus (GPa) = 36.11658 52.32476 44.22067
# Shear Modulus (GPa) = 29.85912 39.71864 34.78888
#
# Velocity S-wave (km/s) = 3.58578 4.13564 3.87049
# Velocity P-wave (km/s) = 5.71806 6.73325 6.24631
#
# Compressibility (1/GPa) = 0.02768812
#
# Stress axis : x y z
#
# Youngs Moduli (GPa) = 139.18202 76.86143 46.30196
#
# Poissons Ratio (x) = 0.18707 0.02245
# Poissons Ratio (y) = 0.33875 0.19139
# Poissons Ratio (z) = 0.06748 0.31771
#
# Static dielectric constant tensor:
#      x y z
#    x 1.923820 -0.066510 0.072850 
#    y -0.066510 1.913640 -0.085060 
#    z 0.072850 -0.085060 2.108560 
# 
# From -- ./inp_files/245198.got.cif
#   From: 2010.05.17/outbox.ucp.g08.bks.cvg/sg2_123_cif.got.tgz:245198.got - 2010.06.11 11:32:03.
