data_PCOD9075989
_publ_section_title
;
Structure prediction by ZEFSAII (Michael W. Deem and Ramdas Pophale) SiO2 
 PCOD9075989
Probable space group: P -1
;
_chemical_formula_sum "Si O2"
_cell_formula_units_Z 16
_cell_length_a 8.193123
_cell_length_b 11.376396
_cell_length_c 14.026007
_cell_angle_alpha 40.724544
_cell_angle_beta 116.587119
_cell_angle_gamma 93.108727
_cell_volume 665.582242
_symmetry_space_group_name_H-M "P -1"
_symmetry_group_IT_number 2
_symmetry_cell_setting 'triclinic'
loop_
_space_group_symop_operation_xyz
x,y,z
-x,-y,-z
loop_
_atom_site_type_symbol
_atom_site_label
_atom_site_fract_x
_atom_site_fract_y
_atom_site_fract_z
Si Si1 0.650866 0.232269 0.030808
Si Si2 0.565923 0.170761 0.442782
Si Si3 0.349661 0.349320 0.736945
Si Si4 0.952604 0.331866 0.695962
Si Si5 0.098391 0.028083 0.174441
Si Si6 0.417634 0.963583 0.159472
Si Si7 0.235992 0.907067 0.650009
Si Si8 0.284341 0.314648 0.440071
O O1 0.700033 0.236596 0.152049
O O2 0.569599 0.060782 0.119695
O O3 0.449242 0.408649 0.814247
O O4 0.866295 0.166071 0.071732
O O5 0.756233 0.070013 0.632005
O O6 0.627778 0.216959 0.328544
O O7 0.366094 0.339693 0.344419
O O8 0.500000 0.000000 0.500000
O O9 0.194858 0.529855 0.515418
O O10 0.549484 0.174697 0.840297
O O11 0.194536 0.266557 0.782948
O O12 0.922853 0.134901 0.800577
O O13 0.880169 0.480038 0.677198
O O14 0.213933 0.109453 0.080729
O O15 0.525423 0.777164 0.379311
O O16 0.243867 0.120049 0.540557
O O17 0.000000 0.000000 0.500000
#
# Coordination Sequence:
#
# PCOD9075989 Si02
#       8
#     2   2   2   2   2   2   2   2
#     4  11  21  37  57  90 121 153 197 251 292 338
#     4   9  18  34  56  89 112 144 199 260 279 330
#     4  10  21  36  56  82 130 157 189 240 294 356
#     4  10  21  38  60  87 120 165 189 229 308 375
#     4  11  21  35  65  90 117 156 199 239 298 361
#     4   9  19  34  54  86 118 149 191 243 289 348
#     4  10  18  32  58  84 107 150 204 245 286 335
#     4   8  18  33  54  84 115 147 189 243 293 344
#
# _framework density 24.039104999999999
#
# number of rings (size 3 to 8) (size 9 to 14) (size 15 to 20)
#    0.000    2.250    2.500    1.125    1.750    5.000 
#    0.000    0.000    0.000    3.750    0.000    0.000 
#    0.000    0.000    0.000    0.000    0.000    0.000 
#
# Total GULP energy -89166.877485 kJ/mol
# GULP energy per Si atom -5572.929843 kJ/mol
# Density = 2.398439 g / cm^3
# Si number density = 24.039105 Si / 1000 Ang^3
#
#
#
# Elastic Constant Matrix: (Units=GPa)
#
#
# Indices 1 2 3 4 5 6 
#
# 1 143.1398 54.1225 39.2085 19.1484 7.9776 -36.3392
# 2 54.1225 134.1063 43.0362 21.3224 1.7201 -27.2449
# 3 39.2085 43.0362 99.4135 23.9036 24.8368 -18.7313
# 4 19.1484 21.3224 23.9036 33.8532 4.7741 -3.4453
# 5 7.9776 1.7201 24.8368 4.7741 31.5793 7.0934
# 6 -36.3392 -27.2449 -18.7313 -3.4453 7.0934 42.8587
#
#
#
# Elastic Compliance Matrix: (Units=1/GPa)
#
#
# Indices 1 2 3 4 5 6 
#
# 1 0.010408 -0.002025 -0.000006 -0.003268 -0.003795 0.007900
# 2 -0.002025 0.010282 -0.002769 -0.003345 0.001957 0.003016
# 3 -0.000006 -0.002769 0.018573 -0.008419 -0.015016 0.008161
# 4 -0.003268 -0.003345 -0.008419 0.038379 0.003179 -0.006018
# 5 -0.003795 0.001957 -0.015016 0.003179 0.047473 -0.016138
# 6 0.007900 0.003016 0.008161 -0.006018 -0.016138 0.037702
#
#
# Mechanical properties :
#
#
# Convention : Reuss Voigt Hill
#
# Bulk Modulus (GPa) = 33.71123 72.15488 52.93305
# Shear Modulus (GPa) = 27.42671 37.67773 32.55222
#
# Velocity S-wave (km/s) = 3.38142 3.96327 3.68385
# Velocity P-wave (km/s) = 5.41288 7.14312 6.33733
#
# Compressibility (1/GPa) = 0.02966371
#
# Stress axis : x y z
#
# Youngs Moduli (GPa) = 96.08175 97.25617 53.84024
#
# Poissons Ratio (x) = 0.19697 0.00030
# Poissons Ratio (y) = 0.19459 0.14908
# Poissons Ratio (z) = 0.00054 0.26930
#
# Static dielectric constant tensor:
#      x y z
#    x 2.163360 0.045600 0.089300 
#    y 0.045600 1.966540 0.050080 
#    z 0.089300 0.050080 2.115670 
# 
# From -- ./inp_files/336206.got.cif
#   From: 2010.05.17/outbox.cif.g08.bks.cpg/sg2_169_cif.got.tgz:336206.got - 2010.06.03 11:33:40.
