data_PCOD9075372
_publ_section_title
;
Structure prediction by ZEFSAII (Michael W. Deem and Ramdas Pophale) SiO2 
 PCOD9075372
Probable space group: P -1
;
_chemical_formula_sum "Si O2"
_cell_formula_units_Z 16
_cell_length_a 9.000000
_cell_length_b 12.000000
_cell_length_c 9.000000
_cell_angle_alpha 120.000000
_cell_angle_beta 100.000000
_cell_angle_gamma 60.000000
_cell_volume 725.212580
_symmetry_space_group_name_H-M "P -1"
_symmetry_group_IT_number 2
_symmetry_cell_setting 'triclinic'
loop_
_space_group_symop_operation_xyz
x,y,z
-x,-y,-z
loop_
_atom_site_type_symbol
_atom_site_label
_atom_site_fract_x
_atom_site_fract_y
_atom_site_fract_z
Si Si1 0.168232 0.500422 0.967006
Si Si2 0.810890 0.046402 0.729499
Si Si3 0.366806 0.993641 0.592272
Si Si4 0.938583 0.833769 0.140446
Si Si5 0.092554 0.233226 0.247322
Si Si6 0.529867 0.305787 0.056481
Si Si7 0.718529 0.479815 0.305728
Si Si8 0.414052 0.269930 0.331734
O O1 0.341669 0.395333 0.012140
O O2 0.105173 0.674098 0.088070
O O3 0.210274 0.458115 0.772641
O O4 0.000000 0.500000 0.000000
O O5 0.736884 0.065098 0.564538
O O6 0.987427 0.053416 0.761997
O O7 0.846676 0.892189 0.702516
O O8 0.664918 0.171290 0.890877
O O9 0.480179 0.880938 0.662763
O O10 0.500000 0.000000 0.500000
O O11 0.216910 0.131775 0.749067
O O12 0.887937 0.832718 0.959330
O O13 0.216456 0.304680 0.312600
O O14 0.893056 0.348757 0.316105
O O15 0.610176 0.413169 0.164065
O O16 0.500505 0.256219 0.179565
O O17 0.598480 0.598318 0.482374
#
# Coordination Sequence:
#
# PCOD9075372 Si02
#       8
#     2   2   2   2   2   2   2   2
#     4  11  25  43  74 101 140 186 234 285 347 421
#     4  12  25  46  74 100 141 181 232 292 344 422
#     4  12  28  46  69 106 139 182 231 288 350 414
#     4  11  26  46  70 103 140 181 233 285 352 413
#     4  11  24  45  73 103 138 185 231 286 352 415
#     4  12  25  45  73 104 137 188 232 289 349 411
#     4  11  25  46  69 104 140 183 235 287 349 411
#     4  12  27  44  69 103 145 182 232 292 346 416
#
# _framework density 22.062495999999999
#
# number of rings (size 3 to 8) (size 9 to 14) (size 15 to 20)
#    0.000    0.500    3.750    4.875    8.750    2.000 
#    0.000    0.000    0.000    0.000    0.000    0.000 
#    0.000    0.000    0.000    0.000    0.000    0.000 
#
# Total GULP energy -89495.954531 kJ/mol
# GULP energy per Si atom -5593.497158 kJ/mol
# Density = 2.201228 g / cm^3
# Si number density = 22.062496 Si / 1000 Ang^3
#
#
#
# Elastic Constant Matrix: (Units=GPa)
#
#
# Indices 1 2 3 4 5 6 
#
# 1 56.3362 87.2396 18.1605 -11.8491 -35.2763 9.7830
# 2 87.2396 -55.3761 -19.9767 -1.9583 29.7253 -51.7194
# 3 18.1605 -19.9767 34.6444 4.9993 -0.7105 -25.9872
# 4 -11.8491 -1.9583 4.9993 23.6096 -8.0559 3.1283
# 5 -35.2763 29.7253 -0.7105 -8.0559 23.4804 17.8048
# 6 9.7830 -51.7194 -25.9872 3.1283 17.8048 22.3701
#
#
#
# Elastic Compliance Matrix: (Units=1/GPa)
#
#
# Indices 1 2 3 4 5 6 
#
# 1 0.009338 0.004568 0.004798 0.003394 0.001967 0.010010
# 2 0.004568 0.004752 -0.007095 0.008759 0.010090 -0.008510
# 3 0.004798 -0.007095 0.029903 -0.002682 0.009025 0.009428
# 4 0.003394 0.008759 -0.002682 0.048520 0.009718 0.001131
# 5 0.001967 0.010090 0.009025 0.009718 0.031324 0.006663
# 6 0.010010 -0.008510 0.009428 0.001131 0.006663 0.026141
#
#
# Mechanical properties :
#
#
# Convention : Reuss Voigt Hill
#
# Bulk Modulus (GPa) = 20.60464 22.93905 21.77185
# Shear Modulus (GPa) = 30.93776 10.57077 20.75427
#
# Velocity S-wave (km/s) = 3.74876 2.19127 3.07042
# Velocity P-wave (km/s) = 5.30067 4.10148 4.73916
#
# Compressibility (1/GPa) = 0.04853276
#
# Stress axis : x y z
#
# Youngs Moduli (GPa) = 107.08804 210.45508 33.44167
#
# Poissons Ratio (x) = -0.96126 -0.16044
# Poissons Ratio (y) = -0.48913 0.23727
# Poissons Ratio (z) = -0.51376 1.49318
#
# Static dielectric constant tensor:
#      x y z
#    x 1.795260 0.035480 0.038780 
#    y 0.035480 1.819090 0.015020 
#    z 0.038780 0.015020 1.804200 
# 
# From -- ./inp_files/190159.got.cif
#   From: 2010.05.17/outbox.ucp.g08.bks.cvg/sg2_96_cif.got.tgz:190159.got - 2010.06.11 11:32:03.
