data_PCOD9075227
_publ_section_title
;
Structure prediction by ZEFSAII (Michael W. Deem and Ramdas Pophale) SiO2 
 PCOD9075227
Probable space group: P -1
;
_chemical_formula_sum "Si O2"
_cell_formula_units_Z 15
_cell_length_a 8.780108
_cell_length_b 21.389010
_cell_length_c 11.389754
_cell_angle_alpha 51.334369
_cell_angle_beta 86.619763
_cell_angle_gamma 41.251739
_cell_volume 663.903169
_symmetry_space_group_name_H-M "P -1"
_symmetry_group_IT_number 2
_symmetry_cell_setting 'triclinic'
loop_
_space_group_symop_operation_xyz
x,y,z
-x,-y,-z
loop_
_atom_site_type_symbol
_atom_site_label
_atom_site_fract_x
_atom_site_fract_y
_atom_site_fract_z
Si Si1 0.564235 0.410262 0.214491
Si Si2 0.500000 0.000000 0.500000
Si Si3 0.253656 0.236908 0.045205
Si Si4 0.200923 0.610495 0.550744
Si Si5 0.366767 0.366989 0.924099
Si Si6 0.085720 0.201104 0.897992
Si Si7 0.372948 0.787104 0.664365
Si Si8 0.747848 0.003363 0.695877
O O1 0.812225 0.336705 0.386619
O O2 0.710477 0.254232 0.350314
O O3 0.500000 0.500000 0.000000
O O4 0.158002 0.585535 0.085939
O O5 0.519906 0.065606 0.329612
O O6 0.338912 0.018951 0.376541
O O7 0.310411 0.304354 0.955059
O O8 0.260314 0.192103 0.970970
O O9 0.641408 0.408029 0.721168
O O10 0.944001 0.771198 0.271295
O O11 0.139827 0.546550 0.658428
O O12 0.326808 0.380126 0.051563
O O13 0.807720 0.183605 0.105008
O O14 0.296503 0.021489 0.150473
O O15 0.479826 0.806384 0.547657
O O16 0.000000 0.000000 0.500000
#
# Coordination Sequence:
#
# PCOD9075227 Si02
#       8
#     2   1   2   2   2   2   2   2
#     4  11  22  36  55  84 115 146 190 234 280 333
#     4  10  18  32  54  80 110 146 180 228 276 330
#     4  10  21  31  54  86 114 146 190 226 283 335
#     4   9  17  34  54  75 111 146 184 232 277 322
#     4  10  18  32  53  82 114 143 181 231 282 334
#     4   8  17  33  54  78 105 149 191 222 270 341
#     4  10  20  34  55  80 114 145 181 231 288 333
#     4   9  18  32  54  79 110 144 187 225 273 332
#
# _framework density 22.593654000000001
#
# number of rings (size 3 to 8) (size 9 to 14) (size 15 to 20)
#    0.000    2.400    2.667    0.800    3.733    1.067 
#    0.000    0.667    0.000    0.000    0.000   15.867 
#    0.000    0.000    0.000    0.533    0.000    0.000 
#
# Total GULP energy -83567.483922 kJ/mol
# GULP energy per Si atom -5571.165595 kJ/mol
# Density = 2.254223 g / cm^3
# Si number density = 22.593654 Si / 1000 Ang^3
#
#
#
# Elastic Constant Matrix: (Units=GPa)
#
#
# Indices 1 2 3 4 5 6 
#
# 1 170.7499 55.4678 84.5278 18.5017 -40.3757 20.1379
# 2 55.4678 89.1890 61.7533 20.4440 -12.2093 6.1258
# 3 84.5278 61.7533 175.4249 49.7531 -37.8838 15.2946
# 4 18.5017 20.4440 49.7531 45.0462 -6.2739 5.6727
# 5 -40.3757 -12.2093 -37.8838 -6.2739 45.9939 -11.9968
# 6 20.1379 6.1258 15.2946 5.6727 -11.9968 36.4685
#
#
#
# Elastic Compliance Matrix: (Units=1/GPa)
#
#
# Indices 1 2 3 4 5 6 
#
# 1 0.009570 -0.003769 -0.002406 0.001417 0.005036 -0.002206
# 2 -0.003769 0.016379 -0.003963 -0.001900 -0.002350 0.000515
# 3 -0.002406 -0.003963 0.012306 -0.010049 0.005670 0.000261
# 4 0.001417 -0.001900 -0.010049 0.033401 -0.003673 -0.002653
# 5 0.005036 -0.002350 0.005670 -0.003673 0.031300 0.006104
# 6 -0.002206 0.000515 0.000261 -0.002653 0.006104 0.030864
#
#
# Mechanical properties :
#
#
# Convention : Reuss Voigt Hill
#
# Bulk Modulus (GPa) = 55.62331 93.20687 74.41509
# Shear Modulus (GPa) = 31.23264 41.07605 36.15434
#
# Velocity S-wave (km/s) = 3.72205 4.26847 4.00459
# Velocity P-wave (km/s) = 6.56841 8.10162 7.37496
#
# Compressibility (1/GPa) = 0.01797807
#
# Stress axis : x y z
#
# Youngs Moduli (GPa) = 104.49772 61.05485 81.25830
#
# Poissons Ratio (x) = 0.23014 0.19552
# Poissons Ratio (y) = 0.39389 0.32201
# Poissons Ratio (z) = 0.25144 0.24195
#
# Static dielectric constant tensor:
#      x y z
#    x 1.823280 -0.055220 0.019570 
#    y -0.055220 1.873410 -0.062560 
#    z 0.019570 -0.062560 1.911920 
# 
# From -- ./inp_files/403796.got.cif
#   From: 2010.05.17/outbox.cif.g08.bks.cpg/sg2_202_cif.got.tgz:403796.got - 2010.06.03 11:33:40.
