data_PCOD9075594
_publ_section_title
;
Structure prediction by ZEFSAII (Michael W. Deem and Ramdas Pophale) SiO2 
 PCOD9075594
Probable space group: P -1
;
_chemical_formula_sum "Si O2"
_cell_formula_units_Z 16
_cell_length_a 9.000000
_cell_length_b 9.000000
_cell_length_c 24.000000
_cell_angle_alpha 50.000000
_cell_angle_beta 130.000000
_cell_angle_gamma 150.000000
_cell_volume 725.531033
_symmetry_space_group_name_H-M "P -1"
_symmetry_group_IT_number 2
_symmetry_cell_setting 'triclinic'
loop_
_space_group_symop_operation_xyz
x,y,z
-x,-y,-z
loop_
_atom_site_type_symbol
_atom_site_label
_atom_site_fract_x
_atom_site_fract_y
_atom_site_fract_z
Si Si1 0.211765 0.625926 0.354621
Si Si2 0.415547 0.474893 0.920365
Si Si3 0.303113 0.561483 0.207547
Si Si4 0.845974 0.989041 0.412721
Si Si5 0.775481 0.220267 0.555645
Si Si6 0.920160 0.946800 0.314182
Si Si7 0.776218 0.113259 0.816840
Si Si8 0.324434 0.673729 0.054624
O O1 0.483473 0.684023 0.393096
O O2 0.276683 0.717822 0.412870
O O3 0.205744 0.789203 0.266093
O O4 0.901808 0.263191 0.365751
O O5 0.574180 0.432943 0.931395
O O6 0.057666 0.200496 0.885940
O O7 0.502441 0.755413 0.850321
O O8 0.500000 0.500000 0.000000
O O9 0.575162 0.654528 0.281048
O O10 0.257526 0.724741 0.191220
O O11 0.346015 0.638199 0.134044
O O12 0.020943 0.203067 0.237924
O O13 0.960562 0.024547 0.370423
O O14 0.000000 0.000000 0.500000
O O15 0.000000 0.500000 0.500000
O O16 0.895253 0.106935 0.633629
O O17 0.500000 0.000000 0.500000
O O18 0.000000 0.500000 0.000000
O O19 0.500000 0.000000 0.000000
#
# Coordination Sequence:
#
# PCOD9075594 Si02
#       8
#     2   2   2   2   2   2   2   2
#     4  12  25  43  68 100 134 178 226 279 335 394
#     4  12  26  44  73 103 136 179 221 271 330 397
#     4  12  25  44  69 100 138 177 221 282 332 403
#     4  12  23  43  69  97 131 177 231 280 330 398
#     4  12  27  46  66  97 138 181 225 286 342 400
#     4  12  24  44  66 100 134 180 226 277 344 395
#     4  12  24  45  69 100 138 174 225 275 332 394
#     4  12  26  47  72 103 139 178 222 271 333 398
#
# _framework density 22.052813
#
# number of rings (size 3 to 8) (size 9 to 14) (size 15 to 20)
#    0.000    0.000    2.500    8.250    3.500    0.000 
#    0.000    0.000    0.000    0.000    0.000    0.000 
#    0.000    0.000    0.000    0.000    0.000    0.000 
#
# Total GULP energy -89321.877516 kJ/mol
# GULP energy per Si atom -5582.617345 kJ/mol
# Density = 2.200262 g / cm^3
# Si number density = 22.052813 Si / 1000 Ang^3
#
#
#
# Elastic Constant Matrix: (Units=GPa)
#
#
# Indices 1 2 3 4 5 6 
#
# 1 82.6408 7.2529 21.0958 -2.7898 -9.9124 -5.6917
# 2 7.2529 74.0603 4.6275 0.2185 -9.6394 9.9368
# 3 21.0958 4.6275 155.1489 3.6732 -33.1453 0.4951
# 4 -2.7898 0.2185 3.6732 57.8841 3.6442 6.4604
# 5 -9.9124 -9.6394 -33.1453 3.6442 59.5511 3.9055
# 6 -5.6917 9.9368 0.4951 6.4604 3.9055 20.4522
#
#
#
# Elastic Compliance Matrix: (Units=1/GPa)
#
#
# Indices 1 2 3 4 5 6 
#
# 1 0.013039 -0.001656 -0.001587 0.000214 0.000726 0.004266
# 2 -0.001656 0.015173 0.000413 0.000611 0.002937 -0.008597
# 3 -0.001587 0.000413 0.007553 -0.000661 0.004139 -0.001407
# 4 0.000214 0.000611 -0.000661 0.018026 -0.000961 -0.005732
# 5 0.000726 0.002937 0.004139 -0.000961 0.020070 -0.004854
# 6 0.004266 -0.008597 -0.001407 -0.005732 -0.004854 0.057030
#
#
# Mechanical properties :
#
#
# Convention : Reuss Voigt Hill
#
# Bulk Modulus (GPa) = 33.21763 41.97804 37.59783
# Shear Modulus (GPa) = 34.10959 46.16907 40.13933
#
# Velocity S-wave (km/s) = 3.93711 4.58052 4.27094
# Velocity P-wave (km/s) = 5.98023 6.85940 6.43485
#
# Compressibility (1/GPa) = 0.03010450
#
# Stress axis : x y z
#
# Youngs Moduli (GPa) = 76.69210 65.90777 132.39099
#
# Poissons Ratio (x) = 0.10916 0.21012
# Poissons Ratio (y) = 0.12702 -0.05467
# Poissons Ratio (z) = 0.12172 -0.02722
#
# Static dielectric constant tensor:
#      x y z
#    x 1.850100 -0.002730 0.010740 
#    y -0.002730 1.808610 -0.011980 
#    z 0.010740 -0.011980 1.692820 
# 
# From -- ./inp_files/99829.got.cif
#   From: 2010.05.17/outbox.ucp.g08.bks.cvg/sg2_50_cif.got.tgz:99829.got - 2010.06.11 11:32:03.
