data_PCOD9075487
_publ_section_title
;
Structure prediction by ZEFSAII (Michael W. Deem and Ramdas Pophale) SiO2 
 PCOD9075487
Probable space group: P -1
;
_chemical_formula_sum "Si O2"
_cell_formula_units_Z 16
_cell_length_a 9.000000
_cell_length_b 15.000000
_cell_length_c 9.000000
_cell_angle_alpha 50.000000
_cell_angle_beta 80.000000
_cell_angle_gamma 110.000000
_cell_volume 732.374747
_symmetry_space_group_name_H-M "P -1"
_symmetry_group_IT_number 2
_symmetry_cell_setting 'triclinic'
loop_
_space_group_symop_operation_xyz
x,y,z
-x,-y,-z
loop_
_atom_site_type_symbol
_atom_site_label
_atom_site_fract_x
_atom_site_fract_y
_atom_site_fract_z
Si Si1 0.401048 0.481984 0.189843
Si Si2 0.524311 0.831059 0.280869
Si Si3 0.027716 0.731916 0.959211
Si Si4 0.607841 0.245914 0.098288
Si Si5 0.656513 0.018846 0.781526
Si Si6 0.928692 0.783710 0.613048
Si Si7 0.364183 0.517456 0.599279
Si Si8 0.725150 0.919758 0.442819
O O1 0.186814 0.336853 0.366147
O O2 0.539151 0.469363 0.277675
O O3 0.500000 0.500000 0.000000
O O4 0.402565 0.620731 0.072738
O O5 0.405976 0.671994 0.399962
O O6 0.661863 0.851668 0.363779
O O7 0.382846 0.862617 0.335009
O O8 0.653696 0.962535 0.004493
O O9 0.934909 0.708190 0.839468
O O10 0.181435 0.700843 0.966521
O O11 0.853676 0.621378 0.216408
O O12 0.142980 0.905543 0.780098
O O13 0.515763 0.126324 0.112703
O O14 0.469317 0.149274 0.362058
O O15 0.855442 0.088881 0.597519
O O16 0.826449 0.859781 0.571102
O O17 0.500000 0.500000 0.500000
#
# Coordination Sequence:
#
# PCOD9075487 Si02
#       8
#     2   2   2   2   2   2   2   2
#     4  12  24  45  66 102 140 176 224 282 335 402
#     4  11  25  48  68  96 143 178 223 286 336 402
#     4  12  26  42  72 105 133 181 230 278 346 398
#     4  12  24  45  70 101 142 179 226 284 335 406
#     4  11  26  46  70 101 137 181 228 281 338 403
#     4  12  25  41  73 102 135 180 230 281 341 396
#     4  12  27  48  69  99 140 181 224 281 344 406
#     4  12  23  44  71 104 138 176 233 282 334 405
#
# _framework density 21.846738999999999
#
# number of rings (size 3 to 8) (size 9 to 14) (size 15 to 20)
#    0.000    0.250    6.250    2.250    5.250    2.000 
#    0.000    1.250    0.000    0.000    0.000    0.000 
#    0.000    0.000    0.000    0.000    0.000    0.000 
#
# Total GULP energy -89324.843998 kJ/mol
# GULP energy per Si atom -5582.802750 kJ/mol
# Density = 2.179701 g / cm^3
# Si number density = 21.846739 Si / 1000 Ang^3
#
#
#
# Elastic Constant Matrix: (Units=GPa)
#
#
# Indices 1 2 3 4 5 6 
#
# 1 118.4135 23.6924 53.3993 -13.4998 -10.4891 -17.5341
# 2 23.6924 60.0078 14.0017 -22.7294 -2.5472 -12.7777
# 3 53.3993 14.0017 43.7775 -20.4589 -15.3293 1.5989
# 4 -13.4998 -22.7294 -20.4589 50.9105 0.9254 10.0398
# 5 -10.4891 -2.5472 -15.3293 0.9254 28.2598 -6.3103
# 6 -17.5341 -12.7777 1.5989 10.0398 -6.3103 34.4019
#
#
#
# Elastic Compliance Matrix: (Units=1/GPa)
#
#
# Indices 1 2 3 4 5 6 
#
# 1 0.032000 -0.003475 -0.050423 -0.017161 -0.010667 0.020415
# 2 -0.003475 0.021878 0.002064 0.008816 0.002436 0.004133
# 3 -0.050423 0.002064 0.116385 0.040732 0.035285 -0.035758
# 4 -0.017161 0.008816 0.040732 0.038431 0.011587 -0.016456
# 5 -0.010667 0.002436 0.035285 0.011587 0.050335 -0.000321
# 6 0.020415 0.004133 -0.035758 -0.016456 -0.000321 0.047414
#
#
# Mechanical properties :
#
#
# Convention : Reuss Voigt Hill
#
# Bulk Modulus (GPa) = 15.01638 44.93172 29.97405
# Shear Modulus (GPa) = 11.56577 31.45480 21.51028
#
# Velocity S-wave (km/s) = 2.30338 3.79858 3.14124
# Velocity P-wave (km/s) = 3.73664 6.31271 5.18714
#
# Compressibility (1/GPa) = 0.06659397
#
# Stress axis : x y z
#
# Youngs Moduli (GPa) = 31.24952 45.70857 8.59215
#
# Poissons Ratio (x) = 0.15884 0.43324
# Poissons Ratio (y) = 0.10860 -0.01773
# Poissons Ratio (z) = 1.57570 -0.09432
#
# Static dielectric constant tensor:
#      x y z
#    x 1.735160 -0.030200 -0.055240 
#    y -0.030200 1.806330 0.007180 
#    z -0.055240 0.007180 1.822860 
# 
# From -- ./inp_files/184345.got.cif
#   From: 2010.05.17/outbox.ucp.g08.bks.cvg/sg2_93_cif.got.tgz:184345.got - 2010.06.11 11:32:03.
