data_PCOD9075732
_publ_section_title
;
Structure prediction by ZEFSAII (Michael W. Deem and Ramdas Pophale) SiO2 
 PCOD9075732
Probable space group: P -1
;
_chemical_formula_sum "Si O2"
_cell_formula_units_Z 16
_cell_length_a 8.724829
_cell_length_b 12.888900
_cell_length_c 8.502624
_cell_angle_alpha 83.951727
_cell_angle_beta 92.703241
_cell_angle_gamma 52.659372
_cell_volume 748.451547
_symmetry_space_group_name_H-M "P -1"
_symmetry_group_IT_number 2
_symmetry_cell_setting 'triclinic'
loop_
_space_group_symop_operation_xyz
x,y,z
-x,-y,-z
loop_
_atom_site_type_symbol
_atom_site_label
_atom_site_fract_x
_atom_site_fract_y
_atom_site_fract_z
Si Si1 0.910611 0.013752 0.788453
Si Si2 0.676726 0.790404 0.118934
Si Si3 0.437340 0.352038 0.264786
Si Si4 0.017617 0.752624 0.985355
Si Si5 0.209857 0.478017 0.944366
Si Si6 0.304506 0.889559 0.907781
Si Si7 0.572401 0.407423 0.785779
Si Si8 0.466723 0.783354 0.394024
O O1 0.105179 0.001653 0.789733
O O2 0.757872 0.086134 0.629621
O O3 0.977094 0.868486 0.855035
O O4 0.786434 0.097172 0.926027
O O5 0.787473 0.632648 0.126959
O O6 0.580125 0.817163 0.281158
O O7 0.832948 0.812102 0.080804
O O8 0.498322 0.871584 0.970901
O O9 0.604364 0.240525 0.172689
O O10 0.466806 0.459568 0.299325
O O11 0.436269 0.276457 0.424672
O O12 0.244861 0.433801 0.135279
O O13 0.214915 0.680466 0.108588
O O14 0.046916 0.634560 0.904303
O O15 0.405854 0.452708 0.898021
O O16 0.547355 0.324728 0.673117
#
# Coordination Sequence:
#
# PCOD9075732 Si02
#       8
#     2   2   2   2   2   2   2   2
#     4  10  19  33  52  74 102 131 167 208 246 291
#     4   9  19  33  52  76 101 130 167 209 248 290
#     4  10  18  32  55  75  98 132 167 204 252 294
#     4  11  18  30  56  79  97 130 173 205 243 294
#     4   9  18  34  55  78 101 125 165 213 249 288
#     4   9  18  34  51  72  99 131 166 205 244 289
#     4  10  19  34  55  78 100 126 168 213 247 290
#     4  10  21  34  49  74 106 134 162 204 252 298
#
# _framework density 21.377466999999999
#
# number of rings (size 3 to 8) (size 9 to 14) (size 15 to 20)
#    0.000    2.250    0.000    7.500    0.000    2.500 
#    0.000    2.500    0.000   17.250    0.000    0.000 
#    0.000    0.000    0.000    0.000    0.000    0.000 
#
# Total GULP energy -89131.445832 kJ/mol
# GULP energy per Si atom -5570.715364 kJ/mol
# Density = 2.132881 g / cm^3
# Si number density = 21.377467 Si / 1000 Ang^3
#
#
#
# Elastic Constant Matrix: (Units=GPa)
#
#
# Indices 1 2 3 4 5 6 
#
# 1 92.9800 26.7677 3.4431 -7.7629 -21.6463 -18.6507
# 2 26.7677 90.5494 15.1913 -5.6598 2.6661 -9.9853
# 3 3.4431 15.1913 69.2381 -23.9488 -5.8511 -6.1467
# 4 -7.7629 -5.6598 -23.9488 20.2847 2.0413 -0.0579
# 5 -21.6463 2.6661 -5.8511 2.0413 11.7967 5.0518
# 6 -18.6507 -9.9853 -6.1467 -0.0579 5.0518 28.4841
#
#
#
# Elastic Compliance Matrix: (Units=1/GPa)
#
#
# Indices 1 2 3 4 5 6 
#
# 1 0.029395 -0.010383 0.012221 0.017192 0.055780 0.008387
# 2 -0.010383 0.015907 -0.006640 -0.004758 -0.025947 0.001937
# 3 0.012221 -0.006640 0.031100 0.036546 0.029968 0.007145
# 4 0.017192 -0.004758 0.036546 0.094817 0.028975 0.012529
# 5 0.055780 -0.025947 0.029968 0.028975 0.203774 -0.002187
# 6 0.008387 0.001937 0.007145 0.012529 -0.002187 0.043233
#
#
# Mechanical properties :
#
#
# Convention : Reuss Voigt Hill
#
# Bulk Modulus (GPa) = 14.97051 38.17464 26.57258
# Shear Modulus (GPa) = 11.10871 25.93745 18.52308
#
# Velocity S-wave (km/s) = 2.28205 3.48704 2.94679
# Velocity P-wave (km/s) = 3.73655 5.84027 4.90258
#
# Compressibility (1/GPa) = 0.06679797
#
# Stress axis : x y z
#
# Youngs Moduli (GPa) = 34.01919 62.86459 32.15445
#
# Poissons Ratio (x) = 0.65272 -0.39296
# Poissons Ratio (y) = 0.35322 0.21352
# Poissons Ratio (z) = -0.41575 0.41745
#
# Static dielectric constant tensor:
#      x y z
#    x 1.859990 0.020390 0.015700 
#    y 0.020390 1.862530 -0.005930 
#    z 0.015700 -0.005930 1.781860 
# 
# From -- ./inp_files/206345.got.cif
#   From: 2010.05.17/outbox.cif.g08.bks.cpg/sg2_104_cif.got.tgz:206345.got - 2010.06.03 11:33:40.
