data_PCOD9075118
_publ_section_title
;
Structure prediction by ZEFSAII (Michael W. Deem and Ramdas Pophale) SiO2 
 PCOD9075118
Probable space group: P -1
;
_chemical_formula_sum "Si O2"
_cell_formula_units_Z 16
_cell_length_a 9.000000
_cell_length_b 18.000000
_cell_length_c 18.000000
_cell_angle_alpha 30.000000
_cell_angle_beta 40.000000
_cell_angle_gamma 30.000000
_cell_volume 727.497153
_symmetry_space_group_name_H-M "P -1"
_symmetry_group_IT_number 2
_symmetry_cell_setting 'triclinic'
loop_
_space_group_symop_operation_xyz
x,y,z
-x,-y,-z
loop_
_atom_site_type_symbol
_atom_site_label
_atom_site_fract_x
_atom_site_fract_y
_atom_site_fract_z
Si Si1 0.123789 0.663967 0.105412
Si Si2 0.825972 0.686055 0.458722
Si Si3 0.835922 0.315071 0.529345
Si Si4 0.865924 0.100477 0.234011
Si Si5 0.782415 0.676607 0.730392
Si Si6 0.228157 0.045522 0.876644
Si Si7 0.186641 0.287890 0.141342
Si Si8 0.316362 0.705719 0.710034
O O1 0.113487 0.517296 0.184870
O O2 0.422109 0.513205 0.171106
O O3 0.866493 0.820802 0.127962
O O4 0.149293 0.779005 0.932840
O O5 0.811371 0.834417 0.283709
O O6 0.510119 0.749254 0.553620
O O7 0.000000 0.500000 0.500000
O O8 0.997829 0.663479 0.487093
O O9 0.500000 0.500000 0.500000
O O10 0.982296 0.299792 0.408301
O O11 0.882788 0.120727 0.687824
O O12 0.546698 0.149702 0.321551
O O13 0.870317 0.175391 0.247513
O O14 0.728071 0.697854 0.820586
O O15 0.559836 0.850377 0.898031
O O16 0.000000 0.000000 0.000000
O O17 0.943039 0.257140 0.272286
O O18 0.000000 0.500000 0.000000
#
# Coordination Sequence:
#
# PCOD9075118 Si02
#       8
#     2   2   2   2   2   2   2   2
#     4  11  22  47  75 100 137 190 232 282 357 429
#     4  12  25  47  73 101 146 190 229 292 365 422
#     4  12  27  43  67 105 139 180 236 290 346 418
#     4  11  23  45  74  98 139 184 232 283 355 421
#     4  11  23  45  71  98 140 182 231 284 350 421
#     4  12  26  45  74 107 145 190 235 287 364 431
#     4  12  27  44  71 110 143 182 242 299 349 413
#     4  11  24  45  75 105 139 183 241 295 354 419
#
# _framework density 21.993213000000001
#
# number of rings (size 3 to 8) (size 9 to 14) (size 15 to 20)
#    0.000    0.500    3.750    6.375    3.500    3.500 
#    0.000    1.875    0.000    0.000    0.000    0.000 
#    0.000    0.000    0.000    0.000    0.000    0.000 
#
# Total GULP energy -89288.749149 kJ/mol
# GULP energy per Si atom -5580.546822 kJ/mol
# Density = 2.194316 g / cm^3
# Si number density = 21.993213 Si / 1000 Ang^3
#
#
#
# Elastic Constant Matrix: (Units=GPa)
#
#
# Indices 1 2 3 4 5 6 
#
# 1 87.6337 51.4788 17.9340 6.3063 -2.5839 18.0877
# 2 51.4788 146.6193 44.7592 -3.4255 -4.2713 18.6097
# 3 17.9340 44.7592 133.5257 12.0579 -2.5169 -9.7600
# 4 6.3063 -3.4255 12.0579 49.2371 4.7465 0.8898
# 5 -2.5839 -4.2713 -2.5169 4.7465 8.8105 14.4916
# 6 18.0877 18.6097 -9.7600 0.8898 14.4916 39.5842
#
#
#
# Elastic Compliance Matrix: (Units=1/GPa)
#
#
# Indices 1 2 3 4 5 6 
#
# 1 0.022341 -0.000459 -0.003445 -0.007993 0.068340 -0.035681
# 2 -0.000459 0.012381 -0.004774 -0.001494 0.041268 -0.021863
# 3 -0.003445 -0.004774 0.010237 -0.000077 -0.027131 0.016277
# 4 -0.007993 -0.001494 -0.000077 0.026487 -0.059099 0.025376
# 5 0.068340 0.041268 -0.027131 -0.059099 0.677986 -0.304198
# 6 -0.035681 -0.021863 0.016277 0.025376 -0.304198 0.166653
#
#
# Mechanical properties :
#
#
# Convention : Reuss Voigt Hill
#
# Bulk Modulus (GPa) = 36.22739 66.23585 51.23162
# Shear Modulus (GPa) = 5.30423 36.43348 20.86886
#
# Velocity S-wave (km/s) = 1.55467 4.07452 3.08373
# Velocity P-wave (km/s) = 4.44190 7.23309 6.00200
#
# Compressibility (1/GPa) = 0.02760342
#
# Stress axis : x y z
#
# Youngs Moduli (GPa) = 44.76123 80.76734 97.68156
#
# Poissons Ratio (x) = 0.03711 0.33648
# Poissons Ratio (y) = 0.02056 0.46632
# Poissons Ratio (z) = 0.15419 0.38557
#
# Static dielectric constant tensor:
#      x y z
#    x -0.552540 -0.122940 -0.175080 
#    y -0.122940 1.801920 -0.055410 
#    z -0.175080 -0.055410 1.869480 
# 
# From -- ./inp_files/562052.got.cif
#   From: 2010.05.17/outbox.ucp.g08.bks.cvg/sg2_282_cif.got.tgz:562052.got - 2010.06.11 11:32:03.
