data_PCOD9075077
_publ_section_title
;
Structure prediction by ZEFSAII (Michael W. Deem and Ramdas Pophale) SiO2 
 PCOD9075077
Probable space group: P -1
;
_chemical_formula_sum "Si O2"
_cell_formula_units_Z 16
_cell_length_a 21.000000
_cell_length_b 12.000000
_cell_length_c 9.000000
_cell_angle_alpha 40.000000
_cell_angle_beta 110.000000
_cell_angle_gamma 140.000000
_cell_volume 754.890988
_symmetry_space_group_name_H-M "P -1"
_symmetry_group_IT_number 2
_symmetry_cell_setting 'triclinic'
loop_
_space_group_symop_operation_xyz
x,y,z
-x,-y,-z
loop_
_atom_site_type_symbol
_atom_site_label
_atom_site_fract_x
_atom_site_fract_y
_atom_site_fract_z
Si Si1 0.333766 0.286056 0.845563
Si Si2 0.213304 0.699477 0.483015
Si Si3 0.400981 0.104317 0.501245
Si Si4 0.921536 0.429795 0.885764
Si Si5 0.629978 0.274946 0.909598
Si Si6 0.942222 0.188668 0.909606
Si Si7 0.855198 0.656698 0.486777
Si Si8 0.659676 0.728410 0.483260
O O1 0.451778 0.588813 0.730558
O O2 0.380455 0.386772 0.606576
O O3 0.288922 0.997290 0.139880
O O4 0.204500 0.115036 0.946291
O O5 0.190281 0.489916 0.566507
O O6 0.071911 0.456014 0.652806
O O7 0.299878 0.878215 0.517891
O O8 0.392641 0.260897 0.438123
O O9 0.374881 0.882571 0.809361
O O10 0.951848 0.383637 0.812101
O O11 0.923636 0.636830 0.635052
O O12 0.000000 0.500000 0.000000
O O13 0.785860 0.094633 0.174635
O O14 0.737304 0.453717 0.697940
O O15 0.659600 0.528986 0.738797
O O16 0.500000 0.000000 0.000000
O O17 0.941332 0.008841 0.186998
#
# Coordination Sequence:
#
# PCOD9075077 Si02
#       8
#     2   2   2   2   2   2   2   2
#     4  11  22  45  71  97 134 186 231 276 341 410
#     4  12  26  45  69  99 142 186 222 283 345 404
#     4  12  25  44  68 107 138 174 232 287 340 409
#     4  11  23  41  69 101 134 176 227 288 337 397
#     4  12  24  43  71 102 132 179 231 281 341 404
#     4  11  24  45  67  99 136 182 231 271 344 411
#     4  12  24  45  71  98 140 183 227 280 344 412
#     4  11  22  43  71  98 131 177 230 281 344 392
#
# _framework density 21.195112999999999
#
# number of rings (size 3 to 8) (size 9 to 14) (size 15 to 20)
#    0.000    0.500    7.500    2.250    1.750    1.500 
#    2.250    1.250    0.000    0.000    0.000    0.000 
#    0.000    0.000    0.000    0.000    0.000    0.000 
#
# Total GULP energy -89127.353983 kJ/mol
# GULP energy per Si atom -5570.459624 kJ/mol
# Density = 2.114687 g / cm^3
# Si number density = 21.195113 Si / 1000 Ang^3
#
#
#
# Elastic Constant Matrix: (Units=GPa)
#
#
# Indices 1 2 3 4 5 6 
#
# 1 100.3849 31.3297 40.7440 22.0655 27.7701 7.1095
# 2 31.3297 102.4029 8.8455 19.5407 -4.9675 26.0435
# 3 40.7440 8.8455 81.2199 13.3244 9.0662 -4.1393
# 4 22.0655 19.5407 13.3244 4.7219 5.3340 -4.2020
# 5 27.7701 -4.9675 9.0662 5.3340 35.7120 -4.2716
# 6 7.1095 26.0435 -4.1393 -4.2020 -4.2716 10.1941
#
#
#
# Elastic Compliance Matrix: (Units=1/GPa)
#
#
# Indices 1 2 3 4 5 6 
#
# 1 0.015848 -0.010193 -0.006815 0.011984 -0.012369 0.011977
# 2 -0.010193 0.004982 -0.000627 0.030932 0.005243 0.009073
# 3 -0.006815 -0.000627 0.017331 -0.008077 0.003392 0.011484
# 4 0.011984 0.030932 -0.008077 -0.034536 -0.010900 -0.109464
# 5 -0.012369 0.005243 0.003392 -0.010900 0.040187 0.008954
# 6 0.011977 0.009073 0.011484 -0.109464 0.008954 0.029858
#
#
# Mechanical properties :
#
#
# Convention : Reuss Voigt Hill
#
# Bulk Modulus (GPa) = 345.78512 49.53844 197.66178
# Shear Modulus (GPa) = 45.49445 23.66483 34.57964
#
# Velocity S-wave (km/s) = 4.63802 3.34507 4.04355
# Velocity P-wave (km/s) = 13.86288 6.19214 10.73597
#
# Compressibility (1/GPa) = 0.00289197
#
# Stress axis : x y z
#
# Youngs Moduli (GPa) = 63.09884 200.71045 57.70041
#
# Poissons Ratio (x) = 2.04579 0.39323
# Poissons Ratio (y) = 0.64315 0.03617
# Poissons Ratio (z) = 0.43002 0.12581
#
# Static dielectric constant tensor:
#      x y z
#    x 1.827540 0.072760 0.004970 
#    y 0.072760 2.150570 0.051860 
#    z 0.004970 0.051860 1.770630 
# 
# From -- ./inp_files/345874.got.cif
#   From: 2010.05.17/outbox.ucp.g08.bks.cvg/sg2_173_cif.got.tgz:345874.got - 2010.06.11 11:32:03.
