data_PCOD9075739
_publ_section_title
;
Structure prediction by ZEFSAII (Michael W. Deem and Ramdas Pophale) SiO2 
 PCOD9075739
Probable space group: P -1
;
_chemical_formula_sum "Si O2"
_cell_formula_units_Z 16
_cell_length_a 8.572619
_cell_length_b 9.380058
_cell_length_c 8.912339
_cell_angle_alpha 64.884023
_cell_angle_beta 93.405326
_cell_angle_gamma 84.343239
_cell_volume 641.647797
_symmetry_space_group_name_H-M "P -1"
_symmetry_group_IT_number 2
_symmetry_cell_setting 'triclinic'
loop_
_space_group_symop_operation_xyz
x,y,z
-x,-y,-z
loop_
_atom_site_type_symbol
_atom_site_label
_atom_site_fract_x
_atom_site_fract_y
_atom_site_fract_z
Si Si1 0.241700 0.012900 0.655635
Si Si2 0.762658 0.340030 0.198592
Si Si3 0.343999 0.821434 0.167919
Si Si4 0.131625 0.114351 0.920825
Si Si5 0.907818 0.398241 0.883206
Si Si6 0.577436 0.360551 0.459735
Si Si7 0.481762 0.213239 0.091851
Si Si8 0.270172 0.274645 0.311981
O O1 0.158573 0.109934 0.746102
O O2 0.233184 0.117021 0.461037
O O3 0.173515 0.847992 0.698795
O O4 0.418765 0.947296 0.757734
O O5 0.709925 0.402391 0.332087
O O6 0.597481 0.338621 0.100373
O O7 0.875994 0.406598 0.056795
O O8 0.221709 0.709704 0.142341
O O9 0.358226 0.779240 0.360597
O O10 0.498192 0.782305 0.088343
O O11 0.280946 0.005790 0.052542
O O12 0.068371 0.290239 0.893757
O O13 0.000000 0.000000 0.000000
O O14 0.860095 0.573716 0.737004
O O15 0.500000 0.500000 0.500000
O O16 0.433094 0.308566 0.382408
O O17 0.318969 0.253448 0.150956
#
# Coordination Sequence:
#
# PCOD9075739 Si02
#       8
#     2   2   2   2   2   2   2   2
#     4   9  17  33  53  78 101 130 174 218 244 300
#     4   8  18  32  52  73 102 135 177 200 251 303
#     4   9  17  32  50  74  98 137 171 208 245 302
#     4   9  16  34  57  70  99 131 184 214 238 298
#     4  10  18  32  55  77  94 141 175 216 245 288
#     4  11  21  30  48  80 117 131 161 211 264 309
#     4   7  16  30  50  66 100 134 167 199 245 304
#     4  11  20  29  53  80 109 129 164 215 265 298
#
# _framework density 24.935797999999998
#
# number of rings (size 3 to 8) (size 9 to 14) (size 15 to 20)
#    0.750    2.000    3.750    0.375    1.750    2.000 
#    0.000    3.125    0.000    0.000    0.000    1.750 
#    0.000    0.000    0.000    0.000    0.000    0.000 
#
# Total GULP energy -89389.089341 kJ/mol
# GULP energy per Si atom -5586.818084 kJ/mol
# Density = 2.487904 g / cm^3
# Si number density = 24.935798 Si / 1000 Ang^3
#
#
#
# Elastic Constant Matrix: (Units=GPa)
#
#
# Indices 1 2 3 4 5 6 
#
# 1 47.6288 14.0587 39.7757 2.5083 -2.8717 -2.0232
# 2 14.0587 135.9601 65.8643 7.7406 -14.3291 -37.2488
# 3 39.7757 65.8643 93.3824 0.2912 -6.7831 -22.7463
# 4 2.5083 7.7406 0.2912 50.6163 1.6054 -3.3357
# 5 -2.8717 -14.3291 -6.7831 1.6054 29.8630 4.5766
# 6 -2.0232 -37.2488 -22.7463 -3.3357 4.5766 37.0087
#
#
#
# Elastic Compliance Matrix: (Units=1/GPa)
#
#
# Indices 1 2 3 4 5 6 
#
# 1 0.036522 0.004724 -0.020229 -0.002899 0.002294 -0.006227
# 2 0.004724 0.014392 -0.009926 -0.001979 0.003990 0.007971
# 3 -0.020229 -0.009926 0.027768 0.002832 -0.001536 0.006416
# 4 -0.002899 -0.001979 0.002832 0.020358 -0.001935 0.001664
# 5 0.002294 0.003990 -0.001536 -0.001935 0.035588 -0.001378
# 6 -0.006227 0.007971 0.006416 0.001664 -0.001378 0.038968
#
#
# Mechanical properties :
#
#
# Convention : Reuss Voigt Hill
#
# Bulk Modulus (GPa) = 35.94428 57.37428 46.65928
# Shear Modulus (GPa) = 21.39223 33.98243 27.68733
#
# Velocity S-wave (km/s) = 2.93216 3.69561 3.33580
# Velocity P-wave (km/s) = 5.09013 6.42408 5.79561
#
# Compressibility (1/GPa) = 0.02782084
#
# Stress axis : x y z
#
# Youngs Moduli (GPa) = 27.38106 69.48281 36.01214
#
# Poissons Ratio (x) = -0.32826 0.72850
# Poissons Ratio (y) = -0.12936 0.35744
# Poissons Ratio (z) = 0.55390 0.68965
#
# Static dielectric constant tensor:
#      x y z
#    x 2.111480 0.068590 0.060250 
#    y 0.068590 2.039060 0.037910 
#    z 0.060250 0.037910 1.959740 
# 
# From -- ./inp_files/256896.got.cif
#   From: 2010.05.17/outbox.cif.g08.bks.cpg/sg2_129_cif.got.tgz:256896.got - 2010.06.03 11:33:40.
