data_PCOD9075516
_publ_section_title
;
Structure prediction by ZEFSAII (Michael W. Deem and Ramdas Pophale) SiO2 
 PCOD9075516
Probable space group: P -1
;
_chemical_formula_sum "Si O2"
_cell_formula_units_Z 16
_cell_length_a 12.000000
_cell_length_b 18.000000
_cell_length_c 9.000000
_cell_angle_alpha 50.000000
_cell_angle_beta 130.000000
_cell_angle_gamma 150.000000
_cell_volume 725.531033
_symmetry_space_group_name_H-M "P -1"
_symmetry_group_IT_number 2
_symmetry_cell_setting 'triclinic'
loop_
_space_group_symop_operation_xyz
x,y,z
-x,-y,-z
loop_
_atom_site_type_symbol
_atom_site_label
_atom_site_fract_x
_atom_site_fract_y
_atom_site_fract_z
Si Si1 0.448153 0.406161 0.338313
Si Si2 0.767186 0.375633 0.284190
Si Si3 0.345348 0.284322 0.943954
Si Si4 0.917588 0.809680 0.457939
Si Si5 0.561795 0.932417 0.054918
Si Si6 0.277013 0.636701 0.382736
Si Si7 0.688315 0.138431 0.370468
Si Si8 0.058389 0.096286 0.221708
O O1 0.550209 0.553501 0.157814
O O2 0.273738 0.339275 0.410209
O O3 0.656369 0.439244 0.508781
O O4 0.275503 0.255556 0.283160
O O5 0.709219 0.350561 0.442160
O O6 0.793478 0.280051 0.372467
O O7 0.021247 0.545919 0.251148
O O8 0.559553 0.322424 0.093619
O O9 0.229413 0.228216 0.757430
O O10 0.145601 0.149802 0.058187
O O11 0.122374 0.842857 0.543613
O O12 0.021575 0.965148 0.406785
O O13 0.451540 0.792166 0.241619
O O14 0.439403 0.882349 0.855338
O O15 0.828313 0.040896 0.121947
O O16 0.500000 0.000000 0.000000
O O17 0.500000 0.000000 0.500000
#
# Coordination Sequence:
#
# PCOD9075516 Si02
#       8
#     2   2   2   2   2   2   2   2
#     4  12  26  46  72 107 144 188 242 298 362 428
#     4  11  26  46  74 102 148 187 240 298 361 429
#     4  12  26  46  74 109 141 191 241 295 365 428
#     4  12  26  47  73 104 147 189 239 300 357 430
#     4  12  27  44  74 106 144 188 243 294 362 428
#     4  11  26  48  70 104 145 190 238 299 361 427
#     4  12  26  47  73 107 146 191 239 295 364 429
#     4  12  25  46  74 104 144 187 243 294 357 431
#
# _framework density 22.052813
#
# number of rings (size 3 to 8) (size 9 to 14) (size 15 to 20)
#    0.000    0.250    2.500    6.000    5.250    1.500 
#    0.000    0.000    0.000    0.000    0.000    0.000 
#    0.000    0.000    0.000    0.000    0.000    0.000 
#
# Total GULP energy -89502.668082 kJ/mol
# GULP energy per Si atom -5593.916755 kJ/mol
# Density = 2.200262 g / cm^3
# Si number density = 22.052813 Si / 1000 Ang^3
#
#
#
# Elastic Constant Matrix: (Units=GPa)
#
#
# Indices 1 2 3 4 5 6 
#
# 1 149.3089 33.1066 26.3758 -4.3948 31.9883 32.1804
# 2 33.1066 94.3759 17.0596 -5.7110 11.5376 20.0092
# 3 26.3758 17.0596 54.9755 -5.8143 19.4221 25.6906
# 4 -4.3948 -5.7110 -5.8143 42.2077 4.0880 11.8882
# 5 31.9883 11.5376 19.4221 4.0880 48.4830 0.2657
# 6 32.1804 20.0092 25.6906 11.8882 0.2657 40.3172
#
#
#
# Elastic Compliance Matrix: (Units=1/GPa)
#
#
# Indices 1 2 3 4 5 6 
#
# 1 0.011271 -0.000230 0.005876 0.007069 -0.010251 -0.014643
# 2 -0.000230 0.013058 0.002542 0.005166 -0.004358 -0.009411
# 3 0.005876 0.002542 0.043432 0.020318 -0.023378 -0.039464
# 4 0.007069 0.005166 0.020318 0.038727 -0.017120 -0.032460
# 5 -0.010251 -0.004358 -0.023378 -0.017120 0.039071 0.030032
# 6 -0.014643 -0.009411 -0.039464 -0.032460 0.030032 0.075682
#
#
# Mechanical properties :
#
#
# Convention : Reuss Voigt Hill
#
# Bulk Modulus (GPa) = 11.88539 50.19382 31.03961
# Shear Modulus (GPa) = 21.46755 41.00946 31.23850
#
# Velocity S-wave (km/s) = 3.12342 4.31699 3.76777
# Velocity P-wave (km/s) = 4.29056 6.90353 5.74750
#
# Compressibility (1/GPa) = 0.08413689
#
# Stress axis : x y z
#
# Youngs Moduli (GPa) = 88.72364 76.58208 23.02471
#
# Poissons Ratio (x) = 0.01764 -0.13530
# Poissons Ratio (y) = 0.02044 -0.05854
# Poissons Ratio (z) = -0.52136 -0.19470
#
# Static dielectric constant tensor:
#      x y z
#    x 1.828870 -0.043590 -0.043510 
#    y -0.043590 1.901870 0.011030 
#    z -0.043510 0.011030 1.823920 
# 
# From -- ./inp_files/207644.got.cif
#   From: 2010.05.17/outbox.ucp.g08.bks.cvg/sg2_104_cif.got.tgz:207644.got - 2010.06.11 11:32:03.
