data_PCOD9075243
_publ_section_title
;
Structure prediction by ZEFSAII (Michael W. Deem and Ramdas Pophale) SiO2 
 PCOD9075243
Probable space group: P -1
;
_chemical_formula_sum "Si O2"
_cell_formula_units_Z 14
_cell_length_a 9.000000
_cell_length_b 15.000000
_cell_length_c 15.000000
_cell_angle_alpha 140.000000
_cell_angle_beta 140.000000
_cell_angle_gamma 30.000000
_cell_volume 616.747849
_symmetry_space_group_name_H-M "P -1"
_symmetry_group_IT_number 2
_symmetry_cell_setting 'triclinic'
loop_
_space_group_symop_operation_xyz
x,y,z
-x,-y,-z
loop_
_atom_site_type_symbol
_atom_site_label
_atom_site_fract_x
_atom_site_fract_y
_atom_site_fract_z
Si Si1 0.329944 0.102273 0.092986
Si Si2 0.805422 0.827744 0.458838
Si Si3 0.784356 0.209537 0.605150
Si Si4 0.555201 0.314625 0.394366
Si Si5 0.696905 0.792681 0.179928
Si Si6 0.336585 0.655324 0.965911
Si Si7 0.777239 0.573039 0.368276
O O1 0.361388 0.258924 0.230484
O O2 0.986219 0.174291 0.001342
O O3 0.502319 0.962160 0.149566
O O4 0.500000 0.000000 0.000000
O O5 0.708173 0.844387 0.324825
O O6 0.872207 0.648906 0.396001
O O7 0.088437 0.825391 0.589035
O O8 0.500000 0.000000 0.500000
O O9 0.541960 0.312456 0.492491
O O10 0.583948 0.255096 0.634558
O O11 0.952612 0.293272 0.754977
O O12 0.000000 0.000000 0.500000
O O13 0.500000 0.500000 0.500000
O O14 0.546387 0.697190 0.051827
O O15 0.227326 0.584033 0.788842
O O16 0.500000 0.500000 0.000000
O O17 0.000000 0.500000 0.500000
#
# Coordination Sequence:
#
# PCOD9075243 Si02
#       7
#     2   2   2   2   2   2   2
#     4  12  29  48  75 103 150 199 249 301 373 451
#     4  11  25  41  77 104 143 192 243 296 371 438
#     4  11  23  44  76 104 143 187 243 298 363 443
#     4  11  24  45  69 107 143 181 244 307 363 430
#     4  11  26  47  73 106 148 195 245 300 373 448
#     4  12  28  50  72 107 155 188 246 312 374 440
#     4  12  26  46  75 112 146 194 247 309 365 432
#
# _framework density 22.699714
#
# number of rings (size 3 to 8) (size 9 to 14) (size 15 to 20)
#    0.000    0.571    2.857    4.714    8.000    2.857 
#    0.000    0.000    0.000    0.000    0.000    0.000 
#    0.000    0.000    0.000    0.000    0.000    0.000 
#
# Total GULP energy -77952.220348 kJ/mol
# GULP energy per Si atom -5568.015739 kJ/mol
# Density = 2.264805 g / cm^3
# Si number density = 22.699714 Si / 1000 Ang^3
#
#
#
# Elastic Constant Matrix: (Units=GPa)
#
#
# Indices 1 2 3 4 5 6 
#
# 1 169.0543 31.9402 33.0044 4.0794 23.5577 -1.1538
# 2 31.9402 71.3723 15.6491 6.0686 -16.4798 0.4747
# 3 33.0044 15.6491 102.0234 1.2469 33.6271 9.9004
# 4 4.0794 6.0686 1.2469 27.8704 12.2274 7.0583
# 5 23.5577 -16.4798 33.6271 12.2274 48.7724 -9.5363
# 6 -1.1538 0.4747 9.9004 7.0583 -9.5363 49.3645
#
#
#
# Elastic Compliance Matrix: (Units=1/GPa)
#
#
# Indices 1 2 3 4 5 6 
#
# 1 0.007826 -0.005999 0.001234 0.004234 -0.008147 -0.002186
# 2 -0.005999 0.026920 -0.011680 -0.018606 0.026617 0.009746
# 3 0.001234 -0.011680 0.019987 0.014730 -0.024094 -0.010628
# 4 0.004234 -0.018606 0.014730 0.059528 -0.036997 -0.018335
# 5 -0.008147 0.026617 -0.024094 -0.036997 0.063614 0.021965
# 6 -0.002186 0.009746 -0.010628 -0.018335 0.021965 0.029109
#
#
# Mechanical properties :
#
#
# Convention : Reuss Voigt Hill
#
# Bulk Modulus (GPa) = 45.78194 55.95972 50.87083
# Shear Modulus (GPa) = 20.23033 42.65854 31.44444
#
# Velocity S-wave (km/s) = 2.98856 4.33974 3.72591
# Velocity P-wave (km/s) = 5.66754 7.05810 6.40069
#
# Compressibility (1/GPa) = 0.02184268
#
# Stress axis : x y z
#
# Youngs Moduli (GPa) = 127.77925 37.14747 50.03354
#
# Poissons Ratio (x) = 0.22286 -0.06175
# Poissons Ratio (y) = 0.76660 0.58437
# Poissons Ratio (z) = -0.15770 0.43387
#
# Static dielectric constant tensor:
#      x y z
#    x 4.168900 2.318950 -0.637790 
#    y 2.318950 4.506850 -0.706760 
#    z -0.637790 -0.706760 1.996730 
# 
# From -- ./inp_files/347734.got.cif
#   From: 2010.05.17/outbox.ucp.g08.bks.cvg/sg2_174_cif.got.tgz:347734.got - 2010.06.11 11:32:03.
