data_PCOD9075422
_publ_section_title
;
Structure prediction by ZEFSAII (Michael W. Deem and Ramdas Pophale) SiO2 
 PCOD9075422
Probable space group: P -1
;
_chemical_formula_sum "Si O2"
_cell_formula_units_Z 14
_cell_length_a 30.000000
_cell_length_b 9.000000
_cell_length_c 6.000000
_cell_angle_alpha 120.000000
_cell_angle_beta 130.000000
_cell_angle_gamma 30.000000
_cell_volume 613.666794
_symmetry_space_group_name_H-M "P -1"
_symmetry_group_IT_number 2
_symmetry_cell_setting 'triclinic'
loop_
_space_group_symop_operation_xyz
x,y,z
-x,-y,-z
loop_
_atom_site_type_symbol
_atom_site_label
_atom_site_fract_x
_atom_site_fract_y
_atom_site_fract_z
Si Si1 0.200589 0.410095 0.217067
Si Si2 0.600122 0.229017 0.476961
Si Si3 0.650859 0.478019 0.631013
Si Si4 0.092172 0.372682 0.581488
Si Si5 0.961103 0.261994 0.702514
Si Si6 0.167998 0.861114 0.284582
Si Si7 0.479203 0.925386 0.082876
O O1 0.144254 0.533459 0.365378
O O2 0.210978 0.582766 0.315798
O O3 0.309543 0.060589 0.300020
O O4 0.130798 0.454952 0.876573
O O5 0.500000 0.500000 0.500000
O O6 0.634258 0.329942 0.567239
O O7 0.574421 0.129427 0.160711
O O8 0.768215 0.244631 0.808302
O O9 0.590448 0.617372 0.308405
O O10 0.593727 0.775913 0.783648
O O11 0.057616 0.524838 0.345055
O O12 0.000000 0.500000 0.500000
O O13 0.173717 0.021939 0.564820
O O14 0.000000 0.000000 0.500000
O O15 0.051451 0.094069 0.034696
O O16 0.500000 0.000000 0.000000
#
# Coordination Sequence:
#
# PCOD9075422 Si02
#       7
#     2   2   2   2   2   2   2
#     4  12  28  48  70 108 143 193 241 294 360 422
#     4  12  27  47  74 103 144 187 240 296 355 424
#     4  11  27  45  73 106 138 188 236 294 362 420
#     4  12  26  46  74 103 148 190 238 292 351 431
#     4  12  25  48  73 107 150 187 236 297 358 426
#     4  12  26  46  75 106 144 188 239 293 360 429
#     4  11  24  49  72 101 143 184 238 297 355 424
#
# _framework density 22.813683000000001
#
# number of rings (size 3 to 8) (size 9 to 14) (size 15 to 20)
#    0.000    0.286    4.286    3.857    8.000    2.286 
#    0.000    0.000    0.000    0.000    0.000    0.000 
#    0.000    0.000    0.000    0.000    0.000    0.000 
#
# Total GULP energy -78183.109392 kJ/mol
# GULP energy per Si atom -5584.507814 kJ/mol
# Density = 2.276176 g / cm^3
# Si number density = 22.813683 Si / 1000 Ang^3
#
#
#
# Elastic Constant Matrix: (Units=GPa)
#
#
# Indices 1 2 3 4 5 6 
#
# 1 151.1768 72.6677 4.1220 6.7215 18.2968 26.5087
# 2 72.6677 132.8531 10.4416 9.1319 5.4865 20.4376
# 3 4.1220 10.4416 25.3270 14.2808 13.6385 9.8358
# 4 6.7215 9.1319 14.2808 37.5237 10.6724 12.8838
# 5 18.2968 5.4865 13.6385 10.6724 25.8317 1.6818
# 6 26.5087 20.4376 9.8358 12.8838 1.6818 55.4028
#
#
#
# Elastic Compliance Matrix: (Units=1/GPa)
#
#
# Indices 1 2 3 4 5 6 
#
# 1 0.011173 -0.005632 0.007434 0.001178 -0.010834 -0.004533
# 2 -0.005632 0.010951 -0.005752 -0.000804 0.005051 -0.000290
# 3 0.007434 -0.005752 0.071168 -0.013580 -0.035368 -0.009838
# 4 0.001178 -0.000804 -0.013580 0.036156 -0.008040 -0.006020
# 5 -0.010834 0.005051 -0.035368 -0.008040 0.066693 0.009444
# 6 -0.004533 -0.000290 -0.009838 -0.006020 0.009444 0.023186
#
#
# Mechanical properties :
#
#
# Convention : Reuss Voigt Hill
#
# Bulk Modulus (GPa) = 11.71073 53.75774 32.73423
# Shear Modulus (GPa) = 19.55484 38.55999 29.05742
#
# Velocity S-wave (km/s) = 2.93090 4.11568 3.57274
# Velocity P-wave (km/s) = 4.07405 6.79706 5.60348
#
# Compressibility (1/GPa) = 0.08539176
#
# Stress axis : x y z
#
# Youngs Moduli (GPa) = 89.50225 91.31614 14.05124
#
# Poissons Ratio (x) = 0.51427 -0.10445
# Poissons Ratio (y) = 0.50406 0.08082
# Poissons Ratio (z) = -0.66534 0.52526
#
# Static dielectric constant tensor:
#      x y z
#    x 1.639400 0.051130 -0.013430 
#    y 0.051130 1.854630 -0.005950 
#    z -0.013430 -0.005950 2.007210 
# 
# From -- ./inp_files/37145.got.cif
#   From: 2010.05.17/outbox.ucp.g08.bks.cvg/sg2_19_cif.got.tgz:37145.got - 2010.06.11 11:32:03.
