data_PCOD9075241
_publ_section_title
;
Structure prediction by ZEFSAII (Michael W. Deem and Ramdas Pophale) SiO2 
 PCOD9075241
Probable space group: P -1
;
_chemical_formula_sum "Si O2"
_cell_formula_units_Z 14
_cell_length_a 12.000000
_cell_length_b 9.000000
_cell_length_c 9.000000
_cell_angle_alpha 50.000000
_cell_angle_beta 70.000000
_cell_angle_gamma 70.000000
_cell_volume 689.539475
_symmetry_space_group_name_H-M "P -1"
_symmetry_group_IT_number 2
_symmetry_cell_setting 'triclinic'
loop_
_space_group_symop_operation_xyz
x,y,z
-x,-y,-z
loop_
_atom_site_type_symbol
_atom_site_label
_atom_site_fract_x
_atom_site_fract_y
_atom_site_fract_z
Si Si1 0.189376 0.755860 0.449495
Si Si2 0.760687 0.136796 0.313075
Si Si3 0.120986 0.424409 0.898849
Si Si4 0.611876 0.819954 0.573783
Si Si5 0.642545 0.564769 0.025561
Si Si6 0.023228 0.052594 0.123904
Si Si7 0.430738 0.544806 0.349264
O O1 0.236247 0.850901 0.516492
O O2 0.138459 0.573057 0.663300
O O3 0.306107 0.688993 0.338470
O O4 0.087690 0.886085 0.314050
O O5 0.671763 0.323619 0.161863
O O6 0.894143 0.142560 0.193419
O O7 0.724161 0.929467 0.425739
O O8 0.239042 0.398270 0.964762
O O9 0.000000 0.500000 0.000000
O O10 0.107503 0.215333 0.976588
O O11 0.598709 0.662398 0.557337
O O12 0.500000 0.000000 0.500000
O O13 0.625754 0.691305 0.801924
O O14 0.521943 0.615340 0.145308
O O15 0.000000 0.000000 0.000000
O O16 0.500000 0.500000 0.500000
#
# Coordination Sequence:
#
# PCOD9075241 Si02
#       7
#     2   2   2   2   2   2   2
#     4  11  25  46  69  97 142 180 223 281 334 402
#     4  11  24  46  69  98 136 178 230 277 337 400
#     4  11  23  44  73  97 131 183 226 272 344 395
#     4  12  26  42  71 101 133 180 226 273 343 398
#     4  11  24  45  74  96 136 176 226 278 338 397
#     4  12  28  42  67 105 140 175 230 278 336 404
#     4  12  24  47  69 100 139 175 226 280 335 404
#
# _framework density 20.303405999999999
#
# number of rings (size 3 to 8) (size 9 to 14) (size 15 to 20)
#    0.000    0.571    7.143    1.714    6.000    0.571 
#    0.000    2.143    0.000    0.000    0.000    0.000 
#    0.000    0.000    0.000    0.000    0.000    0.000 
#
# Total GULP energy -78201.486949 kJ/mol
# GULP energy per Si atom -5585.820496 kJ/mol
# Density = 2.025719 g / cm^3
# Si number density = 20.303406 Si / 1000 Ang^3
#
#
#
# Elastic Constant Matrix: (Units=GPa)
#
#
# Indices 1 2 3 4 5 6 
#
# 1 92.3498 47.2505 61.8408 -10.9255 -7.9738 6.1358
# 2 47.2505 80.7161 28.8588 -1.0257 -2.9220 14.6777
# 3 61.8408 28.8588 115.6829 -23.6766 14.6918 20.3809
# 4 -10.9255 -1.0257 -23.6766 10.1755 -10.5257 -9.6169
# 5 -7.9738 -2.9220 14.6918 -10.5257 46.0665 -2.8710
# 6 6.1358 14.6777 20.3809 -9.6169 -2.8710 55.0158
#
#
#
# Elastic Compliance Matrix: (Units=1/GPa)
#
#
# Indices 1 2 3 4 5 6 
#
# 1 0.029146 -0.015239 -0.007865 0.038982 0.016204 0.011388
# 2 -0.015239 0.023656 -0.003309 -0.043856 -0.010826 -0.011617
# 3 -0.007865 -0.003309 0.023143 0.049496 0.002480 0.001968
# 4 0.038982 -0.043856 0.049496 0.394941 0.082306 0.062349
# 5 0.016204 -0.010826 0.002480 0.082306 0.042887 0.016788
# 6 0.011388 -0.011617 0.001968 0.062349 0.016788 0.031051
#
#
# Mechanical properties :
#
#
# Convention : Reuss Voigt Hill
#
# Bulk Modulus (GPa) = 43.25497 62.73879 52.99688
# Shear Modulus (GPa) = 8.25956 32.30480 20.28218
#
# Velocity S-wave (km/s) = 2.01913 3.99319 3.16405
# Velocity P-wave (km/s) = 5.17556 7.22693 6.28549
#
# Compressibility (1/GPa) = 0.02311873
#
# Stress axis : x y z
#
# Youngs Moduli (GPa) = 34.30958 42.27209 43.20963
#
# Poissons Ratio (x) = 0.64418 0.33985
# Poissons Ratio (y) = 0.52284 0.14300
# Poissons Ratio (z) = 0.26985 0.13989
#
# Static dielectric constant tensor:
#      x y z
#    x 1.860610 0.074820 0.047190 
#    y 0.074820 1.754390 0.016840 
#    z 0.047190 0.016840 1.733190 
# 
# From -- ./inp_files/175738.got.cif
#   From: 2010.05.17/outbox.ucp.g08.bks.cvg/sg2_88_cif.got.tgz:175738.got - 2010.06.11 11:32:03.
