data_PCOD9075335
_publ_section_title
;
Structure prediction by ZEFSAII (Michael W. Deem and Ramdas Pophale) SiO2 
 PCOD9075335
Probable space group: P -1
;
_chemical_formula_sum "Si O2"
_cell_formula_units_Z 16
_cell_length_a 12.865520
_cell_length_b 12.128779
_cell_length_c 9.339442
_cell_angle_alpha 128.956601
_cell_angle_beta 42.749411
_cell_angle_gamma 114.494248
_cell_volume 766.189442
_symmetry_space_group_name_H-M "P -1"
_symmetry_group_IT_number 2
_symmetry_cell_setting 'triclinic'
loop_
_space_group_symop_operation_xyz
x,y,z
-x,-y,-z
loop_
_atom_site_type_symbol
_atom_site_label
_atom_site_fract_x
_atom_site_fract_y
_atom_site_fract_z
Si Si1 0.594610 0.810867 0.039431
Si Si2 0.433561 0.779240 0.455137
Si Si3 0.096202 0.792390 0.310085
Si Si4 0.251252 0.908373 0.502875
Si Si5 0.731904 0.489999 0.177417
Si Si6 0.329466 0.182766 0.527319
Si Si7 0.403609 0.480023 0.353792
Si Si8 0.236251 0.049109 0.239208
O O1 0.416836 0.859109 0.221766
O O2 0.576356 0.798864 0.218524
O O3 0.638329 0.658392 0.800286
O O4 0.702241 0.921501 0.955833
O O5 0.290393 0.867426 0.594072
O O6 0.504164 0.816872 0.565903
O O7 0.400670 0.615581 0.363798
O O8 0.130618 0.826290 0.469502
O O9 0.924761 0.854894 0.500672
O O10 0.204172 0.890459 0.187666
O O11 0.135724 0.627859 0.100152
O O12 0.228960 0.074842 0.625963
O O13 0.745191 0.655692 0.265352
O O14 0.576039 0.453789 0.223241
O O15 0.702077 0.483180 0.371653
O O16 0.345842 0.119474 0.299696
#
# Coordination Sequence:
#
# PCOD9075335 Si02
#       8
#     2   2   2   2   2   2   2   2
#     4  10  19  34  55  87 105 148 183 228 273 323
#     4   9  20  32  58  81 119 141 180 226 286 322
#     4  10  21  39  56  81 111 155 182 227 277 329
#     4   9  20  34  59  81 112 145 184 223 280 324
#     4  10  19  32  57  83 112 143 181 235 279 316
#     4  10  19  35  54  86 111 141 184 233 271 327
#     4  10  18  32  53  87 116 139 180 233 279 326
#     4  10  22  37  59  79 115 145 192 226 270 328
#
# _framework density 20.882565
#
# number of rings (size 3 to 8) (size 9 to 14) (size 15 to 20)
#    0.750    1.500    2.500    0.750    0.000    5.500 
#    0.000    0.000    2.750    6.000    0.000    0.000 
#    0.000    0.000    0.000    0.000    0.000    0.000 
#
# Total GULP energy -89214.617901 kJ/mol
# GULP energy per Si atom -5575.913619 kJ/mol
# Density = 2.083504 g / cm^3
# Si number density = 20.882565 Si / 1000 Ang^3
#
#
#
# Elastic Constant Matrix: (Units=GPa)
#
#
# Indices 1 2 3 4 5 6 
#
# 1 43.0929 19.1943 15.3744 -4.5940 8.6540 -12.2479
# 2 19.1943 100.7997 33.3037 15.0050 3.4107 -22.2822
# 3 15.3744 33.3037 56.2020 26.4389 3.8502 -4.7181
# 4 -4.5940 15.0050 26.4389 28.5547 -0.9207 0.4668
# 5 8.6540 3.4107 3.8502 -0.9207 13.6728 5.6174
# 6 -12.2479 -22.2822 -4.7181 0.4668 5.6174 22.6742
#
#
#
# Elastic Compliance Matrix: (Units=1/GPa)
#
#
# Indices 1 2 3 4 5 6 
#
# 1 0.049490 0.002775 -0.021082 0.024226 -0.038459 0.034102
# 2 0.002775 0.016880 -0.007026 -0.002636 -0.012267 0.019719
# 3 -0.021082 -0.007026 0.047216 -0.043213 0.002230 -0.008130
# 4 0.024226 -0.002636 -0.043213 0.080437 0.003308 -0.000972
# 5 -0.038459 -0.012267 0.002230 0.003308 0.126317 -0.063728
# 6 0.034102 0.019719 -0.008130 -0.000972 -0.063728 0.096018
#
#
# Mechanical properties :
#
#
# Convention : Reuss Voigt Hill
#
# Bulk Modulus (GPa) = 15.89289 37.31550 26.60419
# Shear Modulus (GPa) = 10.24596 21.79514 16.02055
#
# Velocity S-wave (km/s) = 2.21746 3.23414 2.77279
# Velocity P-wave (km/s) = 3.76607 5.64395 4.79779
#
# Compressibility (1/GPa) = 0.06292124
#
# Stress axis : x y z
#
# Youngs Moduli (GPa) = 20.20622 59.24203 21.17908
#
# Poissons Ratio (x) = -0.16439 0.44649
# Poissons Ratio (y) = -0.05607 0.14880
# Poissons Ratio (z) = 0.42598 0.41621
#
# Static dielectric constant tensor:
#      x y z
#    x 1.767660 -0.018970 0.019460 
#    y -0.018970 1.779460 0.011370 
#    z 0.019460 0.011370 1.732680 
# 
# From -- ./inp_files/263338.got.cif
#   From: 2010.05.17/outbox.cif.g08.bks.cpg/sg2_132_cif.got.tgz:263338.got - 2010.06.03 11:33:40.
