data_PCOD9075575
_publ_section_title
;
Structure prediction by ZEFSAII (Michael W. Deem and Ramdas Pophale) SiO2 
 PCOD9075575
Probable space group: P -1
;
_chemical_formula_sum "Si O2"
_cell_formula_units_Z 16
_cell_length_a 12.000000
_cell_length_b 18.000000
_cell_length_c 21.000000
_cell_angle_alpha 30.000000
_cell_angle_beta 40.000000
_cell_angle_gamma 20.000000
_cell_volume 744.844803
_symmetry_space_group_name_H-M "P -1"
_symmetry_group_IT_number 2
_symmetry_cell_setting 'triclinic'
loop_
_space_group_symop_operation_xyz
x,y,z
-x,-y,-z
loop_
_atom_site_type_symbol
_atom_site_label
_atom_site_fract_x
_atom_site_fract_y
_atom_site_fract_z
Si Si1 0.579647 0.135828 0.178508
Si Si2 0.701065 0.075764 0.403652
Si Si3 0.202507 0.876284 0.135476
Si Si4 0.749843 0.096077 0.750671
Si Si5 0.796519 0.507185 0.052833
Si Si6 0.170861 0.553034 0.171835
Si Si7 0.627677 0.753017 0.445558
Si Si8 0.801979 0.544759 0.379522
O O1 0.354585 0.363018 0.167527
O O2 0.518112 0.004789 0.298672
O O3 0.454827 0.280162 0.055895
O O4 0.962512 0.909497 0.198949
O O5 0.422367 0.348626 0.273977
O O6 0.584027 0.158912 0.467256
O O7 0.016023 0.949682 0.347207
O O8 0.845690 0.808271 0.515895
O O9 0.260190 0.866999 0.194280
O O10 0.557218 0.616517 0.133357
O O11 0.978285 0.176468 0.981009
O O12 0.414286 0.352497 0.663054
O O13 0.930274 0.808210 0.864004
O O14 0.000000 0.500000 0.000000
O O15 0.871660 0.663718 0.241813
O O16 0.653609 0.655818 0.435500
O O17 0.000000 0.500000 0.500000
#
# Coordination Sequence:
#
# PCOD9075575 Si02
#       8
#     2   2   2   2   2   2   2   2
#     4  12  24  46  72 105 142 186 240 292 351 418
#     4  12  26  47  72 106 140 189 239 293 350 421
#     4  12  27  46  75 105 145 187 234 298 350 418
#     4  12  28  47  72 105 146 188 237 289 357 419
#     4  12  28  46  71 108 145 187 234 289 359 426
#     4  12  22  45  75 102 141 181 241 290 349 420
#     4  12  26  43  74 104 141 184 237 293 350 413
#     4  12  27  47  71 106 142 188 237 292 355 423
#
# _framework density 21.480985
#
# number of rings (size 3 to 8) (size 9 to 14) (size 15 to 20)
#    0.000    0.000    5.000    5.250    3.500    2.500 
#    0.000    0.000    0.000    0.000    0.000    0.000 
#    0.000    0.000    0.000    0.000    0.000    0.000 
#
# Total GULP energy -89380.653266 kJ/mol
# GULP energy per Si atom -5586.290829 kJ/mol
# Density = 2.143209 g / cm^3
# Si number density = 21.480985 Si / 1000 Ang^3
#
#
#
# Elastic Constant Matrix: (Units=GPa)
#
#
# Indices 1 2 3 4 5 6 
#
# 1 139.7499 36.8425 22.9779 12.7581 40.6441 7.4413
# 2 36.8425 97.9625 10.9357 26.8591 26.9142 18.0782
# 3 22.9779 10.9357 76.7246 10.1415 23.5680 1.4534
# 4 12.7581 26.8591 10.1415 41.5305 6.0375 9.8334
# 5 40.6441 26.9142 23.5680 6.0375 44.2539 6.3238
# 6 7.4413 18.0782 1.4534 9.8334 6.3238 54.9438
#
#
#
# Elastic Compliance Matrix: (Units=1/GPa)
#
#
# Indices 1 2 3 4 5 6 
#
# 1 0.009983 -0.001212 -0.000147 -0.001096 -0.008232 0.000194
# 2 -0.001212 0.015284 0.001643 -0.008205 -0.007571 -0.002568
# 3 -0.000147 0.001643 0.016109 -0.003822 -0.009033 0.000777
# 4 -0.001096 -0.008205 -0.003822 0.030756 0.004272 -0.003047
# 5 -0.008232 -0.007571 -0.009033 0.004272 0.039194 -0.001431
# 6 0.000194 -0.002568 0.000777 -0.003047 -0.001431 0.019709
#
#
# Mechanical properties :
#
#
# Convention : Reuss Voigt Hill
#
# Bulk Modulus (GPa) = 23.84123 50.66102 37.25113
# Shear Modulus (GPa) = 34.61496 44.39103 39.50299
#
# Velocity S-wave (km/s) = 4.01861 4.55084 4.29298
# Velocity P-wave (km/s) = 5.71447 7.15883 6.47704
#
# Compressibility (1/GPa) = 0.04194414
#
# Stress axis : x y z
#
# Youngs Moduli (GPa) = 100.16940 65.42820 62.07871
#
# Poissons Ratio (x) = 0.07928 0.00914
# Poissons Ratio (y) = 0.12138 -0.10202
# Poissons Ratio (z) = 0.01475 -0.10752
#
# Static dielectric constant tensor:
#      x y z
#    x 1.809770 -0.029120 -0.044760 
#    y -0.029120 1.827370 -0.047490 
#    z -0.044760 -0.047490 1.869270 
# 
# From -- ./inp_files/472536.got.cif
#   From: 2010.05.17/outbox.ucp.g08.bks.cvg/sg2_237_cif.got.tgz:472536.got - 2010.06.11 11:32:03.
