data_PCOD9075325
_publ_section_title
;
Structure prediction by ZEFSAII (Michael W. Deem and Ramdas Pophale) SiO2 
 PCOD9075325
Probable space group: P -1
;
_chemical_formula_sum "Si O2"
_cell_formula_units_Z 14
_cell_length_a 9.661736
_cell_length_b 9.834518
_cell_length_c 8.147671
_cell_angle_alpha 120.904095
_cell_angle_beta 117.812104
_cell_angle_gamma 55.733965
_cell_volume 531.516043
_symmetry_space_group_name_H-M "P -1"
_symmetry_group_IT_number 2
_symmetry_cell_setting 'triclinic'
loop_
_space_group_symop_operation_xyz
x,y,z
-x,-y,-z
loop_
_atom_site_type_symbol
_atom_site_label
_atom_site_fract_x
_atom_site_fract_y
_atom_site_fract_z
Si Si1 0.875357 0.074741 0.314530
Si Si2 0.128957 0.295692 0.253732
Si Si3 0.513299 0.702828 0.101132
Si Si4 0.185840 0.349172 0.967906
Si Si5 0.778095 0.443506 0.316626
Si Si6 0.327003 0.034061 0.660315
Si Si7 0.197503 0.928388 0.214300
O O1 0.822869 0.272862 0.349748
O O2 0.696591 0.061885 0.249247
O O3 0.000000 0.000000 0.500000
O O4 0.007769 0.947897 0.172074
O O5 0.198284 0.415670 0.465076
O O6 0.921219 0.399203 0.222990
O O7 0.168780 0.118119 0.258109
O O8 0.220196 0.254297 0.103206
O O9 0.644338 0.623791 0.971734
O O10 0.594481 0.560750 0.202275
O O11 0.306681 0.780551 0.053537
O O12 0.534361 0.888373 0.248094
O O13 0.170656 0.227737 0.736205
O O14 0.000000 0.500000 0.000000
O O15 0.307567 0.915411 0.432318
#
# Coordination Sequence:
#
# PCOD9075325 Si02
#       7
#     2   2   2   2   2   2   2
#     4   9  20  35  55  82 110 141 181 221 274 318
#     4  10  18  32  53  86 104 142 184 223 260 324
#     4  10  20  35  60  83 108 139 187 229 265 309
#     4  10  20  31  55  83 111 136 183 229 264 311
#     4  10  19  32  58  80 107 143 187 218 262 327
#     4   9  19  36  55  81 109 144 174 224 273 320
#     4  10  19  35  59  83 109 140 184 227 268 318
#
# _framework density 26.339751
#
# number of rings (size 3 to 8) (size 9 to 14) (size 15 to 20)
#    0.857    1.429    2.857    0.429    8.000    0.571 
#    0.000    5.714    0.000    0.857    0.000    0.000 
#    0.000    0.000    0.000    0.000    0.000    0.000 
#
# Total GULP energy -78021.412508 kJ/mol
# GULP energy per Si atom -5572.958036 kJ/mol
# Density = 2.627980 g / cm^3
# Si number density = 26.339751 Si / 1000 Ang^3
#
#
#
# Elastic Constant Matrix: (Units=GPa)
#
#
# Indices 1 2 3 4 5 6 
#
# 1 122.1254 54.4407 46.9954 -2.6727 -30.8962 2.7467
# 2 54.4407 111.3472 28.6079 -5.2145 -15.0404 6.6172
# 3 46.9954 28.6079 89.9524 5.3053 -15.7870 2.1370
# 4 -2.6727 -5.2145 5.3053 30.5383 1.0199 -10.0274
# 5 -30.8962 -15.0404 -15.7870 1.0199 47.7055 -3.0681
# 6 2.7467 6.6172 2.1370 -10.0274 -3.0681 46.1421
#
#
#
# Elastic Compliance Matrix: (Units=1/GPa)
#
#
# Indices 1 2 3 4 5 6 
#
# 1 0.013513 -0.004612 -0.004671 0.001254 0.005772 0.000730
# 2 -0.004612 0.011738 -0.001359 0.001500 0.000167 -0.001009
# 3 -0.004671 -0.001359 0.014452 -0.003480 0.001348 -0.000863
# 4 0.001254 0.001500 -0.003480 0.036263 -0.000144 0.007742
# 5 0.005772 0.000167 0.001348 -0.000144 0.025280 0.001220
# 6 0.000730 -0.001009 -0.000863 0.007742 0.001220 0.023577
#
#
# Mechanical properties :
#
#
# Convention : Reuss Voigt Hill
#
# Bulk Modulus (GPa) = 54.29223 64.83476 59.56349
# Shear Modulus (GPa) = 32.84156 37.76926 35.30541
#
# Velocity S-wave (km/s) = 3.53490 3.79083 3.66510
# Velocity P-wave (km/s) = 6.10882 6.62033 6.36971
#
# Compressibility (1/GPa) = 0.01841884
#
# Stress axis : x y z
#
# Youngs Moduli (GPa) = 74.00327 85.19664 69.19481
#
# Poissons Ratio (x) = 0.39290 0.32324
# Poissons Ratio (y) = 0.34128 0.09402
# Poissons Ratio (z) = 0.34570 0.11576
#
# Static dielectric constant tensor:
#      x y z
#    x 2.171530 0.031740 0.076220 
#    y 0.031740 2.123300 -0.061230 
#    z 0.076220 -0.061230 2.191850 
# 
# From -- ./inp_files/239736.got.cif
#   From: 2010.05.17/outbox.cif.g08.bks.cpg/sg2_120_cif.got.tgz:239736.got - 2010.06.03 11:33:40.
