data_PCOD9075274
_publ_section_title
;
Structure prediction by ZEFSAII (Michael W. Deem and Ramdas Pophale) SiO2 
 PCOD9075274
Probable space group: P -1
;
_chemical_formula_sum "Si O2"
_cell_formula_units_Z 14
_cell_length_a 15.000000
_cell_length_b 12.000000
_cell_length_c 9.000000
_cell_angle_alpha 50.000000
_cell_angle_beta 60.000000
_cell_angle_gamma 30.000000
_cell_volume 613.666794
_symmetry_space_group_name_H-M "P -1"
_symmetry_group_IT_number 2
_symmetry_cell_setting 'triclinic'
loop_
_space_group_symop_operation_xyz
x,y,z
-x,-y,-z
loop_
_atom_site_type_symbol
_atom_site_label
_atom_site_fract_x
_atom_site_fract_y
_atom_site_fract_z
Si Si1 0.395950 0.420307 0.380157
Si Si2 0.192773 0.697883 0.591379
Si Si3 0.411093 0.511595 0.861135
Si Si4 0.066058 0.519153 0.790256
Si Si5 0.157283 0.596810 0.162092
Si Si6 0.723212 0.861772 0.599293
Si Si7 0.238175 0.075656 0.823547
O O1 0.283199 0.632353 0.416731
O O2 0.528450 0.393925 0.230274
O O3 0.250030 0.510206 0.320030
O O4 0.530979 0.143083 0.571828
O O5 0.336246 0.579979 0.697729
O O6 0.153922 0.568450 0.728273
O O7 0.000000 0.000000 0.500000
O O8 0.236571 0.649000 0.974320
O O9 0.586102 0.210840 0.014644
O O10 0.189730 0.267173 0.806623
O O11 0.887600 0.752118 0.638414
O O12 0.000000 0.500000 0.000000
O O13 0.244456 0.348379 0.233234
O O14 0.942894 0.815815 0.137232
O O15 0.727758 0.895493 0.391911
#
# Coordination Sequence:
#
# PCOD9075274 Si02
#       7
#     2   2   2   2   2   2   2
#     4  12  26  45  72 100 141 185 235 283 352 417
#     4  12  28  48  70  98 144 191 230 283 356 414
#     4  12  28  45  69 107 142 180 237 288 342 414
#     4  11  25  45  74 103 138 187 234 284 347 411
#     4  11  24  46  74 104 140 180 232 287 351 408
#     4  11  23  46  72 106 139 180 235 289 348 415
#     4  11  25  45  75 104 145 174 236 293 345 413
#
# _framework density 22.813683000000001
#
# number of rings (size 3 to 8) (size 9 to 14) (size 15 to 20)
#    0.000    0.571    1.429    7.286    8.000    1.143 
#    0.000    0.000    0.000    0.000    0.000    0.000 
#    0.000    0.000    0.000    0.000    0.000    0.000 
#
# Total GULP energy -78356.969883 kJ/mol
# GULP energy per Si atom -5596.926420 kJ/mol
# Density = 2.276176 g / cm^3
# Si number density = 22.813683 Si / 1000 Ang^3
#
#
#
# Elastic Constant Matrix: (Units=GPa)
#
#
# Indices 1 2 3 4 5 6 
#
# 1 150.8096 25.5345 20.4814 -15.3210 1.0707 -16.2941
# 2 25.5345 90.8445 10.7834 -5.2814 9.7556 0.2086
# 3 20.4814 10.7834 52.6555 -5.9533 -1.6981 0.1585
# 4 -15.3210 -5.2814 -5.9533 28.3870 -17.4025 3.5217
# 5 1.0707 9.7556 -1.6981 -17.4025 45.9743 2.8564
# 6 -16.2941 0.2086 0.1585 3.5217 2.8564 36.6310
#
#
#
# Elastic Compliance Matrix: (Units=1/GPa)
#
#
# Indices 1 2 3 4 5 6 
#
# 1 0.007985 -0.001912 -0.002224 0.004002 0.001462 0.003074
# 2 -0.001912 0.012031 -0.001911 -0.000882 -0.002876 -0.000602
# 3 -0.002224 -0.001911 0.020930 0.005054 0.003256 -0.001809
# 4 0.004002 -0.000882 0.005054 0.051067 0.019903 -0.004698
# 5 0.001462 -0.002876 0.003256 0.019903 0.030206 -0.003616
# 6 0.003074 -0.000602 -0.001809 -0.004698 -0.003616 0.029411
#
#
# Mechanical properties :
#
#
# Convention : Reuss Voigt Hill
#
# Bulk Modulus (GPa) = 34.65957 45.32314 39.99136
# Shear Modulus (GPa) = 28.84485 38.03249 33.43867
#
# Velocity S-wave (km/s) = 3.55965 4.08743 3.83264
# Velocity P-wave (km/s) = 5.66747 6.49507 6.09533
#
# Compressibility (1/GPa) = 0.02885206
#
# Stress axis : x y z
#
# Youngs Moduli (GPa) = 125.23630 83.11943 47.77920
#
# Poissons Ratio (x) = 0.15890 0.10626
# Poissons Ratio (y) = 0.23942 0.09130
# Poissons Ratio (z) = 0.27853 0.15883
#
# Static dielectric constant tensor:
#      x y z
#    x 1.823200 0.011540 0.014190 
#    y 0.011540 1.877210 0.062560 
#    z 0.014190 0.062560 1.916710 
# 
# From -- ./inp_files/188612.got.cif
#   From: 2010.05.17/outbox.ucp.g08.bks.cvg/sg2_95_cif.got.tgz:188612.got - 2010.06.11 11:32:03.
