data_PCOD9075839
_publ_section_title
;
Structure prediction by ZEFSAII (Michael W. Deem and Ramdas Pophale) SiO2 
 PCOD9075839
Probable space group: P -1
;
_chemical_formula_sum "Si O2"
_cell_formula_units_Z 14
_cell_length_a 19.308772
_cell_length_b 9.269380
_cell_length_c 16.711127
_cell_angle_alpha 156.200304
_cell_angle_beta 146.659641
_cell_angle_gamma 51.539142
_cell_volume 508.585367
_symmetry_space_group_name_H-M "P -1"
_symmetry_group_IT_number 2
_symmetry_cell_setting 'triclinic'
loop_
_space_group_symop_operation_xyz
x,y,z
-x,-y,-z
loop_
_atom_site_type_symbol
_atom_site_label
_atom_site_fract_x
_atom_site_fract_y
_atom_site_fract_z
Si Si1 0.417518 0.390614 0.128404
Si Si2 0.072876 0.607099 0.938105
Si Si3 0.444669 0.813245 0.118009
Si Si4 0.765141 0.679301 0.951265
Si Si5 0.941399 0.752245 0.019599
Si Si6 0.599161 0.264382 0.347180
Si Si7 0.218862 0.502018 0.885465
O O1 0.263799 0.096484 0.892312
O O2 0.573460 0.578102 0.430747
O O3 0.375235 0.647910 0.161681
O O4 0.413088 0.068219 0.897137
O O5 0.122659 0.645124 0.912605
O O6 0.049248 0.920532 0.127636
O O7 0.209351 0.640831 0.136871
O O8 0.911308 0.066188 0.520811
O O9 0.592714 0.294479 0.546824
O O10 0.444847 0.959641 0.103339
O O11 0.500000 0.500000 0.000000
O O12 0.283639 0.604147 0.908381
O O13 0.909973 0.971411 0.174319
O O14 0.761620 0.474979 0.662499
O O15 0.000000 0.500000 0.000000
#
# Coordination Sequence:
#
# PCOD9075839 Si02
#       7
#     2   2   2   2   2   2   2
#     4  10  19  34  53  87 108 147 182 227 279 329
#     4   9  17  31  52  79 106 143 184 223 267 325
#     4  11  20  35  52  83 115 144 179 232 284 315
#     4   9  20  32  57  82 111 139 188 232 271 324
#     4   9  16  31  49  78 104 138 179 226 260 313
#     4  10  20  34  56  80 116 144 180 231 280 329
#     4  10  18  32  56  81 110 140 181 229 273 327
#
# _framework density 27.527339000000001
#
# number of rings (size 3 to 8) (size 9 to 14) (size 15 to 20)
#    0.000    2.286    2.857    0.857    0.000    4.571 
#    0.000    0.000    0.000    7.714    0.000   44.000 
#    0.000    0.000    0.000    0.000    0.000    0.000 
#
# Total GULP energy -77970.403941 kJ/mol
# GULP energy per Si atom -5569.314567 kJ/mol
# Density = 2.746469 g / cm^3
# Si number density = 27.527339 Si / 1000 Ang^3
#
#
#
# Elastic Constant Matrix: (Units=GPa)
#
#
# Indices 1 2 3 4 5 6 
#
# 1 211.3756 29.4495 80.8947 14.6536 60.2895 137.1115
# 2 29.4495 137.2138 30.2858 -10.7556 17.3330 32.2124
# 3 80.8947 30.2858 54.4928 -9.9455 6.3939 -27.9933
# 4 14.6536 -10.7556 -9.9455 34.2454 3.5885 -7.3685
# 5 60.2895 17.3330 6.3939 3.5885 20.5245 -45.7318
# 6 137.1115 32.2124 -27.9933 -7.3685 -45.7318 -106.5348
#
#
#
# Elastic Compliance Matrix: (Units=1/GPa)
#
#
# Indices 1 2 3 4 5 6 
#
# 1 0.003126 -0.001338 -0.002458 -0.001810 0.001437 0.003773
# 2 -0.001338 0.007915 -0.001271 0.002972 -0.000560 0.001041
# 3 -0.002458 -0.001271 0.022772 0.007369 -0.011481 -0.005112
# 4 -0.001810 0.002972 0.007369 0.033644 -0.009230 -0.001732
# 5 0.001437 -0.000560 -0.011481 -0.009230 0.031716 -0.008280
# 6 0.003773 0.001041 -0.005112 -0.001732 -0.008280 0.000802
#
#
# Mechanical properties :
#
#
# Convention : Reuss Voigt Hill
#
# Bulk Modulus (GPa) = 42.22876 76.03802 59.13339
# Shear Modulus (GPa) = 42.37288 7.14383 24.75836
#
# Velocity S-wave (km/s) = 3.92765 1.61270 3.00227
# Velocity P-wave (km/s) = 5.99521 5.58126 5.79193
#
# Compressibility (1/GPa) = 0.02368054
#
# Stress axis : x y z
#
# Youngs Moduli (GPa) = 319.88752 126.34431 43.91428
#
# Poissons Ratio (x) = 0.16900 0.10794
# Poissons Ratio (y) = 0.42788 0.05580
# Poissons Ratio (z) = 0.78624 0.16053
#
# Static dielectric constant tensor:
#      x y z
#    x 2.190720 -0.003780 -0.021220 
#    y -0.003780 2.185110 0.018680 
#    z -0.021220 0.018680 2.262510 
# 
# From -- ./inp_files/537235.got.cif
#   From: 2010.05.17/outbox.cif.g08.bks.cpg/sg2_269_cif.got.tgz:537235.got - 2010.06.03 11:33:40.
