data_PCOD9075851
_publ_section_title
;
Structure prediction by ZEFSAII (Michael W. Deem and Ramdas Pophale) SiO2 
 PCOD9075851
Probable space group: P -1
;
_chemical_formula_sum "Si O2"
_cell_formula_units_Z 16
_cell_length_a 19.590631
_cell_length_b 22.187830
_cell_length_c 9.573680
_cell_angle_alpha 27.954972
_cell_angle_beta 39.785892
_cell_angle_gamma 27.401808
_cell_volume 895.403491
_symmetry_space_group_name_H-M "P -1"
_symmetry_group_IT_number 2
_symmetry_cell_setting 'triclinic'
loop_
_space_group_symop_operation_xyz
x,y,z
-x,-y,-z
loop_
_atom_site_type_symbol
_atom_site_label
_atom_site_fract_x
_atom_site_fract_y
_atom_site_fract_z
Si Si1 0.169936 0.519537 0.106025
Si Si2 0.868170 0.194071 0.242577
Si Si3 0.349325 0.025345 0.519155
Si Si4 0.677784 0.112726 0.734916
Si Si5 0.586218 0.743476 0.956060
Si Si6 0.647879 0.955373 0.836577
Si Si7 0.109025 0.400145 0.691132
Si Si8 0.084991 0.185237 0.793923
O O1 0.270045 0.433883 0.985737
O O2 0.204385 0.376117 0.458713
O O3 0.999515 0.626616 0.120343
O O4 0.177189 0.649438 0.906489
O O5 0.734680 0.206354 0.411453
O O6 0.000000 0.000000 0.500000
O O7 0.952566 0.192057 0.985326
O O8 0.364158 0.166758 0.229023
O O9 0.364621 0.973325 0.441842
O O10 0.191389 0.108823 0.651791
O O11 0.477019 0.865508 0.747576
O O12 0.668559 0.033992 0.772489
O O13 0.519189 0.244737 0.794493
O O14 0.800072 0.947946 0.987695
O O15 0.782899 0.740146 0.072592
O O16 0.500000 0.000000 0.000000
O O17 0.998118 0.609537 0.473753
#
# Coordination Sequence:
#
# PCOD9075851 Si02
#       8
#     2   2   2   2   2   2   2   2
#     4  10  18  32  56  83 103 138 177 221 259 306
#     4   9  18  33  55  79 104 138 180 218 256 307
#     4  10  20  33  53  81 110 138 173 213 273 312
#     4  10  20  35  54  78 108 141 179 211 260 316
#     4  10  19  34  55  78 108 139 173 220 260 316
#     4  12  22  33  51  80 109 142 171 219 269 313
#     4  10  19  30  53  80 109 131 176 220 265 310
#     4   9  18  36  57  79 103 138 178 221 257 308
#
# _framework density 17.869039999999998
#
# number of rings (size 3 to 8) (size 9 to 14) (size 15 to 20)
#    0.000    2.000    2.500    3.750    1.750    1.000 
#    0.000    0.625    0.000    6.750    0.000    0.000 
#    0.000    0.000    0.000    0.000    0.000    0.000 
#
# Total GULP energy -89111.014640 kJ/mol
# GULP energy per Si atom -5569.438415 kJ/mol
# Density = 1.782837 g / cm^3
# Si number density = 17.869040 Si / 1000 Ang^3
#
#
#
# Elastic Constant Matrix: (Units=GPa)
#
#
# Indices 1 2 3 4 5 6 
#
# 1 76.0806 30.6634 45.8905 17.9909 -9.7256 5.0612
# 2 30.6634 98.4712 36.9154 34.8958 -14.8462 6.6887
# 3 45.8905 36.9154 62.5666 27.9032 -24.5347 -1.7600
# 4 17.9909 34.8958 27.9032 37.1559 -2.9734 3.5914
# 5 -9.7256 -14.8462 -24.5347 -2.9734 29.6690 6.0602
# 6 5.0612 6.6887 -1.7600 3.5914 6.0602 19.5885
#
#
#
# Elastic Compliance Matrix: (Units=1/GPa)
#
#
# Indices 1 2 3 4 5 6 
#
# 1 0.028294 -0.003444 -0.029573 0.011199 -0.014481 -0.006365
# 2 -0.003444 0.017450 0.002594 -0.015466 0.009187 -0.004842
# 3 -0.029573 0.002594 0.071446 -0.038724 0.045542 0.006185
# 4 0.011199 -0.015466 -0.038724 0.063132 -0.029010 -0.003692
# 5 -0.014481 0.009187 0.045542 -0.029010 0.070733 -0.011868
# 6 -0.006365 -0.004842 0.006185 -0.003692 -0.011868 0.059252
#
#
# Mechanical properties :
#
#
# Convention : Reuss Voigt Hill
#
# Bulk Modulus (GPa) = 17.74816 51.56189 34.65503
# Shear Modulus (GPa) = 12.82270 25.52596 19.17433
#
# Velocity S-wave (km/s) = 2.68170 3.78365 3.27929
# Velocity P-wave (km/s) = 4.42070 6.92864 5.81157
#
# Compressibility (1/GPa) = 0.05634386
#
# Stress axis : x y z
#
# Youngs Moduli (GPa) = 35.34362 57.30677 13.99663
#
# Poissons Ratio (x) = 0.19736 0.41392
# Poissons Ratio (y) = 0.12172 -0.03631
# Poissons Ratio (z) = 1.04521 -0.14865
#
# Static dielectric constant tensor:
#      x y z
#    x 1.607330 -0.002170 0.002300 
#    y -0.002170 1.638050 0.014930 
#    z 0.002300 0.014930 1.633820 
# 
# From -- ./inp_files/327648.got.cif
#   From: 2010.05.17/outbox.cif.g08.bks.cpg/sg2_164_cif.got.tgz:327648.got - 2010.06.03 11:33:40.
