data_PCOD9075846
_publ_section_title
;
Structure prediction by ZEFSAII (Michael W. Deem and Ramdas Pophale) SiO2 
 PCOD9075846
Probable space group: P -1
;
_chemical_formula_sum "Si O2"
_cell_formula_units_Z 16
_cell_length_a 7.929251
_cell_length_b 11.477142
_cell_length_c 7.913900
_cell_angle_alpha 91.852587
_cell_angle_beta 69.513821
_cell_angle_gamma 121.979231
_cell_volume 561.558803
_symmetry_space_group_name_H-M "P -1"
_symmetry_group_IT_number 2
_symmetry_cell_setting 'triclinic'
loop_
_space_group_symop_operation_xyz
x,y,z
-x,-y,-z
loop_
_atom_site_type_symbol
_atom_site_label
_atom_site_fract_x
_atom_site_fract_y
_atom_site_fract_z
Si Si1 0.413072 0.575303 0.150031
Si Si2 0.148232 0.887367 0.596631
Si Si3 0.293381 0.708229 0.430904
Si Si4 0.976542 0.034292 0.817261
Si Si5 0.101379 0.764268 0.959983
Si Si6 0.481925 0.219781 0.172402
Si Si7 0.740801 0.666694 0.554841
Si Si8 0.093557 0.450333 0.721372
O O1 0.479910 0.693752 0.282013
O O2 0.261252 0.440563 0.313901
O O3 0.500000 0.500000 0.000000
O O4 0.402014 0.664692 0.008373
O O5 0.326498 0.856105 0.473008
O O6 0.161532 0.028460 0.647764
O O7 0.968449 0.813357 0.510670
O O8 0.041790 0.795188 0.801104
O O9 0.187203 0.606063 0.627002
O O10 0.111422 0.639190 0.340264
O O11 0.748062 0.909342 0.816006
O O12 0.947702 0.160138 0.873014
O O13 0.000000 0.000000 0.000000
O O14 0.973523 0.605991 0.066947
O O15 0.354719 0.826613 0.855607
O O16 0.431184 0.297055 0.337114
O O17 0.734240 0.589883 0.384223
#
# Coordination Sequence:
#
# PCOD9075846 Si02
#       8
#     2   2   2   2   2   2   2   2
#     4   9  16  29  56  82 106 142 182 210 261 327
#     4   9  19  33  54  76 110 148 177 214 273 318
#     4   9  16  32  51  79 114 142 176 213 268 327
#     4   9  20  38  55  74 106 145 185 225 270 322
#     4  11  20  32  56  84 107 136 190 231 262 305
#     4  10  18  32  56  82 101 140 182 229 267 314
#     4   8  17  34  53  76 113 146 172 206 271 333
#     4   9  17  30  54  80 107 142 180 216 259 326
#
# _framework density 28.492117
#
# number of rings (size 3 to 8) (size 9 to 14) (size 15 to 20)
#    0.000    2.750    1.250    1.125    0.000    0.500 
#    0.000    5.625   11.000    3.750    0.000    0.000 
#    0.000    0.000    0.000    0.000    0.000    0.000 
#
# Total GULP energy -89179.868241 kJ/mol
# GULP energy per Si atom -5573.741765 kJ/mol
# Density = 2.842727 g / cm^3
# Si number density = 28.492117 Si / 1000 Ang^3
#
#
#
# Elastic Constant Matrix: (Units=GPa)
#
#
# Indices 1 2 3 4 5 6 
#
# 1 94.1852 52.4413 23.8373 8.2097 -10.7110 -17.2748
# 2 52.4413 191.5887 47.3099 52.3817 -16.0275 -29.6406
# 3 23.8373 47.3099 124.4300 8.7878 -11.0575 -19.9123
# 4 8.2097 52.3817 8.7878 66.6252 -27.9026 -8.6067
# 5 -10.7110 -16.0275 -11.0575 -27.9026 40.1673 19.1106
# 6 -17.2748 -29.6406 -19.9123 -8.6067 19.1106 46.1260
#
#
#
# Elastic Compliance Matrix: (Units=1/GPa)
#
#
# Indices 1 2 3 4 5 6 
#
# 1 0.013280 -0.003746 -0.000813 0.002930 0.003169 0.001449
# 2 -0.003746 0.009252 -0.002001 -0.008419 -0.005865 0.004538
# 3 -0.000813 -0.002001 0.009322 0.001338 0.001499 0.002063
# 4 0.002930 -0.008419 0.001338 0.029149 0.021458 -0.007186
# 5 0.003169 -0.005865 0.001499 0.021458 0.047000 -0.017404
# 6 0.001449 0.004538 0.002063 -0.007186 -0.017404 0.031899
#
#
# Mechanical properties :
#
#
# Convention : Reuss Voigt Hill
#
# Bulk Modulus (GPa) = 53.37865 73.04233 63.21049
# Shear Modulus (GPa) = 31.39420 49.69140 40.54280
#
# Velocity S-wave (km/s) = 3.32302 4.18070 3.77629
# Velocity P-wave (km/s) = 5.78779 6.99971 6.42240
#
# Compressibility (1/GPa) = 0.01873408
#
# Stress axis : x y z
#
# Youngs Moduli (GPa) = 75.30335 108.08468 107.27451
#
# Poissons Ratio (x) = 0.40488 0.08724
# Poissons Ratio (y) = 0.28208 0.21461
# Poissons Ratio (z) = 0.06124 0.21623
#
# Static dielectric constant tensor:
#      x y z
#    x 2.360370 -0.038030 -0.050520 
#    y -0.038030 2.213830 0.007270 
#    z -0.050520 0.007270 2.205740 
# 
# From -- ./inp_files/179363.got.cif
#   From: 2010.05.17/outbox.cif.g08.bks.cpg/sg2_90_cif.got.tgz:179363.got - 2010.06.03 11:33:40.
