data_PCOD9075409
_publ_section_title
;
Structure prediction by ZEFSAII (Michael W. Deem and Ramdas Pophale) SiO2 
 PCOD9075409
Probable space group: P -1
;
_chemical_formula_sum "Si O2"
_cell_formula_units_Z 16
_cell_length_a 9.000000
_cell_length_b 15.000000
_cell_length_c 12.000000
_cell_angle_alpha 70.000000
_cell_angle_beta 50.000000
_cell_angle_gamma 40.000000
_cell_volume 759.581896
_symmetry_space_group_name_H-M "P -1"
_symmetry_group_IT_number 2
_symmetry_cell_setting 'triclinic'
loop_
_space_group_symop_operation_xyz
x,y,z
-x,-y,-z
loop_
_atom_site_type_symbol
_atom_site_label
_atom_site_fract_x
_atom_site_fract_y
_atom_site_fract_z
Si Si1 0.729485 0.362897 0.030983
Si Si2 0.766413 0.191269 0.453075
Si Si3 0.857018 0.360331 0.368207
Si Si4 0.226338 0.868605 0.270631
Si Si5 0.643017 0.628849 0.624062
Si Si6 0.886331 0.856488 0.264666
Si Si7 0.304393 0.191731 0.422529
Si Si8 0.897600 0.645858 0.973486
O O1 0.519879 0.387497 0.212897
O O2 0.937511 0.352998 0.011314
O O3 0.500000 0.500000 0.000000
O O4 0.941444 0.226583 0.898822
O O5 0.947755 0.220529 0.349229
O O6 0.696711 0.200476 0.613070
O O7 0.476355 0.322154 0.465022
O O8 0.966079 0.038456 0.360643
O O9 0.500000 0.500000 0.500000
O O10 0.027536 0.308373 0.424229
O O11 0.982999 0.373673 0.199428
O O12 0.078736 0.851094 0.259810
O O13 0.539313 0.788122 0.102338
O O14 0.536036 0.767276 0.669163
O O15 0.000000 0.500000 0.500000
O O16 0.816633 0.790508 0.403750
O O17 0.555682 0.023537 0.335890
O O18 0.000000 0.500000 0.000000
#
# Coordination Sequence:
#
# PCOD9075409 Si02
#       8
#     2   2   2   2   2   2   2   2
#     4  12  29  46  70 103 143 183 228 290 347 415
#     4  11  24  47  72 102 140 185 238 282 342 405
#     4  12  26  47  71 100 141 184 237 289 338 414
#     4  11  25  45  75 102 143 183 229 289 342 417
#     4  12  26  46  71 102 141 185 236 285 342 414
#     4  11  25  48  70 106 145 178 232 283 349 416
#     4  11  26  44  74 103 139 189 228 284 346 410
#     4  12  29  47  71 103 139 184 232 286 352 407
#
# _framework density 21.064219999999999
#
# number of rings (size 3 to 8) (size 9 to 14) (size 15 to 20)
#    0.000    0.500    3.750    3.000   10.500    2.000 
#    0.000    0.000    0.000    0.000    0.000    0.000 
#    0.000    0.000    0.000    0.000    0.000    0.000 
#
# Total GULP energy -89319.754376 kJ/mol
# GULP energy per Si atom -5582.484649 kJ/mol
# Density = 2.101628 g / cm^3
# Si number density = 21.064220 Si / 1000 Ang^3
#
#
#
# Elastic Constant Matrix: (Units=GPa)
#
#
# Indices 1 2 3 4 5 6 
#
# 1 116.8077 47.0773 34.8550 -4.9449 -0.2672 -15.1412
# 2 47.0773 78.3161 60.7299 -7.4217 10.3116 -20.3968
# 3 34.8550 60.7299 167.9729 5.8786 -1.3711 -15.5489
# 4 -4.9449 -7.4217 5.8786 38.4245 1.9773 2.4121
# 5 -0.2672 10.3116 -1.3711 1.9773 34.1906 1.2605
# 6 -15.1412 -20.3968 -15.5489 2.4121 1.2605 44.9898
#
#
#
# Elastic Compliance Matrix: (Units=1/GPa)
#
#
# Indices 1 2 3 4 5 6 
#
# 1 0.011492 -0.007338 0.000348 -0.000148 0.002303 0.000605
# 2 -0.007338 0.026686 -0.007749 0.005424 -0.008985 0.006912
# 3 0.000348 -0.007749 0.008782 -0.002925 0.002872 -0.000284
# 4 -0.000148 0.005424 -0.002925 0.027673 -0.003355 0.000008
# 5 0.002303 -0.008985 0.002872 -0.003355 0.032397 -0.003034
# 6 0.000605 0.006912 -0.000284 0.000008 -0.003034 0.025551
#
#
# Mechanical properties :
#
#
# Convention : Reuss Voigt Hill
#
# Bulk Modulus (GPa) = 57.19896 72.04680 64.62288
# Shear Modulus (GPa) = 29.78238 38.21661 33.99950
#
# Velocity S-wave (km/s) = 3.76425 4.26407 4.02193
# Velocity P-wave (km/s) = 6.79016 7.64988 7.23281
#
# Compressibility (1/GPa) = 0.01748284
#
# Stress axis : x y z
#
# Youngs Moduli (GPa) = 87.01756 37.47340 113.86789
#
# Poissons Ratio (x) = 0.27498 -0.03967
# Poissons Ratio (y) = 0.63853 0.88234
# Poissons Ratio (z) = -0.03031 0.29037
#
# Static dielectric constant tensor:
#      x y z
#    x -0.077630 0.414470 -1.015270 
#    y 0.414470 1.739980 0.168900 
#    z -1.015270 0.168900 1.168140 
# 
# From -- ./inp_files/185116.got.cif
#   From: 2010.05.17/outbox.ucp.g08.bks.cvg/sg2_93_cif.got.tgz:185116.got - 2010.06.11 11:32:03.
