data_PCOD9075031
_publ_section_title
;
Structure prediction by ZEFSAII (Michael W. Deem and Ramdas Pophale) SiO2 
 PCOD9075031
Probable space group: P -1
;
_chemical_formula_sum "Si O2"
_cell_formula_units_Z 14
_cell_length_a 27.000000
_cell_length_b 15.000000
_cell_length_c 15.000000
_cell_angle_alpha 20.000000
_cell_angle_beta 20.000000
_cell_angle_gamma 20.000000
_cell_volume 621.679612
_symmetry_space_group_name_H-M "P -1"
_symmetry_group_IT_number 2
_symmetry_cell_setting 'triclinic'
loop_
_space_group_symop_operation_xyz
x,y,z
-x,-y,-z
loop_
_atom_site_type_symbol
_atom_site_label
_atom_site_fract_x
_atom_site_fract_y
_atom_site_fract_z
Si Si1 0.672052 0.946554 0.621831
Si Si2 0.375521 0.009955 0.948607
Si Si3 0.739811 0.367991 0.384059
Si Si4 0.086774 0.347979 0.650582
Si Si5 0.395670 0.852473 0.856294
Si Si6 0.117561 0.888382 0.164691
Si Si7 0.712481 0.488546 0.121457
O O1 0.539531 0.011294 0.706591
O O2 0.838600 0.690133 0.537186
O O3 0.711679 0.208127 0.338162
O O4 0.627034 0.786945 0.927429
O O5 0.374976 0.936041 0.916291
O O6 0.244027 0.355960 0.862701
O O7 0.348821 0.769054 0.276099
O O8 0.649178 0.482293 0.334331
O O9 0.923142 0.098208 0.312807
O O10 0.135741 0.564542 0.419436
O O11 0.158637 0.026039 0.878796
O O12 0.892172 0.460044 0.865387
O O13 0.500000 0.000000 0.500000
O O14 0.500000 0.500000 0.000000
O O15 0.225632 0.925458 0.024868
#
# Coordination Sequence:
#
# PCOD9075031 Si02
#       7
#     2   2   2   2   2   2   2
#     4  12  23  38  63  95 129 172 211 264 322 361
#     4  12  26  42  65  94 132 167 213 263 304 385
#     4  11  25  44  62  93 128 172 219 252 309 375
#     4  11  22  41  66  98 127 162 217 267 319 376
#     4  12  26  46  71 101 127 160 207 262 328 382
#     4  11  23  43  70  91 130 170 204 267 318 371
#     4  11  23  40  64  91 130 171 214 263 311 378
#
# _framework density 22.519638
#
# number of rings (size 3 to 8) (size 9 to 14) (size 15 to 20)
#    0.000    0.571    0.000   10.286    0.000    4.571 
#    0.000    0.000    0.000    0.000    0.000    0.000 
#    0.000    0.000    0.000    0.000    0.000    0.000 
#
# Total GULP energy -78296.860476 kJ/mol
# GULP energy per Si atom -5592.632891 kJ/mol
# Density = 2.246838 g / cm^3
# Si number density = 22.519638 Si / 1000 Ang^3
#
#
#
# Elastic Constant Matrix: (Units=GPa)
#
#
# Indices 1 2 3 4 5 6 
#
# 1 144.6416 21.1772 58.1948 4.2711 -16.5023 21.2458
# 2 21.1772 42.8528 18.3252 -7.9732 -2.5579 19.9954
# 3 58.1948 18.3252 149.9547 -23.9879 -4.6837 11.5235
# 4 4.2711 -7.9732 -23.9879 42.3384 6.1597 -10.1900
# 5 -16.5023 -2.5579 -4.6837 6.1597 48.7642 -0.7928
# 6 21.2458 19.9954 11.5235 -10.1900 -0.7928 38.4948
#
#
#
# Elastic Compliance Matrix: (Units=1/GPa)
#
#
# Indices 1 2 3 4 5 6 
#
# 1 0.010065 -0.001806 -0.004061 -0.005307 0.003515 -0.004733
# 2 -0.001806 0.032224 -0.001833 0.001592 0.000462 -0.014761
# 3 -0.004061 -0.001833 0.009229 0.005960 -0.001305 0.001982
# 4 -0.005307 0.001592 0.005960 0.030536 -0.004862 0.008301
# 5 0.003515 0.000462 -0.001305 -0.004862 0.022167 -0.002620
# 6 -0.004733 -0.014761 0.001982 0.008301 -0.002620 0.037808
#
#
# Mechanical properties :
#
#
# Convention : Reuss Voigt Hill
#
# Bulk Modulus (GPa) = 27.68790 59.20484 43.44637
# Shear Modulus (GPa) = 29.50402 41.90294 35.70348
#
# Velocity S-wave (km/s) = 3.62352 4.31830 3.98607
# Velocity P-wave (km/s) = 5.46152 7.15618 6.36550
#
# Compressibility (1/GPa) = 0.03611685
#
# Stress axis : x y z
#
# Youngs Moduli (GPa) = 99.35599 31.03281 108.35446
#
# Poissons Ratio (x) = 0.05606 0.43999
# Poissons Ratio (y) = 0.17947 0.19866
# Poissons Ratio (z) = 0.40345 0.05690
#
# Static dielectric constant tensor:
#      x y z
#    x 1.837660 -0.010670 0.034540 
#    y -0.010670 1.935040 0.032470 
#    z 0.034540 0.032470 1.803910 
# 
# From -- ./inp_files/94913.got.cif
#   From: 2010.05.17/outbox.ucp.g08.bks.cvg/sg2_48_cif.got.tgz:94913.got - 2010.06.11 11:32:03.
