data_PCOD9075780
_publ_section_title
;
Structure prediction by ZEFSAII (Michael W. Deem and Ramdas Pophale) SiO2 
 PCOD9075780
Probable space group: P -1
;
_chemical_formula_sum "Si O2"
_cell_formula_units_Z 16
_cell_length_a 11.413434
_cell_length_b 9.173896
_cell_length_c 13.505808
_cell_angle_alpha 126.172165
_cell_angle_beta 146.023682
_cell_angle_gamma 64.017968
_cell_volume 633.811547
_symmetry_space_group_name_H-M "P -1"
_symmetry_group_IT_number 2
_symmetry_cell_setting 'triclinic'
loop_
_space_group_symop_operation_xyz
x,y,z
-x,-y,-z
loop_
_atom_site_type_symbol
_atom_site_label
_atom_site_fract_x
_atom_site_fract_y
_atom_site_fract_z
Si Si1 0.445564 0.649210 0.269357
Si Si2 0.829049 0.089228 0.271078
Si Si3 0.063219 0.806632 0.994515
Si Si4 0.095457 0.624968 0.738028
Si Si5 0.787395 0.501406 0.780173
Si Si6 0.824419 0.345714 0.539188
Si Si7 0.725901 0.752795 0.338352
Si Si8 0.307003 0.284455 0.908086
O O1 0.257825 0.781774 0.193251
O O2 0.414556 0.547501 0.312036
O O3 0.625896 0.767493 0.381352
O O4 0.400237 0.471438 0.095675
O O5 0.853311 0.219495 0.245189
O O6 0.735708 0.189263 0.339486
O O7 0.077925 0.091248 0.471722
O O8 0.711301 0.888625 0.102734
O O9 0.145602 0.716992 0.916176
O O10 0.856582 0.691989 0.850515
O O11 0.000000 0.000000 0.000000
O O12 0.195669 0.449087 0.695843
O O13 0.861323 0.525309 0.565817
O O14 0.743175 0.369513 0.601584
O O15 0.000000 0.500000 0.000000
O O16 0.066150 0.312145 0.723060
O O17 0.592980 0.756562 0.144973
#
# Coordination Sequence:
#
# PCOD9075780 Si02
#       8
#     2   2   2   2   2   2   2   2
#     4  11  20  35  58  86 111 145 180 232 288 320
#     4  10  20  32  58  86 106 146 190 227 268 329
#     4  10  20  34  56  84 109 147 189 233 265 328
#     4   9  18  34  56  80 110 147 185 224 272 329
#     4   9  17  32  52  78 106 146 187 219 265 334
#     4   9  15  32  51  76 107 140 188 222 260 320
#     4  10  19  36  56  82 117 141 180 231 286 326
#     4  10  18  32  55  83 111 143 182 228 273 331
#
# _framework density 25.2441
#
# number of rings (size 3 to 8) (size 9 to 14) (size 15 to 20)
#    0.000    2.500    5.000    3.375    1.750    0.000 
#    0.000    1.875    0.000   13.500    0.000    0.000 
#    0.000    0.000    0.000    0.000    0.000    0.000 
#
# Total GULP energy -89111.976756 kJ/mol
# GULP energy per Si atom -5569.498547 kJ/mol
# Density = 2.518664 g / cm^3
# Si number density = 25.244100 Si / 1000 Ang^3
#
#
#
# Elastic Constant Matrix: (Units=GPa)
#
#
# Indices 1 2 3 4 5 6 
#
# 1 178.1346 38.1865 25.2698 4.4666 18.6117 39.8656
# 2 38.1865 100.6165 19.1693 23.8366 2.9517 26.9521
# 3 25.2698 19.1693 56.0627 0.4281 1.4961 3.3681
# 4 4.4666 23.8366 0.4281 26.2159 6.0580 -0.3045
# 5 18.6117 2.9517 1.4961 6.0580 24.6038 -2.7010
# 6 39.8656 26.9521 3.3681 -0.3045 -2.7010 33.6040
#
#
#
# Elastic Compliance Matrix: (Units=1/GPa)
#
#
# Indices 1 2 3 4 5 6 
#
# 1 0.009607 0.000650 -0.003591 -0.000376 -0.008377 -0.012235
# 2 0.000650 0.019194 -0.005781 -0.017694 0.000186 -0.015732
# 3 -0.003591 -0.005781 0.020930 0.005234 0.001614 0.006976
# 4 -0.000376 -0.017694 0.005234 0.056769 -0.010375 0.013793
# 5 -0.008377 0.000186 0.001614 -0.010375 0.050911 0.013625
# 6 -0.012235 -0.015732 0.006976 0.013793 0.013625 0.057412
#
#
# Mechanical properties :
#
#
# Convention : Reuss Voigt Hill
#
# Bulk Modulus (GPa) = 30.97144 55.56277 43.26711
# Shear Modulus (GPa) = 20.57383 33.69730 27.13557
#
# Velocity S-wave (km/s) = 2.85791 3.65754 3.28217
# Velocity P-wave (km/s) = 4.81514 6.31623 5.61606
#
# Compressibility (1/GPa) = 0.03228781
#
# Stress axis : x y z
#
# Youngs Moduli (GPa) = 104.09545 52.10087 47.77781
#
# Poissons Ratio (x) = -0.03389 0.17157
# Poissons Ratio (y) = -0.06770 0.27619
# Poissons Ratio (z) = 0.37381 0.30118
#
# Static dielectric constant tensor:
#      x y z
#    x 2.057100 -0.022740 0.036930 
#    y -0.022740 2.124800 -0.170710 
#    z 0.036930 -0.170710 2.101070 
# 
# From -- ./inp_files/514650.got.cif
#   From: 2010.05.17/outbox.cif.g08.bks.cpg/sg2_258_cif.got.tgz:514650.got - 2010.06.03 11:33:40.
