data_PCOD9075006
_publ_section_title
;
Structure prediction by ZEFSAII (Michael W. Deem and Ramdas Pophale) SiO2 
 PCOD9075006
Probable space group: P -1
;
_chemical_formula_sum "Si O2"
_cell_formula_units_Z 16
_cell_length_a 12.000000
_cell_length_b 15.000000
_cell_length_c 18.000000
_cell_angle_alpha 150.000000
_cell_angle_beta 50.000000
_cell_angle_gamma 150.000000
_cell_volume 731.734496
_symmetry_space_group_name_H-M "P -1"
_symmetry_group_IT_number 2
_symmetry_cell_setting 'triclinic'
loop_
_space_group_symop_operation_xyz
x,y,z
-x,-y,-z
loop_
_atom_site_type_symbol
_atom_site_label
_atom_site_fract_x
_atom_site_fract_y
_atom_site_fract_z
Si Si1 0.189006 0.691863 0.986732
Si Si2 0.942478 0.123185 0.068166
Si Si3 0.959651 0.683194 0.577666
Si Si4 0.260825 0.865802 0.301245
Si Si5 0.512681 0.441451 0.535985
Si Si6 0.686458 0.058476 0.266426
Si Si7 0.408973 0.179170 0.131935
Si Si8 0.746383 0.227842 0.605286
O O1 0.279040 0.963788 0.105423
O O2 0.433495 0.813650 0.974695
O O3 0.000000 0.500000 0.000000
O O4 0.024862 0.440530 0.811536
O O5 0.788033 0.082065 0.164422
O O6 0.160195 0.477115 0.208467
O O7 0.784745 0.935535 0.926685
O O8 0.000000 0.000000 0.000000
O O9 0.789999 0.673354 0.613678
O O10 0.785496 0.359331 0.456647
O O11 0.191389 0.937739 0.717504
O O12 0.058400 0.681664 0.462363
O O13 0.295729 0.936547 0.423816
O O14 0.369356 0.114976 0.376707
O O15 0.399531 0.811845 0.198070
O O16 0.500000 0.500000 0.500000
O O17 0.419382 0.497231 0.674051
O O18 0.500000 0.000000 0.500000
#
# Coordination Sequence:
#
# PCOD9075006 Si02
#       8
#     2   2   2   2   2   2   2   2
#     4  11  24  45  70  92 129 178 222 267 323 395
#     4  11  23  40  65  91 130 167 208 265 329 387
#     4   9  19  36  61  87 126 163 209 258 320 386
#     4  11  22  41  67  92 125 165 218 269 320 384
#     4  11  25  42  64  94 129 170 220 272 323 381
#     4   9  18  36  63  89 117 167 208 256 322 387
#     4  11  25  44  66  97 132 174 221 266 331 394
#     4  11  22  39  64  98 125 164 213 264 325 388
#
# _framework density 21.865853999999999
#
# number of rings (size 3 to 8) (size 9 to 14) (size 15 to 20)
#    0.000    1.500    2.500    2.250    5.250    2.500 
#    2.250    1.875    0.000    0.000    0.000    0.000 
#    0.000    0.000    0.000    0.000    0.000    0.000 
#
# Total GULP energy -89100.459230 kJ/mol
# GULP energy per Si atom -5568.778702 kJ/mol
# Density = 2.181609 g / cm^3
# Si number density = 21.865854 Si / 1000 Ang^3
#
#
#
# Elastic Constant Matrix: (Units=GPa)
#
#
# Indices 1 2 3 4 5 6 
#
# 1 153.4040 27.3624 28.0275 2.0966 11.2268 -7.3791
# 2 27.3624 84.8170 10.0117 -3.9136 -5.3448 -12.1292
# 3 28.0275 10.0117 57.0856 -5.0538 9.8954 2.3676
# 4 2.0966 -3.9136 -5.0538 22.8753 -1.7530 3.4292
# 5 11.2268 -5.3448 9.8954 -1.7530 23.2740 -3.9190
# 6 -7.3791 -12.1292 2.3676 3.4292 -3.9190 30.4404
#
#
#
# Elastic Compliance Matrix: (Units=1/GPa)
#
#
# Indices 1 2 3 4 5 6 
#
# 1 0.007798 -0.002269 -0.003165 -0.002191 -0.002916 0.001104
# 2 -0.002269 0.014176 -0.002614 0.001667 0.006591 0.005962
# 3 -0.003165 -0.002614 0.021690 0.004734 -0.008808 -0.005163
# 4 -0.002191 0.001667 0.004734 0.046179 0.002034 -0.005175
# 5 -0.002916 0.006591 -0.008808 0.002034 0.051297 0.008979
# 6 0.001104 0.005962 -0.005163 -0.005175 0.008979 0.037635
#
#
# Mechanical properties :
#
#
# Convention : Reuss Voigt Hill
#
# Bulk Modulus (GPa) = 36.27518 47.34556 41.81037
# Shear Modulus (GPa) = 24.50254 30.64494 27.57374
#
# Velocity S-wave (km/s) = 3.35115 3.74772 3.55497
# Velocity P-wave (km/s) = 5.62134 6.35822 6.00110
#
# Compressibility (1/GPa) = 0.02756706
#
# Stress axis : x y z
#
# Youngs Moduli (GPa) = 128.23458 70.54372 46.10409
#
# Poissons Ratio (x) = 0.16008 0.14592
# Poissons Ratio (y) = 0.29099 0.12053
# Poissons Ratio (z) = 0.40586 0.18442
#
# Static dielectric constant tensor:
#      x y z
#    x 1.627500 0.084020 -0.135320 
#    y 0.084020 1.895110 0.030370 
#    z -0.135320 0.030370 1.793850 
# 
# From -- ./inp_files/569975.got.cif
#   From: 2010.05.17/outbox.ucp.g08.bks.cvg/sg2_285_cif.got.tgz:569975.got - 2010.06.11 11:32:03.
