data_PCOD9075113
_publ_section_title
;
Structure prediction by ZEFSAII (Michael W. Deem and Ramdas Pophale) SiO2 
 PCOD9075113
Probable space group: P -1
;
_chemical_formula_sum "Si O2"
_cell_formula_units_Z 16
_cell_length_a 15.000000
_cell_length_b 12.000000
_cell_length_c 18.000000
_cell_angle_alpha 130.000000
_cell_angle_beta 150.000000
_cell_angle_gamma 30.000000
_cell_volume 731.734496
_symmetry_space_group_name_H-M "P -1"
_symmetry_group_IT_number 2
_symmetry_cell_setting 'triclinic'
loop_
_space_group_symop_operation_xyz
x,y,z
-x,-y,-z
loop_
_atom_site_type_symbol
_atom_site_label
_atom_site_fract_x
_atom_site_fract_y
_atom_site_fract_z
Si Si1 0.336846 0.344040 0.690927
Si Si2 0.681856 0.177339 0.306266
Si Si3 0.194601 0.158760 0.272603
Si Si4 0.560799 0.663804 0.064040
Si Si5 0.304046 0.614710 0.330758
Si Si6 0.656003 0.083437 0.563498
Si Si7 0.626588 0.926782 0.977753
Si Si8 0.202689 0.731198 0.722426
O O1 0.383894 0.356792 0.816900
O O2 0.376240 0.466204 0.724218
O O3 0.000000 0.500000 0.500000
O O4 0.599892 0.065415 0.732336
O O5 0.461785 0.423435 0.298084
O O6 0.735820 0.195022 0.267277
O O7 0.512823 0.134408 0.177254
O O8 0.000000 0.000000 0.500000
O O9 0.318219 0.242135 0.388167
O O10 0.839966 0.402255 0.112218
O O11 0.237442 0.060116 0.343439
O O12 0.287604 0.747721 0.870390
O O13 0.516347 0.853421 0.081392
O O14 0.500000 0.500000 0.500000
O O15 0.311573 0.768502 0.364360
O O16 0.979725 0.746155 0.163143
O O17 0.860276 0.900530 0.561837
O O18 0.500000 0.000000 0.000000
#
# Coordination Sequence:
#
# PCOD9075113 Si02
#       8
#     2   2   2   2   2   2   2   2
#     4  12  25  45  73 108 145 195 246 297 368 446
#     4  12  28  47  75 110 145 196 255 310 380 452
#     4  11  25  43  73 108 144 195 246 298 369 450
#     4  12  27  46  76 103 154 191 240 317 370 445
#     4  12  27  47  78 107 149 198 248 314 382 452
#     4  11  22  46  71 104 147 189 244 300 368 438
#     4  12  26  51  73 107 149 194 253 315 379 446
#     4  12  24  48  71 103 151 188 240 310 372 439
#
# _framework density 21.865853999999999
#
# number of rings (size 3 to 8) (size 9 to 14) (size 15 to 20)
#    0.000    0.250    5.000    3.750    5.250    2.500 
#    0.000    0.000    0.000    0.000    0.000    0.000 
#    0.000    0.000    0.000    0.000    0.000    0.000 
#
# Total GULP energy -89120.542619 kJ/mol
# GULP energy per Si atom -5570.033914 kJ/mol
# Density = 2.181609 g / cm^3
# Si number density = 21.865854 Si / 1000 Ang^3
#
#
#
# Elastic Constant Matrix: (Units=GPa)
#
#
# Indices 1 2 3 4 5 6 
#
# 1 135.7095 31.9711 45.8337 -4.4979 26.4133 7.3430
# 2 31.9711 97.6666 21.8675 0.2205 20.5846 8.6119
# 3 45.8337 21.8675 62.3524 3.2941 13.6150 20.2052
# 4 -4.4979 0.2205 3.2941 24.6109 2.3179 9.6282
# 5 26.4133 20.5846 13.6150 2.3179 42.3088 9.6898
# 6 7.3430 8.6119 20.2052 9.6282 9.6898 43.4592
#
#
#
# Elastic Compliance Matrix: (Units=1/GPa)
#
#
# Indices 1 2 3 4 5 6 
#
# 1 0.011066 -0.001166 -0.007627 0.002561 -0.004567 0.002358
# 2 -0.001166 0.012093 -0.002384 0.000498 -0.004364 -0.000229
# 3 -0.007627 -0.002384 0.025782 -0.000901 -0.000031 -0.010019
# 4 0.002561 0.000498 -0.000901 0.045190 -0.001800 -0.009723
# 5 -0.004567 -0.004364 -0.000031 -0.001800 0.029769 -0.004588
# 6 0.002358 -0.000229 -0.010019 -0.009723 -0.004588 0.030492
#
#
# Mechanical properties :
#
#
# Convention : Reuss Voigt Hill
#
# Bulk Modulus (GPa) = 37.61316 55.00811 46.31064
# Shear Modulus (GPa) = 26.93863 35.14618 31.04240
#
# Velocity S-wave (km/s) = 3.51379 4.01353 3.77194
# Velocity P-wave (km/s) = 5.80529 6.83298 6.33999
#
# Compressibility (1/GPa) = 0.02658644
#
# Stress axis : x y z
#
# Youngs Moduli (GPa) = 90.37090 82.69286 38.78738
#
# Poissons Ratio (x) = 0.09639 0.29585
# Poissons Ratio (y) = 0.10534 0.09245
# Poissons Ratio (z) = 0.68930 0.19711
#
# Static dielectric constant tensor:
#      x y z
#    x 1.778300 0.214150 0.123710 
#    y 0.214150 2.514330 0.476580 
#    z 0.123710 0.476580 2.180160 
# 
# From -- ./inp_files/573623.got.cif
#   From: 2010.05.17/outbox.ucp.g08.bks.cvg/sg2_287_cif.got.tgz:573623.got - 2010.06.11 11:32:03.
