data_PCOD9075552
_publ_section_title
;
Structure prediction by ZEFSAII (Michael W. Deem and Ramdas Pophale) SiO2 
 PCOD9075552
Probable space group: P -1
;
_chemical_formula_sum "Si O2"
_cell_formula_units_Z 14
_cell_length_a 15.000000
_cell_length_b 15.000000
_cell_length_c 12.000000
_cell_angle_alpha 130.000000
_cell_angle_beta 60.000000
_cell_angle_gamma 160.000000
_cell_volume 649.262375
_symmetry_space_group_name_H-M "P -1"
_symmetry_group_IT_number 2
_symmetry_cell_setting 'triclinic'
loop_
_space_group_symop_operation_xyz
x,y,z
-x,-y,-z
loop_
_atom_site_type_symbol
_atom_site_label
_atom_site_fract_x
_atom_site_fract_y
_atom_site_fract_z
Si Si1 0.306590 0.772332 0.041833
Si Si2 0.844876 0.173569 0.514292
Si Si3 0.611623 0.130382 0.362289
Si Si4 0.054667 0.951459 0.017174
Si Si5 0.103262 0.343809 0.726913
Si Si6 0.365672 0.263681 0.314657
Si Si7 0.424744 0.182586 0.811240
O O1 0.454376 0.973699 0.217654
O O2 0.246843 0.575871 0.917665
O O3 0.000000 0.500000 0.000000
O O4 0.500000 0.000000 0.000000
O O5 0.078748 0.494245 0.557509
O O6 0.980889 0.270982 0.626604
O O7 0.574883 0.974809 0.536867
O O8 0.726663 0.953226 0.323970
O O9 0.591380 0.974080 0.283680
O O10 0.214884 0.139952 0.190120
O O11 0.745628 0.568094 0.922258
O O12 0.247878 0.062301 0.919588
O O13 0.000000 0.000000 0.000000
O O14 0.362936 0.532827 0.699768
O O15 0.853289 0.026436 0.697974
O O16 0.500000 0.500000 0.500000
#
# Coordination Sequence:
#
# PCOD9075552 Si02
#       7
#     2   2   2   2   2   2   2
#     4  12  21  38  61  97 137 182 217 274 328 413
#     4  12  25  42  71 107 142 192 225 283 341 429
#     4  12  22  43  66 106 145 182 238 274 348 411
#     4  12  28  51  75 102 135 187 240 291 358 414
#     4  12  25  44  71 105 144 180 237 279 359 409
#     4  12  28  48  76 104 136 178 236 304 349 410
#     4  12  27  46  74  99 147 183 234 292 347 415
#
# _framework density 21.562930999999999
#
# number of rings (size 3 to 8) (size 9 to 14) (size 15 to 20)
#    0.000    0.000    2.857    7.714    4.000    0.000 
#    0.000    0.000    0.000    0.000    0.000    0.000 
#    0.000    0.000    0.000    0.000    0.000    0.000 
#
# Total GULP energy -78010.038751 kJ/mol
# GULP energy per Si atom -5572.145625 kJ/mol
# Density = 2.151385 g / cm^3
# Si number density = 21.562931 Si / 1000 Ang^3
#
#
#
# Elastic Constant Matrix: (Units=GPa)
#
#
# Indices 1 2 3 4 5 6 
#
# 1 120.1230 75.1211 36.0756 10.0674 19.5506 22.7123
# 2 75.1211 246.6519 89.4102 37.2898 -6.4726 46.2924
# 3 36.0756 89.4102 156.7040 16.1667 18.6495 31.0674
# 4 10.0674 37.2898 16.1667 54.1415 -0.2476 16.9395
# 5 19.5506 -6.4726 18.6495 -0.2476 44.4096 -3.8247
# 6 22.7123 46.2924 31.0674 16.9395 -3.8247 81.2501
#
#
#
# Elastic Compliance Matrix: (Units=1/GPa)
#
#
# Indices 1 2 3 4 5 6 
#
# 1 0.011748 -0.003647 0.000368 0.000749 -0.006007 -0.001786
# 2 -0.003647 0.007026 -0.003129 -0.002895 0.003841 -0.001003
# 3 0.000368 -0.003129 0.009021 -0.000007 -0.004577 -0.001983
# 4 0.000749 -0.002895 -0.000007 0.021272 -0.000891 -0.003034
# 5 -0.006007 0.003841 -0.004577 -0.000891 0.027875 0.002739
# 6 -0.001786 -0.001003 -0.001983 -0.003034 0.002739 0.014898
#
#
# Mechanical properties :
#
#
# Convention : Reuss Voigt Hill
#
# Bulk Modulus (GPa) = 66.76126 102.74364 84.75245
# Shear Modulus (GPa) = 45.60045 57.48504 51.54274
#
# Velocity S-wave (km/s) = 4.60364 5.16886 4.89441
# Velocity P-wave (km/s) = 7.69976 9.13096 8.44573
#
# Compressibility (1/GPa) = 0.01497875
#
# Stress axis : x y z
#
# Youngs Moduli (GPa) = 85.12377 142.32934 110.85744
#
# Poissons Ratio (x) = 0.51908 -0.04081
# Poissons Ratio (y) = 0.31045 0.34685
# Poissons Ratio (z) = -0.03134 0.44532
#
# Static dielectric constant tensor:
#      x y z
#    x 1.716630 -0.136530 0.017740 
#    y -0.136530 1.332640 -0.175960 
#    z 0.017740 -0.175960 1.545010 
# 
# From -- ./inp_files/454021.got.cif
#   From: 2010.05.17/outbox.ucp.g08.bks.cvg/sg2_228_cif.got.tgz:454021.got - 2010.06.11 11:32:03.
