data_PCOD9075771
_publ_section_title
;
Structure prediction by ZEFSAII (Michael W. Deem and Ramdas Pophale) SiO2 
 PCOD9075771
Probable space group: P -1
;
_chemical_formula_sum "Si O2"
_cell_formula_units_Z 16
_cell_length_a 7.597419
_cell_length_b 10.882143
_cell_length_c 11.561265
_cell_angle_alpha 102.795138
_cell_angle_beta 79.148327
_cell_angle_gamma 140.543537
_cell_volume 592.115623
_symmetry_space_group_name_H-M "P -1"
_symmetry_group_IT_number 2
_symmetry_cell_setting 'triclinic'
loop_
_space_group_symop_operation_xyz
x,y,z
-x,-y,-z
loop_
_atom_site_type_symbol
_atom_site_label
_atom_site_fract_x
_atom_site_fract_y
_atom_site_fract_z
Si Si1 0.233412 0.615569 0.864679
Si Si2 0.302578 0.616776 0.603478
Si Si3 0.170211 0.931128 0.434759
Si Si4 0.278522 0.824059 0.200255
Si Si5 0.199073 0.087264 0.677101
Si Si6 0.174662 0.017600 0.098161
Si Si7 0.230348 0.488159 0.351194
Si Si8 0.909626 0.175277 0.147953
O O1 0.339555 0.604924 0.730031
O O2 0.153081 0.718023 0.874212
O O3 0.941785 0.389150 0.874193
O O4 0.520808 0.768403 0.931732
O O5 0.292440 0.504238 0.483418
O O6 0.031211 0.558389 0.623611
O O7 0.552417 0.842983 0.584724
O O8 0.195553 0.812896 0.340822
O O9 0.925430 0.875094 0.390046
O O10 0.162128 0.939585 0.575715
O O11 0.244887 0.934004 0.153257
O O12 0.605173 0.971922 0.189996
O O13 0.513821 0.300679 0.693839
O O14 0.017383 0.004585 0.797325
O O15 0.016737 0.875944 0.977964
O O16 0.143757 0.329360 0.245414
#
# Coordination Sequence:
#
# PCOD9075771 Si02
#       8
#     2   2   2   2   2   2   2   2
#     4  10  18  32  55  83 101 130 174 224 265 293
#     4   9  15  31  54  77 105 130 171 218 259 303
#     4   9  15  31  54  77 105 130 171 218 259 303
#     4  10  18  32  55  83 101 130 174 224 265 293
#     4   9  17  29  54  76 104 143 166 206 263 306
#     4  10  20  34  51  76 107 138 176 211 251 310
#     4   9  17  29  54  76 104 143 166 206 263 306
#     4  10  20  34  51  76 107 138 176 211 251 310
#
# _framework density 27.021747999999999
#
# number of rings (size 3 to 8) (size 9 to 14) (size 15 to 20)
#    0.000    2.500    5.000    1.500    0.000    2.500 
#    0.000    1.250    0.000    0.000    0.000    8.750 
#    0.000    0.000    0.000    0.000    0.000    0.000 
#
# Total GULP energy -89580.799089 kJ/mol
# GULP energy per Si atom -5598.799943 kJ/mol
# Density = 2.696024 g / cm^3
# Si number density = 27.021748 Si / 1000 Ang^3
#
#
#
# Elastic Constant Matrix: (Units=GPa)
#
#
# Indices 1 2 3 4 5 6 
#
# 1 72.2411 43.2079 9.7094 4.4552 -16.6277 10.6267
# 2 43.2079 183.8296 43.1226 20.8264 -28.5102 5.8878
# 3 9.7094 43.1226 191.1562 31.5616 -17.1239 -6.5291
# 4 4.4552 20.8264 31.5616 56.2240 -4.5605 -4.4291
# 5 -16.6277 -28.5102 -17.1239 -4.5605 38.0741 2.3387
# 6 10.6267 5.8878 -6.5291 -4.4291 2.3387 33.6052
#
#
#
# Elastic Compliance Matrix: (Units=1/GPa)
#
#
# Indices 1 2 3 4 5 6 
#
# 1 0.017862 -0.003122 0.000186 -0.000323 0.005846 -0.005515
# 2 -0.003122 0.007135 -0.000896 -0.001685 0.003430 -0.000898
# 3 0.000186 -0.000896 0.006086 -0.002896 0.001752 0.000777
# 4 -0.000323 -0.001685 -0.002896 0.020225 -0.000438 0.002531
# 5 0.005846 0.003430 0.001752 -0.000438 0.032393 -0.004421
# 6 -0.005515 -0.000898 0.000777 0.002531 -0.004421 0.032451
#
#
# Mechanical properties :
#
#
# Convention : Reuss Voigt Hill
#
# Bulk Modulus (GPa) = 42.70214 71.03408 56.86811
# Shear Modulus (GPa) = 37.98735 48.99311 43.49023
#
# Velocity S-wave (km/s) = 3.75348 4.26267 4.01615
# Velocity P-wave (km/s) = 5.88404 7.11140 6.52663
#
# Compressibility (1/GPa) = 0.02341803
#
# Stress axis : x y z
#
# Youngs Moduli (GPa) = 55.98613 140.14527 164.31972
#
# Poissons Ratio (x) = 0.43751 -0.03053
# Poissons Ratio (y) = 0.17478 0.14728
# Poissons Ratio (z) = -0.01040 0.12561
#
# Static dielectric constant tensor:
#      x y z
#    x 2.214330 -0.052630 0.067890 
#    y -0.052630 2.062850 -0.004140 
#    z 0.067890 -0.004140 2.197980 
# 
# From -- ./inp_files/523269.got.cif
#   From: 2010.05.17/outbox.cif.g08.bks.cpg/sg2_262_cif.got.tgz:523269.got - 2010.06.03 11:33:40.
