data_PCOD9075070
_publ_section_title
;
Structure prediction by ZEFSAII (Michael W. Deem and Ramdas Pophale) SiO2 
 PCOD9075070
Probable space group: P -1
;
_chemical_formula_sum "Si O2"
_cell_formula_units_Z 16
_cell_length_a 9.000000
_cell_length_b 12.000000
_cell_length_c 18.000000
_cell_angle_alpha 30.000000
_cell_angle_beta 50.000000
_cell_angle_gamma 60.000000
_cell_volume 736.400153
_symmetry_space_group_name_H-M "P -1"
_symmetry_group_IT_number 2
_symmetry_cell_setting 'triclinic'
loop_
_space_group_symop_operation_xyz
x,y,z
-x,-y,-z
loop_
_atom_site_type_symbol
_atom_site_label
_atom_site_fract_x
_atom_site_fract_y
_atom_site_fract_z
Si Si1 0.858463 0.606198 0.928401
Si Si2 0.476415 0.835766 0.290778
Si Si3 0.500038 0.731750 0.057119
Si Si4 0.942176 0.421247 0.735833
Si Si5 0.512554 0.509284 0.335193
Si Si6 0.964746 0.672943 0.079604
Si Si7 0.182685 0.159385 0.706874
Si Si8 0.080595 0.923506 0.438284
O O1 0.876848 0.468149 0.926102
O O2 0.928608 0.865456 0.734663
O O3 0.652347 0.597990 0.041857
O O4 0.000000 0.500000 0.000000
O O5 0.490283 0.613642 0.364580
O O6 0.674348 0.894029 0.240992
O O7 0.302391 0.857839 0.393960
O O8 0.442789 0.012549 0.135065
O O9 0.283923 0.665449 0.136030
O O10 0.473576 0.675283 0.185046
O O11 0.026420 0.309354 0.845142
O O12 0.050694 0.341253 0.675047
O O13 0.962355 0.689285 0.584121
O O14 0.746421 0.520039 0.232799
O O15 0.343880 0.284912 0.522471
O O16 0.029033 0.925579 0.878158
O O17 0.000000 0.000000 0.500000
#
# Coordination Sequence:
#
# PCOD9075070 Si02
#       8
#     2   2   2   2   2   2   2   2
#     4  11  25  47  67  97 141 185 232 277 352 418
#     4  11  22  43  68 102 139 184 229 282 350 418
#     4  11  26  43  68 100 141 181 231 289 350 408
#     4  12  23  46  69 106 139 174 237 294 343 410
#     4  12  24  44  70 101 140 186 229 285 348 414
#     4  12  24  44  76  99 140 189 229 287 351 409
#     4  12  25  42  74 109 137 178 239 285 344 420
#     4  11  24  41  71 100 137 184 231 287 343 410
#
# _framework density 21.727318
#
# number of rings (size 3 to 8) (size 9 to 14) (size 15 to 20)
#    0.000    0.500    6.250    2.625    0.000    3.000 
#    0.000    1.250    0.000    0.000    0.000    0.000 
#    0.000    0.000    0.000    0.000    0.000    0.000 
#
# Total GULP energy -89129.988780 kJ/mol
# GULP energy per Si atom -5570.624299 kJ/mol
# Density = 2.167787 g / cm^3
# Si number density = 21.727318 Si / 1000 Ang^3
#
#
#
# Elastic Constant Matrix: (Units=GPa)
#
#
# Indices 1 2 3 4 5 6 
#
# 1 18.5636 -6.7183 5.1142 15.0452 5.7686 -17.1011
# 2 -6.7183 125.1019 26.7232 16.3077 -10.7754 -11.7899
# 3 5.1142 26.7232 95.2550 39.6542 1.5154 8.2687
# 4 15.0452 16.3077 39.6542 29.9187 -3.1514 -6.6137
# 5 5.7686 -10.7754 1.5154 -3.1514 32.3086 9.1909
# 6 -17.1011 -11.7899 8.2687 -6.6137 9.1909 24.5794
#
#
#
# Elastic Compliance Matrix: (Units=1/GPa)
#
#
# Indices 1 2 3 4 5 6 
#
# 1 -0.183521 -0.026457 -0.017317 0.107997 0.073072 -0.132814
# 2 -0.026457 0.005444 -0.005882 0.016332 0.012409 -0.014063
# 3 -0.017317 -0.005882 0.032789 -0.039461 0.006861 -0.039084
# 4 0.107997 0.016332 -0.039461 0.045524 -0.042980 0.124569
# 5 0.073072 0.012409 0.006861 -0.042980 0.005953 0.040693
# 6 -0.132814 -0.014063 -0.039084 0.124569 0.040693 -0.027016
#
#
# Mechanical properties :
#
#
# Convention : Reuss Voigt Hill
#
# Bulk Modulus (GPa) = -4.08828 32.12874 14.02023
# Shear Modulus (GPa) = -48.52115 31.61478 -8.45318
#
# Velocity S-wave (km/s) = -4.73079 3.81868 -1.97459
# Velocity P-wave (km/s) = 5.63260 5.85341 1.12611
#
# Compressibility (1/GPa) = -0.24460134
#
# Stress axis : x y z
#
# Youngs Moduli (GPa) = -5.44896 183.69898 30.49790
#
# Poissons Ratio (x) = 4.86020 0.52812
# Poissons Ratio (y) = -0.14417 0.17940
# Poissons Ratio (z) = -0.09436 1.08060
#
# Static dielectric constant tensor:
#      x y z
#    x 1.966100 0.047900 0.031140 
#    y 0.047900 1.822550 0.008320 
#    z 0.031140 0.008320 1.863260 
# 
# From -- ./inp_files/242593.got.cif
#   From: 2010.05.17/outbox.ucp.g08.bks.cvg/sg2_122_cif.got.tgz:242593.got - 2010.06.11 11:32:03.
