data_PCOD9075218
_publ_section_title
;
Structure prediction by ZEFSAII (Michael W. Deem and Ramdas Pophale) SiO2 
 PCOD9075218
Probable space group: P -1
;
_chemical_formula_sum "Si O2"
_cell_formula_units_Z 16
_cell_length_a 12.000000
_cell_length_b 12.000000
_cell_length_c 12.000000
_cell_angle_alpha 120.000000
_cell_angle_beta 30.000000
_cell_angle_gamma 110.000000
_cell_volume 731.538865
_symmetry_space_group_name_H-M "P -1"
_symmetry_group_IT_number 2
_symmetry_cell_setting 'triclinic'
loop_
_space_group_symop_operation_xyz
x,y,z
-x,-y,-z
loop_
_atom_site_type_symbol
_atom_site_label
_atom_site_fract_x
_atom_site_fract_y
_atom_site_fract_z
Si Si1 0.528716 0.602279 0.692928
Si Si2 0.407867 0.574754 0.228583
Si Si3 0.970014 0.764335 0.632624
Si Si4 0.191262 0.005791 0.523667
Si Si5 0.040459 0.122709 0.940748
Si Si6 0.381265 0.165008 0.828868
Si Si7 0.347454 0.138064 0.243593
Si Si8 0.850840 0.425109 0.172783
O O1 0.525241 0.522959 0.772763
O O2 0.502784 0.759216 0.798228
O O3 0.767219 0.530384 0.395372
O O4 0.344675 0.585098 0.751794
O O5 0.142325 0.633087 0.458090
O O6 0.512324 0.706012 0.214296
O O7 0.500000 0.500000 0.000000
O O8 0.791513 0.774312 0.691702
O O9 0.110661 0.868483 0.512527
O O10 0.827149 0.807823 0.889997
O O11 0.039498 0.073999 0.791045
O O12 0.200901 0.094298 0.450570
O O13 0.443672 0.956811 0.330103
O O14 0.288540 0.133096 0.774493
O O15 0.919999 0.281015 0.106182
O O16 0.000000 0.000000 0.000000
O O17 0.500000 0.000000 0.000000
O O18 0.000000 0.500000 0.000000
#
# Coordination Sequence:
#
# PCOD9075218 Si02
#       8
#     2   2   2   2   2   2   2   2
#     4  11  27  47  72 102 144 189 240 294 357 438
#     4  11  26  44  71 103 140 189 240 291 353 431
#     4  11  24  45  70 100 142 187 235 292 357 427
#     4  11  25  43  68 104 142 184 229 291 363 420
#     4  12  25  42  75 106 139 186 237 304 362 425
#     4  11  23  44  68 100 143 179 235 294 359 420
#     4  12  26  45  73 103 146 189 239 299 358 430
#     4  11  26  50  73 102 145 193 242 296 366 433
#
# _framework density 21.871701999999999
#
# number of rings (size 3 to 8) (size 9 to 14) (size 15 to 20)
#    0.000    0.750    2.500    3.750    7.000    6.000 
#    0.000    0.000    0.000    0.000    0.000    0.000 
#    0.000    0.000    0.000    0.000    0.000    0.000 
#
# Total GULP energy -89094.700299 kJ/mol
# GULP energy per Si atom -5568.418769 kJ/mol
# Density = 2.182192 g / cm^3
# Si number density = 21.871702 Si / 1000 Ang^3
#
#
#
# Elastic Constant Matrix: (Units=GPa)
#
#
# Indices 1 2 3 4 5 6 
#
# 1 78.8490 20.4407 11.2676 -3.0889 7.4836 -9.7716
# 2 20.4407 144.1887 25.7387 2.6914 11.9246 -16.3535
# 3 11.2676 25.7387 70.1816 8.2386 9.1121 -4.9525
# 4 -3.0889 2.6914 8.2386 33.5901 -11.1857 4.8979
# 5 7.4836 11.9246 9.1121 -11.1857 35.9233 -3.9378
# 6 -9.7716 -16.3535 -4.9525 4.8979 -3.9378 46.3547
#
#
#
# Elastic Compliance Matrix: (Units=1/GPa)
#
#
# Indices 1 2 3 4 5 6 
#
# 1 0.013671 -0.001337 -0.001473 0.000924 -0.001521 0.002026
# 2 -0.001337 0.007947 -0.002146 -0.001210 -0.001945 0.002255
# 3 -0.001473 -0.002146 0.016658 -0.005820 -0.004919 0.000909
# 4 0.000924 -0.001210 -0.005820 0.036076 0.012524 -0.003602
# 5 -0.001521 -0.001945 -0.004919 0.012524 0.033950 0.000029
# 6 0.002026 0.002255 0.000909 -0.003602 0.000029 0.023276
#
#
# Mechanical properties :
#
#
# Convention : Reuss Voigt Hill
#
# Bulk Modulus (GPa) = 35.25459 45.34594 40.30026
# Shear Modulus (GPa) = 33.12486 38.89176 36.00831
#
# Velocity S-wave (km/s) = 3.89589 4.22142 4.06192
# Velocity P-wave (km/s) = 6.03250 6.67370 6.36118
#
# Compressibility (1/GPa) = 0.02836510
#
# Stress axis : x y z
#
# Youngs Moduli (GPa) = 73.14700 125.83065 60.03022
#
# Poissons Ratio (x) = 0.16822 0.08840
# Poissons Ratio (y) = 0.09779 0.12885
# Poissons Ratio (z) = 0.10771 0.27007
#
# Static dielectric constant tensor:
#      x y z
#    x 1.896830 0.085950 -0.067660 
#    y 0.085950 1.859940 0.000820 
#    z -0.067660 0.000820 1.908530 
# 
# From -- ./inp_files/97524.got.cif
#   From: 2010.05.17/outbox.ucp.g08.bks.cvg/sg2_49_cif.got.tgz:97524.got - 2010.06.11 11:32:03.
