data_PCOD9075318
_publ_section_title
;
Structure prediction by ZEFSAII (Michael W. Deem and Ramdas Pophale) SiO2 
 PCOD9075318
Probable space group: P -1
;
_chemical_formula_sum "Si O2"
_cell_formula_units_Z 16
_cell_length_a 13.039518
_cell_length_b 6.682126
_cell_length_c 11.908657
_cell_angle_alpha 93.684558
_cell_angle_beta 126.158251
_cell_angle_gamma 113.395127
_cell_volume 703.729368
_symmetry_space_group_name_H-M "P -1"
_symmetry_group_IT_number 2
_symmetry_cell_setting 'triclinic'
loop_
_space_group_symop_operation_xyz
x,y,z
-x,-y,-z
loop_
_atom_site_type_symbol
_atom_site_label
_atom_site_fract_x
_atom_site_fract_y
_atom_site_fract_z
Si Si1 0.161836 0.882453 0.111669
Si Si2 0.078229 0.507058 0.231247
Si Si3 0.617927 0.519384 0.168712
Si Si4 0.824374 0.333167 0.235109
Si Si5 0.707784 0.635383 0.704900
Si Si6 0.309128 0.005740 0.673510
Si Si7 0.443455 0.147555 0.534593
Si Si8 0.410397 0.014593 0.107869
O O1 0.131634 0.749021 0.206197
O O2 0.178668 0.137042 0.137972
O O3 0.317531 0.936639 0.159453
O O4 0.035803 0.697985 0.937853
O O5 0.983107 0.471576 0.279460
O O6 0.209376 0.453640 0.325267
O O7 0.743747 0.479821 0.196492
O O8 0.514345 0.298416 0.176186
O O9 0.698475 0.768709 0.293220
O O10 0.500000 0.500000 0.000000
O O11 0.816439 0.224741 0.348349
O O12 0.710666 0.104968 0.074581
O O13 0.587167 0.396381 0.684162
O O14 0.628587 0.746902 0.589502
O O15 0.470453 0.062909 0.826619
O O16 0.328308 0.991464 0.553076
O O17 0.500000 0.000000 0.500000
#
# Coordination Sequence:
#
# PCOD9075318 Si02
#       8
#     2   2   2   2   2   2   2   2
#     4  10  21  38  61  91 125 162 199 248 305 362
#     4  10  22  39  59  89 130 164 196 244 305 368
#     4  11  18  32  55  84 120 158 191 242 299 358
#     4  10  21  34  53  85 122 158 191 237 299 363
#     4  11  22  41  63  89 116 160 209 252 305 359
#     4  11  20  35  57  85 118 155 199 247 303 355
#     4  11  25  42  66  89 118 156 207 266 304 346
#     4  10  18  32  53  85 120 153 194 243 298 356
#
# _framework density 22.736014999999998
#
# number of rings (size 3 to 8) (size 9 to 14) (size 15 to 20)
#    0.000    1.500    2.500    4.125    0.000    4.000 
#    2.250    0.625    0.000    3.750    0.000    0.000 
#    0.000    0.000    0.000    0.000    0.000    0.000 
#
# Total GULP energy -89437.771291 kJ/mol
# GULP energy per Si atom -5589.860706 kJ/mol
# Density = 2.268427 g / cm^3
# Si number density = 22.736015 Si / 1000 Ang^3
#
#
#
# Elastic Constant Matrix: (Units=GPa)
#
#
# Indices 1 2 3 4 5 6 
#
# 1 152.5619 71.1551 9.9418 1.3191 -21.1496 15.9985
# 2 71.1551 124.7827 24.8461 7.0341 -13.4092 7.8747
# 3 9.9418 24.8461 48.4618 4.9214 -15.4988 5.2305
# 4 1.3191 7.0341 4.9214 35.5863 2.4717 -7.5791
# 5 -21.1496 -13.4092 -15.4988 2.4717 30.2748 -3.1747
# 6 15.9985 7.8747 5.2305 -7.5791 -3.1747 45.5352
#
#
#
# Elastic Compliance Matrix: (Units=1/GPa)
#
#
# Indices 1 2 3 4 5 6 
#
# 1 0.010003 -0.005463 0.002977 -0.000667 0.005872 -0.002613
# 2 -0.005463 0.012144 -0.005311 -0.001364 -0.001031 0.000130
# 3 0.002977 -0.005311 0.028076 -0.004593 0.014147 -0.003130
# 4 -0.000667 -0.001364 -0.004593 0.030619 -0.005321 0.005723
# 5 0.005872 -0.001031 0.014147 -0.005321 0.044215 -0.001313
# 6 -0.002613 0.000130 -0.003130 0.005723 -0.001313 0.024077
#
#
# Mechanical properties :
#
#
# Convention : Reuss Voigt Hill
#
# Bulk Modulus (GPa) = 28.87825 59.74358 44.31091
# Shear Modulus (GPa) = 28.36539 36.93683 32.65111
#
# Velocity S-wave (km/s) = 3.53597 4.03500 3.79370
# Velocity P-wave (km/s) = 5.42216 6.93126 6.22263
#
# Compressibility (1/GPa) = 0.03462814
#
# Stress axis : x y z
#
# Youngs Moduli (GPa) = 99.97484 82.34243 35.61798
#
# Poissons Ratio (x) = 0.44983 -0.10602
# Poissons Ratio (y) = 0.54615 0.18917
# Poissons Ratio (z) = -0.29759 0.43732
#
# Static dielectric constant tensor:
#      x y z
#    x 1.840530 0.004240 0.021490 
#    y 0.004240 1.827480 0.011680 
#    z 0.021490 0.011680 1.936390 
# 
# From -- ./inp_files/525386.got.cif
#   From: 2010.05.17/outbox.cif.g08.bks.cpg/sg2_263_cif.got.tgz:525386.got - 2010.06.03 11:33:40.
