data_PCOD9075915
_publ_section_title
;
Structure prediction by ZEFSAII (Michael W. Deem and Ramdas Pophale) SiO2 
 PCOD9075915
Probable space group: P -1
;
_chemical_formula_sum "Si O2"
_cell_formula_units_Z 16
_cell_length_a 11.305056
_cell_length_b 12.528468
_cell_length_c 17.114079
_cell_angle_alpha 152.140514
_cell_angle_beta 42.229209
_cell_angle_gamma 136.205601
_cell_volume 743.678394
_symmetry_space_group_name_H-M "P -1"
_symmetry_group_IT_number 2
_symmetry_cell_setting 'triclinic'
loop_
_space_group_symop_operation_xyz
x,y,z
-x,-y,-z
loop_
_atom_site_type_symbol
_atom_site_label
_atom_site_fract_x
_atom_site_fract_y
_atom_site_fract_z
Si Si1 0.743779 0.521834 0.710041
Si Si2 0.361178 0.761379 0.808666
Si Si3 0.494857 0.724530 0.875439
Si Si4 0.030774 0.489815 0.109361
Si Si5 0.780207 0.213140 0.261324
Si Si6 0.895662 0.168041 0.828785
Si Si7 0.949518 0.701679 0.575932
Si Si8 0.166492 0.249074 0.021472
O O1 0.554220 0.516981 0.758379
O O2 0.879595 0.690657 0.692151
O O3 0.743571 0.628991 0.865178
O O4 0.839042 0.303485 0.529625
O O5 0.497570 0.688035 0.757090
O O6 0.170510 0.589897 0.809477
O O7 0.376890 0.772759 0.714862
O O8 0.375392 0.030578 0.003126
O O9 0.299146 0.769992 0.021065
O O10 0.059498 0.748334 0.227322
O O11 0.170030 0.425594 0.061971
O O12 0.028907 0.325970 0.927975
O O13 0.847621 0.454120 0.429078
O O14 0.952023 0.182388 0.103889
O O15 0.754917 0.983056 0.178521
O O16 0.905861 0.908280 0.679287
#
# Coordination Sequence:
#
# PCOD9075915 Si02
#       8
#     2   2   2   2   2   2   2   2
#     4  10  19  33  52  84 108 142 175 230 274 314
#     4   9  16  30  55  79 102 141 185 222 257 312
#     4  10  18  32  57  81 109 143 180 222 267 325
#     4   9  19  34  57  77 104 149 190 216 250 332
#     4   9  17  29  50  83 109 135 177 234 266 305
#     4  10  21  36  53  82 113 142 181 221 271 323
#     4  10  21  31  53  86 113 134 176 239 272 303
#     4   9  17  30  54  78 104 143 186 217 261 322
#
# _framework density 21.514676000000001
#
# number of rings (size 3 to 8) (size 9 to 14) (size 15 to 20)
#    0.000    2.500    1.250    2.250    8.750    0.000 
#    0.000    8.750    0.000    6.750    0.000    0.000 
#    0.000    0.000    0.000    0.000    0.000    0.000 
#
# Total GULP energy -89082.891780 kJ/mol
# GULP energy per Si atom -5567.680736 kJ/mol
# Density = 2.146571 g / cm^3
# Si number density = 21.514676 Si / 1000 Ang^3
#
#
#
# Elastic Constant Matrix: (Units=GPa)
#
#
# Indices 1 2 3 4 5 6 
#
# 1 163.1583 34.2118 55.6230 12.9218 -17.6736 -46.2645
# 2 34.2118 63.5258 26.6548 18.7041 -16.8828 -30.0443
# 3 55.6230 26.6548 80.0154 15.1084 -20.8266 -17.5998
# 4 12.9218 18.7041 15.1084 15.3888 -6.9945 -11.9846
# 5 -17.6736 -16.8828 -20.8266 -6.9945 36.9310 1.9868
# 6 -46.2645 -30.0443 -17.5998 -11.9846 1.9868 37.4296
#
#
#
# Elastic Compliance Matrix: (Units=1/GPa)
#
#
# Indices 1 2 3 4 5 6 
#
# 1 0.012152 0.002810 -0.005998 0.006986 0.004154 0.016472
# 2 0.002810 0.035032 -0.001714 -0.019392 0.011431 0.023971
# 3 -0.005998 -0.001714 0.020353 -0.013294 0.005509 -0.003768
# 4 0.006986 -0.019392 -0.013294 0.118316 0.008084 0.024273
# 5 0.004154 0.011431 0.005509 0.008084 0.037989 0.017472
# 6 0.016472 0.023971 -0.003768 0.024273 0.017472 0.071390
#
#
# Mechanical properties :
#
#
# Convention : Reuss Voigt Hill
#
# Bulk Modulus (GPa) = 17.32122 59.96428 38.64275
# Shear Modulus (GPa) = 15.41870 30.63052 23.02461
#
# Velocity S-wave (km/s) = 2.67995 3.77729 3.27491
# Velocity P-wave (km/s) = 4.20054 6.85243 5.68332
#
# Compressibility (1/GPa) = 0.05773266
#
# Stress axis : x y z
#
# Youngs Moduli (GPa) = 82.28983 28.54525 49.13193
#
# Poissons Ratio (x) = -0.08020 0.29471
# Poissons Ratio (y) = -0.23120 0.08420
# Poissons Ratio (z) = 0.49361 0.04892
#
# Static dielectric constant tensor:
#      x y z
#    x 1.880270 -0.024710 -0.034790 
#    y -0.024710 1.865810 0.003250 
#    z -0.034790 0.003250 1.825540 
# 
# From -- ./inp_files/404090.got.cif
#   From: 2010.05.17/outbox.cif.g08.bks.cpg/sg2_203_cif.got.tgz:404090.got - 2010.06.03 11:33:40.
