data_PCOD9075786
_publ_section_title
;
Structure prediction by ZEFSAII (Michael W. Deem and Ramdas Pophale) SiO2 
 PCOD9075786
Probable space group: P -1
;
_chemical_formula_sum "Si O2"
_cell_formula_units_Z 14
_cell_length_a 11.296307
_cell_length_b 10.734079
_cell_length_c 9.608953
_cell_angle_alpha 118.308514
_cell_angle_beta 38.118909
_cell_angle_gamma 125.728680
_cell_volume 583.613285
_symmetry_space_group_name_H-M "P -1"
_symmetry_group_IT_number 2
_symmetry_cell_setting 'triclinic'
loop_
_space_group_symop_operation_xyz
x,y,z
-x,-y,-z
loop_
_atom_site_type_symbol
_atom_site_label
_atom_site_fract_x
_atom_site_fract_y
_atom_site_fract_z
Si Si1 0.208604 0.011491 0.889114
Si Si2 0.512381 0.143120 0.430518
Si Si3 0.312101 0.991260 0.266758
Si Si4 0.302832 0.290961 0.102667
Si Si5 0.608627 0.674846 0.573666
Si Si6 0.292785 0.520410 0.021236
Si Si7 0.041345 0.339662 0.618966
O O1 0.402659 0.109874 0.662648
O O2 0.257933 0.859717 0.784842
O O3 0.220227 0.108131 0.068510
O O4 0.000000 0.000000 0.000000
O O5 0.482659 0.286458 0.462524
O O6 0.379626 0.003787 0.373686
O O7 0.125832 0.834890 0.320471
O O8 0.294572 0.155316 0.353149
O O9 0.500000 0.000000 0.000000
O O10 0.545418 0.361004 0.955564
O O11 0.185361 0.352179 0.357793
O O12 0.263518 0.357647 0.027250
O O13 0.420981 0.565609 0.783596
O O14 0.804821 0.627858 0.374329
O O15 0.085247 0.551980 0.217775
#
# Coordination Sequence:
#
# PCOD9075786 Si02
#       7
#     2   2   2   2   2   2   2
#     4  11  22  38  55  79 111 151 189 225 270 329
#     4   9  22  36  52  80 111 141 184 229 279 322
#     4  10  18  32  55  84 114 140 177 234 285 324
#     4  10  23  36  58  82 114 151 185 227 274 329
#     4   9  21  33  55  84 111 143 178 233 285 326
#     4  10  20  39  56  85 116 142 184 231 280 332
#     4  11  18  32  56  86 113 142 182 226 289 329
#
# _framework density 23.988486000000002
#
# number of rings (size 3 to 8) (size 9 to 14) (size 15 to 20)
#    0.857    1.143    1.429    2.571    2.000    3.429 
#    0.000    0.714    0.000    1.714    0.000    0.000 
#    0.000    0.000    0.000    0.000    0.000    0.000 
#
# Total GULP energy -78183.191484 kJ/mol
# GULP energy per Si atom -5584.513677 kJ/mol
# Density = 2.393389 g / cm^3
# Si number density = 23.988486 Si / 1000 Ang^3
#
#
#
# Elastic Constant Matrix: (Units=GPa)
#
#
# Indices 1 2 3 4 5 6 
#
# 1 128.6443 38.8708 40.0298 19.6857 -29.9409 -36.5621
# 2 38.8708 67.5578 10.7054 11.8023 -2.8805 -12.3622
# 3 40.0298 10.7054 56.0922 4.1818 -17.4968 -19.8177
# 4 19.6857 11.8023 4.1818 36.0442 -16.8522 2.4335
# 5 -29.9409 -2.8805 -17.4968 -16.8522 40.1929 12.9376
# 6 -36.5621 -12.3622 -19.8177 2.4335 12.9376 44.1397
#
#
#
# Elastic Compliance Matrix: (Units=1/GPa)
#
#
# Indices 1 2 3 4 5 6 
#
# 1 0.014752 -0.005389 -0.005289 -0.004229 0.004162 0.007349
# 2 -0.005389 0.019403 -0.000302 -0.006647 -0.006546 0.003121
# 3 -0.005289 -0.000302 0.025205 0.002873 0.006692 0.004731
# 4 -0.004229 -0.006647 0.002873 0.041517 0.018859 -0.011891
# 5 0.004162 -0.006546 0.006692 0.018859 0.041053 -0.008454
# 6 0.007349 0.003121 0.004731 -0.011891 -0.008454 0.034874
#
#
# Mechanical properties :
#
#
# Convention : Reuss Voigt Hill
#
# Bulk Modulus (GPa) = 26.73731 47.94517 37.34124
# Shear Modulus (GPa) = 23.67100 34.92126 29.29613
#
# Velocity S-wave (km/s) = 3.14469 3.81957 3.49844
# Velocity P-wave (km/s) = 4.93513 6.28349 5.64968
#
# Compressibility (1/GPa) = 0.03740093
#
# Stress axis : x y z
#
# Youngs Moduli (GPa) = 67.78861 51.53715 39.67516
#
# Poissons Ratio (x) = 0.27771 0.20985
# Poissons Ratio (y) = 0.36529 0.01197
# Poissons Ratio (z) = 0.35855 0.01554
#
# Static dielectric constant tensor:
#      x y z
#    x 1.976940 -0.032050 0.024870 
#    y -0.032050 1.946580 -0.014010 
#    z 0.024870 -0.014010 1.904540 
# 
# From -- ./inp_files/249143.got.cif
#   From: 2010.05.17/outbox.cif.g08.bks.cpg/sg2_125_cif.got.tgz:249143.got - 2010.06.03 11:33:40.
