data_PCOD9075132
_publ_section_title
;
Structure prediction by ZEFSAII (Michael W. Deem and Ramdas Pophale) SiO2 
 PCOD9075132
Probable space group: P -1
;
_chemical_formula_sum "Si O2"
_cell_formula_units_Z 14
_cell_length_a 18.000000
_cell_length_b 9.000000
_cell_length_c 12.000000
_cell_angle_alpha 130.000000
_cell_angle_beta 140.000000
_cell_angle_gamma 30.000000
_cell_volume 623.501542
_symmetry_space_group_name_H-M "P -1"
_symmetry_group_IT_number 2
_symmetry_cell_setting 'triclinic'
loop_
_space_group_symop_operation_xyz
x,y,z
-x,-y,-z
loop_
_atom_site_type_symbol
_atom_site_label
_atom_site_fract_x
_atom_site_fract_y
_atom_site_fract_z
Si Si1 0.994103 0.294095 0.944331
Si Si2 0.668134 0.314842 0.025615
Si Si3 0.046331 0.517007 0.775085
Si Si4 0.161725 0.933695 0.671660
Si Si5 0.342424 0.120293 0.529944
Si Si6 0.693351 0.520349 0.540464
Si Si7 0.638015 0.762880 0.138307
O O1 0.855350 0.356801 0.734161
O O2 0.207081 0.982627 0.045352
O O3 0.000000 0.500000 0.000000
O O4 0.928143 0.381165 0.037863
O O5 0.797897 0.182017 0.213298
O O6 0.626496 0.548426 0.017319
O O7 0.500000 0.500000 0.000000
O O8 0.166896 0.425197 0.766923
O O9 0.842103 0.759631 0.622751
O O10 0.114820 0.217334 0.747178
O O11 0.295501 0.700294 0.615380
O O12 0.000000 0.000000 0.500000
O O13 0.312486 0.322166 0.496148
O O14 0.386570 0.146539 0.716787
O O15 0.510999 0.783149 0.522280
O O16 0.500000 0.000000 0.000000
#
# Coordination Sequence:
#
# PCOD9075132 Si02
#       7
#     2   2   2   2   2   2   2
#     4  12  23  43  72 108 136 176 231 294 344 406
#     4  12  26  41  74 102 136 179 235 284 343 411
#     4  12  25  44  72 101 144 181 225 286 351 410
#     4  12  20  43  68 105 132 179 230 283 338 406
#     4  11  23  41  69 100 133 185 226 285 335 405
#     4  11  23  39  72 103 138 168 237 289 337 397
#     4  12  27  47  66 100 146 187 228 281 353 412
#
# _framework density 22.453834000000001
#
# number of rings (size 3 to 8) (size 9 to 14) (size 15 to 20)
#    0.000    0.286    7.143    2.143    4.000    0.571 
#    0.000    0.714    0.000    0.000    0.000    0.000 
#    0.000    0.000    0.000    0.000    0.000    0.000 
#
# Total GULP energy -78009.654248 kJ/mol
# GULP energy per Si atom -5572.118161 kJ/mol
# Density = 2.240273 g / cm^3
# Si number density = 22.453834 Si / 1000 Ang^3
#
#
#
# Elastic Constant Matrix: (Units=GPa)
#
#
# Indices 1 2 3 4 5 6 
#
# 1 85.1813 58.9784 10.1169 -2.0789 -0.8027 -17.0856
# 2 58.9784 140.8663 4.8723 -2.1763 9.6019 -28.4097
# 3 10.1169 4.8723 31.9145 -2.0587 5.5543 -17.8901
# 4 -2.0789 -2.1763 -2.0587 29.6845 -16.8829 -3.1732
# 5 -0.8027 9.6019 5.5543 -16.8829 23.6647 7.1862
# 6 -17.0856 -28.4097 -17.8901 -3.1732 7.1862 41.4752
#
#
#
# Elastic Compliance Matrix: (Units=1/GPa)
#
#
# Indices 1 2 3 4 5 6 
#
# 1 0.018361 -0.008807 -0.008045 0.006347 0.011668 -0.003476
# 2 -0.008807 0.014209 0.010721 -0.007717 -0.018118 0.013278
# 3 -0.008045 0.010721 0.057296 -0.014037 -0.038514 0.034344
# 4 0.006347 -0.007717 -0.014037 0.062703 0.055487 -0.013543
# 5 0.011668 -0.018118 -0.038514 0.055487 0.110508 -0.039119
# 6 -0.003476 0.013278 0.034344 -0.013543 -0.039119 0.052330
#
#
# Mechanical properties :
#
#
# Convention : Reuss Voigt Hill
#
# Bulk Modulus (GPa) = 12.88592 45.09972 28.99282
# Shear Modulus (GPa) = 14.14269 31.23119 22.68694
#
# Velocity S-wave (km/s) = 2.51242 3.73353 3.18210
# Velocity P-wave (km/s) = 3.76399 6.22212 5.14210
#
# Compressibility (1/GPa) = 0.07760411
#
# Stress axis : x y z
#
# Youngs Moduli (GPa) = 54.46293 70.37611 17.45311
#
# Poissons Ratio (x) = 0.61983 0.14042
# Poissons Ratio (y) = 0.47968 -0.18712
# Poissons Ratio (z) = 0.43818 -0.75453
#
# Static dielectric constant tensor:
#      x y z
#    x 1.818380 -0.087510 0.034370 
#    y -0.087510 1.980100 -0.006140 
#    z 0.034370 -0.006140 1.866350 
# 
# From -- ./inp_files/242624.got.cif
#   From: 2010.05.17/outbox.ucp.g08.bks.cvg/sg2_122_cif.got.tgz:242624.got - 2010.06.11 11:32:03.
