data_PCOD9075880
_publ_section_title
;
Structure prediction by ZEFSAII (Michael W. Deem and Ramdas Pophale) SiO2 
 PCOD9075880
Probable space group: P -1
;
_chemical_formula_sum "Si O2"
_cell_formula_units_Z 16
_cell_length_a 7.643855
_cell_length_b 14.150437
_cell_length_c 10.511324
_cell_angle_alpha 135.977936
_cell_angle_beta 131.378090
_cell_angle_gamma 62.783632
_cell_volume 592.513060
_symmetry_space_group_name_H-M "P -1"
_symmetry_group_IT_number 2
_symmetry_cell_setting 'triclinic'
loop_
_space_group_symop_operation_xyz
x,y,z
-x,-y,-z
loop_
_atom_site_type_symbol
_atom_site_label
_atom_site_fract_x
_atom_site_fract_y
_atom_site_fract_z
Si Si1 0.844409 0.908152 0.241814
Si Si2 0.450685 0.841672 0.289083
Si Si3 0.121301 0.315366 0.775491
Si Si4 0.612311 0.423305 0.858575
Si Si5 0.819664 0.800844 0.869338
Si Si6 0.324245 0.476085 0.514213
Si Si7 0.689056 0.046972 0.923824
Si Si8 0.284433 0.750605 0.661051
O O1 0.832480 0.752452 0.133519
O O2 0.588292 0.966946 0.192451
O O3 0.933966 0.887331 0.122841
O O4 0.000000 0.000000 0.500000
O O5 0.693001 0.768724 0.300355
O O6 0.352187 0.733721 0.241045
O O7 0.302185 0.856404 0.101587
O O8 0.500000 0.000000 0.500000
O O9 0.869844 0.277294 0.563219
O O10 0.164400 0.476031 0.953085
O O11 0.457774 0.440656 0.674001
O O12 0.500000 0.500000 0.000000
O O13 0.869651 0.643890 0.717852
O O14 0.550879 0.777420 0.771086
O O15 0.795658 0.898448 0.830100
O O16 0.500000 0.500000 0.500000
O O17 0.231085 0.626494 0.612860
O O18 0.784683 0.121793 0.166796
#
# Coordination Sequence:
#
# PCOD9075880 Si02
#       8
#     2   2   2   2   2   2   2   2
#     4  10  18  32  56  86 116 151 192 233 285 354
#     4  10  21  38  58  80 107 146 195 247 290 338
#     4  10  20  35  57  83 110 149 195 238 284 352
#     4  10  20  39  61  82 113 159 200 233 286 358
#     4  10  19  33  55  84 115 150 186 238 293 338
#     4  10  20  36  57  83 116 150 187 238 292 337
#     4  10  19  34  56  78 108 151 191 231 287 349
#     4  10  19  35  55  82 114 150 188 232 292 356
#
# _framework density 27.003623000000001
#
# number of rings (size 3 to 8) (size 9 to 14) (size 15 to 20)
#    0.000    2.000    0.000    7.500    0.000    0.000 
#    0.000   16.875    0.000    0.000    0.000    0.000 
#    0.000    0.000    0.000    0.000    0.000    0.000 
#
# Total GULP energy -89502.094067 kJ/mol
# GULP energy per Si atom -5593.880879 kJ/mol
# Density = 2.694216 g / cm^3
# Si number density = 27.003623 Si / 1000 Ang^3
#
#
#
# Elastic Constant Matrix: (Units=GPa)
#
#
# Indices 1 2 3 4 5 6 
#
# 1 87.8778 0.8059 -3.1747 4.2285 -11.5350 3.7280
# 2 0.8059 197.0026 40.3879 29.7571 1.6394 21.4560
# 3 -3.1747 40.3879 122.0072 7.9818 -0.7994 12.5159
# 4 4.2285 29.7571 7.9818 58.5130 6.6485 3.6139
# 5 -11.5350 1.6394 -0.7994 6.6485 19.2319 -4.2464
# 6 3.7280 21.4560 12.5159 3.6139 -4.2464 31.0663
#
#
#
# Elastic Compliance Matrix: (Units=1/GPa)
#
#
# Indices 1 2 3 4 5 6 
#
# 1 0.012575 0.000118 0.000515 -0.001933 0.008120 -0.000463
# 2 0.000118 0.006165 -0.001516 -0.002689 -0.000338 -0.003395
# 3 0.000515 -0.001516 0.009000 -0.000380 0.000382 -0.002544
# 4 -0.001933 -0.002689 -0.000380 0.019626 -0.007981 -0.001132
# 5 0.008120 -0.000338 0.000382 -0.007981 0.061535 0.008445
# 6 -0.000463 -0.003395 -0.002544 -0.001132 0.008445 0.036900
#
#
# Mechanical properties :
#
#
# Convention : Reuss Voigt Hill
#
# Bulk Modulus (GPa) = 38.49843 53.65841 46.07842
# Shear Modulus (GPa) = 32.00497 46.35347 39.17922
#
# Velocity S-wave (km/s) = 3.44642 4.14764 3.81318
# Velocity P-wave (km/s) = 5.48861 6.54608 6.04053
#
# Compressibility (1/GPa) = 0.02597509
#
# Stress axis : x y z
#
# Youngs Moduli (GPa) = 79.51980 162.20449 111.11340
#
# Poissons Ratio (x) = -0.01910 -0.05727
# Poissons Ratio (y) = -0.00936 0.16843
# Poissons Ratio (z) = -0.04099 0.24587
#
# Static dielectric constant tensor:
#      x y z
#    x 2.303230 -0.013530 -0.024860 
#    y -0.013530 2.108690 0.024600 
#    z -0.024860 0.024600 2.184710 
# 
# From -- ./inp_files/282934.got.cif
#   From: 2010.05.17/outbox.cif.g08.bks.cpg/sg2_142_cif.got.tgz:282934.got - 2010.06.03 11:33:40.
