data_PCOD9075496
_publ_section_title
;
Structure prediction by ZEFSAII (Michael W. Deem and Ramdas Pophale) SiO2 
 PCOD9075496
Probable space group: P -1
;
_chemical_formula_sum "Si O2"
_cell_formula_units_Z 16
_cell_length_a 12.000000
_cell_length_b 6.000000
_cell_length_c 15.000000
_cell_angle_alpha 60.000000
_cell_angle_beta 90.000000
_cell_angle_gamma 60.000000
_cell_volume 763.675324
_symmetry_space_group_name_H-M "P -1"
_symmetry_group_IT_number 2
_symmetry_cell_setting 'triclinic'
loop_
_space_group_symop_operation_xyz
x,y,z
-x,-y,-z
loop_
_atom_site_type_symbol
_atom_site_label
_atom_site_fract_x
_atom_site_fract_y
_atom_site_fract_z
Si Si1 0.653993 0.387822 0.763564
Si Si2 0.208243 0.335377 0.650830
Si Si3 0.067321 0.247400 0.334115
Si Si4 0.393472 0.445181 0.058559
Si Si5 0.052558 0.270337 0.132014
Si Si6 0.202506 0.759332 0.838315
Si Si7 0.797309 0.488714 0.588198
Si Si8 0.574670 0.716424 0.209253
O O1 0.633790 0.499547 0.845721
O O2 0.681888 0.547853 0.648577
O O3 0.514284 0.416172 0.741386
O O4 0.794548 0.032418 0.830126
O O5 0.221657 0.348725 0.541277
O O6 0.338910 0.290587 0.706473
O O7 0.073661 0.636767 0.638111
O O8 0.197767 0.051666 0.738904
O O9 0.053529 0.400645 0.205024
O O10 0.130677 0.379812 0.376212
O O11 0.139624 0.875699 0.377594
O O12 0.460811 0.079555 0.112624
O O13 0.500000 0.500000 0.000000
O O14 0.257890 0.676691 0.955652
O O15 0.943430 0.185995 0.168039
O O16 0.000000 0.500000 0.000000
O O17 0.316111 0.468509 0.833688
#
# Coordination Sequence:
#
# PCOD9075496 Si02
#       8
#     2   2   2   2   2   2   2   2
#     4  11  27  47  69 108 150 198 242 310 388 444
#     4  12  25  45  77 107 143 197 260 308 361 457
#     4  11  25  49  73 112 152 198 248 309 386 447
#     4  12  25  44  72 103 150 198 240 305 381 452
#     4  11  26  45  76 112 150 193 245 320 379 449
#     4  12  26  46  74 114 143 194 257 310 371 455
#     4  11  28  48  77 108 155 199 250 316 382 435
#     4  12  25  46  73 106 149 195 254 302 379 453
#
# _framework density 20.951312000000001
#
# number of rings (size 3 to 8) (size 9 to 14) (size 15 to 20)
#    0.000    0.500    3.750    3.375   10.500    1.000 
#    0.000    2.500    0.000    0.000    0.000    0.000 
#    0.000    0.000    0.000    0.000    0.000    0.000 
#
# Total GULP energy -89243.370270 kJ/mol
# GULP energy per Si atom -5577.710642 kJ/mol
# Density = 2.090363 g / cm^3
# Si number density = 20.951312 Si / 1000 Ang^3
#
#
#
# Elastic Constant Matrix: (Units=GPa)
#
#
# Indices 1 2 3 4 5 6 
#
# 1 146.7897 29.7175 43.8754 13.2042 -5.6962 0.6633
# 2 29.7175 110.2868 46.7305 23.9298 -6.5054 -1.1161
# 3 43.8754 46.7305 148.2097 40.8099 -14.5640 15.8702
# 4 13.2042 23.9298 40.8099 45.1094 -0.4406 -4.6387
# 5 -5.6962 -6.5054 -14.5640 -0.4406 30.2331 10.4065
# 6 0.6633 -1.1161 15.8702 -4.6387 10.4065 41.4813
#
#
#
# Elastic Compliance Matrix: (Units=1/GPa)
#
#
# Indices 1 2 3 4 5 6 
#
# 1 0.007641 -0.001268 -0.002032 0.000342 -0.000037 0.000669
# 2 -0.001268 0.011139 -0.002122 -0.003557 0.000910 0.000506
# 3 -0.002032 -0.002122 0.012449 -0.010276 0.007717 -0.007872
# 4 0.000342 -0.003557 -0.010276 0.034175 -0.008523 0.009790
# 5 -0.000037 0.000910 0.007717 -0.008523 0.041804 -0.014368
# 6 0.000669 0.000506 -0.007872 0.009790 -0.014368 0.031821
#
#
# Mechanical properties :
#
#
# Convention : Reuss Voigt Hill
#
# Bulk Modulus (GPa) = 49.05550 71.77032 60.41291
# Shear Modulus (GPa) = 31.91482 42.36230 37.13856
#
# Velocity S-wave (km/s) = 3.90716 4.50148 4.21481
# Velocity P-wave (km/s) = 6.61963 7.83249 7.25146
#
# Compressibility (1/GPa) = 0.02038507
#
# Stress axis : x y z
#
# Youngs Moduli (GPa) = 130.86976 89.77786 80.33053
#
# Poissons Ratio (x) = 0.11382 0.16322
# Poissons Ratio (y) = 0.16591 0.17046
# Poissons Ratio (z) = 0.26591 0.19051
#
# Static dielectric constant tensor:
#      x y z
#    x 1.786800 0.033330 0.034650 
#    y 0.033330 1.779400 -0.044980 
#    z 0.034650 -0.044980 1.805110 
# 
# From -- ./inp_files/510731.got.cif
#   From: 2010.05.17/outbox.ucp.g08.bks.cvg/sg2_256_cif.got.tgz:510731.got - 2010.06.11 11:32:03.
