data_PCOD9075108
_publ_section_title
;
Structure prediction by ZEFSAII (Michael W. Deem and Ramdas Pophale) SiO2 
 PCOD9075108
Probable space group: P -1
;
_chemical_formula_sum "Si O2"
_cell_formula_units_Z 14
_cell_length_a 21.000000
_cell_length_b 12.000000
_cell_length_c 15.000000
_cell_angle_alpha 140.000000
_cell_angle_beta 20.000000
_cell_angle_gamma 150.000000
_cell_volume 620.704002
_symmetry_space_group_name_H-M "P -1"
_symmetry_group_IT_number 2
_symmetry_cell_setting 'triclinic'
loop_
_space_group_symop_operation_xyz
x,y,z
-x,-y,-z
loop_
_atom_site_type_symbol
_atom_site_label
_atom_site_fract_x
_atom_site_fract_y
_atom_site_fract_z
Si Si1 0.437186 0.026798 0.498512
Si Si2 0.538150 0.108152 0.218300
Si Si3 0.886054 0.621481 0.015771
Si Si4 0.427149 0.433205 0.765181
Si Si5 0.223465 0.250590 0.232419
Si Si6 0.016830 0.964184 0.771937
Si Si7 0.722641 0.929191 0.770688
O O1 0.553399 0.046686 0.262288
O O2 0.496137 0.271436 0.571558
O O3 0.500000 0.000000 0.500000
O O4 0.150199 0.783443 0.715971
O O5 0.774631 0.379940 0.056913
O O6 0.283266 0.054362 0.504791
O O7 0.524204 0.955867 0.065285
O O8 0.672792 0.563227 0.195573
O O9 0.951317 0.811999 0.116308
O O10 0.621689 0.698716 0.707813
O O11 0.183606 0.264020 0.044398
O O12 0.244468 0.122026 0.203705
O O13 0.105560 0.122690 0.216451
O O14 0.500000 0.500000 0.000000
O O15 0.971257 0.182712 0.564288
#
# Coordination Sequence:
#
# PCOD9075108 Si02
#       7
#     2   2   2   2   2   2   2
#     4  11  26  45  71 105 145 184 237 293 351 418
#     4  12  26  45  72 111 141 183 241 300 348 413
#     4  11  24  45  72 104 141 185 243 288 354 424
#     4  11  22  48  73 104 142 191 236 287 355 430
#     4  11  25  48  70  97 146 194 232 282 361 430
#     4  11  22  45  76 101 136 195 238 291 355 413
#     4  11  28  44  71 110 140 187 240 289 357 422
#
# _framework density 22.555033999999999
#
# number of rings (size 3 to 8) (size 9 to 14) (size 15 to 20)
#    0.000    0.857    4.286    2.143    6.000    6.857 
#    0.000    0.000    0.000    0.000    0.000    0.000 
#    0.000    0.000    0.000    0.000    0.000    0.000 
#
# Total GULP energy -77949.077189 kJ/mol
# GULP energy per Si atom -5567.791228 kJ/mol
# Density = 2.250370 g / cm^3
# Si number density = 22.555034 Si / 1000 Ang^3
#
#
#
# Elastic Constant Matrix: (Units=GPa)
#
#
# Indices 1 2 3 4 5 6 
#
# 1 141.7999 32.5882 13.7368 0.4503 14.5892 23.3246
# 2 32.5882 75.1498 62.6437 -20.2584 26.3950 -3.7222
# 3 13.7368 62.6437 77.1151 -12.4665 19.6824 23.6161
# 4 0.4503 -20.2584 -12.4665 21.2384 -3.4783 1.3999
# 5 14.5892 26.3950 19.6824 -3.4783 22.8804 1.5485
# 6 23.3246 -3.7222 23.6161 1.3999 1.5485 -11.7211
#
#
#
# Elastic Compliance Matrix: (Units=1/GPa)
#
#
# Indices 1 2 3 4 5 6 
#
# 1 0.006543 0.000218 -0.002993 -0.002536 -0.002659 0.006266
# 2 0.000218 0.036336 -0.008932 0.026731 -0.028304 -0.029647
# 3 -0.002993 -0.008932 0.013494 -0.002312 -0.001346 0.023615
# 4 -0.002536 0.026731 -0.002312 0.069472 -0.015858 -0.011991
# 5 -0.002659 -0.028304 -0.001346 -0.015858 0.076179 0.009156
# 6 0.006266 -0.029647 0.023615 -0.011991 0.009156 -0.016076
#
#
# Mechanical properties :
#
#
# Convention : Reuss Voigt Hill
#
# Bulk Modulus (GPa) = 30.33976 56.88915 43.61446
# Shear Modulus (GPa) = 22.69140 18.81926 20.75533
#
# Velocity S-wave (km/s) = 3.17526 2.89168 3.03678
# Velocity P-wave (km/s) = 5.18881 6.03541 5.62805
#
# Compressibility (1/GPa) = 0.03296005
#
# Stress axis : x y z
#
# Youngs Moduli (GPa) = 152.83815 27.52093 74.10634
#
# Poissons Ratio (x) = -0.00601 0.22181
# Poissons Ratio (y) = -0.03337 0.66189
# Poissons Ratio (z) = 0.45747 0.24581
#
# Static dielectric constant tensor:
#      x y z
#    x 1.840540 -0.005050 0.036110 
#    y -0.005050 1.781720 0.058490 
#    z 0.036110 0.058490 2.053050 
# 
# From -- ./inp_files/285841.got.cif
#   From: 2010.05.17/outbox.ucp.g08.bks.cvg/sg2_143_cif.got.tgz:285841.got - 2010.06.11 11:32:03.
