data_PCOD9075150
_publ_section_title
;
Structure prediction by ZEFSAII (Michael W. Deem and Ramdas Pophale) SiO2 
 PCOD9075150
Probable space group: P -1
;
_chemical_formula_sum "Si O2"
_cell_formula_units_Z 16
_cell_length_a 12.000000
_cell_length_b 15.000000
_cell_length_c 12.000000
_cell_angle_alpha 100.000000
_cell_angle_beta 100.000000
_cell_angle_gamma 20.000000
_cell_volume 727.188304
_symmetry_space_group_name_H-M "P -1"
_symmetry_group_IT_number 2
_symmetry_cell_setting 'triclinic'
loop_
_space_group_symop_operation_xyz
x,y,z
-x,-y,-z
loop_
_atom_site_type_symbol
_atom_site_label
_atom_site_fract_x
_atom_site_fract_y
_atom_site_fract_z
Si Si1 0.249282 0.859794 0.852005
Si Si2 0.591277 0.611570 0.079476
Si Si3 0.487888 0.543369 0.223902
Si Si4 0.834564 0.707923 0.951218
Si Si5 0.566535 0.783625 0.295806
Si Si6 0.022102 0.338835 0.650444
Si Si7 0.532210 0.132241 0.240128
Si Si8 0.111594 0.627654 0.608858
O O1 0.411373 0.639565 0.794995
O O2 0.397224 0.847557 0.840539
O O3 0.308928 0.811008 0.984049
O O4 0.888261 0.146150 0.800444
O O5 0.649674 0.478522 0.135076
O O6 0.534335 0.744467 0.172374
O O7 0.920792 0.391731 0.026625
O O8 0.608021 0.507872 0.346740
O O9 0.729800 0.744949 0.822120
O O10 0.000000 0.500000 0.000000
O O11 0.500000 0.000000 0.000000
O O12 0.753516 0.739824 0.315702
O O13 0.752778 0.570790 0.362713
O O14 0.203470 0.089128 0.328460
O O15 0.660560 0.653885 0.666717
O O16 0.011730 0.299542 0.520701
O O17 0.167873 0.152122 0.719732
#
# Coordination Sequence:
#
# PCOD9075150 Si02
#       8
#     2   2   2   2   2   2   2   2
#     4  12  26  46  67  97 141 182 230 278 327 397
#     4  11  25  44  74 103 139 180 221 275 350 406
#     4  11  26  46  68  98 134 180 239 281 324 394
#     4  12  26  43  68 101 145 182 216 273 343 411
#     4  11  23  41  69 106 139 171 219 280 350 417
#     4  12  24  44  70 101 137 178 227 277 350 405
#     4  12  26  44  67 103 139 181 225 276 336 415
#     4  11  24  45  69  99 136 178 227 290 338 390
#
# _framework density 22.002554
#
# number of rings (size 3 to 8) (size 9 to 14) (size 15 to 20)
#    0.000    0.500    2.500    6.000    3.500    3.000 
#    0.000    3.750    0.000    0.000    0.000    0.000 
#    0.000    0.000    0.000    0.000    0.000    0.000 
#
# Total GULP energy -89230.001145 kJ/mol
# GULP energy per Si atom -5576.875072 kJ/mol
# Density = 2.195248 g / cm^3
# Si number density = 22.002554 Si / 1000 Ang^3
#
#
#
# Elastic Constant Matrix: (Units=GPa)
#
#
# Indices 1 2 3 4 5 6 
#
# 1 107.9583 29.3003 15.9904 -17.7527 12.2079 25.8599
# 2 29.3003 143.8526 25.9191 -7.7282 4.3792 25.3198
# 3 15.9904 25.9191 84.7968 -8.4848 30.3605 10.8089
# 4 -17.7527 -7.7282 -8.4848 18.2959 4.5314 -6.2529
# 5 12.2079 4.3792 30.3605 4.5314 28.0781 -2.8023
# 6 25.8599 25.3198 10.8089 -6.2529 -2.8023 52.2337
#
#
#
# Elastic Compliance Matrix: (Units=1/GPa)
#
#
# Indices 1 2 3 4 5 6 
#
# 1 0.015556 -0.001568 0.006675 0.019512 -0.017577 -0.006930
# 2 -0.001568 0.008104 -0.002745 -0.000806 0.002261 -0.002559
# 3 0.006675 -0.002745 0.028407 0.025567 -0.037998 -0.006830
# 4 0.019512 -0.000806 0.025567 0.096001 -0.052081 -0.005862
# 5 -0.017577 0.002261 -0.037998 -0.052081 0.093820 0.014267
# 6 -0.006930 -0.002559 -0.006830 -0.005862 0.014267 0.025293
#
#
# Mechanical properties :
#
#
# Convention : Reuss Voigt Hill
#
# Bulk Modulus (GPa) = 17.60908 53.22526 35.41717
# Shear Modulus (GPa) = 17.76905 37.41473 27.59189
#
# Velocity S-wave (km/s) = 2.84490 4.12815 3.54507
# Velocity P-wave (km/s) = 4.33726 6.85312 5.73485
#
# Compressibility (1/GPa) = 0.05678887
#
# Stress axis : x y z
#
# Youngs Moduli (GPa) = 64.28487 123.39753 35.20276
#
# Poissons Ratio (x) = 0.19350 -0.23497
# Poissons Ratio (y) = 0.10080 0.09665
# Poissons Ratio (z) = -0.42908 0.33877
#
# Static dielectric constant tensor:
#      x y z
#    x 1.824710 -0.121530 -0.065170 
#    y -0.121530 1.843180 0.079300 
#    z -0.065170 0.079300 1.884180 
# 
# From -- ./inp_files/434133.got.cif
#   From: 2010.05.17/outbox.ucp.g08.bks.cvg/sg2_218_cif.got.tgz:434133.got - 2010.06.11 11:32:03.
