data_PCOD9075939
_publ_section_title
;
Structure prediction by ZEFSAII (Michael W. Deem and Ramdas Pophale) SiO2 
 PCOD9075939
Probable space group: P -1
;
_chemical_formula_sum "Si O2"
_cell_formula_units_Z 16
_cell_length_a 9.231957
_cell_length_b 16.209236
_cell_length_c 10.595405
_cell_angle_alpha 149.628712
_cell_angle_beta 103.884522
_cell_angle_gamma 58.918500
_cell_volume 604.363252
_symmetry_space_group_name_H-M "P -1"
_symmetry_group_IT_number 2
_symmetry_cell_setting 'triclinic'
loop_
_space_group_symop_operation_xyz
x,y,z
-x,-y,-z
loop_
_atom_site_type_symbol
_atom_site_label
_atom_site_fract_x
_atom_site_fract_y
_atom_site_fract_z
Si Si1 0.476375 0.633452 0.553737
Si Si2 0.462509 0.679044 0.134710
Si Si3 0.192579 0.084860 0.214175
Si Si4 0.687568 0.992624 0.262157
Si Si5 0.880963 0.136322 0.378142
Si Si6 0.741989 0.621370 0.427849
Si Si7 0.887981 0.426673 0.939548
Si Si8 0.475413 0.902556 0.244028
O O1 0.500000 0.500000 0.500000
O O2 0.334134 0.669314 0.459687
O O3 0.683282 0.543628 0.425530
O O4 0.355676 0.870549 0.895055
O O5 0.312814 0.889821 0.460502
O O6 0.417933 0.758039 0.084613
O O7 0.500000 0.500000 0.000000
O O8 0.673885 0.607296 0.086315
O O9 0.290841 0.079332 0.357064
O O10 0.154660 0.279348 0.389517
O O11 0.019198 0.093505 0.236924
O O12 0.856377 0.961202 0.175104
O O13 0.480101 0.178025 0.397445
O O14 0.656177 0.830958 0.096527
O O15 0.934641 0.218069 0.613891
O O16 0.862860 0.450244 0.116725
O O17 0.000000 0.500000 0.000000
O O18 0.500000 0.000000 0.500000
#
# Coordination Sequence:
#
# PCOD9075939 Si02
#       8
#     2   2   2   2   2   2   2   2
#     4  11  26  44  65  93 129 178 227 268 313 394
#     4  10  18  32  57  86 124 172 204 247 315 396
#     4  11  22  42  67  95 127 172 222 269 326 386
#     4   8  17  34  54  86 119 165 206 252 316 380
#     4  11  22  40  68  96 131 170 216 274 340 389
#     4   9  20  40  67  93 124 173 221 259 329 401
#     4  11  21  36  66  99 130 161 213 271 344 383
#     4   9  20  36  59  90 129 161 216 269 313 385
#
# _framework density 26.474143999999999
#
# number of rings (size 3 to 8) (size 9 to 14) (size 15 to 20)
#    0.000    2.000    2.500    1.500    1.750    0.000 
#    0.000    5.625    0.000    0.000    0.000    0.000 
#    0.000    0.000    0.000    0.000    0.000    0.000 
#
# Total GULP energy -89137.247721 kJ/mol
# GULP energy per Si atom -5571.077983 kJ/mol
# Density = 2.641389 g / cm^3
# Si number density = 26.474144 Si / 1000 Ang^3
#
#
#
# Elastic Constant Matrix: (Units=GPa)
#
#
# Indices 1 2 3 4 5 6 
#
# 1 227.4028 47.3327 32.6720 -10.0704 -0.1699 70.3444
# 2 47.3327 76.8428 12.9245 6.5023 15.5795 47.7918
# 3 32.6720 12.9245 102.2168 -18.4103 7.8022 17.8305
# 4 -10.0704 6.5023 -18.4103 19.2016 4.8810 0.0387
# 5 -0.1699 15.5795 7.8022 4.8810 30.2671 4.1252
# 6 70.3444 47.7918 17.8305 0.0387 4.1252 62.0600
#
#
#
# Elastic Compliance Matrix: (Units=1/GPa)
#
#
# Indices 1 2 3 4 5 6 
#
# 1 0.007053 0.000550 -0.000352 0.003067 0.000491 -0.008352
# 2 0.000550 0.029617 -0.000491 -0.007410 -0.010845 -0.022564
# 3 -0.000352 -0.000491 0.013361 0.014093 -0.005094 -0.002732
# 4 0.003067 -0.007410 0.014093 0.072598 -0.011358 -0.001110
# 5 0.000491 -0.010845 -0.005094 -0.011358 0.040876 0.006548
# 6 -0.008352 -0.022564 -0.002732 -0.001110 0.006548 0.043307
#
#
# Mechanical properties :
#
#
# Convention : Reuss Voigt Hill
#
# Bulk Modulus (GPa) = 20.22478 65.81343 43.01911
# Shear Modulus (GPa) = 22.33322 43.20793 32.77058
#
# Velocity S-wave (km/s) = 2.90761 4.04428 3.52210
# Velocity P-wave (km/s) = 4.35066 6.83533 5.72931
#
# Compressibility (1/GPa) = 0.04944429
#
# Stress axis : x y z
#
# Youngs Moduli (GPa) = 141.77697 33.76428 74.84289
#
# Poissons Ratio (x) = -0.01856 0.02636
# Poissons Ratio (y) = -0.07794 0.03677
# Poissons Ratio (z) = 0.04993 0.01659
#
# Static dielectric constant tensor:
#      x y z
#    x 2.176090 0.134990 0.052700 
#    y 0.134990 2.352100 -0.013680 
#    z 0.052700 -0.013680 2.217280 
# 
# From -- ./inp_files/403569.got.cif
#   From: 2010.05.17/outbox.cif.g08.bks.cpg/sg2_202_cif.got.tgz:403569.got - 2010.06.03 11:33:40.
