data_PCOD9075677
_publ_section_title
;
Structure prediction by ZEFSAII (Michael W. Deem and Ramdas Pophale) SiO2 
 PCOD9075677
Probable space group: P -1
;
_chemical_formula_sum "Si O2"
_cell_formula_units_Z 16
_cell_length_a 14.717297
_cell_length_b 16.943667
_cell_length_c 11.663328
_cell_angle_alpha 141.523118
_cell_angle_beta 147.045133
_cell_angle_gamma 25.560133
_cell_volume 678.456015
_symmetry_space_group_name_H-M "P -1"
_symmetry_group_IT_number 2
_symmetry_cell_setting 'triclinic'
loop_
_space_group_symop_operation_xyz
x,y,z
-x,-y,-z
loop_
_atom_site_type_symbol
_atom_site_label
_atom_site_fract_x
_atom_site_fract_y
_atom_site_fract_z
Si Si1 0.994507 0.138654 0.499684
Si Si2 0.263959 0.210178 0.530614
Si Si3 0.200557 0.530912 0.797573
Si Si4 0.418255 0.596174 0.778749
Si Si5 0.525638 0.816107 0.056575
Si Si6 0.881314 0.771596 0.936689
Si Si7 0.205285 0.281869 0.984633
Si Si8 0.273403 0.743713 0.420892
O O1 0.867966 0.225341 0.341088
O O2 0.782737 0.219402 0.461264
O O3 0.116808 0.199256 0.741788
O O4 0.182391 0.920735 0.464540
O O5 0.293138 0.337350 0.653380
O O6 0.284141 0.218458 0.698435
O O7 0.991779 0.315799 0.327362
O O8 0.500000 0.000000 0.500000
O O9 0.009505 0.622666 0.805208
O O10 0.422818 0.496727 0.040965
O O11 0.479869 0.444089 0.586539
O O12 0.515724 0.677812 0.928238
O O13 0.575861 0.796057 0.952094
O O14 0.282410 0.028289 0.061620
O O15 0.744659 0.767739 0.885095
O O16 0.093812 0.729345 0.177261
O O17 0.000000 0.500000 0.000000
#
# Coordination Sequence:
#
# PCOD9075677 Si02
#       8
#     2   2   2   2   2   2   2   2
#     4  10  19  34  51  74 107 144 183 220 262 320
#     4  10  18  32  54  80 112 137 177 230 277 313
#     4   9  19  31  53  85 106 136 183 229 271 314
#     4  10  19  33  56  77 104 141 184 226 266 314
#     4  11  20  34  55  80 109 147 179 221 279 322
#     4  10  18  35  53  80 111 142 181 223 266 326
#     4  11  23  37  50  79 118 149 175 217 271 335
#     4   9  18  31  52  76 104 138 187 225 257 308
#
# _framework density 23.582958000000001
#
# number of rings (size 3 to 8) (size 9 to 14) (size 15 to 20)
#    0.000    2.000    2.500    3.750    0.000    0.000 
#    2.250    0.000    0.000    0.750    0.000   12.250 
#    0.000    0.000    0.000    0.000    0.000    0.000 
#
# Total GULP energy -89231.699920 kJ/mol
# GULP energy per Si atom -5576.981245 kJ/mol
# Density = 2.352928 g / cm^3
# Si number density = 23.582958 Si / 1000 Ang^3
#
#
#
# Elastic Constant Matrix: (Units=GPa)
#
#
# Indices 1 2 3 4 5 6 
#
# 1 44.3565 2.2158 14.0828 5.2435 -7.9753 12.9339
# 2 2.2158 151.6488 22.9073 24.3672 -15.6323 -3.6720
# 3 14.0828 22.9073 55.8181 3.7220 -7.7883 -2.0585
# 4 5.2435 24.3672 3.7220 54.7415 4.3940 -7.3943
# 5 -7.9753 -15.6323 -7.7883 4.3940 24.5430 -3.8660
# 6 12.9339 -3.6720 -2.0585 -7.3943 -3.8660 15.6710
#
#
#
# Elastic Compliance Matrix: (Units=1/GPa)
#
#
# Indices 1 2 3 4 5 6 
#
# 1 0.038265 0.002346 -0.010346 -0.009292 0.006779 -0.035103
# 2 0.002346 0.008256 -0.002936 -0.004294 0.005700 -0.001007
# 3 -0.010346 -0.002936 0.022546 0.002200 0.003533 0.012722
# 4 -0.009292 -0.004294 0.002200 0.023682 -0.006701 0.016473
# 5 0.006779 0.005700 0.003533 -0.006701 0.049735 0.005312
# 6 -0.035103 -0.001007 0.012722 0.016473 0.005312 0.103303
#
#
# Mechanical properties :
#
#
# Convention : Reuss Voigt Hill
#
# Bulk Modulus (GPa) = 21.18852 36.69279 28.94065
# Shear Modulus (GPa) = 17.64337 33.16559 25.40448
#
# Velocity S-wave (km/s) = 2.73818 3.75418 3.28569
# Velocity P-wave (km/s) = 4.35902 5.86384 5.16651
#
# Compressibility (1/GPa) = 0.04719537
#
# Stress axis : x y z
#
# Youngs Moduli (GPa) = 26.13336 121.11755 44.35408
#
# Poissons Ratio (x) = -0.28409 0.45888
# Poissons Ratio (y) = -0.06130 0.13021
# Poissons Ratio (z) = 0.27037 0.35557
#
# Static dielectric constant tensor:
#      x y z
#    x 1.965440 0.003660 -0.026170 
#    y 0.003660 1.954110 -0.034770 
#    z -0.026170 -0.034770 1.941600 
# 
# From -- ./inp_files/455116.got.cif
#   From: 2010.05.17/outbox.cif.g08.bks.cpg/sg2_228_cif.got.tgz:455116.got - 2010.06.03 11:33:40.
