data_PCOD9075533
_publ_section_title
;
Structure prediction by ZEFSAII (Michael W. Deem and Ramdas Pophale) SiO2 
 PCOD9075533
Probable space group: P -1
;
_chemical_formula_sum "Si O2"
_cell_formula_units_Z 12
_cell_length_a 9.000000
_cell_length_b 15.000000
_cell_length_c 9.000000
_cell_angle_alpha 130.000000
_cell_angle_beta 90.000000
_cell_angle_gamma 130.000000
_cell_volume 506.304040
_symmetry_space_group_name_H-M "P -1"
_symmetry_group_IT_number 2
_symmetry_cell_setting 'triclinic'
loop_
_space_group_symop_operation_xyz
x,y,z
-x,-y,-z
loop_
_atom_site_type_symbol
_atom_site_label
_atom_site_fract_x
_atom_site_fract_y
_atom_site_fract_z
Si Si1 0.699115 0.049810 0.151524
Si Si2 0.711333 0.836870 0.702638
Si Si3 0.211988 0.457788 0.794221
Si Si4 0.356913 0.808741 0.187765
Si Si5 0.796029 0.564477 0.904207
Si Si6 0.728669 0.737153 0.896411
O O1 0.962832 0.281095 0.485068
O O2 0.527819 0.901023 0.137317
O O3 0.500000 0.000000 0.000000
O O4 0.741808 0.972281 0.950818
O O5 0.477509 0.682029 0.413628
O O6 0.660203 0.706509 0.689755
O O7 0.002856 0.005268 0.807786
O O8 0.474016 0.598565 0.849785
O O9 0.278197 0.628128 0.048524
O O10 0.192273 0.375513 0.862961
O O11 0.500000 0.000000 0.500000
O O12 0.063594 0.665065 0.994055
O O13 0.828257 0.682258 0.903821
#
# Coordination Sequence:
#
# PCOD9075533 Si02
#       6
#     2   2   2   2   2   2
#     4  12  27  46  76 109 145 193 239 296 365 429
#     4  11  27  47  75 107 148 191 242 298 361 426
#     4  12  28  48  75 110 146 188 245 297 361 432
#     4  12  27  49  73 107 147 187 241 301 358 431
#     4  12  27  46  78 105 148 193 240 296 363 427
#     4  11  27  48  72 109 150 189 242 298 361 428
#
# _framework density 23.701174000000002
#
# number of rings (size 3 to 8) (size 9 to 14) (size 15 to 20)
#    0.000    0.333    3.333    3.500   14.000    2.000 
#    0.000    0.000    0.000    0.000    0.000    0.000 
#    0.000    0.000    0.000    0.000    0.000    0.000 
#
# Total GULP energy -66955.005919 kJ/mol
# GULP energy per Si atom -5579.583827 kJ/mol
# Density = 2.364723 g / cm^3
# Si number density = 23.701174 Si / 1000 Ang^3
#
#
#
# Elastic Constant Matrix: (Units=GPa)
#
#
# Indices 1 2 3 4 5 6 
#
# 1 35.7515 31.6532 3.3884 -4.6290 19.6184 7.1792
# 2 31.6532 115.0568 36.7687 -5.9438 14.2147 15.2444
# 3 3.3884 36.7687 158.3228 -26.0535 27.0656 -0.3732
# 4 -4.6290 -5.9438 -26.0535 41.3553 3.0451 10.0798
# 5 19.6184 14.2147 27.0656 3.0451 46.2134 5.4110
# 6 7.1792 15.2444 -0.3732 10.0798 5.4110 41.3640
#
#
#
# Elastic Compliance Matrix: (Units=1/GPa)
#
#
# Indices 1 2 3 4 5 6 
#
# 1 0.054819 -0.013487 0.008067 0.012096 -0.024146 -0.004260
# 2 -0.013487 0.013380 -0.003827 -0.001633 0.004285 -0.002787
# 3 0.008067 -0.003827 0.009628 0.007167 -0.008293 -0.000565
# 4 0.012096 -0.001633 0.007167 0.032514 -0.010031 -0.008044
# 5 -0.024146 0.004285 -0.008293 -0.010031 0.036058 0.000264
# 6 -0.004260 -0.002787 -0.000565 -0.008044 0.000264 0.027863
#
#
# Mechanical properties :
#
#
# Convention : Reuss Voigt Hill
#
# Bulk Modulus (GPa) = 16.85360 50.30574 33.57967
# Shear Modulus (GPa) = 23.52590 41.60792 32.56691
#
# Velocity S-wave (km/s) = 3.15398 4.19444 3.71086
# Velocity P-wave (km/s) = 4.51550 6.68796 5.70608
#
# Compressibility (1/GPa) = 0.05933451
#
# Stress axis : x y z
#
# Youngs Moduli (GPa) = 18.24193 74.73774 103.86498
#
# Poissons Ratio (x) = 1.00797 -0.83790
# Poissons Ratio (y) = 0.24602 0.39745
# Poissons Ratio (z) = -0.14716 0.28599
#
# Static dielectric constant tensor:
#      x y z
#    x 1.995900 -0.044270 -0.047770 
#    y -0.044270 1.897540 0.090610 
#    z -0.047770 0.090610 1.929690 
# 
# From -- ./inp_files/33685.got.cif
#   From: 2010.05.17/outbox.ucp.g08.bks.cvg/sg2_17_cif.got.tgz:33685.got - 2010.06.11 11:32:03.
