data_PCOD9075282
_publ_section_title
;
Structure prediction by ZEFSAII (Michael W. Deem and Ramdas Pophale) SiO2 
 PCOD9075282
Probable space group: P -1
;
_chemical_formula_sum "Si O2"
_cell_formula_units_Z 16
_cell_length_a 21.000000
_cell_length_b 15.000000
_cell_length_c 9.000000
_cell_angle_alpha 140.000000
_cell_angle_beta 30.000000
_cell_angle_gamma 150.000000
_cell_volume 707.288899
_symmetry_space_group_name_H-M "P -1"
_symmetry_group_IT_number 2
_symmetry_cell_setting 'triclinic'
loop_
_space_group_symop_operation_xyz
x,y,z
-x,-y,-z
loop_
_atom_site_type_symbol
_atom_site_label
_atom_site_fract_x
_atom_site_fract_y
_atom_site_fract_z
Si Si1 0.720638 0.944023 0.606423
Si Si2 0.486551 0.562886 0.450055
Si Si3 0.787932 0.487565 0.227614
Si Si4 0.836386 0.341020 0.330876
Si Si5 0.264425 0.427295 0.246144
Si Si6 0.229909 0.910134 0.619107
Si Si7 0.010273 0.011721 0.310686
Si Si8 0.600334 0.115668 0.237887
O O1 0.602483 0.773397 0.519877
O O2 0.794273 0.089166 0.508464
O O3 0.846036 0.939163 0.451410
O O4 0.617240 0.969379 0.960744
O O5 0.500000 0.500000 0.500000
O O6 0.300767 0.481418 0.679793
O O7 0.578742 0.527760 0.098775
O O8 0.702350 0.493273 0.554682
O O9 0.716426 0.284562 0.110258
O O10 0.983825 0.600300 0.000855
O O11 0.819061 0.495367 0.562428
O O12 0.692234 0.193043 0.313916
O O13 0.813478 0.268050 0.449709
O O14 0.133636 0.216860 0.270050
O O15 0.417339 0.050089 0.488954
O O16 0.102881 0.934073 0.977269
O O17 0.000000 0.000000 0.500000
#
# Coordination Sequence:
#
# PCOD9075282 Si02
#       8
#     2   2   2   2   2   2   2   2
#     4  12  26  47  70 104 148 185 239 301 358 425
#     4  12  29  44  69 103 148 191 237 294 364 429
#     4  11  23  48  71 102 141 191 238 292 354 419
#     4  11  26  45  76 108 142 187 244 295 355 427
#     4  11  24  48  72 106 143 188 238 300 348 427
#     4  12  25  44  72 109 139 189 236 295 360 425
#     4  12  26  47  76 105 141 191 242 297 358 427
#     4  11  23  47  72 100 142 187 239 294 355 418
#
# _framework density 22.621590999999999
#
# number of rings (size 3 to 8) (size 9 to 14) (size 15 to 20)
#    0.000    0.500    2.500    6.000    5.250    1.000 
#    0.000    1.875    0.000    0.000    0.000    0.000 
#    0.000    0.000    0.000    0.000    0.000    0.000 
#
# Total GULP energy -89258.049844 kJ/mol
# GULP energy per Si atom -5578.628115 kJ/mol
# Density = 2.257010 g / cm^3
# Si number density = 22.621591 Si / 1000 Ang^3
#
#
#
# Elastic Constant Matrix: (Units=GPa)
#
#
# Indices 1 2 3 4 5 6 
#
# 1 163.1048 18.6490 -1.8403 -7.4884 -47.3954 -9.9417
# 2 18.6490 41.2927 17.5264 6.4345 -13.1581 -15.7031
# 3 -1.8403 17.5264 32.0301 8.2908 -41.1240 20.8402
# 4 -7.4884 6.4345 8.2908 34.4477 2.6047 -10.1707
# 5 -47.3954 -13.1581 -41.1240 2.6047 46.0246 -6.1569
# 6 -9.9417 -15.7031 20.8402 -10.1707 -6.1569 48.1184
#
#
#
# Elastic Compliance Matrix: (Units=1/GPa)
#
#
# Indices 1 2 3 4 5 6 
#
# 1 0.005771 0.003512 -0.010868 0.005728 -0.002018 0.007998
# 2 0.003512 0.029170 0.010568 -0.006842 0.022740 0.007132
# 3 -0.010868 0.010568 -0.032730 0.010083 -0.036264 0.012870
# 4 0.005728 -0.006842 0.010083 0.028891 0.011608 0.002175
# 5 -0.002018 0.022740 -0.036264 0.011608 -0.003605 0.024703
# 6 0.007998 0.007132 0.012870 0.002175 0.024703 0.022809
#
#
# Mechanical properties :
#
#
# Convention : Reuss Voigt Hill
#
# Bulk Modulus (GPa) = 115.80147 33.89975 74.85061
# Shear Modulus (GPa) = 106.92715 39.19098 73.05907
#
# Velocity S-wave (km/s) = 6.88261 4.16680 5.68914
# Velocity P-wave (km/s) = 10.69870 6.17800 8.73585
#
# Compressibility (1/GPa) = 0.00863547
#
# Stress axis : x y z
#
# Youngs Moduli (GPa) = 173.28399 34.28134 -30.55320
#
# Poissons Ratio (x) = -0.12041 -0.33205
# Poissons Ratio (y) = -0.60865 0.32287
# Poissons Ratio (z) = 1.88324 -0.36227
#
# Static dielectric constant tensor:
#      x y z
#    x 1.869380 -0.166240 0.032530 
#    y -0.166240 2.458420 -0.019410 
#    z 0.032530 -0.019410 1.844350 
# 
# From -- ./inp_files/347364.got.cif
#   From: 2010.05.17/outbox.ucp.g08.bks.cvg/sg2_174_cif.got.tgz:347364.got - 2010.06.11 11:32:03.
