data_PCOD9075458
_publ_section_title
;
Structure prediction by ZEFSAII (Michael W. Deem and Ramdas Pophale) SiO2 
 PCOD9075458
Probable space group: P -1
;
_chemical_formula_sum "Si O2"
_cell_formula_units_Z 12
_cell_length_a 9.000000
_cell_length_b 12.000000
_cell_length_c 15.000000
_cell_angle_alpha 150.000000
_cell_angle_beta 140.000000
_cell_angle_gamma 50.000000
_cell_volume 519.584618
_symmetry_space_group_name_H-M "P -1"
_symmetry_group_IT_number 2
_symmetry_cell_setting 'triclinic'
loop_
_space_group_symop_operation_xyz
x,y,z
-x,-y,-z
loop_
_atom_site_type_symbol
_atom_site_label
_atom_site_fract_x
_atom_site_fract_y
_atom_site_fract_z
Si Si1 0.922176 0.789260 0.888877
Si Si2 0.375955 0.292269 0.112951
Si Si3 0.421053 0.840071 0.213760
Si Si4 0.839335 0.351841 0.457936
Si Si5 0.219749 0.010368 0.673924
Si Si6 0.631502 0.688478 0.387209
O O1 0.771377 0.760481 0.896161
O O2 0.798444 0.607931 0.640255
O O3 0.175857 0.723870 0.990975
O O4 0.000000 0.000000 0.000000
O O5 0.637486 0.236764 0.223321
O O6 0.463024 0.527435 0.262336
O O7 0.242344 0.165454 0.881181
O O8 0.536008 0.700939 0.249675
O O9 0.571883 0.908088 0.241481
O O10 0.370445 0.070034 0.400113
O O11 0.805101 0.228233 0.452242
O O12 0.094111 0.352708 0.530111
O O13 0.000000 0.000000 0.500000
#
# Coordination Sequence:
#
# PCOD9075458 Si02
#       6
#     2   2   2   2   2   2
#     4  12  27  48  78 108 148 193 247 309 370 434
#     4  12  27  46  75 108 149 193 250 301 370 434
#     4  11  25  46  71 107 154 189 248 299 361 439
#     4  12  25  48  75 108 149 194 248 303 365 437
#     4  12  26  46  74 110 149 191 247 297 365 438
#     4  11  25  45  75 109 146 199 241 301 367 432
#
# _framework density 23.095372000000001
#
# number of rings (size 3 to 8) (size 9 to 14) (size 15 to 20)
#    0.000    0.333    1.667    6.500    4.667    4.667 
#    0.000    0.000    0.000    0.000    0.000    0.000 
#    0.000    0.000    0.000    0.000    0.000    0.000 
#
# Total GULP energy -66867.766367 kJ/mol
# GULP energy per Si atom -5572.313864 kJ/mol
# Density = 2.304281 g / cm^3
# Si number density = 23.095372 Si / 1000 Ang^3
#
#
#
# Elastic Constant Matrix: (Units=GPa)
#
#
# Indices 1 2 3 4 5 6 
#
# 1 205.4045 29.8734 30.0539 3.4411 17.1675 16.5830
# 2 29.8734 100.9125 31.7055 -13.2807 2.4700 25.7157
# 3 30.0539 31.7055 129.0199 -14.9529 3.9676 -5.4436
# 4 3.4411 -13.2807 -14.9529 53.9973 10.2231 12.5992
# 5 17.1675 2.4700 3.9676 10.2231 57.0262 -3.7428
# 6 16.5830 25.7157 -5.4436 12.5992 -3.7428 48.6696
#
#
#
# Elastic Compliance Matrix: (Units=1/GPa)
#
#
# Indices 1 2 3 4 5 6 
#
# 1 0.005416 -0.000835 -0.001096 -0.000179 -0.001591 -0.001603
# 2 -0.000835 0.014088 -0.003005 0.005083 -0.001648 -0.008938
# 3 -0.001096 -0.003005 0.009007 0.001254 -0.000219 0.002627
# 4 -0.000179 0.005083 0.001254 0.023139 -0.004983 -0.008858
# 5 -0.001591 -0.001648 -0.000219 -0.004983 0.019268 0.004160
# 6 -0.001603 -0.008938 0.002627 -0.008858 0.004160 0.028722
#
#
# Mechanical properties :
#
#
# Convention : Reuss Voigt Hill
#
# Bulk Modulus (GPa) = 53.64929 68.73360 61.19145
# Shear Modulus (GPa) = 43.20661 54.85225 49.02943
#
# Velocity S-wave (km/s) = 4.32996 4.87872 4.61250
# Velocity P-wave (km/s) = 6.94823 7.84610 7.41077
#
# Compressibility (1/GPa) = 0.01863957
#
# Stress axis : x y z
#
# Youngs Moduli (GPa) = 184.65263 70.98331 111.02215
#
# Poissons Ratio (x) = 0.05928 0.12165
# Poissons Ratio (y) = 0.15421 0.33359
# Poissons Ratio (z) = 0.20232 0.21328
#
# Static dielectric constant tensor:
#      x y z
#    x 1.859270 -0.010460 0.002320 
#    y -0.010460 1.981790 0.068630 
#    z 0.002320 0.068630 1.909570 
# 
# From -- ./inp_files/250188.got.cif
#   From: 2010.05.17/outbox.ucp.g08.bks.cvg/sg2_126_cif.got.tgz:250188.got - 2010.06.11 11:32:03.
