data_PCOD9075000
_publ_section_title
;
Structure prediction by ZEFSAII (Michael W. Deem and Ramdas Pophale) SiO2 
 PCOD9075000
Probable space group: P -1
;
_chemical_formula_sum "Si O2"
_cell_formula_units_Z 16
_cell_length_a 27.000000
_cell_length_b 27.000000
_cell_length_c 9.000000
_cell_angle_alpha 140.000000
_cell_angle_beta 140.000000
_cell_angle_gamma 10.000000
_cell_volume 728.340053
_symmetry_space_group_name_H-M "P -1"
_symmetry_group_IT_number 2
_symmetry_cell_setting 'triclinic'
loop_
_space_group_symop_operation_xyz
x,y,z
-x,-y,-z
loop_
_atom_site_type_symbol
_atom_site_label
_atom_site_fract_x
_atom_site_fract_y
_atom_site_fract_z
Si Si1 0.521081 0.174179 0.370520
Si Si2 0.292564 0.489255 0.845723
Si Si3 0.105315 0.824101 0.549554
Si Si4 0.039476 0.382512 0.917201
Si Si5 0.431087 0.248841 0.878732
Si Si6 0.111053 0.312270 0.256582
Si Si7 0.151280 0.954626 0.862342
Si Si8 0.592783 0.230273 0.399665
O O1 0.405576 0.336860 0.612048
O O2 0.570975 0.191561 0.398800
O O3 0.273224 0.352345 0.168138
O O4 0.779175 0.866347 0.298755
O O5 0.291477 0.420683 0.805323
O O6 0.012813 0.811286 0.914842
O O7 0.523261 0.331617 0.061806
O O8 0.352526 0.524059 0.470304
O O9 0.988564 0.923344 0.341163
O O10 0.150347 0.873958 0.765661
O O11 0.860203 0.029485 0.568120
O O12 0.178034 0.263759 0.125788
O O13 0.000000 0.500000 0.000000
O O14 0.154311 0.491790 0.896597
O O15 0.635050 0.976360 0.732577
O O16 0.611721 0.146827 0.123089
O O17 0.000000 0.500000 0.500000
#
# Coordination Sequence:
#
# PCOD9075000 Si02
#       8
#     2   2   2   2   2   2   2   2
#     4  12  27  44  66  92 131 170 213 253 313 386
#     4  12  25  41  65  95 130 168 211 263 311 370
#     4  11  22  38  69  95 127 167 209 264 322 365
#     4  12  26  46  66  92 131 170 206 256 322 383
#     4  12  23  42  68  92 131 162 218 263 305 369
#     4  12  26  43  67  99 126 161 213 267 313 370
#     4  11  22  41  62 100 130 161 212 267 314 371
#     4  12  21  43  65  95 122 174 212 257 307 379
#
# _framework density 21.967760999999999
#
# number of rings (size 3 to 8) (size 9 to 14) (size 15 to 20)
#    0.000    0.250    5.000    4.500    3.500    2.000 
#    0.000    3.750    0.000    0.000    0.000    0.000 
#    0.000    0.000    0.000    0.000    0.000    0.000 
#
# Total GULP energy -89208.776635 kJ/mol
# GULP energy per Si atom -5575.548540 kJ/mol
# Density = 2.191776 g / cm^3
# Si number density = 21.967761 Si / 1000 Ang^3
#
#
#
# Elastic Constant Matrix: (Units=GPa)
#
#
# Indices 1 2 3 4 5 6 
#
# 1 197.3867 28.3475 32.3117 11.7987 39.4806 21.5126
# 2 28.3475 109.0007 -5.7286 12.3388 26.1354 17.0994
# 3 32.3117 -5.7286 53.0940 18.2641 8.1543 8.4245
# 4 11.7987 12.3388 18.2641 31.5300 4.3616 18.6482
# 5 39.4806 26.1354 8.1543 4.3616 36.0086 13.4357
# 6 21.5126 17.0994 8.4245 18.6482 13.4357 37.4983
#
#
#
# Elastic Compliance Matrix: (Units=1/GPa)
#
#
# Indices 1 2 3 4 5 6 
#
# 1 0.007041 -0.000464 -0.003626 0.001381 -0.006174 -0.001488
# 2 -0.000464 0.012445 0.005203 -0.006333 -0.008837 -0.000262
# 3 -0.003626 0.005203 0.028306 -0.019216 -0.005733 0.004959
# 4 0.001381 -0.006333 -0.019216 0.059172 0.010220 -0.026676
# 5 -0.006174 -0.008837 -0.005733 0.010220 0.045717 -0.012603
# 6 -0.001488 -0.000262 0.004959 -0.026676 -0.012603 0.044309
#
#
# Mechanical properties :
#
#
# Convention : Reuss Voigt Hill
#
# Bulk Modulus (GPa) = 19.99301 52.14918 36.07109
# Shear Modulus (GPa) = 23.64759 41.31076 32.47918
#
# Velocity S-wave (km/s) = 3.28452 4.34120 3.84929
# Velocity P-wave (km/s) = 4.84818 6.99418 6.01762
#
# Compressibility (1/GPa) = 0.05001748
#
# Stress axis : x y z
#
# Youngs Moduli (GPa) = 142.02755 80.35145 35.32772
#
# Poissons Ratio (x) = 0.03731 0.12810
# Poissons Ratio (y) = 0.06595 -0.18380
# Poissons Ratio (z) = 0.51498 -0.41804
#
# Static dielectric constant tensor:
#      x y z
#    x 1.841520 -0.004620 -0.054640 
#    y -0.004620 1.918960 -0.015470 
#    z -0.054640 -0.015470 1.825800 
# 
# From -- ./inp_files/226421.got.cif
#   From: 2010.05.17/outbox.ucp.g08.bks.cvg/sg2_114_cif.got.tgz:226421.got - 2010.06.11 11:32:03.
