data_PCOD9075319
_publ_section_title
;
Structure prediction by ZEFSAII (Michael W. Deem and Ramdas Pophale) SiO2 
 PCOD9075319
Probable space group: P -1
;
_chemical_formula_sum "Si O2"
_cell_formula_units_Z 12
_cell_length_a 12.000000
_cell_length_b 27.000000
_cell_length_c 6.000000
_cell_angle_alpha 50.000000
_cell_angle_beta 50.000000
_cell_angle_gamma 20.000000
_cell_volume 503.727372
_symmetry_space_group_name_H-M "P -1"
_symmetry_group_IT_number 2
_symmetry_cell_setting 'triclinic'
loop_
_space_group_symop_operation_xyz
x,y,z
-x,-y,-z
loop_
_atom_site_type_symbol
_atom_site_label
_atom_site_fract_x
_atom_site_fract_y
_atom_site_fract_z
Si Si1 0.970495 0.194165 0.074127
Si Si2 0.742867 0.695119 0.218797
Si Si3 0.846224 0.378585 0.778052
Si Si4 0.650656 0.242916 0.692135
Si Si5 0.898894 0.983284 0.854072
Si Si6 0.328844 0.460661 0.825075
O O1 0.083621 0.222031 0.893877
O O2 0.628305 0.342923 0.951650
O O3 0.910593 0.188555 0.410919
O O4 0.123819 0.076465 0.068751
O O5 0.520624 0.719008 0.418609
O O6 0.949262 0.645198 0.296235
O O7 0.462429 0.858216 0.046911
O O8 0.001783 0.575966 0.042540
O O9 0.736501 0.446872 0.482601
O O10 0.500000 0.500000 0.000000
O O11 0.403540 0.380240 0.767718
O O12 0.839279 0.122593 0.974678
O O13 0.000000 0.000000 0.500000
#
# Coordination Sequence:
#
# PCOD9075319 Si02
#       6
#     2   2   2   2   2   2
#     4  11  24  46  72  98 139 182 225 277 341 399
#     4  12  26  41  72 104 134 182 226 275 347 398
#     4  12  25  45  69 102 141 179 223 281 338 404
#     4  11  24  45  71 101 136 175 230 285 335 398
#     4  11  26  46  71  99 139 180 224 283 339 401
#     4  11  24  42  73 100 138 173 232 278 336 393
#
# _framework density 23.822410000000001
#
# number of rings (size 3 to 8) (size 9 to 14) (size 15 to 20)
#    0.000    0.667    5.000    1.500    2.333    3.333 
#    0.000    1.667    0.000    0.000    0.000    0.000 
#    0.000    0.000    0.000    0.000    0.000    0.000 
#
# Total GULP energy -66924.147521 kJ/mol
# GULP energy per Si atom -5577.012293 kJ/mol
# Density = 2.376819 g / cm^3
# Si number density = 23.822410 Si / 1000 Ang^3
#
#
#
# Elastic Constant Matrix: (Units=GPa)
#
#
# Indices 1 2 3 4 5 6 
#
# 1 137.7985 24.3537 8.4607 -17.3332 5.7006 12.7252
# 2 24.3537 59.0270 -29.3845 -14.2149 -4.1414 14.7571
# 3 8.4607 -29.3845 50.3124 -49.2976 10.0624 -19.7140
# 4 -17.3332 -14.2149 -49.2976 16.0690 10.7279 0.0604
# 5 5.7006 -4.1414 10.0624 10.7279 10.3639 -2.2395
# 6 12.7252 14.7571 -19.7140 0.0604 -2.2395 51.1943
#
#
#
# Elastic Compliance Matrix: (Units=1/GPa)
#
#
# Indices 1 2 3 4 5 6 
#
# 1 0.008810 -0.004538 -0.002661 0.001187 -0.005772 -0.002160
# 2 -0.004538 0.018176 -0.002097 -0.008174 0.019380 -0.004062
# 3 -0.002661 -0.002097 0.000093 -0.016544 0.018117 0.002114
# 4 0.001187 -0.008174 -0.016544 -0.006674 0.018295 -0.003502
# 5 -0.005772 0.019380 0.018117 0.018295 0.072168 0.005960
# 6 -0.002160 -0.004062 0.002114 -0.003502 0.005960 0.022320
#
#
# Mechanical properties :
#
#
# Convention : Reuss Voigt Hill
#
# Bulk Modulus (GPa) = 117.84037 28.22198 73.03117
# Shear Modulus (GPa) = 36.67962 31.77262 34.22612
#
# Velocity S-wave (km/s) = 3.92817 3.65599 3.79452
# Velocity P-wave (km/s) = 8.37542 5.44924 7.06547
#
# Compressibility (1/GPa) = 0.00848606
#
# Stress axis : x y z
#
# Youngs Moduli (GPa) = 113.50650 55.01636 10772.93132
#
# Poissons Ratio (x) = 0.24969 28.66356
# Poissons Ratio (y) = 0.51514 22.59621
# Poissons Ratio (z) = 0.30201 0.11540
#
# Static dielectric constant tensor:
#      x y z
#    x 1.998300 0.029070 -0.063950 
#    y 0.029070 1.873580 -0.091750 
#    z -0.063950 -0.091750 1.763660 
# 
# From -- ./inp_files/84933.got.cif
#   From: 2010.05.17/outbox.ucp.g08.bks.cvg/sg2_43_cif.got.tgz:84933.got - 2010.06.11 11:32:03.
