data_PCOD9075256
_publ_section_title
;
Structure prediction by ZEFSAII (Michael W. Deem and Ramdas Pophale) SiO2 
 PCOD9075256
Probable space group: P -1
;
_chemical_formula_sum "Si O2"
_cell_formula_units_Z 16
_cell_length_a 6.000000
_cell_length_b 27.000000
_cell_length_c 9.000000
_cell_angle_alpha 140.000000
_cell_angle_beta 80.000000
_cell_angle_gamma 120.000000
_cell_volume 752.029055
_symmetry_space_group_name_H-M "P -1"
_symmetry_group_IT_number 2
_symmetry_cell_setting 'triclinic'
loop_
_space_group_symop_operation_xyz
x,y,z
-x,-y,-z
loop_
_atom_site_type_symbol
_atom_site_label
_atom_site_fract_x
_atom_site_fract_y
_atom_site_fract_z
Si Si1 0.342792 0.473876 0.116546
Si Si2 0.241285 0.708459 0.340419
Si Si3 0.035727 0.076360 0.041435
Si Si4 0.840632 0.152785 0.483810
Si Si5 0.664154 0.228405 0.197469
Si Si6 0.612647 0.037448 0.742355
Si Si7 0.734426 0.397702 0.372485
Si Si8 0.622297 0.671501 0.044582
O O1 0.357597 0.560613 0.391354
O O2 0.500000 0.500000 0.000000
O O3 0.425856 0.425832 0.119122
O O4 0.031677 0.385070 0.910173
O O5 0.313916 0.802294 0.461474
O O6 0.197413 0.716682 0.537809
O O7 0.476694 0.694266 0.240505
O O8 0.967828 0.138340 0.289376
O O9 0.340632 0.152056 0.110464
O O10 0.839132 0.037133 0.824241
O O11 0.000000 0.000000 0.000000
O O12 0.062277 0.234266 0.760613
O O13 0.660505 0.048446 0.336024
O O14 0.738601 0.311485 0.256203
O O15 0.724311 0.148707 0.976983
O O16 0.500000 0.000000 0.500000
O O17 0.000000 0.500000 0.500000
O O18 0.519336 0.346512 0.141714
#
# Coordination Sequence:
#
# PCOD9075256 Si02
#       8
#     2   2   2   2   2   2   2   2
#     4  11  26  46  73 104 140 193 254 307 371 441
#     4  11  23  45  72 106 139 186 249 302 362 444
#     4  12  24  47  76 105 142 194 249 301 368 446
#     4  11  24  44  73 104 142 191 238 297 370 447
#     4  12  27  45  74 106 145 192 251 301 362 453
#     4  12  29  45  70 110 154 194 240 308 376 445
#     4  12  28  48  72 107 152 198 240 312 383 431
#     4  11  25  45  73 104 142 190 245 306 374 441
#
# _framework density 21.275773999999998
#
# number of rings (size 3 to 8) (size 9 to 14) (size 15 to 20)
#    0.000    0.500    5.000    2.250    7.000    1.500 
#    0.000    0.000    0.000    0.000    0.000    0.000 
#    0.000    0.000    0.000    0.000    0.000    0.000 
#
# Total GULP energy -89076.405682 kJ/mol
# GULP energy per Si atom -5567.275355 kJ/mol
# Density = 2.122735 g / cm^3
# Si number density = 21.275774 Si / 1000 Ang^3
#
#
#
# Elastic Constant Matrix: (Units=GPa)
#
#
# Indices 1 2 3 4 5 6 
#
# 1 51.0391 21.6262 14.6460 3.5247 2.1561 -27.5100
# 2 21.6262 121.1826 5.7484 12.2070 3.3081 -30.3285
# 3 14.6460 5.7484 111.0256 -8.1749 1.2633 -28.0181
# 4 3.5247 12.2070 -8.1749 53.2141 -17.0348 -0.5793
# 5 2.1561 3.3081 1.2633 -17.0348 43.1082 -0.7438
# 6 -27.5100 -30.3285 -28.0181 -0.5793 -0.7438 49.3411
#
#
#
# Elastic Compliance Matrix: (Units=1/GPa)
#
#
# Indices 1 2 3 4 5 6 
#
# 1 0.028425 -0.001012 -0.000001 -0.002097 -0.001911 0.015172
# 2 -0.001012 0.010260 0.001009 -0.002603 -0.001687 0.006259
# 3 -0.000001 0.001009 0.010776 0.001613 0.000361 0.006763
# 4 -0.002097 -0.002603 0.001613 0.022707 0.009205 -0.001448
# 5 -0.001911 -0.001687 0.000361 0.009205 0.027026 -0.001382
# 6 0.015172 0.006259 0.006763 -0.001448 -0.001382 0.036376
#
#
# Mechanical properties :
#
#
# Convention : Reuss Voigt Hill
#
# Bulk Modulus (GPa) = 20.22106 40.80982 30.51544
# Shear Modulus (GPa) = 32.88119 45.21446 39.04783
#
# Velocity S-wave (km/s) = 3.93552 4.61495 4.28871
# Velocity P-wave (km/s) = 5.49327 6.90072 6.23683
#
# Compressibility (1/GPa) = 0.04945340
#
# Stress axis : x y z
#
# Youngs Moduli (GPa) = 35.17971 97.47061 92.79628
#
# Poissons Ratio (x) = 0.09865 0.00011
# Poissons Ratio (y) = 0.03561 -0.09366
# Poissons Ratio (z) = 0.00004 -0.09838
#
# Static dielectric constant tensor:
#      x y z
#    x 1.918570 0.032680 -0.002920 
#    y 0.032680 1.778860 0.004740 
#    z -0.002920 0.004740 1.767460 
# 
# From -- ./inp_files/106890.got.cif
#   From: 2010.05.17/outbox.ucp.g08.bks.cvg/sg2_54_cif.got.tgz:106890.got - 2010.06.11 11:32:03.
