data_PCOD9075648
_publ_section_title
;
Structure prediction by ZEFSAII (Michael W. Deem and Ramdas Pophale) SiO2 
 PCOD9075648
Probable space group: P -1
;
_chemical_formula_sum "Si O2"
_cell_formula_units_Z 14
_cell_length_a 9.000000
_cell_length_b 15.000000
_cell_length_c 15.000000
_cell_angle_alpha 40.000000
_cell_angle_beta 150.000000
_cell_angle_gamma 140.000000
_cell_volume 616.747849
_symmetry_space_group_name_H-M "P -1"
_symmetry_group_IT_number 2
_symmetry_cell_setting 'triclinic'
loop_
_space_group_symop_operation_xyz
x,y,z
-x,-y,-z
loop_
_atom_site_type_symbol
_atom_site_label
_atom_site_fract_x
_atom_site_fract_y
_atom_site_fract_z
Si Si1 0.677250 0.328005 0.633026
Si Si2 0.227015 0.244253 0.202756
Si Si3 0.421550 0.755130 0.790525
Si Si4 0.165959 0.363773 0.561278
Si Si5 0.441561 0.829403 0.118018
Si Si6 0.671070 0.572809 0.197820
Si Si7 0.716811 0.951414 0.462518
O O1 0.590597 0.478759 0.465668
O O2 0.608003 0.237111 0.757403
O O3 0.516945 0.201411 0.577166
O O4 0.040515 0.396169 0.744268
O O5 0.295394 0.219913 0.153111
O O6 0.474249 0.401569 0.233349
O O7 0.221008 0.102322 0.365851
O O8 0.884857 0.255958 0.032972
O O9 0.117154 0.681840 0.624402
O O10 0.406793 0.910919 0.697572
O O11 0.462943 0.659438 0.971302
O O12 0.278379 0.222261 0.729200
O O13 0.165581 0.385277 0.652426
O O14 0.500000 0.000000 0.000000
O O15 0.000000 0.000000 0.500000
#
# Coordination Sequence:
#
# PCOD9075648 Si02
#       7
#     2   2   2   2   2   2   2
#     4  12  24  50  74 106 153 190 251 312 362 446
#     4  12  24  50  74 106 153 190 251 312 362 446
#     4  12  26  49  79 108 148 198 248 306 376 436
#     4  12  26  49  79 108 148 198 248 306 376 436
#     4  12  28  46  73 113 154 193 244 310 376 443
#     4  12  26  48  80 112 140 194 264 306 360 442
#     4  12  28  46  73 113 154 193 244 310 376 443
#
# _framework density 22.699714
#
# number of rings (size 3 to 8) (size 9 to 14) (size 15 to 20)
#    0.000    0.000    4.286    6.000    4.000    3.429 
#    0.000    0.000    0.000    0.000    0.000    0.000 
#    0.000    0.000    0.000    0.000    0.000    0.000 
#
# Total GULP energy -78060.297257 kJ/mol
# GULP energy per Si atom -5575.735518 kJ/mol
# Density = 2.264805 g / cm^3
# Si number density = 22.699714 Si / 1000 Ang^3
#
#
#
# Elastic Constant Matrix: (Units=GPa)
#
#
# Indices 1 2 3 4 5 6 
#
# 1 56.4927 0.5854 17.2789 -31.5091 -22.0547 12.9819
# 2 0.5854 113.9511 35.5009 -38.7803 9.4467 5.8525
# 3 17.2789 35.5009 99.8133 -37.8327 -8.8868 -4.3969
# 4 -31.5091 -38.7803 -37.8327 43.3913 19.3446 -4.7683
# 5 -22.0547 9.4467 -8.8868 19.3446 30.7812 -8.9747
# 6 12.9819 5.8525 -4.3969 -4.7683 -8.9747 30.6211
#
#
#
# Elastic Compliance Matrix: (Units=1/GPa)
#
#
# Indices 1 2 3 4 5 6 
#
# 1 0.054852 0.026683 0.007529 0.077570 -0.021752 -0.021569
# 2 0.026683 0.036222 0.005814 0.073446 -0.041787 -0.018211
# 3 0.007529 0.005814 0.017200 0.030341 -0.010550 -0.000201
# 4 0.077570 0.073446 0.030341 0.213434 -0.103938 -0.039794
# 5 -0.021752 -0.041787 -0.010550 -0.103938 0.100440 0.028946
# 6 -0.021569 -0.018211 -0.000201 -0.039794 0.028946 0.047540
#
#
# Mechanical properties :
#
#
# Convention : Reuss Voigt Hill
#
# Bulk Modulus (GPa) = 5.30997 41.88751 23.59874
# Shear Modulus (GPa) = 11.05185 35.41819 23.23502
#
# Velocity S-wave (km/s) = 2.20891 3.95434 3.20282
# Velocity P-wave (km/s) = 2.97490 6.27232 4.90877
#
# Compressibility (1/GPa) = 0.18832503
#
# Stress axis : x y z
#
# Youngs Moduli (GPa) = 18.23088 27.60723 58.14060
#
# Poissons Ratio (x) = -0.73663 -0.43776
# Poissons Ratio (y) = -0.48645 -0.33800
# Poissons Ratio (z) = -0.13727 -0.16050
#
# Static dielectric constant tensor:
#      x y z
#    x 1.918500 -0.042550 0.062760 
#    y -0.042550 1.813340 0.027100 
#    z 0.062760 0.027100 2.009230 
# 
# From -- ./inp_files/198826.got.cif
#   From: 2010.05.17/outbox.ucp.g08.bks.cvg/sg2_100_cif.got.tgz:198826.got - 2010.06.11 11:32:03.
