data_PCOD9075555
_publ_section_title
;
Structure prediction by ZEFSAII (Michael W. Deem and Ramdas Pophale) SiO2 
 PCOD9075555
Probable space group: P -1
;
_chemical_formula_sum "Si O2"
_cell_formula_units_Z 16
_cell_length_a 9.000000
_cell_length_b 12.000000
_cell_length_c 27.000000
_cell_angle_alpha 30.000000
_cell_angle_beta 150.000000
_cell_angle_gamma 140.000000
_cell_volume 727.497153
_symmetry_space_group_name_H-M "P -1"
_symmetry_group_IT_number 2
_symmetry_cell_setting 'triclinic'
loop_
_space_group_symop_operation_xyz
x,y,z
-x,-y,-z
loop_
_atom_site_type_symbol
_atom_site_label
_atom_site_fract_x
_atom_site_fract_y
_atom_site_fract_z
Si Si1 0.219696 0.038912 0.201271
Si Si2 0.277059 0.614390 0.756824
Si Si3 0.276109 0.394823 0.596925
Si Si4 0.768472 0.116204 0.188447
Si Si5 0.850649 0.846358 0.973014
Si Si6 0.654454 0.182861 0.014034
Si Si7 0.122346 0.425951 0.244061
Si Si8 0.840408 0.475935 0.596237
O O1 0.519487 0.154236 0.267065
O O2 0.203102 0.018369 0.144827
O O3 0.980635 0.223373 0.069974
O O4 0.122208 0.793061 0.289030
O O5 0.110016 0.588502 0.771434
O O6 0.048255 0.599398 0.650246
O O7 0.467713 0.398786 0.884063
O O8 0.567022 0.530401 0.652844
O O9 0.168047 0.412110 0.502509
O O10 0.000000 0.500000 0.500000
O O11 0.292651 0.137811 0.714484
O O12 0.479184 0.243784 0.071894
O O13 0.741616 0.109363 0.123529
O O14 0.045073 0.227133 0.258091
O O15 0.064297 0.644129 0.110457
O O16 0.000000 0.000000 0.000000
O O17 0.500000 0.000000 0.000000
O O18 0.500000 0.500000 0.500000
#
# Coordination Sequence:
#
# PCOD9075555 Si02
#       8
#     2   2   2   2   2   2   2   2
#     4  12  26  43  70 106 143 176 230 290 351 406
#     4  12  25  45  74 105 139 184 229 287 352 413
#     4  12  29  47  71 100 139 190 237 282 341 404
#     4  12  25  46  74 102 142 181 228 285 350 415
#     4  12  21  41  74 105 136 180 223 281 355 417
#     4  12  25  45  72 109 146 177 219 289 363 423
#     4  12  25  45  75 106 138 179 235 288 342 420
#     4  12  26  46  70  99 139 190 243 281 329 411
#
# _framework density 21.993213000000001
#
# number of rings (size 3 to 8) (size 9 to 14) (size 15 to 20)
#    0.000    0.000    6.250    4.500    0.000    3.000 
#    0.000    0.000    0.000    0.000    0.000    0.000 
#    0.000    0.000    0.000    0.000    0.000    0.000 
#
# Total GULP energy -89206.495780 kJ/mol
# GULP energy per Si atom -5575.405986 kJ/mol
# Density = 2.194316 g / cm^3
# Si number density = 21.993213 Si / 1000 Ang^3
#
#
#
# Elastic Constant Matrix: (Units=GPa)
#
#
# Indices 1 2 3 4 5 6 
#
# 1 35.5422 9.1409 29.0292 4.3883 -17.4066 -34.5536
# 2 9.1409 169.4264 40.1299 33.3868 -21.1499 -30.5034
# 3 29.0292 40.1299 85.8971 29.8749 -17.9317 -14.6403
# 4 4.3883 33.3868 29.8749 40.1451 -10.4971 -6.0888
# 5 -17.4066 -21.1499 -17.9317 -10.4971 51.5051 15.7854
# 6 -34.5536 -30.5034 -14.6403 -6.0888 15.7854 31.1910
#
#
#
# Elastic Compliance Matrix: (Units=1/GPa)
#
#
# Indices 1 2 3 4 5 6 
#
# 1 -0.087472 -0.018019 0.023164 -0.008290 0.001985 -0.106274
# 2 -0.018019 0.004655 0.003828 -0.006949 0.000386 -0.015165
# 3 0.023164 0.003828 0.010751 -0.008441 0.001621 0.031983
# 4 -0.008290 -0.006949 -0.008441 0.036542 0.003289 -0.014473
# 5 0.001985 0.000386 0.001621 0.003289 0.023979 -0.008157
# 6 -0.106274 -0.015165 0.031983 -0.014473 -0.008157 -0.084186
#
#
# Mechanical properties :
#
#
# Convention : Reuss Voigt Hill
#
# Bulk Modulus (GPa) = -18.47696 49.71840 15.62072
# Shear Modulus (GPa) = -37.96045 38.73928 0.38942
#
# Velocity S-wave (km/s) = -4.15903 4.20148 0.42124
# Velocity P-wave (km/s) = 5.61096 6.79646 2.71192
#
# Compressibility (1/GPa) = -0.05412145
#
# Stress axis : x y z
#
# Youngs Moduli (GPa) = -11.43227 214.81418 93.01882
#
# Poissons Ratio (x) = 3.87083 -2.15468
# Poissons Ratio (y) = -0.20600 -0.35605
# Poissons Ratio (z) = 0.26482 -0.82225
#
# Static dielectric constant tensor:
#      x y z
#    x 1.844610 0.031500 0.043860 
#    y 0.031500 1.816460 0.002900 
#    z 0.043860 0.002900 1.775970 
# 
# From -- ./inp_files/285897.got.cif
#   From: 2010.05.17/outbox.ucp.g08.bks.cvg/sg2_143_cif.got.tgz:285897.got - 2010.06.11 11:32:03.
