data_PCOD9075983
_publ_section_title
;
Structure prediction by ZEFSAII (Michael W. Deem and Ramdas Pophale) SiO2 
 PCOD9075983
Probable space group: P -1
;
_chemical_formula_sum "Si O2"
_cell_formula_units_Z 14
_cell_length_a 8.235322
_cell_length_b 7.794500
_cell_length_c 12.593555
_cell_angle_alpha 86.219612
_cell_angle_beta 71.052125
_cell_angle_gamma 56.415162
_cell_volume 630.282140
_symmetry_space_group_name_H-M "P -1"
_symmetry_group_IT_number 2
_symmetry_cell_setting 'triclinic'
loop_
_space_group_symop_operation_xyz
x,y,z
-x,-y,-z
loop_
_atom_site_type_symbol
_atom_site_label
_atom_site_fract_x
_atom_site_fract_y
_atom_site_fract_z
Si Si1 0.070519 0.184676 0.540396
Si Si2 0.444197 0.806381 0.362303
Si Si3 0.554071 0.115696 0.256370
Si Si4 0.559529 0.310577 0.870979
Si Si5 0.315506 0.411353 0.480074
Si Si6 0.323114 0.385706 0.112270
Si Si7 0.003648 0.841342 0.197347
O O1 0.190949 0.299942 0.517813
O O2 0.038530 0.134707 0.668264
O O3 0.852051 0.352648 0.525667
O O4 0.216267 0.981752 0.447269
O O5 0.451168 0.722486 0.248462
O O6 0.568051 0.632624 0.432156
O O7 0.551655 0.932037 0.320532
O O8 0.474922 0.293876 0.354147
O O9 0.387094 0.209343 0.192258
O O10 0.792095 0.009532 0.177645
O O11 0.534858 0.530301 0.883952
O O12 0.797721 0.149032 0.865346
O O13 0.396348 0.306999 0.981019
O O14 0.094953 0.598530 0.160748
#
# Coordination Sequence:
#
# PCOD9075983 Si02
#       7
#     2   2   2   2   2   2   2
#     4  10  18  32  58  83 114 146 176 217 283 332
#     4  11  21  35  55  92 112 135 180 243 264 317
#     4  11  19  34  64  81 106 145 192 217 272 330
#     4   9  22  42  55  74 121 143 182 232 274 312
#     4  10  18  33  54  87 116 143 173 223 281 333
#     4   9  21  42  57  74 109 159 183 215 276 337
#     4  10  18  37  58  80 105 149 185 218 268 339
#
# _framework density 22.212274000000001
#
# number of rings (size 3 to 8) (size 9 to 14) (size 15 to 20)
#    0.857    1.143    4.286    0.857    0.000    1.714 
#    2.571    2.143    0.000    0.000    0.000    0.000 
#    0.000    0.000    0.000    0.000    0.000    0.000 
#
# Total GULP energy -78163.932590 kJ/mol
# GULP energy per Si atom -5583.138042 kJ/mol
# Density = 2.216172 g / cm^3
# Si number density = 22.212274 Si / 1000 Ang^3
#
#
#
# Elastic Constant Matrix: (Units=GPa)
#
#
# Indices 1 2 3 4 5 6 
#
# 1 42.7742 32.4482 12.0425 11.8590 4.5536 -17.2948
# 2 32.4482 83.8774 28.4355 7.9832 7.5083 -24.8105
# 3 12.0425 28.4355 110.1228 30.2051 -3.7851 -9.0292
# 4 11.8590 7.9832 30.2051 23.1690 -0.0931 -8.4363
# 5 4.5536 7.5083 -3.7851 -0.0931 17.6413 2.3152
# 6 -17.2948 -24.8105 -9.0292 -8.4363 2.3152 39.3316
#
#
#
# Elastic Compliance Matrix: (Units=1/GPa)
#
#
# Indices 1 2 3 4 5 6 
#
# 1 0.040794 -0.013059 0.004855 -0.020270 -0.004924 0.006757
# 2 -0.013059 0.021741 -0.006874 0.011531 -0.008526 0.009370
# 3 0.004855 -0.006874 0.016512 -0.022954 0.005575 -0.003662
# 4 -0.020270 0.011531 -0.022954 0.083600 -0.005650 0.011355
# 5 -0.004924 -0.008526 0.005575 -0.005650 0.064229 -0.011256
# 6 0.006757 0.009370 -0.003662 0.011355 -0.011256 0.036564
#
#
# Mechanical properties :
#
#
# Convention : Reuss Voigt Hill
#
# Bulk Modulus (GPa) = 20.45245 42.51410 31.48327
# Shear Modulus (GPa) = 16.13466 26.95158 21.54312
#
# Velocity S-wave (km/s) = 2.69808 3.48712 3.11766
# Velocity P-wave (km/s) = 4.35131 5.94935 5.21194
#
# Compressibility (1/GPa) = 0.04889391
#
# Stress axis : x y z
#
# Youngs Moduli (GPa) = 24.51356 45.99513 60.56160
#
# Poissons Ratio (x) = 0.60063 -0.29406
# Poissons Ratio (y) = 0.32011 0.41628
# Poissons Ratio (z) = -0.11903 0.31615
#
# Static dielectric constant tensor:
#      x y z
#    x 1.902970 0.027970 -0.017850 
#    y 0.027970 1.834560 -0.021980 
#    z -0.017850 -0.021980 1.813470 
# 
# From -- ./inp_files/379576.got.cif
#   From: 2010.05.17/outbox.cif.g08.bks.cpg/sg2_190_cif.got.tgz:379576.got - 2010.06.03 11:33:40.
