data_PCOD9075115
_publ_section_title
;
Structure prediction by ZEFSAII (Michael W. Deem and Ramdas Pophale) SiO2 
 PCOD9075115
Probable space group: P -1
;
_chemical_formula_sum "Si O2"
_cell_formula_units_Z 15
_cell_length_a 9.000000
_cell_length_b 9.000000
_cell_length_c 12.000000
_cell_angle_alpha 50.000000
_cell_angle_beta 70.000000
_cell_angle_gamma 60.000000
_cell_volume 644.526612
_symmetry_space_group_name_H-M "P -1"
_symmetry_group_IT_number 2
_symmetry_cell_setting 'triclinic'
loop_
_space_group_symop_operation_xyz
x,y,z
-x,-y,-z
loop_
_atom_site_type_symbol
_atom_site_label
_atom_site_fract_x
_atom_site_fract_y
_atom_site_fract_z
Si Si1 0.085469 0.367522 0.361064
Si Si2 0.332143 0.004204 0.612208
Si Si3 0.725085 0.727973 0.271144
Si Si4 0.500000 0.500000 0.500000
Si Si5 0.248834 0.662368 0.287776
Si Si6 0.450123 0.514683 0.876488
Si Si7 0.078036 0.092768 0.030434
Si Si8 0.155200 0.466961 0.056208
O O1 0.167891 0.146119 0.510802
O O2 0.132963 0.537269 0.337730
O O3 0.166455 0.342012 0.227866
O O4 0.883379 0.495870 0.338338
O O5 0.300427 0.125292 0.681546
O O6 0.500000 0.000000 0.500000
O O7 0.367918 0.758135 0.739123
O O8 0.556859 0.675963 0.334444
O O9 0.779405 0.841093 0.098925
O O10 0.343899 0.548214 0.428659
O O11 0.388647 0.607393 0.180880
O O12 0.150111 0.914367 0.192471
O O13 0.500000 0.500000 0.000000
O O14 0.318836 0.399935 0.968737
O O15 0.906346 0.290968 0.009866
O O16 0.000000 0.000000 0.000000
O O17 0.000000 0.500000 0.000000
#
# Coordination Sequence:
#
# PCOD9075115 Si02
#       8
#     2   2   2   1   2   2   2   2
#     4  11  23  45  71  96 134 188 230 286 342 436
#     4  12  22  41  69 102 128 178 233 277 346 415
#     4  11  24  42  71  99 137 178 237 283 349 414
#     4  12  28  42  62 102 148 178 220 302 344 406
#     4  12  24  46  68 102 138 180 238 281 351 419
#     4  12  23  43  72  96 135 177 226 288 344 414
#     4  11  22  46  78 101 126 189 246 277 338 429
#     4  11  25  45  67 105 138 170 228 296 354 399
#
# _framework density 23.272894999999998
#
# number of rings (size 3 to 8) (size 9 to 14) (size 15 to 20)
#    0.000    0.533    6.667    2.000    3.733    0.533 
#    7.200    0.667    0.000    0.000    0.000    0.000 
#    0.000    0.000    0.000    0.000    0.000    0.000 
#
# Total GULP energy -83513.957209 kJ/mol
# GULP energy per Si atom -5567.597147 kJ/mol
# Density = 2.321992 g / cm^3
# Si number density = 23.272895 Si / 1000 Ang^3
#
#
#
# Elastic Constant Matrix: (Units=GPa)
#
#
# Indices 1 2 3 4 5 6 
#
# 1 43.6142 -16.7307 11.8895 4.5858 -9.8508 15.0088
# 2 -16.7307 37.2939 -0.1739 -2.0785 1.6199 -15.3188
# 3 11.8895 -0.1739 123.3389 2.0137 8.8747 -1.4358
# 4 4.5858 -2.0785 2.0137 24.2273 -18.7062 -0.8644
# 5 -9.8508 1.6199 8.8747 -18.7062 48.4951 1.4577
# 6 15.0088 -15.3188 -1.4358 -0.8644 1.4577 20.2723
#
#
#
# Elastic Compliance Matrix: (Units=1/GPa)
#
#
# Indices 1 2 3 4 5 6 
#
# 1 0.036531 0.006510 -0.004401 -0.000135 0.008650 -0.023066
# 2 0.006510 0.040552 -0.000381 0.003746 0.000704 0.025905
# 3 -0.004401 -0.000381 0.008878 -0.002600 -0.003622 0.003749
# 4 -0.000135 0.003746 -0.002600 0.060005 0.023360 0.003625
# 5 0.008650 0.000704 -0.003622 0.023360 0.032252 -0.007452
# 6 -0.023066 0.025905 0.003749 0.003625 -0.007452 0.086937
#
#
# Mechanical properties :
#
#
# Convention : Reuss Voigt Hill
#
# Bulk Modulus (GPa) = 11.18347 21.57965 16.38156
# Shear Modulus (GPa) = 17.15243 32.54973 24.85108
#
# Velocity S-wave (km/s) = 2.71774 3.74386 3.27128
# Velocity P-wave (km/s) = 3.82936 5.28973 4.61764
#
# Compressibility (1/GPa) = 0.08941768
#
# Stress axis : x y z
#
# Youngs Moduli (GPa) = 27.37409 24.65978 112.63637
#
# Poissons Ratio (x) = -0.16053 0.49571
# Poissons Ratio (y) = -0.17820 0.04287
# Poissons Ratio (z) = 0.12047 0.00939
#
# Static dielectric constant tensor:
#      x y z
#    x 1.894640 -0.018080 -0.030410 
#    y -0.018080 1.839210 -0.017360 
#    z -0.030410 -0.017360 1.935560 
# 
# From -- ./inp_files/190992.got.cif
#   From: 2010.05.17/outbox.ucp.g08.bks.cvg/sg2_96_cif.got.tgz:190992.got - 2010.06.11 11:32:03.
