data_PCOD9075770
_publ_section_title
;
Structure prediction by ZEFSAII (Michael W. Deem and Ramdas Pophale) SiO2 
 PCOD9075770
Probable space group: P -1
;
_chemical_formula_sum "Si O2"
_cell_formula_units_Z 14
_cell_length_a 13.205528
_cell_length_b 20.706343
_cell_length_c 11.354671
_cell_angle_alpha 38.406478
_cell_angle_beta 23.911369
_cell_angle_gamma 36.717958
_cell_volume 735.656806
_symmetry_space_group_name_H-M "P -1"
_symmetry_group_IT_number 2
_symmetry_cell_setting 'triclinic'
loop_
_space_group_symop_operation_xyz
x,y,z
-x,-y,-z
loop_
_atom_site_type_symbol
_atom_site_label
_atom_site_fract_x
_atom_site_fract_y
_atom_site_fract_z
Si Si1 0.350067 0.644331 0.552862
Si Si2 0.863061 0.801635 0.744552
Si Si3 0.037523 0.002524 0.266209
Si Si4 0.617790 0.126702 0.707429
Si Si5 0.190513 0.059437 0.774777
Si Si6 0.886112 0.720225 0.593907
Si Si7 0.497712 0.595561 0.200918
O O1 0.371534 0.752960 0.438205
O O2 0.510891 0.612846 0.304264
O O3 0.421920 0.536158 0.710248
O O4 0.050492 0.686102 0.762051
O O5 0.740374 0.780844 0.782607
O O6 0.009122 0.885688 0.427866
O O7 0.683390 0.858661 0.964308
O O8 0.758978 0.086254 0.491861
O O9 0.229872 0.964263 0.227607
O O10 0.147893 0.051034 0.971249
O O11 0.116978 0.184549 0.629539
O O12 0.500000 0.000000 0.500000
O O13 0.000000 0.000000 0.000000
O O14 0.194329 0.654660 0.394941
O O15 0.711896 0.645332 0.848082
#
# Coordination Sequence:
#
# PCOD9075770 Si02
#       7
#     2   2   2   2   2   2   2
#     4   9  20  31  54  82 111 143 188 230 291 330
#     4  10  18  32  55  82 113 145 184 231 293 337
#     4  10  22  35  54  86 114 153 187 233 288 343
#     4  10  19  36  56  82 119 146 188 234 291 344
#     4  12  24  39  61  84 115 156 191 232 278 339
#     4  11  21  35  57  81 117 144 189 231 283 327
#     4  10  21  35  55  84 112 148 185 239 279 331
#
# _framework density 19.030612999999999
#
# number of rings (size 3 to 8) (size 9 to 14) (size 15 to 20)
#    0.000    1.714    2.857    2.143    4.000    1.714 
#    0.000    0.000    0.000    1.714    0.000    0.000 
#    0.000    0.000    0.000    0.000    0.000    0.000 
#
# Total GULP energy -77999.854954 kJ/mol
# GULP energy per Si atom -5571.418211 kJ/mol
# Density = 1.898730 g / cm^3
# Si number density = 19.030613 Si / 1000 Ang^3
#
#
#
# Elastic Constant Matrix: (Units=GPa)
#
#
# Indices 1 2 3 4 5 6 
#
# 1 39.7540 31.0977 36.4656 -8.9475 5.2172 -1.5801
# 2 31.0977 117.5598 61.4560 -22.9462 10.3937 -14.7153
# 3 36.4656 61.4560 131.5481 -15.6521 9.6316 -14.1745
# 4 -8.9475 -22.9462 -15.6521 28.0000 3.7436 5.4173
# 5 5.2172 10.3937 9.6316 3.7436 33.3027 -0.8368
# 6 -1.5801 -14.7153 -14.1745 5.4173 -0.8368 22.5143
#
#
#
# Elastic Compliance Matrix: (Units=1/GPa)
#
#
# Indices 1 2 3 4 5 6 
#
# 1 0.037963 -0.005642 -0.007901 0.004847 -0.002629 -0.007262
# 2 -0.005642 0.014094 -0.003391 0.007358 -0.003241 0.004790
# 3 -0.007901 -0.003391 0.012038 0.000689 -0.001147 0.004599
# 4 0.004847 0.007358 0.000689 0.045943 -0.008565 -0.005790
# 5 -0.002629 -0.003241 -0.001147 -0.008565 0.032752 0.000253
# 6 -0.007262 0.004790 0.004599 -0.005790 0.000253 0.051335
#
#
# Mechanical properties :
#
#
# Convention : Reuss Voigt Hill
#
# Bulk Modulus (GPa) = 33.08457 60.76671 46.92564
# Shear Modulus (GPa) = 21.00224 27.41958 24.21091
#
# Velocity S-wave (km/s) = 3.32566 3.79992 3.57067
# Velocity P-wave (km/s) = 5.67180 7.15911 6.45841
#
# Compressibility (1/GPa) = 0.03022557
#
# Stress axis : x y z
#
# Youngs Moduli (GPa) = 26.34144 70.95190 83.07171
#
# Poissons Ratio (x) = 0.40035 0.65633
# Poissons Ratio (y) = 0.14863 0.28173
# Poissons Ratio (z) = 0.20812 0.24063
#
# Static dielectric constant tensor:
#      x y z
#    x 1.701030 0.005090 -0.055670 
#    y 0.005090 1.702740 0.040700 
#    z -0.055670 0.040700 1.724940 
# 
# From -- ./inp_files/61796.got.cif
#   From: 2010.05.17/outbox.cif.g08.bks.cpg/sg2_31_cif.got.tgz:61796.got - 2010.06.03 11:33:40.
