data_PCOD9075286
_publ_section_title
;
Structure prediction by ZEFSAII (Michael W. Deem and Ramdas Pophale) SiO2 
 PCOD9075286
Probable space group: P -1
;
_chemical_formula_sum "Si O2"
_cell_formula_units_Z 16
_cell_length_a 15.000000
_cell_length_b 21.000000
_cell_length_c 9.000000
_cell_angle_alpha 130.000000
_cell_angle_beta 50.000000
_cell_angle_gamma 160.000000
_cell_volume 734.602417
_symmetry_space_group_name_H-M "P -1"
_symmetry_group_IT_number 2
_symmetry_cell_setting 'triclinic'
loop_
_space_group_symop_operation_xyz
x,y,z
-x,-y,-z
loop_
_atom_site_type_symbol
_atom_site_label
_atom_site_fract_x
_atom_site_fract_y
_atom_site_fract_z
Si Si1 0.088043 0.804478 0.592466
Si Si2 0.532323 0.205238 0.200597
Si Si3 0.678360 0.496114 0.061182
Si Si4 0.065151 0.523499 0.291913
Si Si5 0.057279 0.162779 0.744954
Si Si6 0.104629 0.145808 0.016337
Si Si7 0.437130 0.587560 0.592514
Si Si8 0.428529 0.888247 0.258368
O O1 0.264489 0.868209 0.377905
O O2 0.043866 0.872979 0.771806
O O3 0.792997 0.586968 0.538479
O O4 0.282297 0.906230 0.675744
O O5 0.776811 0.343759 0.254167
O O6 0.584962 0.327530 0.251802
O O7 0.534435 0.136648 0.970164
O O8 0.229665 0.022982 0.304593
O O9 0.870430 0.693663 0.103728
O O10 0.416345 0.343296 0.013777
O O11 0.607550 0.466671 0.268462
O O12 0.799741 0.481339 0.883594
O O13 0.000000 0.500000 0.500000
O O14 0.256677 0.716045 0.294841
O O15 0.285451 0.265710 0.554814
O O16 0.053253 0.121158 0.855575
O O17 0.000000 0.000000 0.000000
#
# Coordination Sequence:
#
# PCOD9075286 Si02
#       8
#     2   2   2   2   2   2   2   2
#     4  11  24  42  81 105 142 193 250 303 373 439
#     4  12  25  50  76 107 151 201 248 307 375 442
#     4  12  27  47  75 109 156 195 251 310 374 438
#     4  12  28  45  75 110 151 192 248 312 378 445
#     4  12  28  46  77 109 149 202 253 307 367 450
#     4  12  26  48  74 109 152 194 252 309 375 441
#     4  12  25  50  76 112 150 200 253 308 373 441
#     4  11  23  47  75 107 145 196 248 300 378 445
#
# _framework density 21.780488999999999
#
# number of rings (size 3 to 8) (size 9 to 14) (size 15 to 20)
#    0.000    0.250    5.000    3.750    3.500    1.500 
#    0.000    0.000    0.000    0.000    0.000    0.000 
#    0.000    0.000    0.000    0.000    0.000    0.000 
#
# Total GULP energy -89380.468402 kJ/mol
# GULP energy per Si atom -5586.279275 kJ/mol
# Density = 2.173092 g / cm^3
# Si number density = 21.780489 Si / 1000 Ang^3
#
#
#
# Elastic Constant Matrix: (Units=GPa)
#
#
# Indices 1 2 3 4 5 6 
#
# 1 103.2127 33.7729 41.5071 -15.0977 -14.2509 23.2534
# 2 33.7729 76.1389 22.8848 -7.8997 11.9463 34.1654
# 3 41.5071 22.8848 141.1650 -20.1274 -12.6403 11.4551
# 4 -15.0977 -7.8997 -20.1274 36.5538 7.2566 -0.2260
# 5 -14.2509 11.9463 -12.6403 7.2566 54.5884 -2.0564
# 6 23.2534 34.1654 11.4551 -0.2260 -2.0564 52.8899
#
#
#
# Elastic Compliance Matrix: (Units=1/GPa)
#
#
# Indices 1 2 3 4 5 6 
#
# 1 0.013515 -0.004506 -0.002365 0.002590 0.003533 -0.002371
# 2 -0.004506 0.022850 -0.001495 0.003662 -0.007489 -0.012731
# 3 -0.002365 -0.001495 0.008571 0.003166 0.001281 0.000213
# 4 0.002590 0.003662 0.003166 0.031682 -0.003762 -0.004201
# 5 0.003533 -0.007489 0.001281 -0.003762 0.021822 0.003839
# 6 -0.002371 -0.012731 0.000213 -0.004201 0.003839 0.028259
#
#
# Mechanical properties :
#
#
# Convention : Reuss Voigt Hill
#
# Bulk Modulus (GPa) = 35.45687 57.42735 46.44211
# Shear Modulus (GPa) = 32.71591 43.62987 38.17289
#
# Velocity S-wave (km/s) = 3.87986 4.48053 4.19097
# Velocity P-wave (km/s) = 6.03205 7.29318 6.69239
#
# Compressibility (1/GPa) = 0.02820328
#
# Stress axis : x y z
#
# Youngs Moduli (GPa) = 73.99136 43.76460 116.67722
#
# Poissons Ratio (x) = 0.19719 0.27599
# Poissons Ratio (y) = 0.33339 0.17441
# Poissons Ratio (z) = 0.17502 0.06542
#
# Static dielectric constant tensor:
#      x y z
#    x 1.775840 -0.021480 -0.004370 
#    y -0.021480 1.883370 0.026100 
#    z -0.004370 0.026100 1.811510 
# 
# From -- ./inp_files/319470.got.cif
#   From: 2010.05.17/outbox.ucp.g08.bks.cvg/sg2_160_cif.got.tgz:319470.got - 2010.06.11 11:32:03.
