data_PCOD9075281
_publ_section_title
;
Structure prediction by ZEFSAII (Michael W. Deem and Ramdas Pophale) SiO2 
 PCOD9075281
Probable space group: P -1
;
_chemical_formula_sum "Si O2"
_cell_formula_units_Z 12
_cell_length_a 12.000000
_cell_length_b 9.000000
_cell_length_c 6.000000
_cell_angle_alpha 120.000000
_cell_angle_beta 110.000000
_cell_angle_gamma 70.000000
_cell_volume 515.566255
_symmetry_space_group_name_H-M "P -1"
_symmetry_group_IT_number 2
_symmetry_cell_setting 'triclinic'
loop_
_space_group_symop_operation_xyz
x,y,z
-x,-y,-z
loop_
_atom_site_type_symbol
_atom_site_label
_atom_site_fract_x
_atom_site_fract_y
_atom_site_fract_z
Si Si1 0.636040 0.826159 0.545668
Si Si2 0.071216 0.845027 0.577785
Si Si3 0.450578 0.271091 0.095523
Si Si4 0.293659 0.824679 0.008568
Si Si5 0.111292 0.355988 0.553407
Si Si6 0.223198 0.564510 0.132183
O O1 0.566757 0.816269 0.733758
O O2 0.766107 0.689343 0.541051
O O3 0.664909 0.019546 0.712209
O O4 0.587931 0.793432 0.233098
O O5 0.142085 0.680593 0.352469
O O6 0.958037 0.801936 0.603149
O O7 0.177388 0.898665 0.833094
O O8 0.000000 0.000000 0.500000
O O9 0.357644 0.456627 0.204072
O O10 0.592042 0.264138 0.136373
O O11 0.249688 0.690538 0.045191
O O12 0.000000 0.500000 0.500000
O O13 0.152530 0.423654 0.869663
#
# Coordination Sequence:
#
# PCOD9075281 Si02
#       6
#     2   2   2   2   2   2
#     4  11  27  47  77 107 148 195 242 306 363 433
#     4  12  28  44  74 107 147 192 243 304 362 440
#     4  11  27  50  77 108 147 193 248 301 368 432
#     4  12  27  46  73 110 147 190 244 307 366 433
#     4  11  23  47  69 102 145 193 245 294 367 432
#     4  11  26  45  74 104 144 196 241 306 361 435
#
# _framework density 23.275379000000001
#
# number of rings (size 3 to 8) (size 9 to 14) (size 15 to 20)
#    0.000    0.667    1.667    4.000   14.000    2.000 
#    0.000    0.000    0.000    0.000    0.000    0.000 
#    0.000    0.000    0.000    0.000    0.000    0.000 
#
# Total GULP energy -66986.698955 kJ/mol
# GULP energy per Si atom -5582.224913 kJ/mol
# Density = 2.322240 g / cm^3
# Si number density = 23.275379 Si / 1000 Ang^3
#
#
#
# Elastic Constant Matrix: (Units=GPa)
#
#
# Indices 1 2 3 4 5 6 
#
# 1 129.1108 16.1990 33.4518 -16.5871 -12.7240 1.3214
# 2 16.1990 83.1669 -3.6676 -24.7511 16.1422 -26.0386
# 3 33.4518 -3.6676 105.9598 -2.5537 -14.2769 -7.3650
# 4 -16.5871 -24.7511 -2.5537 33.1863 -4.7873 -9.8776
# 5 -12.7240 16.1422 -14.2769 -4.7873 37.7954 -0.3226
# 6 1.3214 -26.0386 -7.3650 -9.8776 -0.3226 21.8695
#
#
#
# Elastic Compliance Matrix: (Units=1/GPa)
#
#
# Indices 1 2 3 4 5 6 
#
# 1 0.015912 -0.130786 -0.025785 -0.157594 0.029498 -0.236108
# 2 -0.130786 2.585496 0.463384 3.218171 -0.525595 4.688115
# 3 -0.025785 0.463384 0.094073 0.578347 -0.090587 0.844842
# 4 -0.157594 3.218171 0.578347 4.044973 -0.646733 5.853385
# 5 0.029498 -0.525595 -0.090587 -0.646733 0.136637 -0.948172
# 6 -0.236108 4.688115 0.844842 5.853385 -0.948172 8.556117
#
#
# Mechanical properties :
#
#
# Convention : Reuss Voigt Hill
#
# Bulk Modulus (GPa) = 0.30220 45.57820 22.94020
# Shear Modulus (GPa) = 0.31402 36.72053 18.51728
#
# Velocity S-wave (km/s) = 0.36771 3.97628 2.82365
# Velocity P-wave (km/s) = 0.55713 6.38010 4.52858
#
# Compressibility (1/GPa) = 3.30910790
#
# Stress axis : x y z
#
# Youngs Moduli (GPa) = 62.84444 0.38677 10.63000
#
# Poissons Ratio (x) = 0.05058 0.27410
# Poissons Ratio (y) = 8.21915 -4.92577
# Poissons Ratio (z) = 1.62047 -0.17922
#
# Static dielectric constant tensor:
#      x y z
#    x 1.826820 -0.017590 0.005550 
#    y -0.017590 1.895360 -0.014960 
#    z 0.005550 -0.014960 1.893250 
# 
# From -- ./inp_files/22263.got.cif
#   From: 2010.05.17/outbox.ucp.g08.bks.cvg/sg2_12_cif.got.tgz:22263.got - 2010.06.11 11:32:03.
