data_PCOD9075294
_publ_section_title
;
Structure prediction by ZEFSAII (Michael W. Deem and Ramdas Pophale) SiO2 
 PCOD9075294
Probable space group: P -1
;
_chemical_formula_sum "Si O2"
_cell_formula_units_Z 16
_cell_length_a 9.000000
_cell_length_b 12.000000
_cell_length_c 21.000000
_cell_angle_alpha 20.000000
_cell_angle_beta 100.000000
_cell_angle_gamma 100.000000
_cell_volume 763.547719
_symmetry_space_group_name_H-M "P -1"
_symmetry_group_IT_number 2
_symmetry_cell_setting 'triclinic'
loop_
_space_group_symop_operation_xyz
x,y,z
-x,-y,-z
loop_
_atom_site_type_symbol
_atom_site_label
_atom_site_fract_x
_atom_site_fract_y
_atom_site_fract_z
Si Si1 0.854221 0.777266 0.060898
Si Si2 0.627851 0.807050 0.655349
Si Si3 0.801531 0.172762 0.964851
Si Si4 0.052603 0.829946 0.528148
Si Si5 0.782310 0.701767 0.471690
Si Si6 0.362664 0.026087 0.158739
Si Si7 0.456265 0.985529 0.326235
Si Si8 0.314571 0.258328 0.698121
O O1 0.886787 0.511818 0.259558
O O2 0.802025 0.075346 0.942258
O O3 0.722108 0.727044 0.026404
O O4 0.016716 0.781761 0.035070
O O5 0.500000 0.000000 0.500000
O O6 0.792874 0.985420 0.579954
O O7 0.565095 0.803502 0.725048
O O8 0.685053 0.467099 0.810836
O O9 0.754168 0.895918 0.160531
O O10 0.922354 0.786923 0.485880
O O11 0.000000 0.000000 0.500000
O O12 0.631576 0.886063 0.384608
O O13 0.788558 0.781998 0.352285
O O14 0.739804 0.311844 0.674927
O O15 0.388327 0.133073 0.176594
O O16 0.529135 0.924734 0.204563
O O17 0.363936 0.635953 0.510494
#
# Coordination Sequence:
#
# PCOD9075294 Si02
#       8
#     2   2   2   2   2   2   2   2
#     4  11  24  41  65  91 131 167 217 261 311 382
#     4  12  27  42  64  95 134 168 211 266 321 381
#     4  11  24  42  61  97 129 169 213 263 318 373
#     4  12  24  43  63  93 126 175 211 256 328 372
#     4   9  19  41  68  92 130 167 212 262 313 385
#     4   9  20  39  70  96 125 167 214 262 311 377
#     4   9  20  42  66  97 126 168 212 259 320 376
#     4   9  20  40  69  97 122 167 217 263 314 371
#
# _framework density 20.954813000000001
#
# number of rings (size 3 to 8) (size 9 to 14) (size 15 to 20)
#    0.000    1.750    1.250    4.500    5.250    1.500 
#    2.250    5.625    0.000    0.000    0.000    0.000 
#    0.000    0.000    0.000    0.000    0.000    0.000 
#
# Total GULP energy -89224.808807 kJ/mol
# GULP energy per Si atom -5576.550550 kJ/mol
# Density = 2.090712 g / cm^3
# Si number density = 20.954813 Si / 1000 Ang^3
#
#
#
# Elastic Constant Matrix: (Units=GPa)
#
#
# Indices 1 2 3 4 5 6 
#
# 1 90.4038 61.2739 31.8049 11.3307 16.1344 11.9277
# 2 61.2739 153.0346 35.1843 19.0745 28.5023 11.0264
# 3 31.8049 35.1843 60.6742 14.6244 16.4709 4.7172
# 4 11.3307 19.0745 14.6244 39.6538 0.0413 14.9994
# 5 16.1344 28.5023 16.4709 0.0413 42.0137 2.1287
# 6 11.9277 11.0264 4.7172 14.9994 2.1287 58.1811
#
#
#
# Elastic Compliance Matrix: (Units=1/GPa)
#
#
# Indices 1 2 3 4 5 6 
#
# 1 0.016948 -0.005301 -0.005624 0.000593 -0.000600 -0.002145
# 2 -0.005301 0.010099 -0.001194 -0.002972 -0.004354 0.000195
# 3 -0.005624 -0.001194 0.023398 -0.007016 -0.006273 0.001521
# 4 0.000593 -0.002972 -0.007016 0.031852 0.004882 -0.007380
# 5 -0.000600 -0.004354 -0.006273 0.004882 0.029485 -0.000881
# 6 -0.002145 0.000195 0.001521 -0.007380 -0.000881 0.019402
#
#
# Mechanical properties :
#
#
# Convention : Reuss Voigt Hill
#
# Bulk Modulus (GPa) = 38.15728 62.29320 50.22524
# Shear Modulus (GPa) = 30.45847 39.69301 35.07574
#
# Velocity S-wave (km/s) = 3.81666 4.35698 4.09574
# Velocity P-wave (km/s) = 6.13770 7.42314 6.81081
#
# Compressibility (1/GPa) = 0.02620732
#
# Stress axis : x y z
#
# Youngs Moduli (GPa) = 59.00257 99.02217 42.73896
#
# Poissons Ratio (x) = 0.52489 0.24035
# Poissons Ratio (y) = 0.31275 0.05105
# Poissons Ratio (z) = 0.33181 0.11828
#
# Static dielectric constant tensor:
#      x y z
#    x 1.756280 -0.008110 -0.049230 
#    y -0.008110 1.769110 -0.041760 
#    z -0.049230 -0.041760 1.877370 
# 
# From -- ./inp_files/589322.got.cif
#   From: 2010.05.17/outbox.ucp.g08.bks.cvg/sg2_295_cif.got.tgz:589322.got - 2010.06.11 11:32:03.
