data_PCOD9075260
_publ_section_title
;
Structure prediction by ZEFSAII (Michael W. Deem and Ramdas Pophale) SiO2 
 PCOD9075260
Probable space group: P -1
;
_chemical_formula_sum "Si O2"
_cell_formula_units_Z 14
_cell_length_a 21.000000
_cell_length_b 12.000000
_cell_length_c 15.000000
_cell_angle_alpha 40.000000
_cell_angle_beta 160.000000
_cell_angle_gamma 150.000000
_cell_volume 620.704002
_symmetry_space_group_name_H-M "P -1"
_symmetry_group_IT_number 2
_symmetry_cell_setting 'triclinic'
loop_
_space_group_symop_operation_xyz
x,y,z
-x,-y,-z
loop_
_atom_site_type_symbol
_atom_site_label
_atom_site_fract_x
_atom_site_fract_y
_atom_site_fract_z
Si Si1 0.264980 0.303945 0.373715
Si Si2 0.441573 0.604101 0.975663
Si Si3 0.686085 0.151563 0.467291
Si Si4 0.383655 0.650655 0.453721
Si Si5 0.855599 0.578076 0.532461
Si Si6 0.672481 0.945052 0.234841
Si Si7 0.903942 0.830598 0.104043
O O1 0.500000 0.500000 0.500000
O O2 0.242228 0.464130 0.302822
O O3 0.294867 0.159607 0.571159
O O4 0.030232 0.090548 0.139176
O O5 0.423141 0.766769 0.792529
O O6 0.185771 0.344424 0.822916
O O7 0.632456 0.572728 0.214958
O O8 0.540622 0.738936 0.116811
O O9 0.838219 0.374453 0.594739
O O10 0.882777 0.145635 0.681269
O O11 0.475434 0.900840 0.391610
O O12 0.206737 0.502096 0.396950
O O13 0.651235 0.721490 0.784533
O O14 0.093962 0.825646 0.653067
O O15 0.500000 0.000000 0.000000
#
# Coordination Sequence:
#
# PCOD9075260 Si02
#       7
#     2   2   2   2   2   2   2
#     4  12  25  44  74 106 143 184 242 292 366 414
#     4  11  24  45  69 102 147 190 239 297 356 420
#     4  12  23  43  71 106 143 187 249 284 359 432
#     4  11  26  48  70 108 150 188 236 303 361 425
#     4  11  25  46  72 100 149 192 233 299 361 426
#     4  12  25  46  75 106 142 184 247 299 352 432
#     4  11  23  45  75 102 142 192 239 299 355 418
#
# _framework density 22.555033999999999
#
# number of rings (size 3 to 8) (size 9 to 14) (size 15 to 20)
#    0.000    0.571    4.286    4.714    0.000    1.143 
#    0.000    2.143    0.000    0.000    0.000    0.000 
#    0.000    0.000    0.000    0.000    0.000    0.000 
#
# Total GULP energy -78224.031909 kJ/mol
# GULP energy per Si atom -5587.430851 kJ/mol
# Density = 2.250370 g / cm^3
# Si number density = 22.555034 Si / 1000 Ang^3
#
#
#
# Elastic Constant Matrix: (Units=GPa)
#
#
# Indices 1 2 3 4 5 6 
#
# 1 82.5364 54.8482 29.9750 22.7885 -1.1184 35.2448
# 2 54.8482 218.8569 26.2248 14.3038 2.2540 26.1545
# 3 29.9750 26.2248 37.9763 0.5049 10.4590 2.0093
# 4 22.7885 14.3038 0.5049 47.2525 9.8518 -7.4750
# 5 -1.1184 2.2540 10.4590 9.8518 20.5106 10.7355
# 6 35.2448 26.1545 2.0093 -7.4750 10.7355 62.1207
#
#
#
# Elastic Compliance Matrix: (Units=1/GPa)
#
#
# Indices 1 2 3 4 5 6 
#
# 1 -0.117824 -0.006575 0.143158 0.115213 -0.192750 0.112160
# 2 -0.006575 0.005449 0.002651 0.002962 -0.005085 0.002586
# 3 0.143158 0.002651 -0.137520 -0.132602 0.209394 -0.130033
# 4 0.115213 0.002962 -0.132602 -0.084843 0.167438 -0.101471
# 5 -0.192750 -0.005085 0.209394 0.167438 -0.235018 0.165490
# 6 0.112160 0.002586 -0.130033 -0.101471 0.165490 -0.085230
#
#
# Mechanical properties :
#
#
# Convention : Reuss Voigt Hill
#
# Bulk Modulus (GPa) = 34.99706 62.38505 48.69105
# Shear Modulus (GPa) = -5.41166 41.19818 17.89326
#
# Velocity S-wave (km/s) = -1.55065 4.27847 2.81964
# Velocity P-wave (km/s) = 3.51340 7.21984 5.67759
#
# Compressibility (1/GPa) = 0.02857383
#
# Stress axis : x y z
#
# Youngs Moduli (GPa) = -8.48725 183.51906 -7.27165
#
# Poissons Ratio (x) = 1.20657 1.04100
# Poissons Ratio (y) = -0.05580 0.01928
# Poissons Ratio (z) = 1.21502 -0.48649
#
# Static dielectric constant tensor:
#      x y z
#    x 2.191300 -0.058240 0.094250 
#    y -0.058240 1.791690 -0.023750 
#    z 0.094250 -0.023750 1.953870 
# 
# From -- ./inp_files/243799.got.cif
#   From: 2010.05.17/outbox.ucp.g08.bks.cvg/sg2_122_cif.got.tgz:243799.got - 2010.06.11 11:32:03.
