data_PCOD9075403
_publ_section_title
;
Structure prediction by ZEFSAII (Michael W. Deem and Ramdas Pophale) SiO2 
 PCOD9075403
Probable space group: P -1
;
_chemical_formula_sum "Si O2"
_cell_formula_units_Z 13
_cell_length_a 15.000000
_cell_length_b 15.000000
_cell_length_c 6.000000
_cell_angle_alpha 120.000000
_cell_angle_beta 120.000000
_cell_angle_gamma 30.000000
_cell_volume 577.529782
_symmetry_space_group_name_H-M "P -1"
_symmetry_group_IT_number 2
_symmetry_cell_setting 'triclinic'
loop_
_space_group_symop_operation_xyz
x,y,z
-x,-y,-z
loop_
_atom_site_type_symbol
_atom_site_label
_atom_site_fract_x
_atom_site_fract_y
_atom_site_fract_z
Si Si1 0.500000 0.000000 0.000000
Si Si2 0.947084 0.935914 0.467798
Si Si3 0.826260 0.569034 0.854052
Si Si4 0.726685 0.967120 0.904720
Si Si5 0.355377 0.779760 0.192738
Si Si6 0.110827 0.586721 0.763665
Si Si7 0.286382 0.605960 0.737834
O O1 0.648250 0.785591 0.897200
O O2 0.610573 0.979392 0.912018
O O3 0.129344 0.729808 0.514725
O O4 0.823354 0.059509 0.682988
O O5 0.830401 0.957480 0.193710
O O6 0.000000 0.000000 0.500000
O O7 0.843714 0.503667 0.538856
O O8 0.831257 0.506136 0.032188
O O9 0.000000 0.500000 0.000000
O O10 0.892333 0.776887 0.740240
O O11 0.624067 0.133051 0.819661
O O12 0.532488 0.608439 0.347468
O O13 0.331480 0.690752 0.920648
O O14 0.203083 0.623552 0.881841
#
# Coordination Sequence:
#
# PCOD9075403 Si02
#       7
#     1   2   2   2   2   2   2
#     4  12  30  50  82 108 156 206 270 330 390 474
#     4  12  24  45  75 109 154 201 257 322 396 467
#     4  12  28  53  77 115 151 209 262 330 394 470
#     4  12  26  50  76 113 153 212 263 325 397 470
#     4  11  25  46  72 113 152 201 262 315 400 472
#     4  12  26  50  83 110 161 203 262 326 403 471
#     4  11  24  46  75 111 154 202 253 328 393 474
#
# _framework density 22.509661999999999
#
# number of rings (size 3 to 8) (size 9 to 14) (size 15 to 20)
#    0.000    0.308    4.615    3.692    2.154    1.231 
#    2.769    0.000    0.000    0.000    0.000    0.000 
#    0.000    0.000    0.000    0.000    0.000    0.000 
#
# Total GULP energy -72388.302700 kJ/mol
# GULP energy per Si atom -5568.330977 kJ/mol
# Density = 2.245843 g / cm^3
# Si number density = 22.509662 Si / 1000 Ang^3
#
#
#
# Elastic Constant Matrix: (Units=GPa)
#
#
# Indices 1 2 3 4 5 6 
#
# 1 191.2702 41.8236 12.7927 7.5371 -27.5115 30.1677
# 2 41.8236 188.6526 43.8715 9.9620 -18.3645 20.4556
# 3 12.7927 43.8715 87.5234 7.0185 -13.1685 14.3196
# 4 7.5371 9.9620 7.0185 34.8916 2.2730 -13.4747
# 5 -27.5115 -18.3645 -13.1685 2.2730 27.3968 -9.1677
# 6 30.1677 20.4556 14.3196 -13.4747 -9.1677 54.5090
#
#
#
# Elastic Compliance Matrix: (Units=1/GPa)
#
#
# Indices 1 2 3 4 5 6 
#
# 1 0.006870 -0.000611 0.001081 -0.003336 0.006060 -0.003662
# 2 -0.000611 0.006489 -0.002412 -0.001991 0.002212 -0.001584
# 3 0.001081 -0.002412 0.014205 -0.004119 0.005458 -0.003525
# 4 -0.003336 -0.001991 -0.004119 0.035597 -0.005768 0.011505
# 5 0.006060 0.002212 0.005458 -0.005768 0.047487 0.000943
# 6 -0.003662 -0.001584 -0.003525 0.011505 0.000943 0.024895
#
#
# Mechanical properties :
#
#
# Convention : Reuss Voigt Hill
#
# Bulk Modulus (GPa) = 42.23052 73.82465 58.02759
# Shear Modulus (GPa) = 33.93946 47.95671 40.94809
#
# Velocity S-wave (km/s) = 3.88722 4.62074 4.26976
# Velocity P-wave (km/s) = 6.24092 7.83175 7.08115
#
# Compressibility (1/GPa) = 0.02367956
#
# Stress axis : x y z
#
# Youngs Moduli (GPa) = 145.55347 154.09884 70.39888
#
# Poissons Ratio (x) = 0.09419 -0.07608
# Poissons Ratio (y) = 0.08897 0.16979
# Poissons Ratio (z) = -0.15730 0.37167
#
# Static dielectric constant tensor:
#      x y z
#    x 1.854770 0.008750 0.027230 
#    y 0.008750 1.851570 -0.001270 
#    z 0.027230 -0.001270 1.910330 
# 
# From -- ./inp_files/97395.got.cif
#   From: 2010.05.17/outbox.ucp.g08.bks.cvg/sg2_49_cif.got.tgz:97395.got - 2010.06.11 11:32:03.
