data_PCOD9075140
_publ_section_title
;
Structure prediction by ZEFSAII (Michael W. Deem and Ramdas Pophale) SiO2 
 PCOD9075140
Probable space group: P -1
;
_chemical_formula_sum "Si O2"
_cell_formula_units_Z 16
_cell_length_a 9.000000
_cell_length_b 18.000000
_cell_length_c 12.000000
_cell_angle_alpha 150.000000
_cell_angle_beta 50.000000
_cell_angle_gamma 120.000000
_cell_volume 736.400153
_symmetry_space_group_name_H-M "P -1"
_symmetry_group_IT_number 2
_symmetry_cell_setting 'triclinic'
loop_
_space_group_symop_operation_xyz
x,y,z
-x,-y,-z
loop_
_atom_site_type_symbol
_atom_site_label
_atom_site_fract_x
_atom_site_fract_y
_atom_site_fract_z
Si Si1 0.183808 0.369309 0.718729
Si Si2 0.597540 0.702864 0.860091
Si Si3 0.329136 0.993733 0.668897
Si Si4 0.003123 0.925085 0.566495
Si Si5 0.261051 0.695892 0.400915
Si Si6 0.806589 0.215439 0.934017
Si Si7 0.507272 0.488273 0.139129
Si Si8 0.887658 0.537451 0.348425
O O1 0.338788 0.396588 0.771226
O O2 0.257563 0.411383 0.617528
O O3 0.126934 0.205986 0.527741
O O4 0.000000 0.500000 0.000000
O O5 0.494972 0.621799 0.900969
O O6 0.777208 0.587613 0.578802
O O7 0.425998 0.739743 0.899986
O O8 0.673705 0.850786 0.062855
O O9 0.147246 0.954874 0.633670
O O10 0.316352 0.862569 0.597118
O O11 0.500000 0.000000 0.500000
O O12 0.132613 0.863701 0.316937
O O13 0.872283 0.083283 0.815505
O O14 0.303820 0.594378 0.357777
O O15 0.059298 0.641664 0.386749
O O16 0.422997 0.622259 0.138640
O O17 0.922204 0.357007 0.084623
#
# Coordination Sequence:
#
# PCOD9075140 Si02
#       8
#     2   2   2   2   2   2   2   2
#     4  12  20  42  69  97 129 172 223 274 320 389
#     4  12  26  44  65  98 140 179 209 271 341 390
#     4  12  23  43  67  95 135 171 220 273 326 389
#     4  11  23  40  71 101 123 169 226 280 322 371
#     4  11  24  42  68  98 127 174 227 269 320 391
#     4  11  23  41  67 100 131 166 223 277 326 384
#     4  11  23  40  69  99 127 172 225 272 320 386
#     4  12  25  44  68  95 138 177 218 266 335 402
#
# _framework density 21.727318
#
# number of rings (size 3 to 8) (size 9 to 14) (size 15 to 20)
#    0.000    0.500    7.500    0.375    3.500    1.000 
#    0.000    0.625    0.000    0.000    0.000    0.000 
#    0.000    0.000    0.000    0.000    0.000    0.000 
#
# Total GULP energy -89076.184743 kJ/mol
# GULP energy per Si atom -5567.261546 kJ/mol
# Density = 2.167787 g / cm^3
# Si number density = 21.727318 Si / 1000 Ang^3
#
#
#
# Elastic Constant Matrix: (Units=GPa)
#
#
# Indices 1 2 3 4 5 6 
#
# 1 38.1328 5.0625 14.1745 14.8807 13.0818 16.0462
# 2 5.0625 56.5868 31.3736 33.4246 3.0322 19.5832
# 3 14.1745 31.3736 45.3680 9.7595 4.3200 6.6710
# 4 14.8807 33.4246 9.7595 32.3515 7.4058 13.2516
# 5 13.0818 3.0322 4.3200 7.4058 18.9796 16.8685
# 6 16.0462 19.5832 6.6710 13.2516 16.8685 20.8290
#
#
#
# Elastic Compliance Matrix: (Units=1/GPa)
#
#
# Indices 1 2 3 4 5 6 
#
# 1 0.019585 -0.033326 0.011854 0.012886 -0.070225 0.061122
# 2 -0.033326 -0.047292 0.028490 0.028928 -0.089629 0.115196
# 3 0.011854 0.028490 0.008251 -0.021277 0.056893 -0.071099
# 4 0.012886 0.028928 -0.021277 0.030567 0.084344 -0.118064
# 5 -0.070225 -0.089629 0.056893 0.084344 0.037324 0.036259
# 6 0.061122 0.115196 -0.071099 -0.118064 0.036259 -0.038863
#
#
# Mechanical properties :
#
#
# Convention : Reuss Voigt Hill
#
# Bulk Modulus (GPa) = -184.47317 26.81207 -78.83055
# Shear Modulus (GPa) = -797.26970 20.39717 -388.43627
#
# Velocity S-wave (km/s) = -19.17655 3.06728 -13.38529
# Velocity P-wave (km/s) = 23.98767 4.99112 16.59061
#
# Compressibility (1/GPa) = -0.00542084
#
# Stress axis : x y z
#
# Youngs Moduli (GPa) = 51.06044 -21.14505 121.19711
#
# Poissons Ratio (x) = -0.70468 -1.43672
# Poissons Ratio (y) = 1.70164 -3.45285
# Poissons Ratio (z) = -0.60529 0.60241
#
# Static dielectric constant tensor:
#      x y z
#    x 1.922120 -0.106310 -0.052660 
#    y -0.106310 1.843120 0.004490 
#    z -0.052660 0.004490 1.841550 
# 
# From -- ./inp_files/185807.got.cif
#   From: 2010.05.17/outbox.ucp.g08.bks.cvg/sg2_93_cif.got.tgz:185807.got - 2010.06.11 11:32:03.
