data_PCOD9075390
_publ_section_title
;
Structure prediction by ZEFSAII (Michael W. Deem and Ramdas Pophale) SiO2 
 PCOD9075390
Probable space group: P -1
;
_chemical_formula_sum "Si O2"
_cell_formula_units_Z 16
_cell_length_a 9.000000
_cell_length_b 12.000000
_cell_length_c 27.000000
_cell_angle_alpha 150.000000
_cell_angle_beta 140.000000
_cell_angle_gamma 30.000000
_cell_volume 727.497153
_symmetry_space_group_name_H-M "P -1"
_symmetry_group_IT_number 2
_symmetry_cell_setting 'triclinic'
loop_
_space_group_symop_operation_xyz
x,y,z
-x,-y,-z
loop_
_atom_site_type_symbol
_atom_site_label
_atom_site_fract_x
_atom_site_fract_y
_atom_site_fract_z
Si Si1 0.724717 0.320996 0.064076
Si Si2 0.286820 0.310169 0.881676
Si Si3 0.447720 0.384482 0.763131
Si Si4 0.292523 0.961220 0.574352
Si Si5 0.212753 0.571652 0.570236
Si Si6 0.958653 0.745363 0.116604
Si Si7 0.498300 0.402242 0.247374
Si Si8 0.847756 0.952005 0.314487
O O1 0.741304 0.519556 0.107799
O O2 0.718161 0.389661 0.146546
O O3 0.455744 0.341811 0.979692
O O4 0.000000 0.000000 0.000000
O O5 0.013098 0.380080 0.870009
O O6 0.398462 0.011829 0.770820
O O7 0.435135 0.507211 0.752763
O O8 0.787350 0.218894 0.805909
O O9 0.336782 0.195683 0.661006
O O10 0.544644 0.671414 0.498989
O O11 0.289839 0.954557 0.630607
O O12 0.000000 0.000000 0.500000
O O13 0.334364 0.584193 0.658442
O O14 0.000000 0.500000 0.500000
O O15 0.064479 0.866440 0.616845
O O16 0.646975 0.064461 0.151218
O O17 0.000000 0.500000 0.000000
O O18 0.155789 0.624963 0.264966
#
# Coordination Sequence:
#
# PCOD9075390 Si02
#       8
#     2   2   2   2   2   2   2   2
#     4  11  27  45  71 106 146 195 238 301 370 443
#     4  11  24  46  72 100 149 185 237 297 362 444
#     4  12  27  46  69 111 147 187 253 302 366 450
#     4  12  27  49  75 108 151 197 248 310 373 439
#     4  12  27  49  75 105 147 194 252 310 372 436
#     4  12  26  46  73 108 147 192 243 298 377 441
#     4  12  26  45  74 104 146 192 243 309 364 446
#     4  12  25  48  74 108 143 192 249 299 374 441
#
# _framework density 21.993213000000001
#
# number of rings (size 3 to 8) (size 9 to 14) (size 15 to 20)
#    0.000    0.250    6.250    1.875    5.250    2.500 
#    4.500    0.000    0.000    0.000    0.000    0.000 
#    0.000    0.000    0.000    0.000    0.000    0.000 
#
# Total GULP energy -89197.201377 kJ/mol
# GULP energy per Si atom -5574.825086 kJ/mol
# Density = 2.194316 g / cm^3
# Si number density = 21.993213 Si / 1000 Ang^3
#
#
#
# Elastic Constant Matrix: (Units=GPa)
#
#
# Indices 1 2 3 4 5 6 
#
# 1 136.7350 36.6100 59.4821 -1.0774 -6.3997 10.9836
# 2 36.6100 56.5247 40.4837 16.7965 -3.8479 -9.2572
# 3 59.4821 40.4837 163.4219 0.0483 -6.9678 -0.8599
# 4 -1.0774 16.7965 0.0483 32.1331 -1.4511 -7.1022
# 5 -6.3997 -3.8479 -6.9678 -1.4511 66.4100 -8.5163
# 6 10.9836 -9.2572 -0.8599 -7.1022 -8.5163 35.0270
#
#
#
# Elastic Compliance Matrix: (Units=1/GPa)
#
#
# Indices 1 2 3 4 5 6 
#
# 1 0.010472 -0.006885 -0.002137 0.002931 -0.000139 -0.004595
# 2 -0.006885 0.031733 -0.005256 -0.015056 0.001279 0.007675
# 3 -0.002137 -0.005256 0.008217 0.002713 0.000429 0.000137
# 4 0.002931 -0.015056 0.002713 0.039906 0.001016 0.003507
# 5 -0.000139 0.001279 0.000429 0.001016 0.015754 0.004429
# 6 -0.004595 0.007675 0.000137 0.003507 0.004429 0.033810
#
#
# Mechanical properties :
#
#
# Convention : Reuss Voigt Hill
#
# Bulk Modulus (GPa) = 45.73202 69.98149 57.85675
# Shear Modulus (GPa) = 28.45169 41.38775 34.91972
#
# Velocity S-wave (km/s) = 3.60065 4.34273 3.98898
# Velocity P-wave (km/s) = 6.17455 7.55211 6.89780
#
# Compressibility (1/GPa) = 0.02186652
#
# Stress axis : x y z
#
# Youngs Moduli (GPa) = 95.49019 31.51297 121.69774
#
# Poissons Ratio (x) = 0.21698 0.26007
# Poissons Ratio (y) = 0.65748 0.63959
# Poissons Ratio (z) = 0.20406 0.16562
#
# Static dielectric constant tensor:
#      x y z
#    x 1.730530 -0.012760 -0.037940 
#    y -0.012760 1.874670 -0.055850 
#    z -0.037940 -0.055850 1.866140 
# 
# From -- ./inp_files/407344.got.cif
#   From: 2010.05.17/outbox.ucp.g08.bks.cvg/sg2_204_cif.got.tgz:407344.got - 2010.06.11 11:32:03.
