data_PCOD9075783
_publ_section_title
;
Structure prediction by ZEFSAII (Michael W. Deem and Ramdas Pophale) SiO2 
 PCOD9075783
Probable space group: P -1
;
_chemical_formula_sum "Si O2"
_cell_formula_units_Z 16
_cell_length_a 15.829424
_cell_length_b 18.470851
_cell_length_c 5.520630
_cell_angle_alpha 108.011767
_cell_angle_beta 74.726859
_cell_angle_gamma 157.250993
_cell_volume 592.552050
_symmetry_space_group_name_H-M "P -1"
_symmetry_group_IT_number 2
_symmetry_cell_setting 'triclinic'
loop_
_space_group_symop_operation_xyz
x,y,z
-x,-y,-z
loop_
_atom_site_type_symbol
_atom_site_label
_atom_site_fract_x
_atom_site_fract_y
_atom_site_fract_z
Si Si1 0.928267 0.356674 0.291378
Si Si2 0.704208 0.512835 0.345134
Si Si3 0.724874 0.032186 0.118090
Si Si4 0.226578 0.072889 0.286727
Si Si5 0.564226 0.464425 0.888563
Si Si6 0.547656 0.949612 0.663151
Si Si7 0.931259 0.977555 0.291866
Si Si8 0.007374 0.614382 0.226581
O O1 0.683484 0.193291 0.314154
O O2 0.051657 0.472106 0.566838
O O3 0.894944 0.237907 0.201194
O O4 0.054090 0.473477 0.069383
O O5 0.485851 0.285924 0.303215
O O6 0.697525 0.557867 0.638288
O O7 0.905161 0.616332 0.302430
O O8 0.674252 0.527152 0.121152
O O9 0.594616 0.937008 0.372035
O O10 0.829109 0.032661 0.984095
O O11 0.585595 0.936335 0.875406
O O12 0.075987 0.941395 0.504974
O O13 0.140151 0.093278 0.375047
O O14 0.333277 0.238803 0.786714
O O15 0.500000 0.500000 0.000000
O O16 0.732470 0.163388 0.741989
O O17 0.000000 0.000000 0.000000
#
# Coordination Sequence:
#
# PCOD9075783 Si02
#       8
#     2   2   2   2   2   2   2   2
#     4  10  19  35  56  82 112 146 185 237 297 341
#     4  11  23  39  56  83 119 148 189 241 292 343
#     4  10  18  32  55  84 107 141 189 236 278 341
#     4   8  19  37  57  81 111 153 194 230 280 344
#     4  11  23  40  61  86 116 152 195 241 290 343
#     4  10  20  33  56  82 113 143 185 242 293 337
#     4   7  18  41  60  82 115 159 190 235 287 338
#     4  10  19  33  55  79 108 148 178 225 293 342
#
# _framework density 27.001849
#
# number of rings (size 3 to 8) (size 9 to 14) (size 15 to 20)
#    0.750    1.500    0.000    4.875    0.000    6.500 
#    0.000    0.000    0.000    8.250    0.000    0.000 
#    0.000    0.000    0.000    0.000    0.000    0.000 
#
# Total GULP energy -89284.229331 kJ/mol
# GULP energy per Si atom -5580.264333 kJ/mol
# Density = 2.694039 g / cm^3
# Si number density = 27.001849 Si / 1000 Ang^3
#
#
#
# Elastic Constant Matrix: (Units=GPa)
#
#
# Indices 1 2 3 4 5 6 
#
# 1 76.0994 15.7757 71.3972 2.2196 22.6818 18.9335
# 2 15.7757 67.5498 30.4984 -10.0245 4.1159 2.8710
# 3 71.3972 30.4984 291.7319 -25.4338 12.0045 19.7003
# 4 2.2196 -10.0245 -25.4338 37.0850 5.0891 0.3681
# 5 22.6818 4.1159 12.0045 5.0891 71.0622 10.9368
# 6 18.9335 2.8710 19.7003 0.3681 10.9368 25.9406
#
#
#
# Elastic Compliance Matrix: (Units=1/GPa)
#
#
# Indices 1 2 3 4 5 6 
#
# 1 0.022074 -0.003065 -0.004609 -0.004638 -0.004148 -0.010457
# 2 -0.003065 0.016416 -0.000653 0.004206 -0.000316 0.000990
# 3 -0.004609 -0.000653 0.004941 0.003422 0.000519 -0.000583
# 4 -0.004638 0.004206 0.003422 0.030947 -0.001646 0.000575
# 5 -0.004148 -0.000316 0.000519 -0.001646 0.016073 -0.004085
# 6 -0.010457 0.000990 -0.000583 0.000575 -0.004085 0.048229
#
#
# Mechanical properties :
#
#
# Convention : Reuss Voigt Hill
#
# Bulk Modulus (GPa) = 37.34803 74.52485 55.93644
# Shear Modulus (GPa) = 30.43947 47.99821 39.21884
#
# Velocity S-wave (km/s) = 3.36119 4.22072 3.81524
# Velocity P-wave (km/s) = 5.37821 7.17025 6.33789
#
# Compressibility (1/GPa) = 0.02677518
#
# Stress axis : x y z
#
# Youngs Moduli (GPa) = 45.30230 60.91606 202.40812
#
# Poissons Ratio (x) = 0.18672 0.93297
# Poissons Ratio (y) = 0.13886 0.13220
# Poissons Ratio (z) = 0.20881 0.03979
#
# Static dielectric constant tensor:
#      x y z
#    x 2.452960 -0.121760 0.369510 
#    y -0.121760 2.032310 -0.119850 
#    z 0.369510 -0.119850 2.563710 
# 
# From -- ./inp_files/97153.got.cif
#   From: 2010.05.17/outbox.cif.g08.bks.cpg/sg2_49_cif.got.tgz:97153.got - 2010.06.03 11:33:40.
