data_PCOD9075544
_publ_section_title
;
Structure prediction by ZEFSAII (Michael W. Deem and Ramdas Pophale) SiO2 
 PCOD9075544
Probable space group: P -1
;
_chemical_formula_sum "Si O2"
_cell_formula_units_Z 14
_cell_length_a 12.000000
_cell_length_b 12.000000
_cell_length_c 9.000000
_cell_angle_alpha 60.000000
_cell_angle_beta 40.000000
_cell_angle_gamma 50.000000
_cell_volume 638.079485
_symmetry_space_group_name_H-M "P -1"
_symmetry_group_IT_number 2
_symmetry_cell_setting 'triclinic'
loop_
_space_group_symop_operation_xyz
x,y,z
-x,-y,-z
loop_
_atom_site_type_symbol
_atom_site_label
_atom_site_fract_x
_atom_site_fract_y
_atom_site_fract_z
Si Si1 0.497431 0.444322 0.868612
Si Si2 0.369475 0.923262 0.640368
Si Si3 0.688804 0.854283 0.969912
Si Si4 0.317843 0.369092 0.611170
Si Si5 0.963855 0.414120 0.730338
Si Si6 0.756468 0.100900 0.892958
Si Si7 0.109407 0.153328 0.524936
O O1 0.618132 0.499757 0.590152
O O2 0.586053 0.265474 0.907927
O O3 0.500000 0.500000 0.000000
O O4 0.262078 0.518046 0.029535
O O5 0.513275 0.758513 0.567447
O O6 0.500000 0.000000 0.500000
O O7 0.264404 0.004836 0.543291
O O8 0.249470 0.919863 0.908938
O O9 0.809182 0.791385 0.733998
O O10 0.768536 0.950008 0.919599
O O11 0.677989 0.725194 0.172182
O O12 0.500000 0.000000 0.000000
O O13 0.111207 0.405359 0.718565
O O14 0.000000 0.500000 0.500000
O O15 0.027738 0.261657 0.678365
O O16 0.945896 0.117494 0.648984
#
# Coordination Sequence:
#
# PCOD9075544 Si02
#       7
#     2   2   2   2   2   2   2
#     4  12  24  43  73 105 139 174 234 293 340 402
#     4  12  20  38  71 101 131 170 234 289 337 395
#     4  12  27  46  70  94 144 187 224 278 355 416
#     4  12  24  45  69 107 138 181 230 286 345 410
#     4  12  23  42  77 103 137 183 231 285 347 404
#     4  12  24  45  69 103 136 175 234 293 340 407
#     4  12  24  42  69 104 136 180 231 286 346 410
#
# _framework density 21.940840000000001
#
# number of rings (size 3 to 8) (size 9 to 14) (size 15 to 20)
#    0.000    0.000    8.571    0.857    2.000    1.143 
#    2.571    3.571    0.000    0.000    0.000    0.000 
#    0.000    0.000    0.000    0.000    0.000    0.000 
#
# Total GULP energy -77968.446405 kJ/mol
# GULP energy per Si atom -5569.174743 kJ/mol
# Density = 2.189090 g / cm^3
# Si number density = 21.940840 Si / 1000 Ang^3
#
#
#
# Elastic Constant Matrix: (Units=GPa)
#
#
# Indices 1 2 3 4 5 6 
#
# 1 77.6300 8.6226 42.7371 5.1473 -5.7519 -30.2699
# 2 8.6226 85.9083 8.7037 -19.9551 -0.8177 -7.8664
# 3 42.7371 8.7037 146.7957 -29.7960 9.4025 -14.2593
# 4 5.1473 -19.9551 -29.7960 47.8369 -7.5166 1.5818
# 5 -5.7519 -0.8177 9.4025 -7.5166 38.1118 -7.2331
# 6 -30.2699 -7.8664 -14.2593 1.5818 -7.2331 38.7260
#
#
#
# Elastic Compliance Matrix: (Units=1/GPa)
#
#
# Indices 1 2 3 4 5 6 
#
# 1 0.025578 -0.001794 -0.007575 -0.007621 0.007716 0.018591
# 2 -0.001794 0.013426 0.001162 0.006676 0.001377 0.001737
# 3 -0.007575 0.001162 0.010369 0.007419 -0.002722 -0.002679
# 4 -0.007621 0.006676 0.007419 0.029611 0.002507 -0.002610
# 5 0.007716 0.001377 -0.002722 0.002507 0.030674 0.010935
# 6 0.018591 0.001737 -0.002679 -0.002610 0.010935 0.041870
#
#
# Mechanical properties :
#
#
# Convention : Reuss Voigt Hill
#
# Bulk Modulus (GPa) = 30.34289 47.82896 39.08592
# Shear Modulus (GPa) = 27.94432 41.61963 34.78198
#
# Velocity S-wave (km/s) = 3.57265 4.36007 3.98585
# Velocity P-wave (km/s) = 5.55679 6.86974 6.24785
#
# Compressibility (1/GPa) = 0.03295665
#
# Stress axis : x y z
#
# Youngs Moduli (GPa) = 39.09684 74.48441 96.44355
#
# Poissons Ratio (x) = 0.13364 0.73059
# Poissons Ratio (y) = 0.07015 -0.11207
# Poissons Ratio (z) = 0.29617 -0.08655
#
# Static dielectric constant tensor:
#      x y z
#    x 1.922660 -0.032340 -0.031830 
#    y -0.032340 1.923780 0.033110 
#    z -0.031830 0.033110 1.746820 
# 
# From -- ./inp_files/261901.got.cif
#   From: 2010.05.17/outbox.ucp.g08.bks.cvg/sg2_131_cif.got.tgz:261901.got - 2010.06.11 11:32:03.
