data_PCOD9075820
_publ_section_title
;
Structure prediction by ZEFSAII (Michael W. Deem and Ramdas Pophale) SiO2 
 PCOD9075820
Probable space group: P -1
;
_chemical_formula_sum "Si O2"
_cell_formula_units_Z 16
_cell_length_a 6.639593
_cell_length_b 27.482331
_cell_length_c 5.502318
_cell_angle_alpha 59.837712
_cell_angle_beta 80.186308
_cell_angle_gamma 48.968509
_cell_volume 634.975669
_symmetry_space_group_name_H-M "P -1"
_symmetry_group_IT_number 2
_symmetry_cell_setting 'triclinic'
loop_
_space_group_symop_operation_xyz
x,y,z
-x,-y,-z
loop_
_atom_site_type_symbol
_atom_site_label
_atom_site_fract_x
_atom_site_fract_y
_atom_site_fract_z
Si Si1 0.577377 0.313941 0.350663
Si Si2 0.734978 0.088570 0.840002
Si Si3 0.954835 0.849849 0.382390
Si Si4 0.318308 0.477766 0.880461
Si Si5 0.378428 0.867055 0.745563
Si Si6 0.780051 0.921434 0.735950
Si Si7 0.185692 0.535239 0.260263
Si Si8 0.656386 0.695173 0.081401
O O1 0.432929 0.319506 0.614435
O O2 0.891328 0.235573 0.508611
O O3 0.513615 0.390974 0.139388
O O4 0.477798 0.303886 0.142578
O O5 0.572058 0.109736 0.572216
O O6 0.823163 0.138454 0.694061
O O7 0.578443 0.109224 0.071548
O O8 0.000000 0.000000 0.000000
O O9 0.868350 0.863145 0.647397
O O10 0.765784 0.904926 0.059555
O O11 0.203305 0.490763 0.599813
O O12 0.506756 0.498197 0.756166
O O13 0.112794 0.527667 0.021903
O O14 0.047070 0.914614 0.696634
O O15 0.554257 0.777689 0.927397
O O16 0.500000 0.000000 0.500000
O O17 0.978017 0.622963 0.160246
#
# Coordination Sequence:
#
# PCOD9075820 Si02
#       8
#     2   2   2   2   2   2   2   2
#     4  12  21  37  65  90 125 159 199 258 303 356
#     4  10  18  32  56  75 106 148 188 233 297 353
#     4  10  19  35  52  83 111 149 190 244 301 344
#     4  10  23  42  62  89 125 165 201 245 303 363
#     4  10  19  35  52  83 111 149 190 244 301 344
#     4  10  18  32  56  75 106 148 188 233 297 353
#     4  10  23  42  62  89 125 165 201 245 303 363
#     4  12  21  37  65  90 125 159 199 258 303 356
#
# _framework density 25.197816
#
# number of rings (size 3 to 8) (size 9 to 14) (size 15 to 20)
#    0.000    1.500    5.000    2.250    0.000    3.000 
#    0.000    0.000   16.500    0.000    0.000    0.000 
#    0.000    0.000    0.000    0.000    0.000    0.000 
#
# Total GULP energy -89512.934846 kJ/mol
# GULP energy per Si atom -5594.558428 kJ/mol
# Density = 2.514046 g / cm^3
# Si number density = 25.197816 Si / 1000 Ang^3
#
#
#
# Elastic Constant Matrix: (Units=GPa)
#
#
# Indices 1 2 3 4 5 6 
#
# 1 47.7997 0.8699 18.3526 22.3135 1.3009 1.7448
# 2 0.8699 158.8132 60.6934 22.9268 -17.1193 -6.2664
# 3 18.3526 60.6934 194.2132 42.3405 -12.3832 -4.8689
# 4 22.3135 22.9268 42.3405 81.2415 1.4116 4.5916
# 5 1.3009 -17.1193 -12.3832 1.4116 37.1681 10.2418
# 6 1.7448 -6.2664 -4.8689 4.5916 10.2418 36.2192
#
#
#
# Elastic Compliance Matrix: (Units=1/GPa)
#
#
# Indices 1 2 3 4 5 6 
#
# 1 0.024388 0.001239 -0.001345 -0.006327 -0.000431 -0.000217
# 2 0.001239 0.007572 -0.001967 -0.001523 0.002735 0.000406
# 3 -0.001345 -0.001967 0.006538 -0.002537 0.001259 0.000569
# 4 -0.006327 -0.001523 -0.002537 0.015932 -0.001400 -0.001923
# 5 -0.000431 0.002735 0.001259 -0.001400 0.030822 -0.007875
# 6 -0.000217 0.000406 0.000569 -0.001923 -0.007875 0.030237
#
#
# Mechanical properties :
#
#
# Convention : Reuss Voigt Hill
#
# Bulk Modulus (GPa) = 29.11064 62.29534 45.70299
# Shear Modulus (GPa) = 38.14250 52.31976 45.23113
#
# Velocity S-wave (km/s) = 3.89488 4.56165 4.24139
# Velocity P-wave (km/s) = 5.63957 7.24714 6.49330
#
# Compressibility (1/GPa) = 0.03435171
#
# Stress axis : x y z
#
# Youngs Moduli (GPa) = 41.00411 132.06076 152.94098
#
# Poissons Ratio (x) = -0.16361 0.20576
# Poissons Ratio (y) = -0.05080 0.30083
# Poissons Ratio (z) = 0.05516 0.25976
#
# Static dielectric constant tensor:
#      x y z
#    x 2.111400 -0.022650 0.008830 
#    y -0.022650 1.970040 0.056660 
#    z 0.008830 0.056660 1.979770 
# 
# From -- ./inp_files/56815.got.cif
#   From: 2010.05.17/outbox.cif.g08.bks.cpg/sg2_29_cif.got.tgz:56815.got - 2010.06.03 11:33:40.
