data_PCOD9075042
_publ_section_title
;
Structure prediction by ZEFSAII (Michael W. Deem and Ramdas Pophale) SiO2 
 PCOD9075042
Probable space group: P -1
;
_chemical_formula_sum "Si O2"
_cell_formula_units_Z 16
_cell_length_a 9.000000
_cell_length_b 12.000000
_cell_length_c 30.000000
_cell_angle_alpha 30.000000
_cell_angle_beta 150.000000
_cell_angle_gamma 130.000000
_cell_volume 731.734496
_symmetry_space_group_name_H-M "P -1"
_symmetry_group_IT_number 2
_symmetry_cell_setting 'triclinic'
loop_
_space_group_symop_operation_xyz
x,y,z
-x,-y,-z
loop_
_atom_site_type_symbol
_atom_site_label
_atom_site_fract_x
_atom_site_fract_y
_atom_site_fract_z
Si Si1 0.456013 0.550522 0.385675
Si Si2 0.172993 0.516522 0.932113
Si Si3 0.138802 0.944895 0.290755
Si Si4 0.337139 0.886663 0.652875
Si Si5 0.464292 0.486396 0.241963
Si Si6 0.225331 0.183552 0.832486
Si Si7 0.387072 0.968047 0.737575
Si Si8 0.337116 0.807755 0.518404
O O1 0.752250 0.324646 0.566050
O O2 0.525952 0.795066 0.319576
O O3 0.470699 0.418082 0.387524
O O4 0.100815 0.630160 0.289742
O O5 0.896551 0.468522 0.849607
O O6 0.500000 0.500000 0.000000
O O7 0.013168 0.796630 0.812010
O O8 0.308784 0.276718 0.082084
O O9 0.906069 0.967274 0.181483
O O10 0.484984 0.935454 0.368822
O O11 0.528197 0.633142 0.763469
O O12 0.314805 0.875527 0.703251
O O13 0.000000 0.000000 0.500000
O O14 0.598729 0.686681 0.197389
O O15 0.685529 0.301943 0.401196
O O16 0.500000 0.000000 0.000000
O O17 0.041244 0.050010 0.645269
O O18 0.500000 0.000000 0.500000
#
# Coordination Sequence:
#
# PCOD9075042 Si02
#       8
#     2   2   2   2   2   2   2   2
#     4  12  26  48  74 107 149 191 242 303 367 438
#     4  11  26  48  69 104 149 194 241 298 369 434
#     4  11  25  46  72 105 148 189 241 299 366 435
#     4  11  22  41  72 106 137 184 244 301 353 429
#     4  11  25  43  71 103 144 186 242 299 367 433
#     4  12  27  45  72 112 146 192 244 305 368 434
#     4  12  25  44  75 104 143 191 243 298 369 427
#     4  12  26  45  72 109 142 191 248 300 362 441
#
# _framework density 21.865853999999999
#
# number of rings (size 3 to 8) (size 9 to 14) (size 15 to 20)
#    0.000    0.500    2.500    6.000    3.500    3.000 
#    0.000    1.875    0.000    0.000    0.000    0.000 
#    0.000    0.000    0.000    0.000    0.000    0.000 
#
# Total GULP energy -89230.216618 kJ/mol
# GULP energy per Si atom -5576.888539 kJ/mol
# Density = 2.181609 g / cm^3
# Si number density = 21.865854 Si / 1000 Ang^3
#
#
#
# Elastic Constant Matrix: (Units=GPa)
#
#
# Indices 1 2 3 4 5 6 
#
# 1 40.5722 11.3129 10.2176 5.8438 13.7174 9.3402
# 2 11.3129 109.4690 20.4587 19.2323 -3.1751 23.8079
# 3 10.2176 20.4587 129.8971 6.5728 -8.3999 11.1472
# 4 5.8438 19.2323 6.5728 35.3078 1.0847 -1.0346
# 5 13.7174 -3.1751 -8.3999 1.0847 34.5752 1.0625
# 6 9.3402 23.8079 11.1472 -1.0346 1.0625 37.3088
#
#
#
# Elastic Compliance Matrix: (Units=1/GPa)
#
#
# Indices 1 2 3 4 5 6 
#
# 1 0.032036 -0.001165 -0.002441 -0.003995 -0.013092 -0.006285
# 2 -0.001165 0.012250 -0.000736 -0.006620 0.001848 -0.007542
# 3 -0.002441 -0.000736 0.008378 -0.000892 0.003011 -0.001533
# 4 -0.003995 -0.006620 -0.000892 0.032958 -0.000471 0.006419
# 5 -0.013092 0.001848 0.003011 -0.000471 0.035027 0.000188
# 6 -0.006285 -0.007542 -0.001533 0.006419 0.000188 0.033820
#
#
# Mechanical properties :
#
#
# Convention : Reuss Voigt Hill
#
# Bulk Modulus (GPa) = 22.73881 40.43518 31.58700
# Shear Modulus (GPa) = 28.11938 37.30164 32.71051
#
# Velocity S-wave (km/s) = 3.58997 4.13477 3.87196
# Velocity P-wave (km/s) = 5.25411 6.42866 5.87083
#
# Compressibility (1/GPa) = 0.04397768
#
# Stress axis : x y z
#
# Youngs Moduli (GPa) = 31.21513 81.63328 119.36338
#
# Poissons Ratio (x) = 0.09514 0.29142
# Poissons Ratio (y) = 0.03638 0.08785
# Poissons Ratio (z) = 0.07621 0.06008
#
# Static dielectric constant tensor:
#      x y z
#    x 1.894920 -0.006630 -0.042100 
#    y -0.006630 1.738890 0.001300 
#    z -0.042100 0.001300 1.888360 
# 
# From -- ./inp_files/209479.got.cif
#   From: 2010.05.17/outbox.ucp.g08.bks.cvg/sg2_105_cif.got.tgz:209479.got - 2010.06.11 11:32:03.
