data_PCOD9075424
_publ_section_title
;
Structure prediction by ZEFSAII (Michael W. Deem and Ramdas Pophale) SiO2 
 PCOD9075424
Probable space group: P -1
;
_chemical_formula_sum "Si O2"
_cell_formula_units_Z 16
_cell_length_a 10.275187
_cell_length_b 10.663005
_cell_length_c 7.552073
_cell_angle_alpha 100.243554
_cell_angle_beta 65.866786
_cell_angle_gamma 120.148129
_cell_volume 652.575977
_symmetry_space_group_name_H-M "P -1"
_symmetry_group_IT_number 2
_symmetry_cell_setting 'triclinic'
loop_
_space_group_symop_operation_xyz
x,y,z
-x,-y,-z
loop_
_atom_site_type_symbol
_atom_site_label
_atom_site_fract_x
_atom_site_fract_y
_atom_site_fract_z
Si Si1 0.312815 0.382366 0.623921
Si Si2 0.885343 0.939865 0.719172
Si Si3 0.454867 0.923620 0.273343
Si Si4 0.767268 0.394210 0.189307
Si Si5 0.769304 0.138307 0.966235
Si Si6 0.395978 0.166270 0.418572
Si Si7 0.793039 0.363568 0.572049
Si Si8 0.095745 0.328398 0.381490
O O1 0.500000 0.500000 0.500000
O O2 0.241216 0.459134 0.813329
O O3 0.324278 0.236934 0.614592
O O4 0.205288 0.345420 0.496522
O O5 0.705782 0.866845 0.715425
O O6 0.913906 0.810636 0.749851
O O7 0.896017 0.078098 0.850628
O O8 0.000000 0.000000 0.500000
O O9 0.349393 0.885813 0.140546
O O10 0.389603 0.764614 0.348536
O O11 0.391678 0.018533 0.442382
O O12 0.641808 0.027196 0.152326
O O13 0.577844 0.275408 0.284833
O O14 0.831980 0.410312 0.357372
O O15 0.840821 0.308179 0.017581
O O16 0.822424 0.506770 0.697860
O O17 0.918178 0.303455 0.530721
#
# Coordination Sequence:
#
# PCOD9075424 Si02
#       8
#     2   2   2   2   2   2   2   2
#     4   8  14  27  48  74  98 126 165 206 242 279
#     4  10  18  32  54  75  97 132 174 213 252 296
#     4   9  17  31  50  74 102 135 171 206 248 297
#     4   9  17  30  50  76 103 130 163 210 256 293
#     4   9  18  31  50  75 100 128 173 219 247 287
#     4   8  15  27  48  74  95 122 169 208 236 289
#     4  10  19  32  52  74 102 138 165 198 255 313
#     4   9  18  31  50  73 100 134 173 202 240 309
#
# _framework density 24.518218999999998
#
# number of rings (size 3 to 8) (size 9 to 14) (size 15 to 20)
#    0.000    3.000    0.000    2.250    0.000    2.000 
#    0.000    1.250    0.000   28.500    0.000    0.000 
#    0.000    0.000    0.000    0.000    0.000    0.000 
#
# Total GULP energy -89161.817646 kJ/mol
# GULP energy per Si atom -5572.613603 kJ/mol
# Density = 2.446241 g / cm^3
# Si number density = 24.518219 Si / 1000 Ang^3
#
#
#
# Elastic Constant Matrix: (Units=GPa)
#
#
# Indices 1 2 3 4 5 6 
#
# 1 72.1662 -7.1851 8.0351 3.0457 -15.8257 -6.6345
# 2 -7.1851 120.4384 46.0180 47.7978 -25.1680 -37.6001
# 3 8.0351 46.0180 80.3359 35.3211 -21.2867 -23.1082
# 4 3.0457 47.7978 35.3211 51.3509 -10.7002 -22.5611
# 5 -15.8257 -25.1680 -21.2867 -10.7002 26.9454 11.4742
# 6 -6.6345 -37.6001 -23.1082 -22.5611 11.4742 43.6240
#
#
#
# Elastic Compliance Matrix: (Units=1/GPa)
#
#
# Indices 1 2 3 4 5 6 
#
# 1 0.017798 0.005678 0.000658 -0.002590 0.014001 0.002927
# 2 0.005678 0.018062 -0.000845 -0.010890 0.012168 0.007151
# 3 0.000658 -0.000845 0.021037 -0.010441 0.011140 0.002186
# 4 -0.002590 -0.010890 -0.010441 0.038203 -0.007505 0.006420
# 5 0.014001 0.012168 0.011140 -0.007505 0.063388 -0.002036
# 6 0.002927 0.007151 0.002186 0.006420 -0.002036 0.034546
#
#
# Mechanical properties :
#
#
# Convention : Reuss Voigt Hill
#
# Bulk Modulus (GPa) = 14.73225 40.74182 27.73704
# Shear Modulus (GPa) = 24.42877 39.45554 31.94216
#
# Velocity S-wave (km/s) = 3.15993 4.01588 3.61334
# Velocity P-wave (km/s) = 4.39719 6.17706 5.36150
#
# Compressibility (1/GPa) = 0.06787829
#
# Stress axis : x y z
#
# Youngs Moduli (GPa) = 56.18697 55.36566 47.53575
#
# Poissons Ratio (x) = -0.31435 -0.03128
# Poissons Ratio (y) = -0.31901 0.04016
# Poissons Ratio (z) = -0.03697 0.04677
#
# Static dielectric constant tensor:
#      x y z
#    x 2.019860 -0.039720 0.015410 
#    y -0.039720 2.073590 0.052510 
#    z 0.015410 0.052510 2.012600 
# 
# From -- ./inp_files/259103.got.cif
#   From: 2010.05.17/outbox.cif.g08.bks.cpg/sg2_130_cif.got.tgz:259103.got - 2010.06.03 11:33:40.
