data_PCOD9075793
_publ_section_title
;
Structure prediction by ZEFSAII (Michael W. Deem and Ramdas Pophale) SiO2 
 PCOD9075793
Probable space group: P -1
;
_chemical_formula_sum "Si O2"
_cell_formula_units_Z 14
_cell_length_a 11.858910
_cell_length_b 7.281940
_cell_length_c 9.407182
_cell_angle_alpha 72.712133
_cell_angle_beta 43.494206
_cell_angle_gamma 90.428553
_cell_volume 502.182812
_symmetry_space_group_name_H-M "P -1"
_symmetry_group_IT_number 2
_symmetry_cell_setting 'triclinic'
loop_
_space_group_symop_operation_xyz
x,y,z
-x,-y,-z
loop_
_atom_site_type_symbol
_atom_site_label
_atom_site_fract_x
_atom_site_fract_y
_atom_site_fract_z
Si Si1 0.217263 0.633540 0.646389
Si Si2 0.321161 0.314086 0.457969
Si Si3 0.823622 0.604053 0.998249
Si Si4 0.741872 0.176077 0.877802
Si Si5 0.195632 0.038294 0.871044
Si Si6 0.510594 0.255447 0.852585
Si Si7 0.904656 0.770211 0.586560
O O1 0.196947 0.422002 0.628342
O O2 0.368993 0.785167 0.376725
O O3 0.035209 0.668349 0.809981
O O4 0.258986 0.590418 0.778989
O O5 0.321358 0.131125 0.601799
O O6 0.489604 0.518116 0.240675
O O7 0.233818 0.235973 0.406657
O O8 0.821630 0.622395 0.826660
O O9 0.773827 0.781399 0.082651
O O10 0.616823 0.283884 0.896443
O O11 0.933912 0.278385 0.618320
O O12 0.766110 0.135906 0.030882
O O13 0.652632 0.948481 0.942282
O O14 0.000000 0.000000 0.000000
O O15 0.000000 0.000000 0.500000
#
# Coordination Sequence:
#
# PCOD9075793 Si02
#       7
#     2   2   2   2   2   2   2
#     4   8  18  35  55  80 108 150 194 238 274 343
#     4   9  20  38  58  85 113 152 201 231 286 350
#     4  10  18  32  55  85 112 143 192 247 281 328
#     4  11  21  35  60  85 120 151 192 242 288 347
#     4  11  20  36  56  90 114 151 191 242 295 335
#     4   9  21  39  57  84 114 161 195 227 290 354
#     4  12  20  33  59  91 112 146 190 248 293 329
#
# _framework density 27.878291000000001
#
# number of rings (size 3 to 8) (size 9 to 14) (size 15 to 20)
#    0.857    1.143    4.286    0.000    0.000    2.857 
#    2.571    0.714    0.000    2.571    0.000    0.000 
#    0.000    0.000    0.000    0.000    0.000    0.000 
#
# Total GULP energy -78297.004284 kJ/mol
# GULP energy per Si atom -5592.643163 kJ/mol
# Density = 2.781484 g / cm^3
# Si number density = 27.878291 Si / 1000 Ang^3
#
#
#
# Elastic Constant Matrix: (Units=GPa)
#
#
# Indices 1 2 3 4 5 6 
#
# 1 100.0308 12.4198 91.9398 3.9896 43.1796 11.9361
# 2 12.4198 80.0808 39.3000 6.0610 12.8592 27.4569
# 3 91.9398 39.3000 222.3880 -22.0995 36.2078 8.6634
# 4 3.9896 6.0610 -22.0995 37.9827 4.8904 5.4453
# 5 43.1796 12.8592 36.2078 4.8904 69.6724 0.6481
# 6 11.9361 27.4569 8.6634 5.4453 0.6481 42.3674
#
#
#
# Elastic Compliance Matrix: (Units=1/GPa)
#
#
# Indices 1 2 3 4 5 6 
#
# 1 0.023449 0.005605 -0.009385 -0.006458 -0.010168 -0.007334
# 2 0.005605 0.019324 -0.005019 -0.004289 -0.004015 -0.012463
# 3 -0.009385 -0.005019 0.009618 0.006787 0.001240 0.003039
# 4 -0.006458 -0.004289 0.006787 0.031889 -0.000964 -0.000873
# 5 -0.010168 -0.004015 0.001240 -0.000964 0.020772 0.005019
# 6 -0.007334 -0.012463 0.003039 -0.000873 0.005019 0.033160
#
#
# Mechanical properties :
#
#
# Convention : Reuss Voigt Hill
#
# Bulk Modulus (GPa) = 28.74171 76.64652 52.69411
# Shear Modulus (GPa) = 29.86699 47.26049 38.56374
#
# Velocity S-wave (km/s) = 3.27668 4.12180 3.72329
# Velocity P-wave (km/s) = 4.96463 7.08557 6.11771
#
# Compressibility (1/GPa) = 0.03479265
#
# Stress axis : x y z
#
# Youngs Moduli (GPa) = 42.64524 51.74945 103.97168
#
# Poissons Ratio (x) = -0.29008 0.97582
# Poissons Ratio (y) = -0.23905 0.52186
# Poissons Ratio (z) = 0.40024 0.25974
#
# Static dielectric constant tensor:
#      x y z
#    x 2.249070 -0.078820 0.015300 
#    y -0.078820 2.183250 -0.029650 
#    z 0.015300 -0.029650 2.127720 
# 
# From -- ./inp_files/247119.got.cif
#   From: 2010.05.17/outbox.cif.g08.bks.cpg/sg2_124_cif.got.tgz:247119.got - 2010.06.03 11:33:40.
