data_PCOD9075314
_publ_section_title
;
Structure prediction by ZEFSAII (Michael W. Deem and Ramdas Pophale) SiO2 
 PCOD9075314
Probable space group: P -1
;
_chemical_formula_sum "Si O2"
_cell_formula_units_Z 14
_cell_length_a 24.000000
_cell_length_b 15.000000
_cell_length_c 15.000000
_cell_angle_alpha 150.000000
_cell_angle_beta 20.000000
_cell_angle_gamma 160.000000
_cell_volume 624.976433
_symmetry_space_group_name_H-M "P -1"
_symmetry_group_IT_number 2
_symmetry_cell_setting 'triclinic'
loop_
_space_group_symop_operation_xyz
x,y,z
-x,-y,-z
loop_
_atom_site_type_symbol
_atom_site_label
_atom_site_fract_x
_atom_site_fract_y
_atom_site_fract_z
Si Si1 0.521897 0.964439 0.552019
Si Si2 0.443392 0.688269 0.606107
Si Si3 0.833675 0.814801 0.675826
Si Si4 0.400138 0.509269 0.924620
Si Si5 0.139269 0.430681 0.406403
Si Si6 0.341402 0.837200 0.184983
Si Si7 0.111068 0.819463 0.950823
O O1 0.637897 0.252310 0.645568
O O2 0.743036 0.031907 0.232505
O O3 0.421766 0.794641 0.643981
O O4 0.281790 0.794164 0.705877
O O5 0.555503 0.596423 0.314629
O O6 0.611568 0.945358 0.639131
O O7 0.177712 0.446237 0.841543
O O8 0.591334 0.608615 0.802519
O O9 0.883189 0.694144 0.571697
O O10 0.000000 0.000000 0.500000
O O11 0.846764 0.991082 0.876693
O O12 0.174626 0.337064 0.183094
O O13 0.402676 0.708431 0.041838
O O14 0.920122 0.377276 0.654491
O O15 0.500000 0.000000 0.000000
#
# Coordination Sequence:
#
# PCOD9075314 Si02
#       7
#     2   2   2   2   2   2   2
#     4  11  25  43  74 109 154 200 244 315 380 445
#     4  12  26  48  76 110 150 200 255 309 375 452
#     4  12  24  45  74 110 150 194 247 321 375 440
#     4  12  26  47  77 109 147 197 254 304 380 442
#     4  12  26  48  75 107 156 198 252 310 378 451
#     4  12  28  52  74 106 155 203 248 311 376 456
#     4  11  24  42  71 111 151 193 252 306 382 444
#
# _framework density 22.400845
#
# number of rings (size 3 to 8) (size 9 to 14) (size 15 to 20)
#    0.000    0.286    4.286    3.857    4.000    2.286 
#    2.571    0.000    0.000    0.000    0.000    0.000 
#    0.000    0.000    0.000    0.000    0.000    0.000 
#
# Total GULP energy -77948.545710 kJ/mol
# GULP energy per Si atom -5567.753265 kJ/mol
# Density = 2.234986 g / cm^3
# Si number density = 22.400845 Si / 1000 Ang^3
#
#
#
# Elastic Constant Matrix: (Units=GPa)
#
#
# Indices 1 2 3 4 5 6 
#
# 1 120.8259 17.9016 16.1731 14.9488 -7.5086 -11.5047
# 2 17.9016 79.9094 26.6838 22.0398 -12.6229 3.0319
# 3 16.1731 26.6838 85.3236 15.6942 13.3403 1.4976
# 4 14.9488 22.0398 15.6942 43.6809 8.3207 6.4799
# 5 -7.5086 -12.6229 13.3403 8.3207 48.7735 -1.1195
# 6 -11.5047 3.0319 1.4976 6.4799 -1.1195 41.2201
#
#
#
# Elastic Compliance Matrix: (Units=1/GPa)
#
#
# Indices 1 2 3 4 5 6 
#
# 1 0.009425 -0.000423 -0.001455 -0.003439 0.002402 0.003320
# 2 -0.000423 0.017795 -0.005089 -0.008454 0.007381 0.000287
# 3 -0.001455 -0.005089 0.014637 -0.001090 -0.005371 -0.000538
# 4 -0.003439 -0.008454 -0.001090 0.031019 -0.007835 -0.005388
# 5 0.002402 0.007381 -0.005371 -0.007835 0.025640 0.002251
# 6 0.003320 0.000287 -0.000538 -0.005388 0.002251 0.026093
#
#
# Mechanical properties :
#
#
# Convention : Reuss Voigt Hill
#
# Bulk Modulus (GPa) = 35.81434 45.28620 40.55027
# Shear Modulus (GPa) = 33.81744 41.75494 37.78619
#
# Velocity S-wave (km/s) = 3.88964 4.32208 4.11155
# Velocity P-wave (km/s) = 6.01623 6.72066 6.37818
#
# Compressibility (1/GPa) = 0.02792178
#
# Stress axis : x y z
#
# Youngs Moduli (GPa) = 106.10248 56.19512 68.31904
#
# Poissons Ratio (x) = 0.02379 0.09943
# Poissons Ratio (y) = 0.04492 0.34767
# Poissons Ratio (z) = 0.15442 0.28598
#
# Static dielectric constant tensor:
#      x y z
#    x 1.826200 0.007040 0.006970 
#    y 0.007040 1.902470 -0.035130 
#    z 0.006970 -0.035130 2.023540 
# 
# From -- ./inp_files/543051.got.cif
#   From: 2010.05.17/outbox.ucp.g08.bks.cvg/sg2_272_cif.got.tgz:543051.got - 2010.06.11 11:32:03.
