data_PCOD9075497
_publ_section_title
;
Structure prediction by ZEFSAII (Michael W. Deem and Ramdas Pophale) SiO2 
 PCOD9075497
Probable space group: P -1
;
_chemical_formula_sum "Si O2"
_cell_formula_units_Z 11
_cell_length_a 9.000000
_cell_length_b 9.000000
_cell_length_c 9.000000
_cell_angle_alpha 110.000000
_cell_angle_beta 130.000000
_cell_angle_gamma 100.000000
_cell_volume 439.424848
_symmetry_space_group_name_H-M "P -1"
_symmetry_group_IT_number 2
_symmetry_cell_setting 'triclinic'
loop_
_space_group_symop_operation_xyz
x,y,z
-x,-y,-z
loop_
_atom_site_type_symbol
_atom_site_label
_atom_site_fract_x
_atom_site_fract_y
_atom_site_fract_z
Si Si1 0.937992 0.322488 0.560791
Si Si2 0.000000 0.000000 0.000000
Si Si3 0.428871 0.232933 0.583096
Si Si4 0.899517 0.279022 0.851846
Si Si5 0.617315 0.431193 0.274002
Si Si6 0.740849 0.928379 0.258056
O O1 0.963598 0.261370 0.719107
O O2 0.779453 0.408939 0.487270
O O3 0.190191 0.457497 0.695758
O O4 0.782828 0.127593 0.302401
O O5 0.201856 0.126068 0.296373
O O6 0.019473 0.814776 0.007535
O O7 0.627391 0.203067 0.646829
O O8 0.479871 0.443269 0.695452
O O9 0.394538 0.161895 0.706929
O O10 0.000000 0.500000 0.000000
O O11 0.400331 0.229652 0.011305
O O12 0.000000 0.000000 0.500000
#
# Coordination Sequence:
#
# PCOD9075497 Si02
#       6
#     2   1   2   2   2   2
#     4  11  25  49  76 113 149 205 256 316 392 453
#     4  12  28  50  76 114 156 204 262 308 388 474
#     4  12  27  50  77 114 153 198 261 322 375 475
#     4  12  28  51  78 112 159 205 255 321 390 459
#     4  11  26  49  79 113 150 198 264 317 382 469
#     4  12  25  45  76 111 153 200 252 322 385 451
#
# _framework density 25.032722
#
# number of rings (size 3 to 8) (size 9 to 14) (size 15 to 20)
#    0.000    0.364    3.636    3.818    2.545    5.818 
#    0.000    0.000    0.000    0.000    0.000    0.000 
#    0.000    0.000    0.000    0.000    0.000    0.000 
#
# Total GULP energy -61263.800980 kJ/mol
# GULP energy per Si atom -5569.436453 kJ/mol
# Density = 2.497575 g / cm^3
# Si number density = 25.032722 Si / 1000 Ang^3
#
#
#
# Elastic Constant Matrix: (Units=GPa)
#
#
# Indices 1 2 3 4 5 6 
#
# 1 52.0761 19.0064 12.1557 -5.7090 10.1540 -14.4745
# 2 19.0064 135.1870 22.2660 9.7440 5.6131 -36.8869
# 3 12.1557 22.2660 124.7762 22.6987 0.4621 -17.2495
# 4 -5.7090 9.7440 22.6987 77.3945 -14.6986 -8.3643
# 5 10.1540 5.6131 0.4621 -14.6986 24.5845 -9.3310
# 6 -14.4745 -36.8869 -17.2495 -8.3643 -9.3310 23.6542
#
#
#
# Elastic Compliance Matrix: (Units=1/GPa)
#
#
# Indices 1 2 3 4 5 6 
#
# 1 0.024291 0.000938 -0.000914 0.003233 -0.002257 0.015914
# 2 0.000938 0.014015 0.000645 0.002604 0.008231 0.027068
# 3 -0.000914 0.000645 0.009312 -0.001748 0.001791 0.007327
# 4 0.003233 0.002604 -0.001748 0.018166 0.015537 0.017317
# 5 -0.002257 0.008231 0.001791 0.015537 0.065758 0.044194
# 6 0.015914 0.027068 0.007327 0.017317 0.044194 0.123125
#
#
# Mechanical properties :
#
#
# Convention : Reuss Voigt Hill
#
# Bulk Modulus (GPa) = 20.42513 46.54394 33.48453
# Shear Modulus (GPa) = 18.54268 42.36740 30.45504
#
# Velocity S-wave (km/s) = 2.72460 4.11844 3.49178
# Velocity P-wave (km/s) = 4.25147 6.42254 5.44628
#
# Compressibility (1/GPa) = 0.04895930
#
# Stress axis : x y z
#
# Youngs Moduli (GPa) = 41.16697 71.35054 107.38382
#
# Poissons Ratio (x) = -0.06695 0.09811
# Poissons Ratio (y) = -0.03863 -0.06931
# Poissons Ratio (z) = 0.03761 -0.04605
#
# Static dielectric constant tensor:
#      x y z
#    x 2.088420 0.043700 0.008860 
#    y 0.043700 2.116960 0.075370 
#    z 0.008860 0.075370 1.995100 
# 
# From -- ./inp_files/156032.got.cif
#   From: 2010.05.17/outbox.ucp.g08.bks.cvg/sg2_79_cif.got.tgz:156032.got - 2010.06.11 11:32:03.
