data_PCOD9075601
_publ_section_title
;
Structure prediction by ZEFSAII (Michael W. Deem and Ramdas Pophale) SiO2 
 PCOD9075601
Probable space group: P -1
;
_chemical_formula_sum "Si O2"
_cell_formula_units_Z 16
_cell_length_a 9.000000
_cell_length_b 27.000000
_cell_length_c 27.000000
_cell_angle_alpha 10.000000
_cell_angle_beta 140.000000
_cell_angle_gamma 140.000000
_cell_volume 728.340053
_symmetry_space_group_name_H-M "P -1"
_symmetry_group_IT_number 2
_symmetry_cell_setting 'triclinic'
loop_
_space_group_symop_operation_xyz
x,y,z
-x,-y,-z
loop_
_atom_site_type_symbol
_atom_site_label
_atom_site_fract_x
_atom_site_fract_y
_atom_site_fract_z
Si Si1 0.473581 0.300041 0.466152
Si Si2 0.934921 0.217455 0.969261
Si Si3 0.253557 0.318494 0.604835
Si Si4 0.950658 0.233762 0.713878
Si Si5 0.005700 0.970156 0.715336
Si Si6 0.832191 0.239992 0.232309
Si Si7 0.757562 0.400233 0.168601
Si Si8 0.534664 0.792505 0.916843
O O1 0.692247 0.250832 0.606644
O O2 0.237858 0.173269 0.558509
O O3 0.488486 0.105873 0.612995
O O4 0.479469 0.606059 0.137542
O O5 0.954551 0.145050 0.104651
O O6 0.193929 0.201556 0.030736
O O7 0.748184 0.988069 0.120364
O O8 0.870917 0.513099 0.636836
O O9 0.500000 0.500000 0.500000
O O10 0.114736 0.261064 0.678856
O O11 0.000000 0.500000 0.500000
O O12 0.000000 0.000000 0.000000
O O13 0.803062 0.175334 0.446126
O O14 0.934649 0.684828 0.945226
O O15 0.795179 0.262367 0.259975
O O16 0.607185 0.254485 0.124775
O O17 0.000000 0.000000 0.500000
O O18 0.000000 0.500000 0.000000
O O19 0.500000 0.500000 0.000000
#
# Coordination Sequence:
#
# PCOD9075601 Si02
#       8
#     2   2   2   2   2   2   2   2
#     4  12  25  45  69 102 142 179 236 291 350 425
#     4  12  25  48  68 104 137 190 237 280 357 425
#     4  12  27  47  72 103 143 182 234 291 348 430
#     4  12  26  45  73 104 140 182 228 288 361 418
#     4  12  27  44  73 105 144 193 239 299 360 426
#     4  12  25  42  71 104 138 186 240 295 359 421
#     4  12  26  48  69 107 149 190 244 304 366 431
#     4  12  23  45  70  96 139 185 230 291 350 424
#
# _framework density 21.967760999999999
#
# number of rings (size 3 to 8) (size 9 to 14) (size 15 to 20)
#    0.000    0.000    2.500    8.250    3.500    2.000 
#    0.000    0.000    0.000    0.000    0.000    0.000 
#    0.000    0.000    0.000    0.000    0.000    0.000 
#
# Total GULP energy -89223.654401 kJ/mol
# GULP energy per Si atom -5576.478400 kJ/mol
# Density = 2.191776 g / cm^3
# Si number density = 21.967761 Si / 1000 Ang^3
#
#
#
# Elastic Constant Matrix: (Units=GPa)
#
#
# Indices 1 2 3 4 5 6 
#
# 1 107.5920 44.3331 15.2695 12.6039 -9.0307 -9.2559
# 2 44.3331 145.7267 17.9341 8.6020 -13.7334 -14.3965
# 3 15.2695 17.9341 129.0009 13.6312 -10.2551 -8.9466
# 4 12.6039 8.6020 13.6312 49.7887 -11.6788 -5.4283
# 5 -9.0307 -13.7334 -10.2551 -11.6788 32.4197 4.3828
# 6 -9.2559 -14.3965 -8.9466 -5.4283 4.3828 52.6740
#
#
#
# Elastic Compliance Matrix: (Units=1/GPa)
#
#
# Indices 1 2 3 4 5 6 
#
# 1 0.010961 -0.003004 -0.000568 -0.001820 0.000844 0.000751
# 2 -0.003004 0.008192 -0.000517 0.000194 0.002344 0.001448
# 3 -0.000568 -0.000517 0.008240 -0.001565 0.001548 0.000868
# 4 -0.001820 0.000194 -0.001565 0.022741 0.007107 0.001220
# 5 0.000844 0.002344 0.001548 0.007107 0.035279 -0.001151
# 6 0.000751 0.001448 0.000868 0.001220 -0.001151 0.019881
#
#
# Mechanical properties :
#
#
# Convention : Reuss Voigt Hill
#
# Bulk Modulus (GPa) = 52.04254 59.71032 55.87643
# Shear Modulus (GPa) = 41.70926 47.29535 44.50231
#
# Velocity S-wave (km/s) = 4.36209 4.64502 4.50577
# Velocity P-wave (km/s) = 7.00801 7.48386 7.24984
#
# Compressibility (1/GPa) = 0.01921505
#
# Stress axis : x y z
#
# Youngs Moduli (GPa) = 91.22974 122.06911 121.36400
#
# Poissons Ratio (x) = 0.36664 0.06898
# Poissons Ratio (y) = 0.27401 0.06276
# Poissons Ratio (z) = 0.05185 0.06312
#
# Static dielectric constant tensor:
#      x y z
#    x 1.784230 0.024510 0.052210 
#    y 0.024510 1.753500 -0.065260 
#    z 0.052210 -0.065260 1.712260 
# 
# From -- ./inp_files/617679.got.cif
#   From: 2010.05.17/outbox.ucp.g08.bks.cvg/sg2_309_cif.got.tgz:617679.got - 2010.06.11 11:32:03.
