data_PCOD9075234
_publ_section_title
;
Structure prediction by ZEFSAII (Michael W. Deem and Ramdas Pophale) SiO2 
 PCOD9075234
Probable space group: P -1
;
_chemical_formula_sum "Si O2"
_cell_formula_units_Z 15
_cell_length_a 9.000000
_cell_length_b 12.000000
_cell_length_c 18.000000
_cell_angle_alpha 150.000000
_cell_angle_beta 40.000000
_cell_angle_gamma 130.000000
_cell_volume 623.501542
_symmetry_space_group_name_H-M "P -1"
_symmetry_group_IT_number 2
_symmetry_cell_setting 'triclinic'
loop_
_space_group_symop_operation_xyz
x,y,z
-x,-y,-z
loop_
_atom_site_type_symbol
_atom_site_label
_atom_site_fract_x
_atom_site_fract_y
_atom_site_fract_z
Si Si1 0.446782 0.020523 0.854955
Si Si2 0.495288 0.591157 0.350586
Si Si3 0.000000 0.000000 0.000000
Si Si4 0.778588 0.168353 0.699569
Si Si5 0.823738 0.025120 0.251955
Si Si6 0.976251 0.523060 0.934672
Si Si7 0.172077 0.254997 0.362317
Si Si8 0.248056 0.522426 0.253992
O O1 0.567619 0.041384 0.741246
O O2 0.659329 0.941848 0.780623
O O3 0.282861 0.256894 0.065228
O O4 0.241569 0.860651 0.857184
O O5 0.412144 0.841375 0.552171
O O6 0.761742 0.518712 0.219999
O O7 0.330382 0.430622 0.364845
O O8 0.432845 0.560836 0.270025
O O9 0.896827 0.041735 0.148346
O O10 0.720336 0.325679 0.742287
O O11 0.836864 0.333589 0.839837
O O12 0.000000 0.000000 0.500000
O O13 0.014319 0.144517 0.297811
O O14 0.849908 0.763045 0.106986
O O15 0.000000 0.500000 0.000000
O O16 0.999357 0.388579 0.564123
#
# Coordination Sequence:
#
# PCOD9075234 Si02
#       8
#     2   2   1   2   2   2   2   2
#     4  12  25  46  73 103 146 183 242 300 359 438
#     4  11  25  43  75 106 145 190 245 303 362 428
#     4  12  26  42  72 106 134 188 236 296 364 416
#     4  12  27  50  73 104 149 198 241 298 371 435
#     4  11  25  46  70 106 147 186 245 302 360 434
#     4  12  28  47  71 107 145 193 247 301 364 428
#     4  11  23  45  75 106 147 192 239 298 370 431
#     4  11  23  44  72 106 140 195 240 289 367 435
#
# _framework density 24.057679
#
# number of rings (size 3 to 8) (size 9 to 14) (size 15 to 20)
#    0.000    0.533    1.333    7.600    3.733    3.200 
#    0.000    2.667    0.000    0.000    0.000    0.000 
#    0.000    0.000    0.000    0.000    0.000    0.000 
#
# Total GULP energy -83804.849530 kJ/mol
# GULP energy per Si atom -5586.989969 kJ/mol
# Density = 2.400292 g / cm^3
# Si number density = 24.057679 Si / 1000 Ang^3
#
#
#
# Elastic Constant Matrix: (Units=GPa)
#
#
# Indices 1 2 3 4 5 6 
#
# 1 79.5616 28.8775 17.3544 -12.3772 -3.3875 -25.0508
# 2 28.8775 64.0141 33.0119 -17.9262 -23.6124 -9.6556
# 3 17.3544 33.0119 146.8734 -6.5149 -20.8734 -13.3791
# 4 -12.3772 -17.9262 -6.5149 49.0817 -4.3249 -10.7262
# 5 -3.3875 -23.6124 -20.8734 -4.3249 41.5582 -7.6225
# 6 -25.0508 -9.6556 -13.3791 -10.7262 -7.6225 46.1791
#
#
#
# Elastic Compliance Matrix: (Units=1/GPa)
#
#
# Indices 1 2 3 4 5 6 
#
# 1 0.018500 -0.004912 0.000312 0.005342 0.001367 0.010565
# 2 -0.004912 0.031599 -0.002220 0.013876 0.019674 0.009769
# 3 0.000312 -0.002220 0.008092 0.001290 0.003499 0.002926
# 4 0.005342 0.013876 0.001290 0.031815 0.015227 0.016076
# 5 0.001367 0.019674 0.003499 0.015227 0.041682 0.016286
# 6 0.010565 0.009769 0.002926 0.016076 0.016286 0.036699
#
#
# Mechanical properties :
#
#
# Convention : Reuss Voigt Hill
#
# Bulk Modulus (GPa) = 22.44738 49.88184 36.16461
# Shear Modulus (GPa) = 25.39645 41.44415 33.42030
#
# Velocity S-wave (km/s) = 3.25260 4.15504 3.73121
# Velocity P-wave (km/s) = 4.84322 6.61804 5.79893
#
# Compressibility (1/GPa) = 0.04454862
#
# Stress axis : x y z
#
# Youngs Moduli (GPa) = 54.05519 31.64654 123.58077
#
# Poissons Ratio (x) = 0.15546 -0.03855
# Poissons Ratio (y) = 0.26554 0.27440
# Poissons Ratio (z) = -0.01686 0.07027
#
# Static dielectric constant tensor:
#      x y z
#    x 2.004820 0.119450 0.003250 
#    y 0.119450 2.168900 0.019990 
#    z 0.003250 0.019990 1.855980 
# 
# From -- ./inp_files/419083.got.cif
#   From: 2010.05.17/outbox.ucp.g08.bks.cvg/sg2_210_cif.got.tgz:419083.got - 2010.06.11 11:32:03.
