data_PCOD9075264
_publ_section_title
;
Structure prediction by ZEFSAII (Michael W. Deem and Ramdas Pophale) SiO2 
 PCOD9075264
Probable space group: P -1
;
_chemical_formula_sum "Si O2"
_cell_formula_units_Z 12
_cell_length_a 9.000000
_cell_length_b 9.000000
_cell_length_c 9.000000
_cell_angle_alpha 70.000000
_cell_angle_beta 50.000000
_cell_angle_gamma 80.000000
_cell_volume 523.686142
_symmetry_space_group_name_H-M "P -1"
_symmetry_group_IT_number 2
_symmetry_cell_setting 'triclinic'
loop_
_space_group_symop_operation_xyz
x,y,z
-x,-y,-z
loop_
_atom_site_type_symbol
_atom_site_label
_atom_site_fract_x
_atom_site_fract_y
_atom_site_fract_z
Si Si1 0.267403 0.414852 0.013116
Si Si2 0.664243 0.147816 0.529103
Si Si3 0.749496 0.710974 0.267170
Si Si4 0.521876 0.877499 0.892633
Si Si5 0.112598 0.571700 0.551163
Si Si6 0.802294 0.219448 0.084713
O O1 0.409224 0.294579 0.043333
O O2 0.060347 0.394872 0.235237
O O3 0.262711 0.362207 0.864328
O O4 0.285713 0.605857 0.929603
O O5 0.440380 0.190721 0.626504
O O6 0.749912 0.267916 0.563454
O O7 0.768736 0.166416 0.295400
O O8 0.669678 0.970746 0.650859
O O9 0.756109 0.567815 0.429454
O O10 0.970799 0.787002 0.101243
O O11 0.321266 0.868462 0.934504
O O12 0.500000 0.000000 0.000000
O O13 0.000000 0.500000 0.500000
#
# Coordination Sequence:
#
# PCOD9075264 Si02
#       6
#     2   2   2   2   2   2
#     4  11  23  49  72 101 143 189 236 295 349 423
#     4  12  25  46  73 103 148 186 236 290 361 425
#     4  11  23  45  76 102 139 189 240 294 346 420
#     4  12  28  44  69 112 146 186 231 300 362 414
#     4  11  25  43  75 113 136 185 247 292 350 423
#     4  11  25  49  73 100 140 195 246 281 352 429
#
# _framework density 22.914487999999999
#
# number of rings (size 3 to 8) (size 9 to 14) (size 15 to 20)
#    0.000    0.667    5.000    2.500    7.000    1.333 
#    0.000    0.000    0.000    0.000    0.000    0.000 
#    0.000    0.000    0.000    0.000    0.000    0.000 
#
# Total GULP energy -67037.813827 kJ/mol
# GULP energy per Si atom -5586.484486 kJ/mol
# Density = 2.286233 g / cm^3
# Si number density = 22.914488 Si / 1000 Ang^3
#
#
#
# Elastic Constant Matrix: (Units=GPa)
#
#
# Indices 1 2 3 4 5 6 
#
# 1 113.4214 -6.6028 3.4999 -14.4875 14.4762 30.1780
# 2 -6.6028 -10.7130 -3.6968 -1.9480 7.9106 12.0367
# 3 3.4999 -3.6968 55.9344 -7.3236 4.7724 11.4810
# 4 -14.4875 -1.9480 -7.3236 33.7396 -11.6858 -2.5465
# 5 14.4762 7.9106 4.7724 -11.6858 32.0751 -5.2367
# 6 30.1780 12.0367 11.4810 -2.5465 -5.2367 40.9908
#
#
#
# Elastic Compliance Matrix: (Units=1/GPa)
#
#
# Indices 1 2 3 4 5 6 
#
# 1 0.009639 -0.011367 -0.000137 0.002789 -0.001113 -0.003689
# 2 -0.011367 -0.039949 -0.008853 -0.000161 0.020350 0.025169
# 3 -0.000137 -0.008853 0.018139 0.003354 0.000422 -0.002118
# 4 0.002789 -0.000161 0.003354 0.035538 0.011346 0.000712
# 5 -0.001113 0.020350 0.000422 0.011346 0.030623 -0.000658
# 6 -0.003689 0.025169 -0.002118 0.000712 -0.000658 0.020274
#
#
# Mechanical properties :
#
#
# Convention : Reuss Voigt Hill
#
# Bulk Modulus (GPa) = -18.90923 16.11591 -1.39666
# Shear Modulus (GPa) = 51.36066 32.39058 41.87562
#
# Velocity S-wave (km/s) = 4.73948 3.76379 4.27953
# Velocity P-wave (km/s) = 4.65621 5.09279 4.87938
#
# Compressibility (1/GPa) = -0.05288422
#
# Stress axis : x y z
#
# Youngs Moduli (GPa) = 103.74553 -25.03185 55.12865
#
# Poissons Ratio (x) = -0.28454 0.00756
# Poissons Ratio (y) = 1.17928 0.48803
# Poissons Ratio (z) = 0.01422 -0.22160
#
# Static dielectric constant tensor:
#      x y z
#    x 1.844230 0.041280 -0.025090 
#    y 0.041280 1.870940 -0.094070 
#    z -0.025090 -0.094070 1.912370 
# 
# From -- ./inp_files/146035.got.cif
#   From: 2010.05.17/outbox.ucp.g08.bks.cvg/sg2_74_cif.got.tgz:146035.got - 2010.06.11 11:32:03.
