data_PCOD9075800
_publ_section_title
;
Structure prediction by ZEFSAII (Michael W. Deem and Ramdas Pophale) SiO2 
 PCOD9075800
Probable space group: P -1
;
_chemical_formula_sum "Si O2"
_cell_formula_units_Z 16
_cell_length_a 12.292308
_cell_length_b 17.564314
_cell_length_c 8.548857
_cell_angle_alpha 88.135417
_cell_angle_beta 127.477667
_cell_angle_gamma 48.705346
_cell_volume 754.475182
_symmetry_space_group_name_H-M "P -1"
_symmetry_group_IT_number 2
_symmetry_cell_setting 'triclinic'
loop_
_space_group_symop_operation_xyz
x,y,z
-x,-y,-z
loop_
_atom_site_type_symbol
_atom_site_label
_atom_site_fract_x
_atom_site_fract_y
_atom_site_fract_z
Si Si1 0.136830 0.538272 0.658630
Si Si2 0.087037 0.537394 0.987397
Si Si3 0.529342 0.984840 0.782306
Si Si4 0.591457 0.735469 0.054343
Si Si5 0.941085 0.956032 0.339108
Si Si6 0.960121 0.778680 0.429599
Si Si7 0.609008 0.222138 0.464995
Si Si8 0.540534 0.860117 0.549093
O O1 0.070141 0.551919 0.782214
O O2 0.369536 0.367882 0.832322
O O3 0.878035 0.637687 0.325982
O O4 0.171891 0.611165 0.655516
O O5 0.862758 0.702042 0.838489
O O6 0.402923 0.388543 0.309946
O O7 0.000000 0.500000 0.000000
O O8 0.463647 0.939083 0.635358
O O9 0.277288 0.120688 0.661439
O O10 0.554930 0.040663 0.678895
O O11 0.802790 0.845895 0.124291
O O12 0.507308 0.759438 0.800498
O O13 0.378290 0.889067 0.947338
O O14 0.044871 0.826536 0.506787
O O15 0.096063 0.894514 0.316924
O O16 0.000000 0.000000 0.500000
O O17 0.577778 0.168190 0.561718
#
# Coordination Sequence:
#
# PCOD9075800 Si02
#       8
#     2   2   2   2   2   2   2   2
#     4  10  18  32  55  87 108 136 183 234 280 312
#     4   9  18  32  53  76 107 140 177 222 270 327
#     4  10  20  31  55  83 109 134 177 232 281 315
#     4   9  18  32  55  83 114 137 181 229 277 321
#     4  10  20  35  54  78 115 151 181 221 274 329
#     4  11  20  34  56  83 112 140 181 236 270 319
#     4   9  18  34  53  76 107 146 184 213 266 333
#     4  10  18  33  54  81 107 140 179 225 276 324
#
# _framework density 21.206793999999999
#
# number of rings (size 3 to 8) (size 9 to 14) (size 15 to 20)
#    0.000    2.250    1.250    3.750    0.000    1.000 
#    0.000    6.250    0.000    0.750    0.000    0.000 
#    0.000    0.000    0.000    0.000    0.000    0.000 
#
# Total GULP energy -89182.880013 kJ/mol
# GULP energy per Si atom -5573.930001 kJ/mol
# Density = 2.115853 g / cm^3
# Si number density = 21.206794 Si / 1000 Ang^3
#
#
#
# Elastic Constant Matrix: (Units=GPa)
#
#
# Indices 1 2 3 4 5 6 
#
# 1 68.4880 20.2651 18.8370 -15.1529 -13.2271 23.9985
# 2 20.2651 62.0125 11.3913 -23.3611 -13.9378 16.7093
# 3 18.8370 11.3913 38.9503 -11.5798 -19.2813 6.2674
# 4 -15.1529 -23.3611 -11.5798 36.6166 6.1503 -2.8893
# 5 -13.2271 -13.9378 -19.2813 6.1503 27.2789 -13.5140
# 6 23.9985 16.7093 6.2674 -2.8893 -13.5140 36.4357
#
#
#
# Elastic Compliance Matrix: (Units=1/GPa)
#
#
# Indices 1 2 3 4 5 6 
#
# 1 0.022647 -0.000726 -0.008634 0.005697 -0.003727 -0.014029
# 2 -0.000726 0.025089 0.001909 0.014574 0.006710 -0.007711
# 3 -0.008634 0.001909 0.045985 0.007511 0.032292 0.009474
# 4 0.005697 0.014574 0.007511 0.040293 0.002703 -0.007531
# 5 -0.003727 0.006710 0.032292 0.002703 0.070493 0.020183
# 6 -0.014029 -0.007711 0.009474 -0.007531 0.020183 0.045482
#
#
# Mechanical properties :
#
#
# Convention : Reuss Voigt Hill
#
# Bulk Modulus (GPa) = 12.68741 30.04864 21.36803
# Shear Modulus (GPa) = 17.17251 27.99673 22.58462
#
# Velocity S-wave (km/s) = 2.84872 3.63737 3.26693
# Velocity P-wave (km/s) = 4.10073 5.64275 4.93238
#
# Compressibility (1/GPa) = 0.07881826
#
# Stress axis : x y z
#
# Youngs Moduli (GPa) = 44.15549 39.85877 21.74644
#
# Poissons Ratio (x) = 0.02894 0.18776
# Poissons Ratio (y) = 0.03206 -0.04151
# Poissons Ratio (z) = 0.38123 -0.07609
#
# Static dielectric constant tensor:
#      x y z
#    x 1.810420 0.012310 0.010820 
#    y 0.012310 1.811020 -0.015030 
#    z 0.010820 -0.015030 1.805300 
# 
# From -- ./inp_files/254278.got.cif
#   From: 2010.05.17/outbox.cif.g08.bks.cpg/sg2_128_cif.got.tgz:254278.got - 2010.06.03 11:33:40.
