data_PCOD9075110
_publ_section_title
;
Structure prediction by ZEFSAII (Michael W. Deem and Ramdas Pophale) SiO2 
 PCOD9075110
Probable space group: P -1
;
_chemical_formula_sum "Si O2"
_cell_formula_units_Z 16
_cell_length_a 24.212720
_cell_length_b 13.440622
_cell_length_c 20.800531
_cell_angle_alpha 31.808294
_cell_angle_beta 9.933805
_cell_angle_gamma 32.818481
_cell_volume 615.090374
_symmetry_space_group_name_H-M "P -1"
_symmetry_group_IT_number 2
_symmetry_cell_setting 'triclinic'
loop_
_space_group_symop_operation_xyz
x,y,z
-x,-y,-z
loop_
_atom_site_type_symbol
_atom_site_label
_atom_site_fract_x
_atom_site_fract_y
_atom_site_fract_z
Si Si1 0.674685 0.112194 0.294794
Si Si2 0.957941 0.614146 0.360264
Si Si3 0.894374 0.138372 0.252721
Si Si4 0.664550 0.368631 0.497250
Si Si5 0.984543 0.556412 0.147762
Si Si6 0.381579 0.981597 0.073555
Si Si7 0.543374 0.031897 0.243296
Si Si8 0.445611 0.571111 0.170768
O O1 0.500000 0.000000 0.500000
O O2 0.524964 0.099049 0.544328
O O3 0.796352 0.305618 0.019156
O O4 0.000000 0.000000 0.000000
O O5 0.695356 0.783308 0.582412
O O6 0.752170 0.448834 0.657088
O O7 0.210844 0.541023 0.163660
O O8 0.890083 0.320515 0.204196
O O9 0.552995 0.070439 0.655372
O O10 0.032528 0.230522 0.977316
O O11 0.080204 0.966990 0.171917
O O12 0.830160 0.424547 0.342847
O O13 0.357603 0.501982 0.759654
O O14 0.518701 0.162617 0.783761
O O15 0.783903 0.523306 0.460526
O O16 0.484627 0.782930 0.032988
O O17 0.000000 0.000000 0.500000
O O18 0.500000 0.000000 0.000000
#
# Coordination Sequence:
#
# PCOD9075110 Si02
#       8
#     2   2   2   2   2   2   2   2
#     4  10  18  32  53  80 119 161 199 242 300 350
#     4  11  22  36  58  90 124 164 204 256 307 362
#     4  12  24  39  63  91 126 177 209 242 306 375
#     4  12  24  43  64  90 127 165 207 262 311 378
#     4  12  23  40  62  95 130 158 205 259 315 384
#     4  12  23  44  66  92 123 157 207 267 327 368
#     4  11  22  39  57  86 131 169 213 249 292 372
#     4  12  22  37  64  92 123 157 206 258 324 366
#
# _framework density 26.012436999999998
#
# number of rings (size 3 to 8) (size 9 to 14) (size 15 to 20)
#    0.000    0.500    2.500    9.000    0.000    0.000 
#    0.000    0.000    0.000    4.500    0.000    0.000 
#    0.000    0.000    0.000    0.000    0.000    0.000 
#
# Total GULP energy -89489.994930 kJ/mol
# GULP energy per Si atom -5593.124683 kJ/mol
# Density = 2.595323 g / cm^3
# Si number density = 26.012437 Si / 1000 Ang^3
#
#
#
# Elastic Constant Matrix: (Units=GPa)
#
#
# Indices 1 2 3 4 5 6 
#
# 1 109.5280 7.0755 42.8858 3.2412 -41.2464 28.8412
# 2 7.0755 96.0584 20.6313 13.6586 -13.0626 10.8771
# 3 42.8858 20.6313 78.3847 11.6736 -36.9404 1.5643
# 4 3.2412 13.6586 11.6736 53.4243 -0.9300 -8.9593
# 5 -41.2464 -13.0626 -36.9404 -0.9300 60.1611 -8.9969
# 6 28.8412 10.8771 1.5643 -8.9593 -8.9969 29.1075
#
#
#
# Elastic Compliance Matrix: (Units=1/GPa)
#
#
# Indices 1 2 3 4 5 6 
#
# 1 0.019649 0.003844 -0.007728 -0.003656 0.006576 -0.019583
# 2 0.003844 0.012817 -0.003937 -0.004163 0.001563 -0.009185
# 3 -0.007728 -0.003937 0.022313 -0.001522 0.009058 0.010260
# 4 -0.003656 -0.004163 -0.001522 0.022206 -0.002299 0.011384
# 5 0.006576 0.001563 0.009058 -0.002299 0.027004 0.000053
# 6 -0.019583 -0.009185 0.010260 0.011384 0.000053 0.060160
#
#
# Mechanical properties :
#
#
# Convention : Reuss Voigt Hill
#
# Bulk Modulus (GPa) = 25.55095 47.23960 36.39527
# Shear Modulus (GPa) = 25.92883 42.76381 34.34632
#
# Velocity S-wave (km/s) = 3.16062 4.05900 3.63765
# Velocity P-wave (km/s) = 4.81282 6.33775 5.62718
#
# Compressibility (1/GPa) = 0.03913749
#
# Stress axis : x y z
#
# Youngs Moduli (GPa) = 50.89421 78.01960 44.81773
#
# Poissons Ratio (x) = -0.29990 0.34634
# Poissons Ratio (y) = -0.19563 0.17643
# Poissons Ratio (z) = 0.39330 0.30714
#
# Static dielectric constant tensor:
#      x y z
#    x 2.206770 0.031640 0.346870 
#    y 0.031640 1.905450 -0.077900 
#    z 0.346870 -0.077900 2.450990 
# 
# From -- ./inp_files/614414.got.cif
#   From: 2010.05.17/outbox.cif.g08.bks.cpg/sg2_308_cif.got.tgz:614414.got - 2010.06.03 11:33:40.
