data_PCOD9075232
_publ_section_title
;
Structure prediction by ZEFSAII (Michael W. Deem and Ramdas Pophale) SiO2 
 PCOD9075232
Probable space group: P -1
;
_chemical_formula_sum "Si O2"
_cell_formula_units_Z 16
_cell_length_a 21.000000
_cell_length_b 12.000000
_cell_length_c 12.000000
_cell_angle_alpha 40.000000
_cell_angle_beta 150.000000
_cell_angle_gamma 150.000000
_cell_volume 754.441492
_symmetry_space_group_name_H-M "P -1"
_symmetry_group_IT_number 2
_symmetry_cell_setting 'triclinic'
loop_
_space_group_symop_operation_xyz
x,y,z
-x,-y,-z
loop_
_atom_site_type_symbol
_atom_site_label
_atom_site_fract_x
_atom_site_fract_y
_atom_site_fract_z
Si Si1 0.702608 0.654735 0.923439
Si Si2 0.003353 0.661781 0.297463
Si Si3 0.771029 0.015944 0.930729
Si Si4 0.369834 0.211726 0.729721
Si Si5 0.971759 0.478739 0.798760
Si Si6 0.908034 0.776644 0.603697
Si Si7 0.673734 0.128083 0.912395
Si Si8 0.627887 0.876433 0.464208
O O1 0.553226 0.394292 0.917517
O O2 0.629561 0.704050 0.672546
O O3 0.724209 0.810453 0.940091
O O4 0.867446 0.691517 0.106185
O O5 0.972532 0.543866 0.221487
O O6 0.000000 0.500000 0.500000
O O7 0.188947 0.893641 0.409770
O O8 0.808239 0.220650 0.761388
O O9 0.662342 0.990795 0.890731
O O10 0.956541 0.142905 0.158209
O O11 0.254470 0.275468 0.546518
O O12 0.380832 0.180280 0.637607
O O13 0.299574 0.980470 0.860915
O O14 0.904099 0.608012 0.642208
O O15 0.149401 0.621642 0.024452
O O16 0.000000 0.000000 0.500000
O O17 0.520588 0.123657 0.716261
#
# Coordination Sequence:
#
# PCOD9075232 Si02
#       8
#     2   2   2   2   2   2   2   2
#     4  12  28  45  68 105 137 182 226 283 347 400
#     4  12  26  45  71  99 137 181 227 285 343 407
#     4  11  25  45  69 100 145 177 228 280 339 413
#     4  12  25  44  70 101 140 181 230 283 337 404
#     4  11  24  44  71 100 138 178 228 280 343 402
#     4  11  23  44  72 104 132 182 228 278 338 405
#     4  11  24  45  69 102 134 181 229 283 341 402
#     4  12  26  45  70  99 139 180 233 282 339 409
#
# _framework density 21.207740999999999
#
# number of rings (size 3 to 8) (size 9 to 14) (size 15 to 20)
#    0.000    0.500    3.750    5.625    7.000    2.000 
#    0.000    0.000    0.000    0.000    0.000    0.000 
#    0.000    0.000    0.000    0.000    0.000    0.000 
#
# Total GULP energy -89188.277040 kJ/mol
# GULP energy per Si atom -5574.267315 kJ/mol
# Density = 2.115947 g / cm^3
# Si number density = 21.207741 Si / 1000 Ang^3
#
#
#
# Elastic Constant Matrix: (Units=GPa)
#
#
# Indices 1 2 3 4 5 6 
#
# 1 211.1857 32.2769 57.8717 7.0778 32.0791 -35.4611
# 2 32.2769 97.7257 8.6017 14.1294 3.6800 -21.6029
# 3 57.8717 8.6017 78.6825 4.6887 43.2128 -12.0434
# 4 7.0778 14.1294 4.6887 33.6852 3.5111 1.7972
# 5 32.0791 3.6800 43.2128 3.5111 58.8448 5.6420
# 6 -35.4611 -21.6029 -12.0434 1.7972 5.6420 50.5078
#
#
#
# Elastic Compliance Matrix: (Units=1/GPa)
#
#
# Indices 1 2 3 4 5 6 
#
# 1 0.006662 -0.000966 -0.003480 -0.000564 -0.001327 0.003603
# 2 -0.000966 0.012428 0.001197 -0.005320 -0.001316 0.005259
# 3 -0.003480 0.001197 0.025950 -0.001871 -0.017727 0.006303
# 4 -0.000564 -0.005320 -0.001871 0.032477 0.000492 -0.004328
# 5 -0.001327 -0.001316 -0.017727 0.000492 0.031678 -0.009278
# 6 0.003603 0.005259 0.006303 -0.004328 -0.009278 0.027271
#
#
# Mechanical properties :
#
#
# Convention : Reuss Voigt Hill
#
# Bulk Modulus (GPa) = 25.94675 65.01050 45.47862
# Shear Modulus (GPa) = 32.09015 47.86381 39.97698
#
# Velocity S-wave (km/s) = 3.89412 4.75584 4.34639
# Velocity P-wave (km/s) = 5.69913 7.80244 6.83221
#
# Compressibility (1/GPa) = 0.03854047
#
# Stress axis : x y z
#
# Youngs Moduli (GPa) = 150.10509 80.46538 38.53550
#
# Poissons Ratio (x) = 0.07774 0.13412
# Poissons Ratio (y) = 0.14502 -0.04612
# Poissons Ratio (z) = 0.52242 -0.09630
#
# Static dielectric constant tensor:
#      x y z
#    x 1.792530 0.007210 0.021950 
#    y 0.007210 1.696330 0.229170 
#    z 0.021950 0.229170 1.496600 
# 
# From -- ./inp_files/238969.got.cif
#   From: 2010.05.17/outbox.ucp.g08.bks.cvg/sg2_120_cif.got.tgz:238969.got - 2010.06.11 11:32:03.
