data_PCOD9075728
_publ_section_title
;
Structure prediction by ZEFSAII (Michael W. Deem and Ramdas Pophale) SiO2 
 PCOD9075728
Probable space group: P -1
;
_chemical_formula_sum "Si O2"
_cell_formula_units_Z 14
_cell_length_a 8.046232
_cell_length_b 12.164381
_cell_length_c 11.793498
_cell_angle_alpha 47.275715
_cell_angle_beta 78.436257
_cell_angle_gamma 45.301770
_cell_volume 511.148458
_symmetry_space_group_name_H-M "P -1"
_symmetry_group_IT_number 2
_symmetry_cell_setting 'triclinic'
loop_
_space_group_symop_operation_xyz
x,y,z
-x,-y,-z
loop_
_atom_site_type_symbol
_atom_site_label
_atom_site_fract_x
_atom_site_fract_y
_atom_site_fract_z
Si Si1 0.204590 0.154046 0.470158
Si Si2 0.261317 0.495683 0.574814
Si Si3 0.716471 0.088141 0.981163
Si Si4 0.776049 0.510001 0.075335
Si Si5 0.635484 0.272086 0.301678
Si Si6 0.983145 0.293775 0.963598
Si Si7 0.252676 0.842609 0.376131
O O1 0.039202 0.348292 0.457979
O O2 0.001219 0.327146 0.271598
O O3 0.500000 0.000000 0.500000
O O4 0.255781 0.942676 0.635401
O O5 0.483153 0.323068 0.767349
O O6 0.226778 0.697654 0.426237
O O7 0.434767 0.314126 0.575146
O O8 0.510732 0.210155 0.035089
O O9 0.807083 0.869941 0.058088
O O10 0.000000 0.000000 0.000000
O O11 0.670141 0.411634 0.148257
O O12 0.935081 0.431255 0.987657
O O13 0.767671 0.158233 0.486716
O O14 0.309077 0.487396 0.207569
O O15 0.062983 0.086403 0.163141
#
# Coordination Sequence:
#
# PCOD9075728 Si02
#       7
#     2   2   2   2   2   2   2
#     4  11  23  41  62  86 125 170 209 252 308 377
#     4   9  19  34  59  89 122 162 197 253 317 356
#     4  10  18  32  54  93 129 148 198 253 311 363
#     4  11  21  39  63  92 126 164 201 264 312 360
#     4  12  21  38  61  94 120 156 208 255 312 368
#     4  11  22  34  60  97 126 158 199 259 322 367
#     4  10  18  36  62  90 127 147 201 266 305 359
#
# _framework density 27.389303000000002
#
# number of rings (size 3 to 8) (size 9 to 14) (size 15 to 20)
#    0.000    1.429    5.714    1.714    0.000    0.000 
#    2.571    1.429    0.000    7.714    0.000    0.000 
#    0.000    0.000    0.000    0.000    0.000    0.000 
#
# Total GULP energy -78007.085523 kJ/mol
# GULP energy per Si atom -5571.934680 kJ/mol
# Density = 2.732696 g / cm^3
# Si number density = 27.389303 Si / 1000 Ang^3
#
#
#
# Elastic Constant Matrix: (Units=GPa)
#
#
# Indices 1 2 3 4 5 6 
#
# 1 5.2871 22.7121 24.1604 -48.3362 16.0061 30.1948
# 2 22.7121 235.3602 39.5871 -45.3654 25.9469 -15.4833
# 3 24.1604 39.5871 118.8726 -27.7446 1.8663 -1.5812
# 4 -48.3362 -45.3654 -27.7446 12.6545 3.7837 52.0614
# 5 16.0061 25.9469 1.8663 3.7837 42.3270 -21.4995
# 6 30.1948 -15.4833 -1.5812 52.0614 -21.4995 -4.0174
#
#
#
# Elastic Compliance Matrix: (Units=1/GPa)
#
#
# Indices 1 2 3 4 5 6 
#
# 1 0.021439 -0.002369 -0.005882 -0.010668 0.003226 0.017065
# 2 -0.002369 0.005348 -0.000701 0.002356 -0.001729 0.001640
# 3 -0.005882 -0.000701 0.010712 0.003887 0.001128 -0.001390
# 4 -0.010668 0.002356 0.003887 0.010588 0.006737 0.010364
# 5 0.003226 -0.001729 0.001128 0.006737 0.022223 -0.001163
# 6 0.017065 0.001640 -0.001390 0.010364 -0.001163 0.014098
#
#
# Mechanical properties :
#
#
# Convention : Reuss Voigt Hill
#
# Bulk Modulus (GPa) = 51.03182 59.15991 55.09586
# Shear Modulus (GPa) = 45.93786 28.39684 37.16735
#
# Velocity S-wave (km/s) = 4.09983 3.22341 3.68775
# Velocity P-wave (km/s) = 6.40968 5.95822 6.18806
#
# Compressibility (1/GPa) = 0.01959562
#
# Stress axis : x y z
#
# Youngs Moduli (GPa) = 46.64431 186.99217 93.35063
#
# Poissons Ratio (x) = 0.44295 0.54910
# Poissons Ratio (y) = 0.11049 0.06541
# Poissons Ratio (z) = 0.27437 0.13103
#
# Static dielectric constant tensor:
#      x y z
#    x 2.332220 -0.078000 0.057180 
#    y -0.078000 2.518440 -0.025430 
#    z 0.057180 -0.025430 2.012980 
# 
# From -- ./inp_files/505359.got.cif
#   From: 2010.05.17/outbox.cif.g08.bks.cpg/sg2_253_cif.got.tgz:505359.got - 2010.06.03 11:33:40.
