data_PCOD9075285
_publ_section_title
;
Structure prediction by ZEFSAII (Michael W. Deem and Ramdas Pophale) SiO2 
 PCOD9075285
Probable space group: P -1
;
_chemical_formula_sum "Si O2"
_cell_formula_units_Z 14
_cell_length_a 9.000000
_cell_length_b 9.000000
_cell_length_c 21.000000
_cell_angle_alpha 40.000000
_cell_angle_beta 50.000000
_cell_angle_gamma 80.000000
_cell_volume 638.399559
_symmetry_space_group_name_H-M "P -1"
_symmetry_group_IT_number 2
_symmetry_cell_setting 'triclinic'
loop_
_space_group_symop_operation_xyz
x,y,z
-x,-y,-z
loop_
_atom_site_type_symbol
_atom_site_label
_atom_site_fract_x
_atom_site_fract_y
_atom_site_fract_z
Si Si1 0.361771 0.156192 0.123033
Si Si2 0.517024 0.347112 0.225205
Si Si3 0.004000 0.186955 0.137323
Si Si4 0.409743 0.024321 0.586002
Si Si5 0.848809 0.204009 0.572105
Si Si6 0.464198 0.330896 0.651686
Si Si7 0.551107 0.273852 0.789439
O O1 0.165938 0.091985 0.145761
O O2 0.200213 0.910760 0.304127
O O3 0.511995 0.051676 0.084850
O O4 0.500000 0.500000 0.000000
O O5 0.529836 0.602419 0.174546
O O6 0.479923 0.098701 0.362336
O O7 0.275123 0.116243 0.323003
O O8 0.775916 0.501756 0.062471
O O9 0.882210 0.194832 0.233864
O O10 0.779935 0.937871 0.233257
O O11 0.489409 0.354833 0.468845
O O12 0.500000 0.000000 0.500000
O O13 0.687509 0.320948 0.571619
O O14 0.141066 0.459453 0.388337
O O15 0.435445 0.266424 0.756230
#
# Coordination Sequence:
#
# PCOD9075285 Si02
#       7
#     2   2   2   2   2   2   2
#     4  11  24  46  71 102 140 189 235 288 356 421
#     4  12  26  45  72 108 144 186 234 297 355 417
#     4  12  26  47  73 103 145 186 233 295 361 417
#     4  12  25  45  71 107 140 185 242 287 347 425
#     4  11  23  47  73  99 143 192 234 289 351 420
#     4  11  24  46  74 101 140 191 240 287 354 422
#     4  11  25  46  69 106 143 184 243 289 348 419
#
# _framework density 21.929839999999999
#
# number of rings (size 3 to 8) (size 9 to 14) (size 15 to 20)
#    0.000    0.571    4.286    4.714    2.000    1.143 
#    2.571    0.000    0.000    0.000    0.000    0.000 
#    0.000    0.000    0.000    0.000    0.000    0.000 
#
# Total GULP energy -78064.183575 kJ/mol
# GULP energy per Si atom -5576.013112 kJ/mol
# Density = 2.187993 g / cm^3
# Si number density = 21.929840 Si / 1000 Ang^3
#
#
#
# Elastic Constant Matrix: (Units=GPa)
#
#
# Indices 1 2 3 4 5 6 
#
# 1 108.4258 22.7543 26.2521 -6.9163 5.1666 4.8010
# 2 22.7543 175.2181 41.9038 -6.5638 -0.7732 -3.4509
# 3 26.2521 41.9038 98.2096 -3.3754 -5.2650 7.3860
# 4 -6.9163 -6.5638 -3.3754 44.7147 1.0404 6.8553
# 5 5.1666 -0.7732 -5.2650 1.0404 32.5726 -6.5728
# 6 4.8010 -3.4509 7.3860 6.8553 -6.5728 34.2430
#
#
#
# Elastic Compliance Matrix: (Units=1/GPa)
#
#
# Indices 1 2 3 4 5 6 
#
# 1 0.010252 -0.000752 -0.002359 0.001630 -0.002440 -0.001799
# 2 -0.000752 0.006477 -0.002637 0.000441 0.000086 0.001255
# 3 -0.002359 -0.002637 0.012226 0.000485 0.001803 -0.002323
# 4 0.001630 0.000441 0.000485 0.023592 -0.002012 -0.005398
# 5 -0.002440 0.000086 0.001803 -0.002012 0.032789 0.006658
# 6 -0.001799 0.001255 -0.002323 -0.005398 0.006658 0.032442
#
#
# Mechanical properties :
#
#
# Convention : Reuss Voigt Hill
#
# Bulk Modulus (GPa) = 57.27935 62.63045 59.95490
# Shear Modulus (GPa) = 37.01127 41.70229 39.35678
#
# Velocity S-wave (km/s) = 4.11263 4.36549 4.24095
# Velocity P-wave (km/s) = 6.98053 7.35061 7.16796
#
# Compressibility (1/GPa) = 0.01745830
#
# Stress axis : x y z
#
# Youngs Moduli (GPa) = 97.54362 154.38805 81.79189
#
# Poissons Ratio (x) = 0.11615 0.19294
# Poissons Ratio (y) = 0.07339 0.21570
# Poissons Ratio (z) = 0.23009 0.40715
#
# Static dielectric constant tensor:
#      x y z
#    x 1.914280 0.034550 0.036370 
#    y 0.034550 1.842790 -0.004270 
#    z 0.036370 -0.004270 1.833010 
# 
# From -- ./inp_files/159996.got.cif
#   From: 2010.05.17/outbox.ucp.g08.bks.cvg/sg2_80_cif.got.tgz:159996.got - 2010.06.11 11:32:03.
