data_PCOD9075147
_publ_section_title
;
Structure prediction by ZEFSAII (Michael W. Deem and Ramdas Pophale) SiO2 
 PCOD9075147
Probable space group: P -1
;
_chemical_formula_sum "Si O2"
_cell_formula_units_Z 12
_cell_length_a 18.000000
_cell_length_b 12.000000
_cell_length_c 21.000000
_cell_angle_alpha 20.000000
_cell_angle_beta 160.000000
_cell_angle_gamma 150.000000
_cell_volume 524.980204
_symmetry_space_group_name_H-M "P -1"
_symmetry_group_IT_number 2
_symmetry_cell_setting 'triclinic'
loop_
_space_group_symop_operation_xyz
x,y,z
-x,-y,-z
loop_
_atom_site_type_symbol
_atom_site_label
_atom_site_fract_x
_atom_site_fract_y
_atom_site_fract_z
Si Si1 0.766046 0.610170 0.804922
Si Si2 0.016859 0.434484 0.728054
Si Si3 0.278120 0.718378 0.330462
Si Si4 0.187065 0.631303 0.538395
Si Si5 0.426630 0.729027 0.878665
Si Si6 0.207176 0.420632 0.303393
O O1 0.509610 0.635919 0.595661
O O2 0.783690 0.477665 0.817657
O O3 0.806753 0.990647 0.639443
O O4 0.945627 0.396413 0.108071
O O5 0.869613 0.509687 0.630249
O O6 0.878484 0.386206 0.578958
O O7 0.176645 0.693519 0.708007
O O8 0.179729 0.098095 0.055824
O O9 0.254351 0.660639 0.268010
O O10 0.000000 0.500000 0.500000
O O11 0.411337 0.403725 0.862686
O O12 0.393051 0.109046 0.629895
O O13 0.500000 0.500000 0.000000
#
# Coordination Sequence:
#
# PCOD9075147 Si02
#       6
#     2   2   2   2   2   2
#     4  11  23  41  67  98 128 169 220 269 316 381
#     4  11  24  42  66  99 129 175 217 257 326 389
#     4  11  24  42  67  95 135 172 213 265 321 388
#     4  12  23  40  68  96 126 166 218 268 316 381
#     4  12  23  43  66  96 131 168 214 271 323 375
#     4  11  24  41  67  96 130 171 218 266 323 374
#
# _framework density 22.858004999999999
#
# number of rings (size 3 to 8) (size 9 to 14) (size 15 to 20)
#    0.000    0.667    6.667    0.500    0.000    6.667 
#    0.000    1.667    0.000    0.000    0.000    0.000 
#    0.000    0.000    0.000    0.000    0.000    0.000 
#
# Total GULP energy -66939.039286 kJ/mol
# GULP energy per Si atom -5578.253274 kJ/mol
# Density = 2.280598 g / cm^3
# Si number density = 22.858005 Si / 1000 Ang^3
#
#
#
# Elastic Constant Matrix: (Units=GPa)
#
#
# Indices 1 2 3 4 5 6 
#
# 1 54.0375 55.3515 11.7577 14.0954 -1.3609 22.7831
# 2 55.3515 73.0451 21.7471 36.3360 18.1586 12.3881
# 3 11.7577 21.7471 157.6505 35.8233 -0.2733 0.1499
# 4 14.0954 36.3360 35.8233 27.6172 -6.8402 -3.8645
# 5 -1.3609 18.1586 -0.2733 -6.8402 10.4131 2.6262
# 6 22.7831 12.3881 0.1499 -3.8645 2.6262 9.5888
#
#
#
# Elastic Compliance Matrix: (Units=1/GPa)
#
#
# Indices 1 2 3 4 5 6 
#
# 1 -0.043427 0.005771 -0.004650 0.030544 -0.024775 0.114894
# 2 0.005771 -0.009956 -0.004564 0.024496 0.034153 -0.000260
# 3 -0.004650 -0.004564 0.006453 0.003787 0.005774 0.016789
# 4 0.030544 0.024496 0.003787 -0.041388 -0.037927 -0.110572
# 5 -0.024775 0.034153 0.005774 -0.037927 0.009277 -0.003175
# 6 0.114894 -0.000260 0.016789 -0.110572 -0.003175 -0.212322
#
#
# Mechanical properties :
#
#
# Convention : Reuss Voigt Hill
#
# Bulk Modulus (GPa) = -18.58218 51.38284 16.40033
# Shear Modulus (GPa) = -16.53354 22.58228 3.02437
#
# Velocity S-wave (km/s) = -2.69237 3.14656 1.15151
# Velocity P-wave (km/s) = 4.22045 5.97738 2.99306
#
# Compressibility (1/GPa) = -0.05381499
#
# Stress axis : x y z
#
# Youngs Moduli (GPa) = -23.02732 -100.43927 154.96513
#
# Poissons Ratio (x) = 0.57968 0.72059
# Poissons Ratio (y) = 0.13290 0.70725
# Poissons Ratio (z) = -0.10708 -0.45840
#
# Static dielectric constant tensor:
#      x y z
#    x 1.928940 0.114100 0.056900 
#    y 0.114100 1.893140 0.020960 
#    z 0.056900 0.020960 1.883550 
# 
# From -- ./inp_files/172662.got.cif
#   From: 2010.05.17/outbox.ucp.g08.bks.cvg/sg2_87_cif.got.tgz:172662.got - 2010.06.11 11:32:03.
