data_PCOD9075495
_publ_section_title
;
Structure prediction by ZEFSAII (Michael W. Deem and Ramdas Pophale) SiO2 
 PCOD9075495
Probable space group: P -1
;
_chemical_formula_sum "Si O2"
_cell_formula_units_Z 16
_cell_length_a 15.000000
_cell_length_b 9.000000
_cell_length_c 9.000000
_cell_angle_alpha 50.000000
_cell_angle_beta 70.000000
_cell_angle_gamma 100.000000
_cell_volume 732.374747
_symmetry_space_group_name_H-M "P -1"
_symmetry_group_IT_number 2
_symmetry_cell_setting 'triclinic'
loop_
_space_group_symop_operation_xyz
x,y,z
-x,-y,-z
loop_
_atom_site_type_symbol
_atom_site_label
_atom_site_fract_x
_atom_site_fract_y
_atom_site_fract_z
Si Si1 0.720940 0.992867 0.868649
Si Si2 0.774631 0.176794 0.035015
Si Si3 0.528180 0.540208 0.131613
Si Si4 0.379950 0.774518 0.672302
Si Si5 0.103907 0.160046 0.141244
Si Si6 0.726416 0.705375 0.471971
Si Si7 0.226521 0.581969 0.605087
Si Si8 0.117295 0.312908 0.376000
O O1 0.704393 0.061817 0.997857
O O2 0.791229 0.233423 0.583843
O O3 0.795757 0.882887 0.912096
O O4 0.604262 0.804468 0.974873
O O5 0.873916 0.443446 0.769579
O O6 0.705523 0.219924 0.168843
O O7 0.792094 0.978462 0.216337
O O8 0.602487 0.433715 0.186904
O O9 0.406702 0.395410 0.374791
O O10 0.500000 0.500000 0.000000
O O11 0.327962 0.739229 0.561541
O O12 0.500000 0.000000 0.500000
O O13 0.108607 0.243352 0.253518
O O14 0.124371 0.369810 0.891431
O O15 0.989943 0.910043 0.342088
O O16 0.741209 0.549528 0.445416
O O17 0.774329 0.668232 0.621316
#
# Coordination Sequence:
#
# PCOD9075495 Si02
#       8
#     2   2   2   2   2   2   2   2
#     4  12  26  45  71 102 140 181 229 282 346 409
#     4  12  24  45  69 102 140 179 229 286 340 414
#     4  12  25  43  71 102 143 184 226 279 343 420
#     4  12  24  42  69 102 141 183 223 278 344 411
#     4  11  25  49  72  99 140 180 229 290 345 407
#     4  12  26  45  69 103 140 182 228 284 345 405
#     4  12  26  45  68 103 139 181 231 285 342 411
#     4  11  26  47  73 101 136 181 233 286 343 415
#
# _framework density 21.846738999999999
#
# number of rings (size 3 to 8) (size 9 to 14) (size 15 to 20)
#    0.000    0.250    6.250    2.250    3.500    3.500 
#    0.000    2.500    0.000    0.000    0.000    0.000 
#    0.000    0.000    0.000    0.000    0.000    0.000 
#
# Total GULP energy -89443.134325 kJ/mol
# GULP energy per Si atom -5590.195895 kJ/mol
# Density = 2.179701 g / cm^3
# Si number density = 21.846739 Si / 1000 Ang^3
#
#
#
# Elastic Constant Matrix: (Units=GPa)
#
#
# Indices 1 2 3 4 5 6 
#
# 1 26.9021 2.7867 6.4064 -8.9015 5.2601 -0.6932
# 2 2.7867 118.6957 29.6218 -23.9647 -0.8071 8.2914
# 3 6.4064 29.6218 103.7456 -37.2694 17.7168 1.4825
# 4 -8.9015 -23.9647 -37.2694 45.7719 1.3008 6.2293
# 5 5.2601 -0.8071 17.7168 1.3008 38.4665 -8.1151
# 6 -0.6932 8.2914 1.4825 6.2293 -8.1151 17.3221
#
#
#
# Elastic Compliance Matrix: (Units=1/GPa)
#
#
# Indices 1 2 3 4 5 6 
#
# 1 0.042222 0.001323 0.003516 0.013195 -0.009602 -0.008488
# 2 0.001323 0.010346 -0.000226 0.006645 -0.001795 -0.008111
# 3 0.003516 -0.000226 0.017982 0.017351 -0.012143 -0.013219
# 4 0.013195 0.006645 0.017351 0.046456 -0.017338 -0.028967
# 5 -0.009602 -0.001795 -0.012143 -0.017338 0.038934 0.025989
# 6 -0.008488 -0.008111 -0.013219 -0.028967 0.025989 0.084996
#
#
# Mechanical properties :
#
#
# Convention : Reuss Voigt Hill
#
# Bulk Modulus (GPa) = 12.53499 36.33035 24.43267
# Shear Modulus (GPa) = 19.35711 34.34735 26.85223
#
# Velocity S-wave (km/s) = 2.97987 3.96939 3.50968
# Velocity P-wave (km/s) = 4.19401 6.13790 5.25659
#
# Compressibility (1/GPa) = 0.07977672
#
# Stress axis : x y z
#
# Youngs Moduli (GPa) = 23.68419 96.65320 55.61013
#
# Poissons Ratio (x) = -0.12786 -0.19554
# Poissons Ratio (y) = -0.03133 0.01258
# Poissons Ratio (z) = -0.08328 0.02186
#
# Static dielectric constant tensor:
#      x y z
#    x 1.793080 0.030250 -0.007990 
#    y 0.030250 1.768290 -0.008430 
#    z -0.007990 -0.008430 1.895620 
# 
# From -- ./inp_files/208043.got.cif
#   From: 2010.05.17/outbox.ucp.g08.bks.cvg/sg2_105_cif.got.tgz:208043.got - 2010.06.11 11:32:03.
