data_PCOD9075217
_publ_section_title
;
Structure prediction by ZEFSAII (Michael W. Deem and Ramdas Pophale) SiO2 
 PCOD9075217
Probable space group: P -1
;
_chemical_formula_sum "Si O2"
_cell_formula_units_Z 14
_cell_length_a 24.000000
_cell_length_b 9.000000
_cell_length_c 12.000000
_cell_angle_alpha 40.000000
_cell_angle_beta 150.000000
_cell_angle_gamma 150.000000
_cell_volume 646.664136
_symmetry_space_group_name_H-M "P -1"
_symmetry_group_IT_number 2
_symmetry_cell_setting 'triclinic'
loop_
_space_group_symop_operation_xyz
x,y,z
-x,-y,-z
loop_
_atom_site_type_symbol
_atom_site_label
_atom_site_fract_x
_atom_site_fract_y
_atom_site_fract_z
Si Si1 0.681865 0.283908 0.229897
Si Si2 0.546970 0.578042 0.905912
Si Si3 0.927583 0.683354 0.608107
Si Si4 0.663644 0.731212 0.485858
Si Si5 0.217559 0.426260 0.011613
Si Si6 0.095240 0.155321 0.273918
Si Si7 0.804103 0.272797 0.999611
O O1 0.806471 0.445628 0.447829
O O2 0.622485 0.944327 0.319441
O O3 0.585770 0.365382 0.064464
O O4 0.724749 0.426078 0.096745
O O5 0.445461 0.509195 0.662047
O O6 0.500000 0.500000 0.000000
O O7 0.678825 0.933954 0.939567
O O8 0.896014 0.741289 0.643762
O O9 0.048023 0.645347 0.833945
O O10 0.000000 0.000000 0.500000
O O11 0.692016 0.626268 0.714121
O O12 0.814207 0.947034 0.552777
O O13 0.198852 0.642631 0.925406
O O14 0.065710 0.096686 0.908153
O O15 0.190577 0.474885 0.195724
#
# Coordination Sequence:
#
# PCOD9075217 Si02
#       7
#     2   2   2   2   2   2   2
#     4  12  25  44  71  98 133 177 220 280 333 395
#     4  12  26  46  68  97 134 176 231 270 325 402
#     4  12  22  39  69 101 133 171 215 274 340 385
#     4  11  26  44  68  97 136 182 222 271 333 389
#     4  11  24  44  70 102 136 169 222 279 335 400
#     4  11  23  44  68 100 137 170 222 277 332 401
#     4  11  24  42  68  99 133 176 220 278 331 393
#
# _framework density 21.649569
#
# number of rings (size 3 to 8) (size 9 to 14) (size 15 to 20)
#    0.000    0.571    2.857    6.000    2.000    5.143 
#    0.000    2.857    0.000    0.000    0.000    0.000 
#    0.000    0.000    0.000    0.000    0.000    0.000 
#
# Total GULP energy -77964.610211 kJ/mol
# GULP energy per Si atom -5568.900729 kJ/mol
# Density = 2.160029 g / cm^3
# Si number density = 21.649569 Si / 1000 Ang^3
#
#
#
# Elastic Constant Matrix: (Units=GPa)
#
#
# Indices 1 2 3 4 5 6 
#
# 1 136.4921 -10.9125 16.3015 -2.3922 -19.6490 -25.9469
# 2 -10.9125 60.7619 18.5143 16.7899 -10.4773 -27.3040
# 3 16.3015 18.5143 88.5075 17.9089 -14.6281 -5.1290
# 4 -2.3922 16.7899 17.9089 46.3316 -15.3543 -8.4480
# 5 -19.6490 -10.4773 -14.6281 -15.3543 46.9398 0.4492
# 6 -25.9469 -27.3040 -5.1290 -8.4480 0.4492 39.4728
#
#
#
# Elastic Compliance Matrix: (Units=1/GPa)
#
#
# Indices 1 2 3 4 5 6 
#
# 1 0.012866 0.010983 -0.003128 0.003463 0.007839 0.016300
# 2 0.010983 0.036352 -0.005881 -0.001274 0.010163 0.031213
# 3 -0.003128 -0.005881 0.013700 -0.004171 0.000333 -0.005240
# 4 0.003463 -0.001274 -0.004171 0.028041 0.008973 0.006753
# 5 0.007839 0.010163 0.000333 0.008973 0.029761 0.013808
# 6 0.016300 0.031213 -0.005240 0.006753 0.013808 0.058246
#
#
# Mechanical properties :
#
#
# Convention : Reuss Voigt Hill
#
# Bulk Modulus (GPa) = 14.95504 37.06312 26.00908
# Shear Modulus (GPa) = 25.34129 44.00605 34.67367
#
# Velocity S-wave (km/s) = 3.42500 4.51339 4.00632
# Velocity P-wave (km/s) = 4.75012 6.65715 5.78279
#
# Compressibility (1/GPa) = 0.06686710
#
# Stress axis : x y z
#
# Youngs Moduli (GPa) = 77.72507 27.50862 72.99214
#
# Poissons Ratio (x) = -0.30213 0.22829
# Poissons Ratio (y) = -0.85365 0.42926
# Poissons Ratio (z) = 0.24310 0.16177
#
# Static dielectric constant tensor:
#      x y z
#    x 2.068300 -0.043770 -0.000250 
#    y -0.043770 1.793170 0.029010 
#    z -0.000250 0.029010 1.785890 
# 
# From -- ./inp_files/259763.got.cif
#   From: 2010.05.17/outbox.ucp.g08.bks.cvg/sg2_130_cif.got.tgz:259763.got - 2010.06.11 11:32:03.
