data_PCOD9075180
_publ_section_title
;
Structure prediction by ZEFSAII (Michael W. Deem and Ramdas Pophale) SiO2 
 PCOD9075180
Probable space group: P -1
;
_chemical_formula_sum "Si O2"
_cell_formula_units_Z 10
_cell_length_a 18.000000
_cell_length_b 15.000000
_cell_length_c 6.000000
_cell_angle_alpha 50.000000
_cell_angle_beta 130.000000
_cell_angle_gamma 160.000000
_cell_volume 419.772810
_symmetry_space_group_name_H-M "P -1"
_symmetry_group_IT_number 2
_symmetry_cell_setting 'triclinic'
loop_
_space_group_symop_operation_xyz
x,y,z
-x,-y,-z
loop_
_atom_site_type_symbol
_atom_site_label
_atom_site_fract_x
_atom_site_fract_y
_atom_site_fract_z
Si Si1 0.966173 0.522539 0.646765
Si Si2 0.458054 0.588198 0.745614
Si Si3 0.377888 0.670188 0.838237
Si Si4 0.938626 0.798010 0.672382
Si Si5 0.735808 0.008203 0.272183
O O1 0.739361 0.348640 0.474885
O O2 0.000000 0.500000 0.500000
O O3 0.149716 0.817453 0.569105
O O4 0.000000 0.500000 0.000000
O O5 0.498754 0.713005 0.834126
O O6 0.583541 0.746849 0.503832
O O7 0.210041 0.353218 0.590447
O O8 0.500000 0.500000 0.000000
O O9 0.566924 0.914447 0.980739
O O10 0.194994 0.400411 0.058891
O O11 0.111153 0.886759 0.783539
O O12 0.000000 0.000000 0.500000
#
# Coordination Sequence:
#
# PCOD9075180 Si02
#       5
#     2   2   2   2   2
#     4  12  29  51  78 108 145 203 264 318 378 431
#     4  11  24  41  71 113 145 192 241 293 382 462
#     4  11  26  46  72 107 150 189 256 302 375 453
#     4  11  23  42  71 108 153 200 238 298 376 457
#     4  11  26  46  73 104 153 192 244 317 367 447
#
# _framework density 23.822410000000001
#
# number of rings (size 3 to 8) (size 9 to 14) (size 15 to 20)
#    0.000    0.800    2.000    3.600   11.200    6.400 
#    0.000    0.000    0.000    0.000    0.000    0.000 
#    0.000    0.000    0.000    0.000    0.000    0.000 
#
# Total GULP energy -55682.264727 kJ/mol
# GULP energy per Si atom -5568.226473 kJ/mol
# Density = 2.376819 g / cm^3
# Si number density = 23.822410 Si / 1000 Ang^3
#
#
#
# Elastic Constant Matrix: (Units=GPa)
#
#
# Indices 1 2 3 4 5 6 
#
# 1 92.4092 9.7529 51.5991 -40.3006 -25.8772 26.5006
# 2 9.7529 71.3038 55.7088 13.9750 -2.5958 7.1751
# 3 51.5991 55.7088 167.7058 19.3683 14.1977 14.0110
# 4 -40.3006 13.9750 19.3683 24.5638 -3.8309 2.5595
# 5 -25.8772 -2.5958 14.1977 -3.8309 35.4177 3.5781
# 6 26.5006 7.1751 14.0110 2.5595 3.5781 26.4538
#
#
#
# Elastic Compliance Matrix: (Units=1/GPa)
#
#
# Indices 1 2 3 4 5 6 
#
# 1 -0.009797 -0.000313 0.006105 -0.023908 -0.013303 0.010779
# 2 -0.000313 0.020371 -0.006013 -0.006685 0.003134 -0.001804
# 3 0.006105 -0.006013 0.005229 0.010859 0.003992 -0.008845
# 4 -0.023908 -0.006685 0.010859 -0.009853 -0.025848 0.024461
# 5 -0.013303 0.003134 0.003992 -0.025848 0.013229 0.011074
# 6 0.010779 -0.001804 -0.008845 0.024461 0.011074 0.028313
#
#
# Mechanical properties :
#
#
# Convention : Reuss Voigt Hill
#
# Bulk Modulus (GPa) = 65.10130 62.83782 63.96956
# Shear Modulus (GPa) = 94.24232 31.57759 62.90995
#
# Velocity S-wave (km/s) = 6.29653 3.64475 5.14444
# Velocity P-wave (km/s) = 8.95817 6.64433 7.88657
#
# Compressibility (1/GPa) = 0.01536068
#
# Stress axis : x y z
#
# Youngs Moduli (GPa) = -102.06827 49.08892 191.25210
#
# Poissons Ratio (x) = 0.01537 -1.16765
# Poissons Ratio (y) = -0.03196 1.15002
# Poissons Ratio (z) = 0.62316 0.29518
#
# Static dielectric constant tensor:
#      x y z
#    x 1.304680 0.486250 0.258290 
#    y 0.486250 1.616150 -0.218160 
#    z 0.258290 -0.218160 2.001140 
# 
# From -- ./inp_files/1433.got.cif
#   From: 2010.05.17/outbox.ucp.g08.bks.cvg/sg2_1_cif.got.tgz:1433.got - 2010.06.11 11:32:03.
