data_PCOD9075379
_publ_section_title
;
Structure prediction by ZEFSAII (Michael W. Deem and Ramdas Pophale) SiO2 
 PCOD9075379
Probable space group: P -1
;
_chemical_formula_sum "Si O2"
_cell_formula_units_Z 12
_cell_length_a 6.000000
_cell_length_b 15.000000
_cell_length_c 9.000000
_cell_angle_alpha 140.000000
_cell_angle_beta 100.000000
_cell_angle_gamma 80.000000
_cell_volume 511.690960
_symmetry_space_group_name_H-M "P -1"
_symmetry_group_IT_number 2
_symmetry_cell_setting 'triclinic'
loop_
_space_group_symop_operation_xyz
x,y,z
-x,-y,-z
loop_
_atom_site_type_symbol
_atom_site_label
_atom_site_fract_x
_atom_site_fract_y
_atom_site_fract_z
Si Si1 0.440933 0.751187 0.978032
Si Si2 0.203916 0.034615 0.186683
Si Si3 0.572041 0.732195 0.631905
Si Si4 0.768956 0.435280 0.807576
Si Si5 0.904219 0.487866 0.309977
Si Si6 0.203324 0.273344 0.748708
O O1 0.638358 0.777333 0.156075
O O2 0.291492 0.890983 0.092513
O O3 0.544198 0.706409 0.771235
O O4 0.275981 0.632430 0.863697
O O5 0.383121 0.111276 0.203286
O O6 0.187513 0.146771 0.466612
O O7 0.000000 0.000000 0.000000
O O8 0.376044 0.669494 0.433561
O O9 0.784179 0.640303 0.476072
O O10 0.894598 0.513031 0.786072
O O11 0.939553 0.334163 0.794625
O O12 0.688728 0.573610 0.070297
O O13 0.000000 0.500000 0.500000
#
# Coordination Sequence:
#
# PCOD9075379 Si02
#       6
#     2   2   2   2   2   2
#     4  12  25  44  73 113 143 187 239 296 357 426
#     4  12  27  50  72 102 149 197 235 289 368 433
#     4  12  24  48  76 103 144 189 243 288 360 429
#     4  11  24  45  75 110 139 189 239 299 361 412
#     4  12  22  42  75 109 143 180 246 293 343 425
#     4  11  25  46  71 107 147 184 243 299 354 423
#
# _framework density 23.451654999999999
#
# number of rings (size 3 to 8) (size 9 to 14) (size 15 to 20)
#    0.000    0.333    5.000    4.500    0.000    4.000 
#    0.000    5.833    0.000    0.000    0.000    0.000 
#    0.000    0.000    0.000    0.000    0.000    0.000 
#
# Total GULP energy -66831.251259 kJ/mol
# GULP energy per Si atom -5569.270938 kJ/mol
# Density = 2.339828 g / cm^3
# Si number density = 23.451655 Si / 1000 Ang^3
#
#
#
# Elastic Constant Matrix: (Units=GPa)
#
#
# Indices 1 2 3 4 5 6 
#
# 1 -1.8963 -1.4325 43.1926 -18.4589 9.4818 -20.1162
# 2 -1.4325 82.7662 54.4346 -3.2770 -15.3538 -46.6192
# 3 43.1926 54.4346 209.4718 -17.8137 17.5836 -24.6475
# 4 -18.4589 -3.2770 -17.8137 66.6641 -19.0389 9.9511
# 5 9.4818 -15.3538 17.5836 -19.0389 36.5948 -16.1249
# 6 -20.1162 -46.6192 -24.6475 9.9511 -16.1249 56.6551
#
#
#
# Elastic Compliance Matrix: (Units=1/GPa)
#
#
# Indices 1 2 3 4 5 6 
#
# 1 -0.011442 -0.033812 0.009204 -0.007021 -0.035489 -0.036749
# 2 -0.033812 0.025067 0.000004 -0.003529 0.024597 0.016244
# 3 0.009204 0.000004 0.003665 0.002640 -0.000950 0.004132
# 4 -0.007021 -0.003529 0.002640 0.015804 0.004799 -0.005658
# 5 -0.035489 0.024597 -0.000950 0.004799 0.060151 0.023503
# 6 -0.036749 0.016244 0.004132 -0.005658 0.023503 0.027450
#
#
# Mechanical properties :
#
#
# Convention : Reuss Voigt Hill
#
# Bulk Modulus (GPa) = -31.33152 53.63680 11.15264
# Shear Modulus (GPa) = 31.39444 44.92592 38.16018
#
# Velocity S-wave (km/s) = 3.66278 4.38160 4.03821
# Velocity P-wave (km/s) = 2.12105 6.96554 5.14867
#
# Compressibility (1/GPa) = -0.03191674
#
# Stress axis : x y z
#
# Youngs Moduli (GPa) = -87.40099 39.89320 272.81864
#
# Poissons Ratio (x) = 1.34887 -2.51096
# Poissons Ratio (y) = -2.95519 -0.00119
# Poissons Ratio (z) = 0.80442 -0.00017
#
# Static dielectric constant tensor:
#      x y z
#    x 2.045910 -0.057210 -0.042400 
#    y -0.057210 2.001560 -0.079540 
#    z -0.042400 -0.079540 1.943230 
# 
# From -- ./inp_files/135958.got.cif
#   From: 2010.05.17/outbox.ucp.g08.bks.cvg/sg2_68_cif.got.tgz:135958.got - 2010.06.11 11:32:03.
