data_PCOD9075639
_publ_section_title
;
Structure prediction by ZEFSAII (Michael W. Deem and Ramdas Pophale) SiO2 
 PCOD9075639
Probable space group: P -1
;
_chemical_formula_sum "Si O2"
_cell_formula_units_Z 16
_cell_length_a 9.000000
_cell_length_b 15.000000
_cell_length_c 12.000000
_cell_angle_alpha 140.000000
_cell_angle_beta 50.000000
_cell_angle_gamma 130.000000
_cell_volume 759.581896
_symmetry_space_group_name_H-M "P -1"
_symmetry_group_IT_number 2
_symmetry_cell_setting 'triclinic'
loop_
_space_group_symop_operation_xyz
x,y,z
-x,-y,-z
loop_
_atom_site_type_symbol
_atom_site_label
_atom_site_fract_x
_atom_site_fract_y
_atom_site_fract_z
Si Si1 0.644774 0.317425 0.694110
Si Si2 0.353934 0.920300 0.712230
Si Si3 0.191025 0.822835 0.952711
Si Si4 0.188046 0.938279 0.312039
Si Si5 0.749430 0.803029 0.074223
Si Si6 0.796946 0.549030 0.657743
Si Si7 0.276889 0.507698 0.614001
Si Si8 0.049770 0.622269 0.189377
O O1 0.703575 0.196114 0.473851
O O2 0.434456 0.256476 0.805418
O O3 0.652219 0.434626 0.705379
O O4 0.802378 0.385703 0.784873
O O5 0.274691 0.873348 0.833371
O O6 0.599436 0.964867 0.644641
O O7 0.280907 0.055119 0.834452
O O8 0.233974 0.665614 0.796290
O O9 0.246233 0.917669 0.132572
O O10 0.955909 0.817034 0.054297
O O11 0.134182 0.777722 0.238761
O O12 0.000000 0.000000 0.500000
O O13 0.776785 0.696660 0.860642
O O14 0.770500 0.553878 0.544912
O O15 0.000000 0.500000 0.500000
O O16 0.500000 0.500000 0.500000
O O17 0.159529 0.404226 0.669611
O O18 0.000000 0.500000 0.000000
#
# Coordination Sequence:
#
# PCOD9075639 Si02
#       8
#     2   2   2   2   2   2   2   2
#     4  12  25  48  78 106 150 193 250 310 364 442
#     4  12  27  50  76 111 149 197 246 301 375 441
#     4  12  26  50  73 110 151 193 247 307 365 445
#     4  12  29  49  75 109 155 197 241 301 374 445
#     4  12  26  44  76 110 147 191 251 303 371 431
#     4  12  24  47  72 108 142 196 250 307 360 432
#     4  12  28  46  76 107 149 193 249 303 374 435
#     4  12  27  49  75 107 149 191 248 308 369 436
#
# _framework density 21.064219999999999
#
# number of rings (size 3 to 8) (size 9 to 14) (size 15 to 20)
#    0.000    0.000    6.250    2.250    7.000    2.000 
#    0.000    0.000    0.000    0.000    0.000    0.000 
#    0.000    0.000    0.000    0.000    0.000    0.000 
#
# Total GULP energy -89119.661412 kJ/mol
# GULP energy per Si atom -5569.978838 kJ/mol
# Density = 2.101628 g / cm^3
# Si number density = 21.064220 Si / 1000 Ang^3
#
#
#
# Elastic Constant Matrix: (Units=GPa)
#
#
# Indices 1 2 3 4 5 6 
#
# 1 17.0994 -2.2914 31.8435 -14.8931 13.6353 14.4202
# 2 -2.2914 82.5896 18.2769 -28.4851 4.0224 -0.1683
# 3 31.8435 18.2769 127.8001 -4.2115 27.6593 -4.4673
# 4 -14.8931 -28.4851 -4.2115 52.0100 -4.7647 -3.2734
# 5 13.6353 4.0224 27.6593 -4.7647 51.3652 -10.9686
# 6 14.4202 -0.1683 -4.4673 -3.2734 -10.9686 29.2959
#
#
#
# Elastic Compliance Matrix: (Units=1/GPa)
#
#
# Indices 1 2 3 4 5 6 
#
# 1 -0.135609 -0.027092 0.031655 -0.042994 0.034032 0.079359
# 2 -0.027092 0.010026 0.004231 -0.000152 0.007726 0.016914
# 3 0.031655 0.004231 0.001761 0.009139 -0.012914 -0.019103
# 4 -0.042994 -0.000152 0.009139 0.010640 0.013653 0.028856
# 5 0.034032 0.007726 -0.012914 0.013653 0.015637 -0.011296
# 6 0.079359 0.016914 -0.019103 0.028856 -0.011296 -0.008749
#
#
# Mechanical properties :
#
#
# Convention : Reuss Voigt Hill
#
# Bulk Modulus (GPa) = -9.41318 35.90524 13.24603
# Shear Modulus (GPa) = -31.38858 38.51155 3.56149
#
# Velocity S-wave (km/s) = -3.86442 4.28049 1.30171
# Velocity P-wave (km/s) = 4.93864 6.44304 2.92597
#
# Compressibility (1/GPa) = -0.10623405
#
# Stress axis : x y z
#
# Youngs Moduli (GPa) = -7.37416 99.74079 567.99887
#
# Poissons Ratio (x) = 2.70218 -17.98021
# Poissons Ratio (y) = -0.19978 -2.40301
# Poissons Ratio (z) = 0.23343 -0.42197
#
# Static dielectric constant tensor:
#      x y z
#    x 1.734050 0.056800 0.022520 
#    y 0.056800 1.791650 0.046200 
#    z 0.022520 0.046200 1.717280 
# 
# From -- ./inp_files/184362.got.cif
#   From: 2010.05.17/outbox.ucp.g08.bks.cvg/sg2_93_cif.got.tgz:184362.got - 2010.06.11 11:32:03.
