data_PCOD9075819
_publ_section_title
;
Structure prediction by ZEFSAII (Michael W. Deem and Ramdas Pophale) SiO2 
 PCOD9075819
Probable space group: P -1
;
_chemical_formula_sum "Si O2"
_cell_formula_units_Z 16
_cell_length_a 15.423006
_cell_length_b 18.781107
_cell_length_c 7.292966
_cell_angle_alpha 55.600259
_cell_angle_beta 64.282374
_cell_angle_gamma 20.678512
_cell_volume 582.145377
_symmetry_space_group_name_H-M "P -1"
_symmetry_group_IT_number 2
_symmetry_cell_setting 'triclinic'
loop_
_space_group_symop_operation_xyz
x,y,z
-x,-y,-z
loop_
_atom_site_type_symbol
_atom_site_label
_atom_site_fract_x
_atom_site_fract_y
_atom_site_fract_z
Si Si1 0.355243 0.030006 0.110451
Si Si2 0.635423 0.741429 0.730391
Si Si3 0.792033 0.009704 0.810495
Si Si4 0.196768 0.802728 0.767320
Si Si5 0.230029 0.215011 0.289872
Si Si6 0.352731 0.501877 0.410025
Si Si7 0.836307 0.509874 0.546877
Si Si8 0.178633 0.996967 0.650416
O O1 0.238969 0.065905 0.004410
O O2 0.145204 0.230475 0.168201
O O3 0.592302 0.769587 0.325880
O O4 0.500000 0.000000 0.000000
O O5 0.731852 0.712834 0.864109
O O6 0.870467 0.517876 0.707418
O O7 0.497987 0.939488 0.476331
O O8 0.409913 0.856134 0.750308
O O9 0.822744 0.981821 0.598992
O O10 0.045636 0.842966 0.904894
O O11 0.550867 0.276162 0.679120
O O12 0.469742 0.573692 0.741814
O O13 0.213338 0.864612 0.812010
O O14 0.000000 0.000000 0.500000
O O15 0.050951 0.343551 0.439431
O O16 0.263002 0.504792 0.342636
O O17 0.103774 0.742141 0.396379
#
# Coordination Sequence:
#
# PCOD9075819 Si02
#       8
#     2   2   2   2   2   2   2   2
#     4  10  20  34  46  61  87 118 156 189 214 248
#     4  10  17  27  44  67  95 118 140 176 217 272
#     4   9  17  29  38  60  85 114 148 178 212 254
#     4   8  16  24  37  58  88 113 144 168 208 264
#     4  10  19  29  44  66  89 122 147 176 221 260
#     4   9  14  23  41  61  88 117 136 164 216 268
#     4  10  16  30  45  66  92 118 144 177 220 263
#     4  10  14  26  41  63  93 113 135 169 216 271
#
# _framework density 27.484544
#
# number of rings (size 3 to 8) (size 9 to 14) (size 15 to 20)
#    0.000    2.750    6.250    0.375    0.000    5.000 
#    0.000    0.000    0.000    0.000    0.000    0.875 
#    0.000    2.000    0.000    0.000    0.000    0.000 
#
# Total GULP energy -89328.753222 kJ/mol
# GULP energy per Si atom -5583.047076 kJ/mol
# Density = 2.742199 g / cm^3
# Si number density = 27.484544 Si / 1000 Ang^3
#
#
#
# Elastic Constant Matrix: (Units=GPa)
#
#
# Indices 1 2 3 4 5 6 
#
# 1 209.5620 64.2487 39.4345 10.8041 -46.6091 -8.2791
# 2 64.2487 200.3183 30.7103 26.8161 -15.5143 17.0706
# 3 39.4345 30.7103 74.3648 -3.1950 -15.3725 5.1003
# 4 10.8041 26.8161 -3.1950 32.9432 -5.4215 -4.7731
# 5 -46.6091 -15.5143 -15.3725 -5.4215 63.5982 -2.9293
# 6 -8.2791 17.0706 5.1003 -4.7731 -2.9293 50.0444
#
#
#
# Elastic Compliance Matrix: (Units=1/GPa)
#
#
# Indices 1 2 3 4 5 6 
#
# 1 0.006681 -0.001669 -0.002163 -0.000066 0.004058 0.002126
# 2 -0.001669 0.006823 -0.002120 -0.005759 -0.000699 -0.002978
# 3 -0.002163 -0.002120 0.016143 0.004242 0.002127 -0.000751
# 4 -0.000066 -0.005759 0.004242 0.036713 0.002941 0.005195
# 5 0.004058 -0.000699 0.002127 0.002941 0.019389 0.002109
# 6 0.002126 -0.002978 -0.000751 0.005195 0.002109 0.022045
#
#
# Mechanical properties :
#
#
# Convention : Reuss Voigt Hill
#
# Bulk Modulus (GPa) = 56.36420 83.67024 70.01722
# Shear Modulus (GPa) = 39.80482 52.64059 46.22271
#
# Velocity S-wave (km/s) = 3.80973 4.38114 4.10539
# Velocity P-wave (km/s) = 6.31698 7.49008 6.92840
#
# Compressibility (1/GPa) = 0.01774176
#
# Stress axis : x y z
#
# Youngs Moduli (GPa) = 149.68582 146.56446 61.94534
#
# Poissons Ratio (x) = 0.24463 0.13399
# Poissons Ratio (y) = 0.24984 0.13134
# Poissons Ratio (z) = 0.32379 0.31077
#
# Static dielectric constant tensor:
#      x y z
#    x 2.381530 -0.133120 0.092900 
#    y -0.133120 2.180430 -0.010820 
#    z 0.092900 -0.010820 2.406690 
# 
# From -- ./inp_files/456411.got.cif
#   From: 2010.05.17/outbox.cif.g08.bks.cpg/sg2_229_cif.got.tgz:456411.got - 2010.06.03 11:33:40.
