data_PCOD9075215
_publ_section_title
;
Structure prediction by ZEFSAII (Michael W. Deem and Ramdas Pophale) SiO2 
 PCOD9075215
Probable space group: P -1
;
_chemical_formula_sum "Si O2"
_cell_formula_units_Z 14
_cell_length_a 9.000000
_cell_length_b 9.000000
_cell_length_c 24.000000
_cell_angle_alpha 30.000000
_cell_angle_beta 140.000000
_cell_angle_gamma 130.000000
_cell_volume 623.501542
_symmetry_space_group_name_H-M "P -1"
_symmetry_group_IT_number 2
_symmetry_cell_setting 'triclinic'
loop_
_space_group_symop_operation_xyz
x,y,z
-x,-y,-z
loop_
_atom_site_type_symbol
_atom_site_label
_atom_site_fract_x
_atom_site_fract_y
_atom_site_fract_z
Si Si1 0.920711 0.222503 0.673216
Si Si2 0.562014 0.400433 0.139505
Si Si3 0.176096 0.724307 0.629731
Si Si4 0.601535 0.877459 0.626109
Si Si5 0.197185 0.757666 0.113058
Si Si6 0.369589 0.933971 0.840774
Si Si7 0.060943 0.197069 0.083876
O O1 0.002512 0.540820 0.603378
O O2 0.696756 0.151461 0.598417
O O3 0.917874 0.077160 0.780143
O O4 0.131103 0.065824 0.751385
O O5 0.712994 0.389355 0.242303
O O6 0.682762 0.245653 0.171160
O O7 0.320517 0.237876 0.124478
O O8 0.484753 0.727212 0.989695
O O9 0.399841 0.762056 0.644023
O O10 0.000000 0.000000 0.500000
O O11 0.794610 0.601709 0.762908
O O12 0.500000 0.000000 0.500000
O O13 0.437399 0.830126 0.186840
O O14 0.148534 0.815900 0.015120
O O15 0.000000 0.000000 0.000000
O O16 0.000000 0.500000 0.000000
#
# Coordination Sequence:
#
# PCOD9075215 Si02
#       7
#     2   2   2   2   2   2   2
#     4  12  26  48  76 105 141 191 240 301 367 427
#     4  11  23  44  67 110 144 180 239 296 359 432
#     4  12  29  51  73 103 144 196 248 295 359 440
#     4  12  29  49  74 107 150 193 246 300 363 436
#     4  12  24  44  72 113 146 189 242 302 362 427
#     4  11  24  40  76 108 143 185 234 300 364 427
#     4  12  21  41  73 103 146 181 233 301 364 421
#
# _framework density 22.453834000000001
#
# number of rings (size 3 to 8) (size 9 to 14) (size 15 to 20)
#    0.000    0.286    7.143    0.857    4.000    4.571 
#    0.000    0.000    0.000    0.000    0.000    0.000 
#    0.000    0.000    0.000    0.000    0.000    0.000 
#
# Total GULP energy -78022.024910 kJ/mol
# GULP energy per Si atom -5573.001779 kJ/mol
# Density = 2.240273 g / cm^3
# Si number density = 22.453834 Si / 1000 Ang^3
#
#
#
# Elastic Constant Matrix: (Units=GPa)
#
#
# Indices 1 2 3 4 5 6 
#
# 1 35.8420 15.2713 43.5446 -42.4771 -4.9653 -11.1462
# 2 15.2713 149.1854 31.5196 -9.8594 -15.6441 -5.6398
# 3 43.5446 31.5196 50.1763 3.2168 -0.9091 -26.4999
# 4 -42.4771 -9.8594 3.2168 -3.0119 -33.9422 -9.1039
# 5 -4.9653 -15.6441 -0.9091 -33.9422 16.3144 11.9093
# 6 -11.1462 -5.6398 -26.4999 -9.1039 11.9093 30.1777
#
#
#
# Elastic Compliance Matrix: (Units=1/GPa)
#
#
# Indices 1 2 3 4 5 6 
#
# 1 0.028947 -0.002895 -0.024704 -0.020375 -0.034864 -0.003931
# 2 -0.002895 0.008063 -0.006184 -0.004276 0.003086 -0.007501
# 3 -0.024704 -0.006184 0.072665 0.034366 0.021709 0.055329
# 4 -0.020375 -0.004276 0.034366 0.010073 -0.007867 0.027996
# 5 -0.034864 0.003086 0.021709 -0.007867 0.049559 -0.015168
# 6 -0.003931 -0.007501 0.055329 0.027996 -0.015168 0.093301
#
#
# Mechanical properties :
#
#
# Convention : Reuss Voigt Hill
#
# Bulk Modulus (GPa) = 23.74796 46.20829 34.97812
# Shear Modulus (GPa) = 14.52597 18.35392 16.43995
#
# Velocity S-wave (km/s) = 2.54623 2.86213 2.70879
# Velocity P-wave (km/s) = 4.38677 5.61661 5.03935
#
# Compressibility (1/GPa) = 0.04210888
#
# Stress axis : x y z
#
# Youngs Moduli (GPa) = 34.54560 124.01647 13.76180
#
# Poissons Ratio (x) = 0.35901 0.33997
# Poissons Ratio (y) = 0.10001 0.08511
# Poissons Ratio (z) = 0.85342 0.76695
#
# Static dielectric constant tensor:
#      x y z
#    x 1.729190 -0.424320 0.004590 
#    y -0.424320 0.260690 -0.120210 
#    z 0.004590 -0.120210 1.745690 
# 
# From -- ./inp_files/168192.got.cif
#   From: 2010.05.17/outbox.ucp.g08.bks.cvg/sg2_85_cif.got.tgz:168192.got - 2010.06.11 11:32:03.
