data_PCOD9075927
_publ_section_title
;
Structure prediction by ZEFSAII (Michael W. Deem and Ramdas Pophale) SiO2 
 PCOD9075927
Probable space group: P -1
;
_chemical_formula_sum "Si O2"
_cell_formula_units_Z 16
_cell_length_a 16.429976
_cell_length_b 8.817163
_cell_length_c 14.647691
_cell_angle_alpha 39.700496
_cell_angle_beta 36.229628
_cell_angle_gamma 53.644885
_cell_volume 798.917877
_symmetry_space_group_name_H-M "P -1"
_symmetry_group_IT_number 2
_symmetry_cell_setting 'triclinic'
loop_
_space_group_symop_operation_xyz
x,y,z
-x,-y,-z
loop_
_atom_site_type_symbol
_atom_site_label
_atom_site_fract_x
_atom_site_fract_y
_atom_site_fract_z
Si Si1 0.876047 0.938784 0.429522
Si Si2 0.831668 0.973267 0.655186
Si Si3 0.695854 0.383143 0.354532
Si Si4 0.140234 0.251426 0.085989
Si Si5 0.562630 0.263323 0.346985
Si Si6 0.882661 0.308425 0.995319
Si Si7 0.681100 0.454866 0.545540
Si Si8 0.091841 0.215131 0.717151
O O1 0.815726 0.865502 0.617482
O O2 0.800293 0.174228 0.362066
O O3 0.036428 0.034742 0.249236
O O4 0.865838 0.755718 0.439888
O O5 0.754571 0.216502 0.615596
O O6 0.781731 0.828080 0.857064
O O7 0.000000 0.000000 0.500000
O O8 0.584237 0.283671 0.427564
O O9 0.654967 0.430729 0.472373
O O10 0.766422 0.624378 0.134236
O O11 0.058087 0.468707 0.100808
O O12 0.717285 0.301837 0.149475
O O13 0.460560 0.465510 0.319165
O O14 0.500000 0.000000 0.500000
O O15 0.922178 0.066204 0.119317
O O16 0.951165 0.320476 0.828452
O O17 0.792174 0.667870 0.374802
#
# Coordination Sequence:
#
# PCOD9075927 Si02
#       8
#     2   2   2   2   2   2   2   2
#     4  10  18  32  57  84 111 148 188 235 285 325
#     4   9  20  37  55  81 113 152 187 234 277 336
#     4  10  20  33  56  85 109 148 189 233 279 334
#     4  10  19  35  54  79 118 143 186 233 284 332
#     4  11  20  37  54  86 118 148 183 237 281 336
#     4  10  21  33  53  83 116 141 184 231 287 316
#     4  11  22  37  60  83 117 151 190 227 284 339
#     4  11  20  33  56  87 112 146 186 236 284 324
#
# _framework density 20.027090999999999
#
# number of rings (size 3 to 8) (size 9 to 14) (size 15 to 20)
#    0.000    1.750    3.750    3.000    3.500    0.000 
#    0.000    8.125    0.000    0.000    0.000   21.875 
#    0.000    0.000    0.000    0.000    0.000    0.000 
#
# Total GULP energy -89159.115553 kJ/mol
# GULP energy per Si atom -5572.444722 kJ/mol
# Density = 1.998151 g / cm^3
# Si number density = 20.027091 Si / 1000 Ang^3
#
#
#
# Elastic Constant Matrix: (Units=GPa)
#
#
# Indices 1 2 3 4 5 6 
#
# 1 79.4054 28.9526 10.4775 1.1778 -2.8505 4.3432
# 2 28.9526 91.7555 12.0682 25.5181 -2.1102 -1.9593
# 3 10.4775 12.0682 22.1478 7.7127 -0.3329 -11.4873
# 4 1.1778 25.5181 7.7127 31.6212 -1.2279 -2.5533
# 5 -2.8505 -2.1102 -0.3329 -1.2279 28.2992 -7.7269
# 6 4.3432 -1.9593 -11.4873 -2.5533 -7.7269 33.1557
#
#
#
# Elastic Compliance Matrix: (Units=1/GPa)
#
#
# Indices 1 2 3 4 5 6 
#
# 1 0.016034 -0.005543 -0.009260 0.005710 -0.000084 -0.005216
# 2 -0.005543 0.016390 -0.001882 -0.012547 0.000126 0.000105
# 3 -0.009260 -0.001882 0.068015 -0.012463 0.006044 0.025115
# 4 0.005710 -0.012547 -0.012463 0.044432 0.000822 -0.002194
# 5 -0.000084 0.000126 0.006044 0.000822 0.038488 0.011145
# 6 -0.005216 0.000105 0.025115 -0.002194 0.011145 0.041980
#
#
# Mechanical properties :
#
#
# Convention : Reuss Voigt Hill
#
# Bulk Modulus (GPa) = 14.91019 32.92281 23.91650
# Shear Modulus (GPa) = 17.78947 28.06924 22.92936
#
# Velocity S-wave (km/s) = 2.98362 3.74781 3.38733
# Velocity P-wave (km/s) = 4.39665 5.93320 5.22175
#
# Compressibility (1/GPa) = 0.06706823
#
# Stress axis : x y z
#
# Youngs Moduli (GPa) = 62.36730 61.01350 14.70266
#
# Poissons Ratio (x) = 0.33818 0.13615
# Poissons Ratio (y) = 0.34569 0.02768
# Poissons Ratio (z) = 0.57752 0.11486
#
# Static dielectric constant tensor:
#      x y z
#    x 1.751580 -0.003370 0.015930 
#    y -0.003370 1.761300 0.016780 
#    z 0.015930 0.016780 1.736420 
# 
# From -- ./inp_files/470075.got.cif
#   From: 2010.05.17/outbox.cif.g08.bks.cpg/sg2_236_cif.got.tgz:470075.got - 2010.06.03 11:33:40.
