data_PCOD9075666
_publ_section_title
;
Structure prediction by ZEFSAII (Michael W. Deem and Ramdas Pophale) SiO2 
 PCOD9075666
Probable space group: P -1
;
_chemical_formula_sum "Si O2"
_cell_formula_units_Z 13
_cell_length_a 21.000000
_cell_length_b 12.000000
_cell_length_c 18.000000
_cell_angle_alpha 30.000000
_cell_angle_beta 160.000000
_cell_angle_gamma 160.000000
_cell_volume 524.980204
_symmetry_space_group_name_H-M "P -1"
_symmetry_group_IT_number 2
_symmetry_cell_setting 'triclinic'
loop_
_space_group_symop_operation_xyz
x,y,z
-x,-y,-z
loop_
_atom_site_type_symbol
_atom_site_label
_atom_site_fract_x
_atom_site_fract_y
_atom_site_fract_z
Si Si1 0.409348 0.097618 0.903435
Si Si2 0.000000 0.000000 0.500000
Si Si3 0.996327 0.172975 0.081077
Si Si4 0.004749 0.881451 0.398781
Si Si5 0.479008 0.907661 0.225266
Si Si6 0.285796 0.230305 0.222336
Si Si7 0.440960 0.891138 0.632321
O O1 0.487158 0.412218 0.776602
O O2 0.083051 0.811585 0.705374
O O3 0.500000 0.000000 0.000000
O O4 0.515900 0.151878 0.070588
O O5 0.996319 0.983301 0.411539
O O6 0.179642 0.540343 0.097532
O O7 0.194732 0.225730 0.208353
O O8 0.910621 0.954787 0.185386
O O9 0.708533 0.000781 0.832047
O O10 0.817512 0.499301 0.421987
O O11 0.303835 0.071397 0.585933
O O12 0.517349 0.996638 0.301036
O O13 0.385335 0.067611 0.425945
O O14 0.000000 0.000000 0.000000
#
# Coordination Sequence:
#
# PCOD9075666 Si02
#       7
#     2   1   2   2   2   2   2
#     4  12  26  47  73 109 151 197 249 312 377 448
#     4  12  28  44  78 106 152 196 258 302 384 444
#     4  12  27  49  78 114 152 203 266 307 384 461
#     4  12  26  50  80 111 156 204 256 317 384 455
#     4  12  25  50  79 110 154 201 257 314 385 449
#     4  12  29  47  76 112 159 198 251 321 383 448
#     4  12  29  49  80 112 154 203 258 317 383 459
#
# _framework density 24.762839
#
# number of rings (size 3 to 8) (size 9 to 14) (size 15 to 20)
#    0.000    0.000    4.615    3.692    8.615    0.615 
#    0.000    0.000    0.000    0.000    0.000    0.000 
#    0.000    0.000    0.000    0.000    0.000    0.000 
#
# Total GULP energy -72518.369558 kJ/mol
# GULP energy per Si atom -5578.336120 kJ/mol
# Density = 2.470648 g / cm^3
# Si number density = 24.762839 Si / 1000 Ang^3
#
#
#
# Elastic Constant Matrix: (Units=GPa)
#
#
# Indices 1 2 3 4 5 6 
#
# 1 63.5322 -19.0385 -6.1425 -20.7874 -10.6199 -3.7514
# 2 -19.0385 113.7062 13.9655 -23.4867 -25.8242 11.7915
# 3 -6.1425 13.9655 128.8991 -34.4228 -3.0237 1.2619
# 4 -20.7874 -23.4867 -34.4228 37.4032 5.3064 -11.9022
# 5 -10.6199 -25.8242 -3.0237 5.3064 43.2766 -3.6555
# 6 -3.7514 11.7915 1.2619 -11.9022 -3.6555 23.6505
#
#
#
# Elastic Compliance Matrix: (Units=1/GPa)
#
#
# Indices 1 2 3 4 5 6 
#
# 1 0.050240 0.020987 0.017530 0.064542 0.020890 0.032280
# 2 0.020987 0.020363 0.007959 0.033460 0.014757 0.011872
# 3 0.017530 0.007959 0.016966 0.034534 0.007390 0.016429
# 4 0.064542 0.033460 0.034534 0.131244 0.027361 0.061991
# 5 0.020890 0.014757 0.007390 0.027361 0.035452 0.014811
# 6 0.032280 0.011872 0.016429 0.061991 0.014811 0.074094
#
#
# Mechanical properties :
#
#
# Convention : Reuss Voigt Hill
#
# Bulk Modulus (GPa) = 5.53946 31.52295 18.53121
# Shear Modulus (GPa) = 16.91597 42.02292 29.46945
#
# Velocity S-wave (km/s) = 2.61649 4.12395 3.45348
# Velocity P-wave (km/s) = 3.37193 5.95261 4.83753
#
# Compressibility (1/GPa) = 0.18052289
#
# Stress axis : x y z
#
# Youngs Moduli (GPa) = 19.90448 49.10899 58.94142
#
# Poissons Ratio (x) = -1.03067 -1.03326
# Poissons Ratio (y) = -0.41774 -0.46914
# Poissons Ratio (z) = -0.34893 -0.39088
#
# Static dielectric constant tensor:
#      x y z
#    x 1.902120 -0.014930 -0.053810 
#    y -0.014930 1.905590 -0.137150 
#    z -0.053810 -0.137150 2.023440 
# 
# From -- ./inp_files/472377.got.cif
#   From: 2010.05.17/outbox.ucp.g08.bks.cvg/sg2_237_cif.got.tgz:472377.got - 2010.06.11 11:32:03.
