data_PCOD9075279
_publ_section_title
;
Structure prediction by ZEFSAII (Michael W. Deem and Ramdas Pophale) SiO2 
 PCOD9075279
Probable space group: P -1
;
_chemical_formula_sum "Si O2"
_cell_formula_units_Z 16
_cell_length_a 15.000000
_cell_length_b 9.000000
_cell_length_c 9.000000
_cell_angle_alpha 70.000000
_cell_angle_beta 70.000000
_cell_angle_gamma 40.000000
_cell_volume 727.419504
_symmetry_space_group_name_H-M "P -1"
_symmetry_group_IT_number 2
_symmetry_cell_setting 'triclinic'
loop_
_space_group_symop_operation_xyz
x,y,z
-x,-y,-z
loop_
_atom_site_type_symbol
_atom_site_label
_atom_site_fract_x
_atom_site_fract_y
_atom_site_fract_z
Si Si1 0.118735 0.235048 0.597778
Si Si2 0.677332 0.620125 0.354324
Si Si3 0.110214 0.245721 0.957914
Si Si4 0.561588 0.254562 0.365699
Si Si5 0.932819 0.226428 0.549154
Si Si6 0.572622 0.067856 0.119886
Si Si7 0.875733 0.122377 0.911371
Si Si8 0.368996 0.490514 0.866498
O O1 0.093814 0.259710 0.782113
O O2 0.000000 0.500000 0.500000
O O3 0.068828 0.147034 0.562791
O O4 0.291028 0.010512 0.572753
O O5 0.567748 0.646312 0.497108
O O6 0.816779 0.462814 0.433420
O O7 0.717821 0.494371 0.216186
O O8 0.585654 0.884190 0.262713
O O9 0.266490 0.105995 0.957991
O O10 0.000000 0.500000 0.000000
O O11 0.095474 0.089819 0.085748
O O12 0.538475 0.227727 0.218720
O O13 0.566585 0.438632 0.282925
O O14 0.862702 0.252485 0.733523
O O15 0.000000 0.000000 0.500000
O O16 0.472244 0.241463 0.980229
O O17 0.734065 0.308065 0.022681
O O18 0.000000 0.000000 0.000000
#
# Coordination Sequence:
#
# PCOD9075279 Si02
#       8
#     2   2   2   2   2   2   2   2
#     4  11  24  45  69  99 145 181 225 292 355 413
#     4  12  27  44  70 106 143 184 241 288 349 425
#     4  11  26  45  70 104 138 181 237 289 353 420
#     4  11  23  47  68 101 140 186 236 288 352 419
#     4  12  26  43  72 104 140 185 233 289 351 418
#     4  11  25  45  71  99 140 186 234 293 350 416
#     4  12  24  46  73 101 138 188 233 291 350 417
#     4  12  25  46  71 102 143 183 239 291 349 417
#
# _framework density 21.995560999999999
#
# number of rings (size 3 to 8) (size 9 to 14) (size 15 to 20)
#    0.000    0.500    3.750    5.250    7.000    2.000 
#    0.000    0.000    0.000    0.000    0.000    0.000 
#    0.000    0.000    0.000    0.000    0.000    0.000 
#
# Total GULP energy -89258.062700 kJ/mol
# GULP energy per Si atom -5578.628919 kJ/mol
# Density = 2.194550 g / cm^3
# Si number density = 21.995561 Si / 1000 Ang^3
#
#
#
# Elastic Constant Matrix: (Units=GPa)
#
#
# Indices 1 2 3 4 5 6 
#
# 1 56.6694 6.1647 25.3200 1.9777 16.7640 -17.1059
# 2 6.1647 82.3251 11.1793 -13.2832 14.7208 -14.6502
# 3 25.3200 11.1793 57.9932 -29.9146 20.2322 -13.4457
# 4 1.9777 -13.2832 -29.9146 52.6874 -0.2901 12.8745
# 5 16.7640 14.7208 20.2322 -0.2901 36.8917 -9.4434
# 6 -17.1059 -14.6502 -13.4457 12.8745 -9.4434 32.1254
#
#
#
# Elastic Compliance Matrix: (Units=1/GPa)
#
#
# Indices 1 2 3 4 5 6 
#
# 1 0.030416 0.000545 -0.016918 -0.014217 -0.001100 0.014738
# 2 0.000545 0.014249 0.001891 0.003523 -0.005800 0.004463
# 3 -0.016918 0.001891 0.043024 0.026968 -0.018050 -0.006253
# 4 -0.014217 0.003523 0.026968 0.039109 -0.013060 -0.014189
# 5 -0.001100 -0.005800 -0.018050 -0.013060 0.041412 0.006621
# 6 0.014738 0.004463 -0.006253 -0.014189 0.006621 0.046026
#
#
# Mechanical properties :
#
#
# Convention : Reuss Voigt Hill
#
# Bulk Modulus (GPa) = 17.02834 31.36843 24.19838
# Shear Modulus (GPa) = 19.02768 34.62914 26.82841
#
# Velocity S-wave (km/s) = 2.94440 3.97214 3.49624
# Velocity P-wave (km/s) = 4.39520 5.94385 5.22720
#
# Compressibility (1/GPa) = 0.05872562
#
# Stress axis : x y z
#
# Youngs Moduli (GPa) = 32.87741 70.17938 23.24295
#
# Poissons Ratio (x) = -0.03826 0.39322
# Poissons Ratio (y) = -0.01792 -0.04395
# Poissons Ratio (z) = 0.55621 -0.13269
#
# Static dielectric constant tensor:
#      x y z
#    x 1.939980 0.076520 -0.092100 
#    y 0.076520 1.743580 -0.129910 
#    z -0.092100 -0.129910 1.643670 
# 
# From -- ./inp_files/297832.got.cif
#   From: 2010.05.17/outbox.ucp.g08.bks.cvg/sg2_149_cif.got.tgz:297832.got - 2010.06.11 11:32:03.
