data_PCOD9075816
_publ_section_title
;
Structure prediction by ZEFSAII (Michael W. Deem and Ramdas Pophale) SiO2 
 PCOD9075816
Probable space group: P -1
;
_chemical_formula_sum "Si O2"
_cell_formula_units_Z 14
_cell_length_a 5.565643
_cell_length_b 21.021729
_cell_length_c 7.753643
_cell_angle_alpha 138.004780
_cell_angle_beta 117.943803
_cell_angle_gamma 73.741987
_cell_volume 532.600906
_symmetry_space_group_name_H-M "P -1"
_symmetry_group_IT_number 2
_symmetry_cell_setting 'triclinic'
loop_
_space_group_symop_operation_xyz
x,y,z
-x,-y,-z
loop_
_atom_site_type_symbol
_atom_site_label
_atom_site_fract_x
_atom_site_fract_y
_atom_site_fract_z
Si Si1 0.174040 0.371006 0.602620
Si Si2 0.094373 0.961227 0.269287
Si Si3 0.426759 0.143453 0.635715
Si Si4 0.563131 0.641458 0.948939
Si Si5 0.464467 0.110381 0.198361
Si Si6 0.922572 0.418741 0.120048
Si Si7 0.672688 0.288585 0.460386
O O1 0.316434 0.365393 0.828403
O O2 0.161720 0.480807 0.771750
O O3 0.369641 0.322150 0.438330
O O4 0.866996 0.321413 0.433536
O O5 0.348352 0.902534 0.270194
O O6 0.175663 0.058759 0.385650
O O7 0.000000 0.000000 0.500000
O O8 0.850667 0.892412 0.965581
O O9 0.379137 0.249906 0.883206
O O10 0.524800 0.153860 0.493153
O O11 0.242421 0.609761 0.817533
O O12 0.749672 0.580456 0.771905
O O13 0.641946 0.175386 0.253419
O O14 0.500000 0.000000 0.000000
O O15 0.820042 0.340533 0.782206
#
# Coordination Sequence:
#
# PCOD9075816 Si02
#       7
#     2   2   2   2   2   2   2
#     4  10  18  32  56  92 132 159 215 274 322 391
#     4  11  26  43  64  93 130 173 230 274 330 388
#     4  11  24  44  63  94 129 176 223 276 324 401
#     4  10  19  31  59  85 128 163 213 263 327 389
#     4  12  24  41  69  94 133 178 221 278 330 393
#     4  10  18  32  55  95 128 162 213 273 325 389
#     4  10  20  33  54  92 125 168 213 262 329 387
#
# _framework density 26.286099
#
# number of rings (size 3 to 8) (size 9 to 14) (size 15 to 20)
#    0.000    1.429    4.286    4.714    6.000    1.143 
#    0.000    0.000    0.000    0.000    0.000   11.000 
#    0.000    0.000    0.000    0.000    0.000    0.000 
#
# Total GULP energy -78459.981602 kJ/mol
# GULP energy per Si atom -5604.284400 kJ/mol
# Density = 2.622627 g / cm^3
# Si number density = 26.286099 Si / 1000 Ang^3
#
#
#
# Elastic Constant Matrix: (Units=GPa)
#
#
# Indices 1 2 3 4 5 6 
#
# 1 187.5152 52.0943 24.3442 21.0733 11.6322 6.8338
# 2 52.0943 124.6063 59.6881 29.1005 12.0084 18.9502
# 3 24.3442 59.6881 78.7479 19.4410 6.0037 -3.0524
# 4 21.0733 29.1005 19.4410 47.4818 14.3319 -1.1340
# 5 11.6322 12.0084 6.0037 14.3319 42.7939 12.4458
# 6 6.8338 18.9502 -3.0524 -1.1340 12.4458 42.3301
#
#
#
# Elastic Compliance Matrix: (Units=1/GPa)
#
#
# Indices 1 2 3 4 5 6 
#
# 1 0.006127 -0.002402 0.000273 -0.001130 -0.000736 0.000292
# 2 -0.002402 0.016723 -0.011070 -0.005404 0.001817 -0.008576
# 3 0.000273 -0.011070 0.021791 -0.001651 -0.001470 0.006871
# 4 -0.001130 -0.005404 -0.001651 0.028473 -0.009212 0.005954
# 5 -0.000736 0.001817 -0.001470 -0.009212 0.029146 -0.009617
# 6 0.000292 -0.008576 0.006871 0.005954 -0.009617 0.030899
#
#
# Mechanical properties :
#
#
# Convention : Reuss Voigt Hill
#
# Bulk Modulus (GPa) = 54.81513 73.68029 64.24771
# Shear Modulus (GPa) = 30.18631 43.50402 36.84516
#
# Velocity S-wave (km/s) = 3.39245 4.07261 3.74799
# Velocity P-wave (km/s) = 6.02025 7.08561 6.57454
#
# Compressibility (1/GPa) = 0.01824314
#
# Stress axis : x y z
#
# Youngs Moduli (GPa) = 163.22015 59.79702 45.89035
#
# Poissons Ratio (x) = 0.14361 -0.01251
# Poissons Ratio (y) = 0.39199 0.50801
# Poissons Ratio (z) = -0.04451 0.66195
#
# Static dielectric constant tensor:
#      x y z
#    x 2.114280 -0.030830 0.024470 
#    y -0.030830 2.017430 -0.014680 
#    z 0.024470 -0.014680 2.008020 
# 
# From -- ./inp_files/37688.got.cif
#   From: 2010.05.17/outbox.cif.g08.bks.cpg/sg2_19_cif.got.tgz:37688.got - 2010.06.03 11:33:40.
