data_PCOD9075340
_publ_section_title
;
Structure prediction by ZEFSAII (Michael W. Deem and Ramdas Pophale) SiO2 
 PCOD9075340
Probable space group: P -1
;
_chemical_formula_sum "Si O2"
_cell_formula_units_Z 16
_cell_length_a 15.000000
_cell_length_b 12.000000
_cell_length_c 6.000000
_cell_angle_alpha 80.000000
_cell_angle_beta 100.000000
_cell_angle_gamma 50.000000
_cell_volume 754.263737
_symmetry_space_group_name_H-M "P -1"
_symmetry_group_IT_number 2
_symmetry_cell_setting 'triclinic'
loop_
_space_group_symop_operation_xyz
x,y,z
-x,-y,-z
loop_
_atom_site_type_symbol
_atom_site_label
_atom_site_fract_x
_atom_site_fract_y
_atom_site_fract_z
Si Si1 0.491273 0.831327 0.925246
Si Si2 0.927036 0.179649 0.939573
Si Si3 0.259226 0.996640 0.471485
Si Si4 0.307194 0.731059 0.334075
Si Si5 0.670200 0.878274 0.894814
Si Si6 0.065399 0.467379 0.784287
Si Si7 0.547173 0.544623 0.194429
Si Si8 0.983985 0.236638 0.437714
O O1 0.384814 0.868430 0.711657
O O2 0.578549 0.849088 0.836237
O O3 0.571545 0.653486 0.101281
O O4 0.410766 0.967930 0.032767
O O5 0.782301 0.267020 0.856499
O O6 0.950839 0.226005 0.688181
O O7 0.958352 0.192988 0.203056
O O8 0.000000 0.000000 0.000000
O O9 0.246070 0.900719 0.334442
O O10 0.288800 0.084580 0.314771
O O11 0.136581 0.115457 0.531222
O O12 0.435147 0.649943 0.291013
O O13 0.337499 0.621841 0.589790
O O14 0.802824 0.714616 0.098999
O O15 0.079837 0.589132 0.717038
O O16 0.000000 0.500000 0.500000
O O17 0.000000 0.500000 0.000000
O O18 0.500000 0.500000 0.000000
#
# Coordination Sequence:
#
# PCOD9075340 Si02
#       8
#     2   2   2   2   2   2   2   2
#     4  11  25  44  74 101 142 186 246 304 366 430
#     4  12  28  47  73 112 147 190 248 303 371 440
#     4  12  23  45  73  99 143 186 245 296 369 447
#     4  11  26  42  68 101 144 186 238 297 366 442
#     4  11  26  46  68 109 140 190 247 306 363 437
#     4  12  26  49  75 108 146 195 251 301 371 443
#     4  11  24  44  69 101 136 187 238 296 366 437
#     4  12  28  46  76 110 148 196 241 310 372 442
#
# _framework density 21.212738999999999
#
# number of rings (size 3 to 8) (size 9 to 14) (size 15 to 20)
#    0.000    0.500    5.000    2.250    7.000    0.000 
#    0.000    0.000    0.000    0.000    0.000    0.000 
#    0.000    0.000    0.000    0.000    0.000    0.000 
#
# Total GULP energy -89157.696785 kJ/mol
# GULP energy per Si atom -5572.356049 kJ/mol
# Density = 2.116446 g / cm^3
# Si number density = 21.212739 Si / 1000 Ang^3
#
#
#
# Elastic Constant Matrix: (Units=GPa)
#
#
# Indices 1 2 3 4 5 6 
#
# 1 92.6537 -1.2503 13.5021 -2.7751 -10.6448 7.0630
# 2 -1.2503 58.7356 -15.9885 -2.0179 -5.4629 26.6918
# 3 13.5021 -15.9885 74.7298 0.8473 -2.2901 14.6834
# 4 -2.7751 -2.0179 0.8473 42.6527 6.6622 -3.8447
# 5 -10.6448 -5.4629 -2.2901 6.6622 47.9157 -4.9912
# 6 7.0630 26.6918 14.6834 -3.8447 -4.9912 38.7804
#
#
#
# Elastic Compliance Matrix: (Units=1/GPa)
#
#
# Indices 1 2 3 4 5 6 
#
# 1 0.011433 0.000913 -0.001441 0.000284 0.002344 -0.001835
# 2 0.000913 0.033030 0.012375 -0.001396 0.001892 -0.027481
# 3 -0.001441 0.012375 0.019401 -0.001396 0.000580 -0.015665
# 4 0.000284 -0.001396 -0.001396 0.024230 -0.003174 0.003432
# 5 0.002344 0.001892 0.000580 -0.003174 0.022137 0.000586
# 6 -0.001835 -0.027481 -0.015665 0.003432 0.000586 0.051381
#
#
# Mechanical properties :
#
#
# Convention : Reuss Voigt Hill
#
# Bulk Modulus (GPa) = 11.42115 24.29399 17.85757
# Shear Modulus (GPa) = 29.92131 41.19348 35.55739
#
# Velocity S-wave (km/s) = 3.75978 4.41150 4.09862
# Velocity P-wave (km/s) = 4.92379 6.11767 5.55291
#
# Compressibility (1/GPa) = 0.08755687
#
# Stress axis : x y z
#
# Youngs Moduli (GPa) = 87.46648 30.27573 51.54342
#
# Poissons Ratio (x) = -0.02763 0.07429
# Poissons Ratio (y) = -0.07983 -0.63786
# Poissons Ratio (z) = 0.12607 -0.37467
#
# Static dielectric constant tensor:
#      x y z
#    x 1.815260 0.004160 0.042010 
#    y 0.004160 1.768620 0.001510 
#    z 0.042010 0.001510 1.855900 
# 
# From -- ./inp_files/70151.got.cif
#   From: 2010.05.17/outbox.ucp.g08.bks.cvg/sg2_36_cif.got.tgz:70151.got - 2010.06.11 11:32:03.
