data_PCOD9075818
_publ_section_title
;
Structure prediction by ZEFSAII (Michael W. Deem and Ramdas Pophale) SiO2 
 PCOD9075818
Probable space group: P -1
;
_chemical_formula_sum "Si O2"
_cell_formula_units_Z 14
_cell_length_a 9.601146
_cell_length_b 7.837573
_cell_length_c 11.658806
_cell_angle_alpha 114.050203
_cell_angle_beta 107.166563
_cell_angle_gamma 118.050405
_cell_volume 563.496646
_symmetry_space_group_name_H-M "P -1"
_symmetry_group_IT_number 2
_symmetry_cell_setting 'triclinic'
loop_
_space_group_symop_operation_xyz
x,y,z
-x,-y,-z
loop_
_atom_site_type_symbol
_atom_site_label
_atom_site_fract_x
_atom_site_fract_y
_atom_site_fract_z
Si Si1 0.086894 0.837991 0.048155
Si Si2 0.275560 0.393983 0.242213
Si Si3 0.355839 0.753898 0.000149
Si Si4 0.756609 0.223240 0.297034
Si Si5 0.580612 0.761003 0.242645
Si Si6 0.080238 0.219544 0.753716
Si Si7 0.153945 0.334520 0.446761
O O1 0.006386 0.809562 0.148463
O O2 0.201583 0.123899 0.115464
O O3 0.249032 0.819967 0.066303
O O4 0.899102 0.634099 0.865082
O O5 0.482952 0.615675 0.295869
O O6 0.278357 0.412307 0.383882
O O7 0.176457 0.502247 0.815169
O O8 0.406103 0.633612 0.072248
O O9 0.589825 0.016107 0.107768
O O10 0.751997 0.437179 0.381077
O O11 0.961323 0.291345 0.346035
O O12 0.680282 0.051966 0.347989
O O13 0.736016 0.756225 0.224056
O O14 0.910235 0.922966 0.588738
#
# Coordination Sequence:
#
# PCOD9075818 Si02
#       7
#     2   2   2   2   2   2   2
#     4  10  20  33  51  78 112 133 170 214 266 300
#     4  10  20  31  51  78 110 134 166 218 269 299
#     4  10  19  32  57  80 101 133 183 214 243 309
#     4   8  18  34  56  73 104 137 181 203 249 318
#     4   9  19  32  55  76 106 133 178 211 254 304
#     4  10  18  32  56  74 103 141 175 204 251 319
#     4   9  18  34  53  79 101 142 170 210 256 313
#
# _framework density 24.844868000000002
#
# number of rings (size 3 to 8) (size 9 to 14) (size 15 to 20)
#    0.857    1.714    1.429    0.857    0.000    0.571 
#    0.000    5.714    0.000    1.714    0.000    7.000 
#    0.000    0.000    0.000    0.000    0.000    0.000 
#
# Total GULP energy -77941.778513 kJ/mol
# GULP energy per Si atom -5567.269894 kJ/mol
# Density = 2.478832 g / cm^3
# Si number density = 24.844868 Si / 1000 Ang^3
#
#
#
# Elastic Constant Matrix: (Units=GPa)
#
#
# Indices 1 2 3 4 5 6 
#
# 1 126.8288 79.6503 5.6676 6.5240 -2.0585 30.9333
# 2 79.6503 209.4012 26.8461 31.9328 -18.1170 72.2684
# 3 5.6676 26.8461 73.2620 20.3782 -14.6707 0.5831
# 4 6.5240 31.9328 20.3782 43.9214 -4.8442 0.2412
# 5 -2.0585 -18.1170 -14.6707 -4.8442 30.3609 -0.1543
# 6 30.9333 72.2684 0.5831 0.2412 -0.1543 43.2005
#
#
#
# Elastic Compliance Matrix: (Units=1/GPa)
#
#
# Indices 1 2 3 4 5 6 
#
# 1 0.010534 -0.004069 0.000044 0.001211 -0.001503 -0.000749
# 2 -0.004069 0.018675 -0.001550 -0.011196 0.008189 -0.028215
# 3 0.000044 -0.001550 0.017194 -0.006163 0.006415 0.002386
# 4 0.001211 -0.011196 -0.006163 0.033025 -0.004217 0.017746
# 5 -0.001503 0.008189 0.006415 -0.004217 0.040085 -0.012544
# 6 -0.000749 -0.028215 0.002386 0.017746 -0.012544 0.070708
#
#
# Mechanical properties :
#
#
# Convention : Reuss Voigt Hill
#
# Bulk Modulus (GPa) = 28.36528 70.42446 49.39487
# Shear Modulus (GPa) = 23.46074 43.31842 33.38958
#
# Velocity S-wave (km/s) = 3.07626 4.18012 3.66993
# Velocity P-wave (km/s) = 4.90506 7.19063 6.15486
#
# Compressibility (1/GPa) = 0.03525437
#
# Stress axis : x y z
#
# Youngs Moduli (GPa) = 94.93211 53.54657 58.15969
#
# Poissons Ratio (x) = 0.21786 -0.00256
# Poissons Ratio (y) = 0.38624 0.09014
# Poissons Ratio (z) = -0.00419 0.08299
#
# Static dielectric constant tensor:
#      x y z
#    x 1.895270 -0.015360 0.058280 
#    y -0.015360 2.128480 0.028770 
#    z 0.058280 0.028770 2.046260 
# 
# From -- ./inp_files/495735.got.cif
#   From: 2010.05.17/outbox.cif.g08.bks.cpg/sg2_248_cif.got.tgz:495735.got - 2010.06.03 11:33:40.
