data_PCOD9075719
_publ_section_title
;
Structure prediction by ZEFSAII (Michael W. Deem and Ramdas Pophale) SiO2 
 PCOD9075719
Probable space group: P -1
;
_chemical_formula_sum "Si O2"
_cell_formula_units_Z 15
_cell_length_a 10.458798
_cell_length_b 7.479270
_cell_length_c 9.718886
_cell_angle_alpha 118.929242
_cell_angle_beta 64.740145
_cell_angle_gamma 107.184861
_cell_volume 597.943631
_symmetry_space_group_name_H-M "P -1"
_symmetry_group_IT_number 2
_symmetry_cell_setting 'triclinic'
loop_
_space_group_symop_operation_xyz
x,y,z
-x,-y,-z
loop_
_atom_site_type_symbol
_atom_site_label
_atom_site_fract_x
_atom_site_fract_y
_atom_site_fract_z
Si Si1 0.441407 0.330379 0.101519
Si Si2 0.000000 0.000000 0.500000
Si Si3 0.128566 0.676012 0.980685
Si Si4 0.297226 0.675798 0.183510
Si Si5 0.852348 0.358954 0.484604
Si Si6 0.706205 0.733932 0.598111
Si Si7 0.666754 0.623993 0.278389
Si Si8 0.086779 0.057167 0.795366
O O1 0.316889 0.439280 0.125734
O O2 0.381806 0.193009 0.204949
O O3 0.538442 0.516488 0.206413
O O4 0.542814 0.243414 0.909358
O O5 0.954196 0.912109 0.334316
O O6 0.116331 0.822112 0.697958
O O7 0.206458 0.705131 0.102188
O O8 0.051233 0.869376 0.039356
O O9 0.240802 0.565027 0.799606
O O10 0.000000 0.500000 0.000000
O O11 0.210547 0.745626 0.381371
O O12 0.740745 0.504510 0.535750
O O13 0.000000 0.500000 0.500000
O O14 0.633463 0.724396 0.477650
O O15 0.857906 0.865004 0.577302
O O16 0.767461 0.789568 0.203578
#
# Coordination Sequence:
#
# PCOD9075719 Si02
#       8
#     2   1   2   2   2   2   2   2
#     4   9  18  37  60  86 117 165 197 238 294 353
#     4  10  18  32  54  86 114 148 194 244 296 340
#     4   9  18  32  57  84 122 157 189 239 302 346
#     4   9  19  34  58  88 116 157 200 238 292 353
#     4  11  21  34  57  91 121 152 195 244 300 351
#     4  10  20  34  59  89 118 156 197 246 295 353
#     4   9  19  35  60  85 119 159 197 240 293 351
#     4  10  19  33  55  87 119 155 193 242 298 349
#
# _framework density 25.085977
#
# number of rings (size 3 to 8) (size 9 to 14) (size 15 to 20)
#    0.000    2.400    1.333    1.200    3.733    0.000 
#    0.000    3.333    0.000   16.000    0.000    0.000 
#    0.000    0.000    0.000    0.000    0.000    0.000 
#
# Total GULP energy -83500.988924 kJ/mol
# GULP energy per Si atom -5566.732595 kJ/mol
# Density = 2.502888 g / cm^3
# Si number density = 25.085977 Si / 1000 Ang^3
#
#
#
# Elastic Constant Matrix: (Units=GPa)
#
#
# Indices 1 2 3 4 5 6 
#
# 1 61.3199 26.0875 11.2024 1.3199 -4.6808 8.2491
# 2 26.0875 77.5728 41.5358 15.0260 -6.2471 2.6765
# 3 11.2024 41.5358 152.2967 -29.0704 -12.7090 3.0070
# 4 1.3199 15.0260 -29.0704 45.8205 -6.5853 -7.3270
# 5 -4.6808 -6.2471 -12.7090 -6.5853 34.1681 0.3422
# 6 8.2491 2.6765 3.0070 -7.3270 0.3422 35.1761
#
#
#
# Elastic Compliance Matrix: (Units=1/GPa)
#
#
# Indices 1 2 3 4 5 6 
#
# 1 0.019917 -0.007598 0.001361 0.002529 0.002370 -0.003705
# 2 -0.007598 0.022129 -0.008092 -0.012822 -0.002458 -0.001857
# 3 0.001361 -0.008092 0.011066 0.010572 0.004845 0.001506
# 4 0.002529 -0.012822 0.010572 0.034969 0.008607 0.006679
# 5 0.002370 -0.002458 0.004845 0.008607 0.032597 0.000693
# 6 -0.003705 -0.001857 0.001506 0.006679 0.000693 0.030694
#
#
# Mechanical properties :
#
#
# Convention : Reuss Voigt Hill
#
# Bulk Modulus (GPa) = 40.89499 49.87119 45.38309
# Shear Modulus (GPa) = 26.57030 37.19053 31.88041
#
# Velocity S-wave (km/s) = 3.25802 3.85453 3.56876
# Velocity P-wave (km/s) = 5.52180 6.30342 5.92551
#
# Compressibility (1/GPa) = 0.02445287
#
# Stress axis : x y z
#
# Youngs Moduli (GPa) = 50.20945 45.18951 90.36982
#
# Poissons Ratio (x) = 0.34334 -0.12299
# Poissons Ratio (y) = 0.38148 0.73130
# Poissons Ratio (z) = -0.06833 0.36569
#
# Static dielectric constant tensor:
#      x y z
#    x 1.994400 -0.131610 -0.006010 
#    y -0.131610 2.062160 0.002240 
#    z -0.006010 0.002240 2.102570 
# 
# From -- ./inp_files/415546.got.cif
#   From: 2010.05.17/outbox.cif.g08.bks.cpg/sg2_208_cif.got.tgz:415546.got - 2010.06.03 11:33:40.
