data_PCOD9075834
_publ_section_title
;
Structure prediction by ZEFSAII (Michael W. Deem and Ramdas Pophale) SiO2 
 PCOD9075834
Probable space group: P -1
;
_chemical_formula_sum "Si O2"
_cell_formula_units_Z 12
_cell_length_a 11.312877
_cell_length_b 14.094151
_cell_length_c 12.128692
_cell_angle_alpha 32.680310
_cell_angle_beta 43.680555
_cell_angle_gamma 42.554549
_cell_volume 677.402268
_symmetry_space_group_name_H-M "P -1"
_symmetry_group_IT_number 2
_symmetry_cell_setting 'triclinic'
loop_
_space_group_symop_operation_xyz
x,y,z
-x,-y,-z
loop_
_atom_site_type_symbol
_atom_site_label
_atom_site_fract_x
_atom_site_fract_y
_atom_site_fract_z
Si Si1 0.026589 0.323614 0.882044
Si Si2 0.951731 0.068211 0.342976
Si Si3 0.365047 0.660228 0.820228
Si Si4 0.488370 0.242903 0.158240
Si Si5 0.844210 0.905752 0.195241
Si Si6 0.907455 0.743361 0.552397
O O1 0.032079 0.528883 0.695798
O O2 0.133984 0.218696 0.806603
O O3 0.062479 0.193688 0.093628
O O4 0.810747 0.352798 0.979462
O O5 0.739515 0.202263 0.340608
O O6 0.979404 0.894332 0.412649
O O7 0.000000 0.000000 0.500000
O O8 0.471450 0.747188 0.747298
O O9 0.478448 0.447697 0.920880
O O10 0.291027 0.227943 0.290448
O O11 0.650462 0.071076 0.169089
O O12 0.876255 0.785039 0.403162
O O13 0.000000 0.000000 0.000000
#
# Coordination Sequence:
#
# PCOD9075834 Si02
#       6
#     2   2   2   2   2   2
#     4   9  20  35  50  85 106 137 184 216 270 317
#     4  10  20  37  58  77 108 144 188 222 254 316
#     4   8  17  34  51  80 108 139 173 219 269 308
#     4  10  18  32  56  80 115 133 177 222 272 329
#     4  12  18  32  54  85 116 139 165 226 286 316
#     4  11  21  34  56  84 106 145 178 219 276 320
#
# _framework density 17.714732000000001
#
# number of rings (size 3 to 8) (size 9 to 14) (size 15 to 20)
#    1.000    1.000    5.000    1.000    0.000    0.667 
#    0.000    0.000    0.000    2.000    0.000    0.000 
#    0.000    0.000    0.000    0.000    0.000    0.000 
#
# Total GULP energy -66826.654785 kJ/mol
# GULP energy per Si atom -5568.887899 kJ/mol
# Density = 1.767441 g / cm^3
# Si number density = 17.714732 Si / 1000 Ang^3
#
#
#
# Elastic Constant Matrix: (Units=GPa)
#
#
# Indices 1 2 3 4 5 6 
#
# 1 38.3422 19.2108 23.5376 -13.5927 30.4304 -3.8980
# 2 19.2108 103.2646 57.7947 -23.3399 21.6485 2.5302
# 3 23.5376 57.7947 79.5480 -24.6711 24.2350 4.3140
# 4 -13.5927 -23.3399 -24.6711 27.4102 -6.5055 1.5667
# 5 30.4304 21.6485 24.2350 -6.5055 34.5777 3.8535
# 6 -3.8980 2.5302 4.3140 1.5667 3.8535 8.7545
#
#
#
# Elastic Compliance Matrix: (Units=1/GPa)
#
#
# Indices 1 2 3 4 5 6 
#
# 1 0.277798 0.016533 -0.003154 0.073658 -0.263650 0.223337
# 2 0.016533 0.017905 -0.010209 0.009102 -0.018419 0.013696
# 3 -0.003154 -0.010209 0.027845 0.013964 -0.006400 -0.011857
# 4 0.073658 0.009102 0.013964 0.074129 -0.070960 0.041254
# 5 -0.263650 -0.018419 -0.006400 -0.070960 0.288488 -0.223201
# 6 0.223337 0.013696 -0.011857 0.041254 -0.223201 0.306419
#
#
# Mechanical properties :
#
#
# Convention : Reuss Voigt Hill
#
# Bulk Modulus (GPa) = 3.03134 46.91566 24.97350
# Shear Modulus (GPa) = 4.56118 22.18927 13.37523
#
# Velocity S-wave (km/s) = 1.60636 3.54303 2.75077
# Velocity P-wave (km/s) = 2.27056 6.57867 4.92109
#
# Compressibility (1/GPa) = 0.32988757
#
# Stress axis : x y z
#
# Youngs Moduli (GPa) = 3.59974 55.85098 35.91250
#
# Poissons Ratio (x) = -0.92340 0.11328
# Poissons Ratio (y) = -0.05952 0.36664
# Poissons Ratio (z) = 0.01135 0.57019
#
# Static dielectric constant tensor:
#      x y z
#    x 1.580820 -0.012570 -0.008500 
#    y -0.012570 1.615450 -0.026760 
#    z -0.008500 -0.026760 1.657490 
# 
# From -- ./inp_files/165205.got.cif
#   From: 2010.05.17/outbox.cif.g08.bks.cpg/sg2_83_cif.got.tgz:165205.got - 2010.06.03 11:33:40.
