data_PCOD9075708
_publ_section_title
;
Structure prediction by ZEFSAII (Michael W. Deem and Ramdas Pophale) SiO2 
 PCOD9075708
Probable space group: P -1
;
_chemical_formula_sum "Si O2"
_cell_formula_units_Z 14
_cell_length_a 12.246129
_cell_length_b 9.193973
_cell_length_c 11.748512
_cell_angle_alpha 53.469146
_cell_angle_beta 51.573761
_cell_angle_gamma 55.565617
_cell_volume 791.504380
_symmetry_space_group_name_H-M "P -1"
_symmetry_group_IT_number 2
_symmetry_cell_setting 'triclinic'
loop_
_space_group_symop_operation_xyz
x,y,z
-x,-y,-z
loop_
_atom_site_type_symbol
_atom_site_label
_atom_site_fract_x
_atom_site_fract_y
_atom_site_fract_z
Si Si1 0.577770 0.724289 0.798528
Si Si2 0.855899 0.437232 0.631730
Si Si3 0.645529 0.460949 0.084571
Si Si4 0.050833 0.776634 0.106633
Si Si5 0.491229 0.893354 0.438451
Si Si6 0.639196 0.417799 0.364068
Si Si7 0.800365 0.566086 0.364170
O O1 0.726987 0.608400 0.691597
O O2 0.451998 0.666341 0.839299
O O3 0.541842 0.947917 0.710602
O O4 0.595011 0.644503 0.951341
O O5 0.815240 0.430152 0.528853
O O6 0.000000 0.500000 0.500000
O O7 0.890176 0.263916 0.780987
O O8 0.618255 0.512630 0.209631
O O9 0.813070 0.340247 0.005682
O O10 0.925787 0.670205 0.227634
O O11 0.000000 0.000000 0.000000
O O12 0.364470 0.793861 0.563398
O O13 0.648046 0.735992 0.396811
O O14 0.500000 0.000000 0.500000
O O15 0.500000 0.500000 0.500000
O O16 0.777572 0.448703 0.323651
#
# Coordination Sequence:
#
# PCOD9075708 Si02
#       7
#     2   2   2   2   2   2   2
#     4  10  18  32  54  84 103 136 186 229 259 309
#     4   9  18  33  54  76 108 140 177 225 270 314
#     4  10  20  34  54  78 113 142 176 223 278 312
#     4  10  21  34  56  83 104 142 186 223 264 319
#     4  11  18  32  60  83 102 139 191 221 251 319
#     4  10  21  35  53  79 110 145 176 220 280 320
#     4  10  20  36  52  79 115 140 175 222 276 318
#
# _framework density 17.687839
#
# number of rings (size 3 to 8) (size 9 to 14) (size 15 to 20)
#    0.000    2.000    2.857    1.714    0.000    0.571 
#    0.000    4.286    0.000    8.571    0.000    0.000 
#    0.000    0.000    0.000    0.000    0.000    0.000 
#
# Total GULP energy -77954.227087 kJ/mol
# GULP energy per Si atom -5568.159078 kJ/mol
# Density = 1.764758 g / cm^3
# Si number density = 17.687839 Si / 1000 Ang^3
#
#
#
# Elastic Constant Matrix: (Units=GPa)
#
#
# Indices 1 2 3 4 5 6 
#
# 1 114.4781 43.6378 58.0548 -7.3760 13.4110 4.4887
# 2 43.6378 55.5920 29.1000 -18.5377 5.2343 -2.8257
# 3 58.0548 29.1000 106.3760 -7.3132 20.5136 -1.6843
# 4 -7.3760 -18.5377 -7.3132 31.2445 -7.1852 2.0069
# 5 13.4110 5.2343 20.5136 -7.1852 45.5492 1.9418
# 6 4.4887 -2.8257 -1.6843 2.0069 1.9418 26.7343
#
#
#
# Elastic Compliance Matrix: (Units=1/GPa)
#
#
# Indices 1 2 3 4 5 6 
#
# 1 0.015827 -0.010845 -0.005761 -0.004105 -0.001306 -0.003763
# 2 -0.010845 0.033482 -0.002593 0.017166 0.003064 0.003685
# 3 -0.005761 -0.002593 0.014113 -0.000772 -0.004568 0.001972
# 4 -0.004105 0.017166 -0.000772 0.042578 0.006352 -0.001203
# 5 -0.001306 0.003064 -0.004568 0.006352 0.025133 -0.002047
# 6 -0.003763 0.003685 0.001972 -0.001203 -0.002047 0.038790
#
#
# Mechanical properties :
#
#
# Convention : Reuss Voigt Hill
#
# Bulk Modulus (GPa) = 39.96199 59.78125 49.87162
# Shear Modulus (GPa) = 23.07756 30.41584 26.74670
#
# Velocity S-wave (km/s) = 3.61600 4.15129 3.89286
# Velocity P-wave (km/s) = 6.33055 7.53982 6.96150
#
# Compressibility (1/GPa) = 0.02502378
#
# Stress axis : x y z
#
# Youngs Moduli (GPa) = 63.18373 29.86723 70.85834
#
# Poissons Ratio (x) = 0.32392 0.40818
# Poissons Ratio (y) = 0.68525 0.18371
# Poissons Ratio (z) = 0.36397 0.07744
#
# Static dielectric constant tensor:
#      x y z
#    x 1.632190 -0.034290 0.014480 
#    y -0.034290 1.551830 -0.023930 
#    z 0.014480 -0.023930 1.676290 
# 
# From -- ./inp_files/419089.got.cif
#   From: 2010.05.17/outbox.cif.g08.bks.cpg/sg2_210_cif.got.tgz:419089.got - 2010.06.03 11:33:40.
