data_PCOD9075929
_publ_section_title
;
Structure prediction by ZEFSAII (Michael W. Deem and Ramdas Pophale) SiO2 
 PCOD9075929
Probable space group: P -1
;
_chemical_formula_sum "Si O2"
_cell_formula_units_Z 16
_cell_length_a 11.956185
_cell_length_b 10.018549
_cell_length_c 9.390919
_cell_angle_alpha 107.999951
_cell_angle_beta 80.175358
_cell_angle_gamma 135.439744
_cell_volume 748.579270
_symmetry_space_group_name_H-M "P -1"
_symmetry_group_IT_number 2
_symmetry_cell_setting 'triclinic'
loop_
_space_group_symop_operation_xyz
x,y,z
-x,-y,-z
loop_
_atom_site_type_symbol
_atom_site_label
_atom_site_fract_x
_atom_site_fract_y
_atom_site_fract_z
Si Si1 0.593618 0.246206 0.486683
Si Si2 0.378327 0.314325 0.854440
Si Si3 0.624660 0.250891 0.044984
Si Si4 0.665025 0.586384 0.682638
Si Si5 0.348430 0.106656 0.267729
Si Si6 0.164471 0.334073 0.031509
Si Si7 0.884182 0.272193 0.993094
Si Si8 0.437251 0.047305 0.747719
O O1 0.684079 0.472938 0.533081
O O2 0.422880 0.121523 0.405109
O O3 0.564525 0.190166 0.640150
O O4 0.660785 0.166021 0.370192
O O5 0.478208 0.419243 0.721355
O O6 0.207233 0.236180 0.893013
O O7 0.362711 0.134485 0.825022
O O8 0.500000 0.500000 0.000000
O O9 0.497892 0.219298 0.161559
O O10 0.728304 0.455956 0.004110
O O11 0.743750 0.240888 0.085650
O O12 0.535475 0.095407 0.883319
O O13 0.696836 0.769019 0.679607
O O14 0.771519 0.645351 0.818329
O O15 0.202470 0.886811 0.168502
O O16 0.988186 0.245967 0.042422
O O17 0.000000 0.500000 0.000000
#
# Coordination Sequence:
#
# PCOD9075929 Si02
#       8
#     2   2   2   2   2   2   2   2
#     4  10  21  33  54  91 117 147 188 243 281 338
#     4   9  14  29  55  83 104 142 189 235 262 331
#     4  11  18  37  60  89 112 145 197 242 279 329
#     4  10  19  34  59  85 116 151 192 235 285 334
#     4  12  22  35  61  92 115 143 194 249 284 326
#     4  10  18  37  59  85 116 155 187 230 290 349
#     4  10  24  35  55  88 121 151 181 240 298 343
#     4  10  18  32  57  85 111 150 191 228 287 334
#
# _framework density 21.373823000000002
#
# number of rings (size 3 to 8) (size 9 to 14) (size 15 to 20)
#    0.000    1.750    6.250    1.500    0.000    0.500 
#    0.000    0.000    0.000    3.750    9.750    0.000 
#    0.000    0.000    0.000    0.000    0.000    0.000 
#
# Total GULP energy -89154.892247 kJ/mol
# GULP energy per Si atom -5572.180765 kJ/mol
# Density = 2.132518 g / cm^3
# Si number density = 21.373823 Si / 1000 Ang^3
#
#
#
# Elastic Constant Matrix: (Units=GPa)
#
#
# Indices 1 2 3 4 5 6 
#
# 1 151.9870 30.9532 33.6734 12.4966 -10.9116 -18.2766
# 2 30.9532 57.8878 21.0706 17.4029 -9.6046 -8.8683
# 3 33.6734 21.0706 75.8870 8.6331 -17.6126 -2.7039
# 4 12.4966 17.4029 8.6331 31.4721 -15.9571 -11.3152
# 5 -10.9116 -9.6046 -17.6126 -15.9571 39.6903 13.6532
# 6 -18.2766 -8.8683 -2.7039 -11.3152 13.6532 28.9552
#
#
#
# Elastic Compliance Matrix: (Units=1/GPa)
#
#
# Indices 1 2 3 4 5 6 
#
# 1 0.008304 -0.002871 -0.003047 0.000163 -0.001341 0.004773
# 2 -0.002871 0.023711 -0.004464 -0.011227 -0.002110 0.001641
# 3 -0.003047 -0.004464 0.017301 0.001174 0.007937 -0.004959
# 4 0.000163 -0.011227 0.001174 0.047913 0.014062 0.008867
# 5 -0.001341 -0.002110 0.007937 0.014062 0.038028 -0.013187
# 6 0.004773 0.001641 -0.004959 0.008867 -0.013187 0.047272
#
#
# Mechanical properties :
#
#
# Convention : Reuss Voigt Hill
#
# Bulk Modulus (GPa) = 35.02378 50.79516 42.90947
# Shear Modulus (GPa) = 23.49525 33.36118 28.42822
#
# Velocity S-wave (km/s) = 3.31910 3.95504 3.65094
# Velocity P-wave (km/s) = 5.57767 6.68380 6.15563
#
# Compressibility (1/GPa) = 0.02855203
#
# Stress axis : x y z
#
# Youngs Moduli (GPa) = 120.42897 42.17426 57.80081
#
# Poissons Ratio (x) = 0.12109 0.17612
# Poissons Ratio (y) = 0.34576 0.25801
# Poissons Ratio (z) = 0.36694 0.18825
#
# Static dielectric constant tensor:
#      x y z
#    x 1.852540 -0.044000 -0.028940 
#    y -0.044000 1.910140 -0.000970 
#    z -0.028940 -0.000970 1.799560 
# 
# From -- ./inp_files/422003.got.cif
#   From: 2010.05.17/outbox.cif.g08.bks.cpg/sg2_212_cif.got.tgz:422003.got - 2010.06.03 11:33:40.
