data_PCOD9075578
_publ_section_title
;
Structure prediction by ZEFSAII (Michael W. Deem and Ramdas Pophale) SiO2 
 PCOD9075578
Probable space group: P -1
;
_chemical_formula_sum "Si O2"
_cell_formula_units_Z 16
_cell_length_a 27.000000
_cell_length_b 27.000000
_cell_length_c 9.000000
_cell_angle_alpha 40.000000
_cell_angle_beta 40.000000
_cell_angle_gamma 10.000000
_cell_volume 728.340053
_symmetry_space_group_name_H-M "P -1"
_symmetry_group_IT_number 2
_symmetry_cell_setting 'triclinic'
loop_
_space_group_symop_operation_xyz
x,y,z
-x,-y,-z
loop_
_atom_site_type_symbol
_atom_site_label
_atom_site_fract_x
_atom_site_fract_y
_atom_site_fract_z
Si Si1 0.942104 0.465206 0.738690
Si Si2 0.001799 0.980968 0.712468
Si Si3 0.523600 0.531699 0.727339
Si Si4 0.446844 0.931313 0.988713
Si Si5 0.406786 0.048937 0.249575
Si Si6 0.579483 0.209283 0.475970
Si Si7 0.901805 0.285296 0.785370
Si Si8 0.106445 0.542268 0.448037
O O1 0.617114 0.753859 0.852977
O O2 0.020581 0.348819 0.673463
O O3 0.000000 0.500000 0.500000
O O4 0.119683 0.263442 0.935210
O O5 0.257678 0.778343 0.666779
O O6 0.751063 0.266485 0.716707
O O7 0.000000 0.000000 0.500000
O O8 0.037201 0.855537 0.955092
O O9 0.517999 0.628000 0.562832
O O10 0.500000 0.500000 0.000000
O O11 0.576930 0.890881 0.822111
O O12 0.480627 0.821554 0.263465
O O13 0.099038 0.311208 0.315317
O O14 0.597508 0.791301 0.452142
O O15 0.500000 0.000000 0.000000
O O16 0.419568 0.390585 0.277365
O O17 0.908565 0.894323 0.389093
O O18 0.936868 0.327645 0.707425
#
# Coordination Sequence:
#
# PCOD9075578 Si02
#       8
#     2   2   2   2   2   2   2   2
#     4  12  23  44  65  89 130 180 219 268 331 404
#     4  12  26  45  75 107 147 183 230 289 353 427
#     4  12  23  47  76 103 137 197 232 277 358 425
#     4  12  24  41  65  95 127 168 226 277 321 395
#     4  12  23  40  61  90 125 168 214 266 325 395
#     4  12  26  43  72 101 134 172 235 287 329 402
#     4  12  24  45  65 101 138 174 223 289 341 400
#     4  12  25  39  65  90 128 177 212 264 344 393
#
# _framework density 21.967760999999999
#
# number of rings (size 3 to 8) (size 9 to 14) (size 15 to 20)
#    0.000    0.000    5.000    6.000    0.000    2.000 
#    0.000    0.000    0.000    0.000    0.000    0.000 
#    0.000    0.000    0.000    0.000    0.000    0.000 
#
# Total GULP energy -89098.318872 kJ/mol
# GULP energy per Si atom -5568.644929 kJ/mol
# Density = 2.191776 g / cm^3
# Si number density = 21.967761 Si / 1000 Ang^3
#
#
#
# Elastic Constant Matrix: (Units=GPa)
#
#
# Indices 1 2 3 4 5 6 
#
# 1 143.7135 25.3132 53.8425 -18.5003 -29.4649 14.7478
# 2 25.3132 85.7649 23.7814 -18.6048 -1.3961 4.2293
# 3 53.8425 23.7814 117.1311 -20.5150 -15.5735 16.0762
# 4 -18.5003 -18.6048 -20.5150 35.6175 12.1512 -5.9343
# 5 -29.4649 -1.3961 -15.5735 12.1512 45.7790 -9.8088
# 6 14.7478 4.2293 16.0762 -5.9343 -9.8088 34.2368
#
#
#
# Elastic Compliance Matrix: (Units=1/GPa)
#
#
# Indices 1 2 3 4 5 6 
#
# 1 0.009588 -0.001711 -0.003220 0.000469 0.004689 -0.000982
# 2 -0.001711 0.013905 -0.001249 0.006624 -0.002875 -0.000070
# 3 -0.003220 -0.001249 0.011355 0.003657 0.000112 -0.003125
# 4 0.000469 0.006624 0.003657 0.036751 -0.007702 0.001426
# 5 0.004689 -0.002875 0.000112 -0.007702 0.027917 0.004946
# 6 -0.000982 -0.000070 -0.003125 0.001426 0.004946 0.032772
#
#
# Mechanical properties :
#
#
# Convention : Reuss Voigt Hill
#
# Bulk Modulus (GPa) = 44.46619 61.38707 52.92663
# Shear Modulus (GPa) = 32.86367 39.37150 36.11759
#
# Velocity S-wave (km/s) = 3.87201 4.23808 4.05917
# Velocity P-wave (km/s) = 6.34629 7.20786 6.79075
#
# Compressibility (1/GPa) = 0.02248900
#
# Stress axis : x y z
#
# Youngs Moduli (GPa) = 104.29193 71.91804 88.06371
#
# Poissons Ratio (x) = 0.12303 0.28355
# Poissons Ratio (y) = 0.17841 0.11001
# Poissons Ratio (z) = 0.33581 0.08984
#
# Static dielectric constant tensor:
#      x y z
#    x 1.040050 -0.063830 0.133700 
#    y -0.063830 1.912610 0.131100 
#    z 0.133700 0.131100 1.798300 
# 
# From -- ./inp_files/50911.got.cif
#   From: 2010.05.17/outbox.ucp.g08.bks.cvg/sg2_26_cif.got.tgz:50911.got - 2010.06.11 11:32:03.
