data_PCOD9075500
_publ_section_title
;
Structure prediction by ZEFSAII (Michael W. Deem and Ramdas Pophale) SiO2 
 PCOD9075500
Probable space group: P -1
;
_chemical_formula_sum "Si O2"
_cell_formula_units_Z 12
_cell_length_a 12.000000
_cell_length_b 9.000000
_cell_length_c 9.000000
_cell_angle_alpha 120.000000
_cell_angle_beta 100.000000
_cell_angle_gamma 40.000000
_cell_volume 501.352703
_symmetry_space_group_name_H-M "P -1"
_symmetry_group_IT_number 2
_symmetry_cell_setting 'triclinic'
loop_
_space_group_symop_operation_xyz
x,y,z
-x,-y,-z
loop_
_atom_site_type_symbol
_atom_site_label
_atom_site_fract_x
_atom_site_fract_y
_atom_site_fract_z
Si Si1 0.319540 0.940123 0.124078
Si Si2 0.869181 0.496264 0.268603
Si Si3 0.279483 0.986401 0.640843
Si Si4 0.888677 0.354122 0.858869
Si Si5 0.680069 0.666785 0.637674
Si Si6 0.639254 0.363325 0.758722
O O1 0.385010 0.763183 0.197537
O O2 0.368043 0.077116 0.227911
O O3 0.452479 0.702080 0.907063
O O4 0.094614 0.201852 0.183508
O O5 0.781151 0.530054 0.424762
O O6 0.801744 0.775576 0.377772
O O7 0.824374 0.492044 0.081471
O O8 0.479705 0.812923 0.657693
O O9 0.324160 0.754958 0.453236
O O10 0.101900 0.162595 0.795359
O O11 0.793423 0.502809 0.742474
O O12 0.828571 0.229099 0.789175
#
# Coordination Sequence:
#
# PCOD9075500 Si02
#       6
#     2   2   2   2   2   2
#     4  11  25  49  79 116 156 206 256 320 387 460
#     4  12  26  50  83 114 150 210 264 309 385 467
#     4  12  26  50  80 116 151 206 263 315 385 461
#     4  12  29  51  79 120 155 200 263 323 381 462
#     4  12  27  51  85 111 154 208 263 316 378 466
#     4  11  27  48  76 118 164 195 255 327 392 452
#
# _framework density 23.935244999999998
#
# number of rings (size 3 to 8) (size 9 to 14) (size 15 to 20)
#    0.000    0.333    3.333    4.000    7.000    2.667 
#    3.000    0.000    0.000    0.000    0.000    0.000 
#    0.000    0.000    0.000    0.000    0.000    0.000 
#
# Total GULP energy -66937.612323 kJ/mol
# GULP energy per Si atom -5578.134360 kJ/mol
# Density = 2.388077 g / cm^3
# Si number density = 23.935245 Si / 1000 Ang^3
#
#
#
# Elastic Constant Matrix: (Units=GPa)
#
#
# Indices 1 2 3 4 5 6 
#
# 1 84.8172 45.2986 32.0829 13.8409 11.9522 -20.6624
# 2 45.2986 97.0570 67.6905 -1.6110 -15.2516 -25.4155
# 3 32.0829 67.6905 161.0546 -6.6776 -3.7331 2.3913
# 4 13.8409 -1.6110 -6.6776 31.7617 -3.2074 -5.0980
# 5 11.9522 -15.2516 -3.7331 -3.2074 42.5793 -0.2958
# 6 -20.6624 -25.4155 2.3913 -5.0980 -0.2958 47.5532
#
#
#
# Elastic Compliance Matrix: (Units=1/GPa)
#
#
# Indices 1 2 3 4 5 6 
#
# 1 0.021805 -0.011248 -0.000356 -0.010897 -0.010986 0.002244
# 2 -0.011248 0.026132 -0.008302 0.007400 0.012419 0.010367
# 3 -0.000356 -0.008302 0.009830 0.000795 -0.001987 -0.005013
# 4 -0.010897 0.007400 0.000795 0.038186 0.008679 0.003328
# 5 -0.010986 0.012419 -0.001987 0.008679 0.031519 0.003090
# 6 0.002244 0.010367 -0.005013 0.003328 0.003090 0.028173
#
#
# Mechanical properties :
#
#
# Convention : Reuss Voigt Hill
#
# Bulk Modulus (GPa) = 55.69193 70.34141 63.01667
# Shear Modulus (GPa) = 24.82085 37.56928 31.19507
#
# Velocity S-wave (km/s) = 3.22374 3.96614 3.61406
# Velocity P-wave (km/s) = 6.09713 7.10111 6.61818
#
# Compressibility (1/GPa) = 0.01795592
#
# Stress axis : x y z
#
# Youngs Moduli (GPa) = 45.86070 38.26703 101.72435
#
# Poissons Ratio (x) = 0.43044 0.03619
# Poissons Ratio (y) = 0.51586 0.84449
# Poissons Ratio (z) = 0.01632 0.31768
#
# Static dielectric constant tensor:
#      x y z
#    x 1.921050 0.032050 0.014500 
#    y 0.032050 1.947530 -0.024720 
#    z 0.014500 -0.024720 1.980720 
# 
# From -- ./inp_files/158327.got.cif
#   From: 2010.05.17/outbox.ucp.g08.bks.cvg/sg2_80_cif.got.tgz:158327.got - 2010.06.11 11:32:03.
