data_PCOD9075616
_publ_section_title
;
Structure prediction by ZEFSAII (Michael W. Deem and Ramdas Pophale) SiO2 
 PCOD9075616
Probable space group: P -1
;
_chemical_formula_sum "Si O2"
_cell_formula_units_Z 16
_cell_length_a 11.132266
_cell_length_b 6.355517
_cell_length_c 19.496964
_cell_angle_alpha 93.393607
_cell_angle_beta 41.874209
_cell_angle_gamma 67.507756
_cell_volume 706.041482
_symmetry_space_group_name_H-M "P -1"
_symmetry_group_IT_number 2
_symmetry_cell_setting 'triclinic'
loop_
_space_group_symop_operation_xyz
x,y,z
-x,-y,-z
loop_
_atom_site_type_symbol
_atom_site_label
_atom_site_fract_x
_atom_site_fract_y
_atom_site_fract_z
Si Si1 0.276800 0.890654 0.449289
Si Si2 0.034470 0.547562 0.322827
Si Si3 0.800130 0.664103 0.229259
Si Si4 0.056109 0.814038 0.204086
Si Si5 0.280400 0.978227 0.842500
Si Si6 0.780431 0.776026 0.633467
Si Si7 0.078965 0.057640 0.075806
Si Si8 0.746016 0.377169 0.427043
O O1 0.540172 0.771253 0.350767
O O2 0.255439 0.683717 0.492615
O O3 0.090226 0.180116 0.572867
O O4 0.242846 0.972251 0.384715
O O5 0.168807 0.567356 0.205335
O O6 0.821788 0.559691 0.388093
O O7 0.187682 0.278849 0.300144
O O8 0.850076 0.826840 0.258463
O O9 0.989492 0.339967 0.152931
O O10 0.829663 0.731103 0.140360
O O11 0.938616 0.088828 0.302088
O O12 0.180947 0.825197 0.085796
O O13 0.552889 0.811242 0.710276
O O14 0.154585 0.878002 0.856137
O O15 0.237595 0.983886 0.941305
O O16 0.000000 0.500000 0.500000
O O17 0.500000 0.500000 0.500000
#
# Coordination Sequence:
#
# PCOD9075616 Si02
#       8
#     2   2   2   2   2   2   2   2
#     4   9  19  32  50  78 104 138 179 213 258 319
#     4  10  20  34  50  72 109 146 175 215 261 307
#     4  10  18  32  54  79 108 135 168 220 274 310
#     4  10  20  32  49  76 106 136 177 219 259 313
#     4   9  20  36  55  83 107 132 177 217 259 318
#     4   9  19  37  56  75 109 143 170 215 261 310
#     4  10  19  34  58  81 105 136 172 221 267 308
#     4  11  20  31  51  78 107 140 177 219 265 309
#
# _framework density 22.661560000000001
#
# number of rings (size 3 to 8) (size 9 to 14) (size 15 to 20)
#    0.000    2.250    0.000    3.375    0.000    6.500 
#    0.000    6.875    0.000    3.000    0.000    0.000 
#    0.000    0.000    0.000    0.000    0.000    0.000 
#
# Total GULP energy -89259.748504 kJ/mol
# GULP energy per Si atom -5578.734282 kJ/mol
# Density = 2.260998 g / cm^3
# Si number density = 22.661560 Si / 1000 Ang^3
#
#
#
# Elastic Constant Matrix: (Units=GPa)
#
#
# Indices 1 2 3 4 5 6 
#
# 1 40.9540 23.9062 16.6496 -9.7605 11.6842 -14.1252
# 2 23.9062 114.4231 38.3405 -48.2523 19.0783 -30.5073
# 3 16.6496 38.3405 63.2944 -30.6674 8.0514 -6.3242
# 4 -9.7605 -48.2523 -30.6674 38.5169 -11.9177 16.1134
# 5 11.6842 19.0783 8.0514 -11.9177 28.8164 -15.4879
# 6 -14.1252 -30.5073 -6.3242 16.1134 -15.4879 35.1170
#
#
#
# Elastic Compliance Matrix: (Units=1/GPa)
#
#
# Indices 1 2 3 4 5 6 
#
# 1 0.033896 -0.004930 -0.009644 -0.011598 -0.007378 0.009683
# 2 -0.004930 0.020686 0.000187 0.022541 0.000820 0.006040
# 3 -0.009644 0.000187 0.029598 0.025732 0.000892 -0.009800
# 4 -0.011598 0.022541 0.025732 0.079980 0.008455 -0.013418
# 5 -0.007378 0.000820 0.000892 0.008455 0.048742 0.015522
# 6 0.009683 0.006040 -0.009800 -0.013418 0.015522 0.048856
#
#
# Mechanical properties :
#
#
# Convention : Reuss Voigt Hill
#
# Bulk Modulus (GPa) = 18.04814 41.82937 29.93875
# Shear Modulus (GPa) = 16.18121 29.80839 22.99480
#
# Velocity S-wave (km/s) = 2.67505 3.63074 3.18890
# Velocity P-wave (km/s) = 4.18601 6.00622 5.17675
#
# Compressibility (1/GPa) = 0.05540737
#
# Stress axis : x y z
#
# Youngs Moduli (GPa) = 29.50173 48.34158 33.78621
#
# Poissons Ratio (x) = 0.23831 0.32583
# Poissons Ratio (y) = 0.14543 -0.00632
# Poissons Ratio (z) = 0.28451 -0.00904
#
# Static dielectric constant tensor:
#      x y z
#    x 1.894970 -0.069870 0.035940 
#    y -0.069870 1.895800 -0.057430 
#    z 0.035940 -0.057430 1.810900 
# 
# From -- ./inp_files/81709.got.cif
#   From: 2010.05.17/outbox.cif.g08.bks.cpg/sg2_41_cif.got.tgz:81709.got - 2010.06.03 11:33:40.
