data_PCOD9075230
_publ_section_title
;
Structure prediction by ZEFSAII (Michael W. Deem and Ramdas Pophale) SiO2 
 PCOD9075230
Probable space group: P -1
;
_chemical_formula_sum "Si O2"
_cell_formula_units_Z 15
_cell_length_a 15.000000
_cell_length_b 18.000000
_cell_length_c 15.000000
_cell_angle_alpha 30.000000
_cell_angle_beta 160.000000
_cell_angle_gamma 150.000000
_cell_volume 659.500060
_symmetry_space_group_name_H-M "P -1"
_symmetry_group_IT_number 2
_symmetry_cell_setting 'triclinic'
loop_
_space_group_symop_operation_xyz
x,y,z
-x,-y,-z
loop_
_atom_site_type_symbol
_atom_site_label
_atom_site_fract_x
_atom_site_fract_y
_atom_site_fract_z
Si Si1 0.079663 0.694597 0.775942
Si Si2 0.394425 0.482860 0.770431
Si Si3 0.204879 0.270858 0.979294
Si Si4 0.500000 0.000000 0.500000
Si Si5 0.659541 0.041894 0.784754
Si Si6 0.375868 0.715490 0.372054
Si Si7 0.652589 0.764227 0.165196
Si Si8 0.916716 0.663782 0.853001
O O1 0.857380 0.715843 0.474520
O O2 0.996849 0.730956 0.759616
O O3 0.390152 0.785892 0.947016
O O4 0.085456 0.515849 0.966639
O O5 0.644391 0.612495 0.920260
O O6 0.256406 0.579567 0.474569
O O7 0.460204 0.364223 0.885053
O O8 0.218621 0.379449 0.792307
O O9 0.366383 0.146461 0.240455
O O10 0.894140 0.166243 0.817338
O O11 0.549015 0.050838 0.388623
O O12 0.527011 0.130553 0.637257
O O13 0.793530 0.927613 0.079752
O O14 0.625326 0.678738 0.594032
O O15 0.147584 0.734715 0.069950
#
# Coordination Sequence:
#
# PCOD9075230 Si02
#       8
#     2   2   2   1   2   2   2   2
#     4  11  24  44  74 111 141 180 235 302 364 413
#     4  11  23  44  71 105 138 185 252 291 340 416
#     4  11  26  47  66 102 145 195 234 301 352 415
#     4  12  24  44  66 100 142 186 242 284 368 410
#     4  12  29  45  70 100 151 196 230 291 368 420
#     4  12  24  45  72 105 140 192 236 291 352 435
#     4  12  26  44  74 110 144 187 242 292 347 442
#     4  11  23  45  75 106 144 178 232 305 362 415
#
# _framework density 22.744501
#
# number of rings (size 3 to 8) (size 9 to 14) (size 15 to 20)
#    0.000    0.533    5.333    2.000    1.867    2.667 
#    2.400    4.000    0.000    0.000    0.000    0.000 
#    0.000    0.000    0.000    0.000    0.000    0.000 
#
# Total GULP energy -83669.226816 kJ/mol
# GULP energy per Si atom -5577.948454 kJ/mol
# Density = 2.269273 g / cm^3
# Si number density = 22.744501 Si / 1000 Ang^3
#
#
#
# Elastic Constant Matrix: (Units=GPa)
#
#
# Indices 1 2 3 4 5 6 
#
# 1 111.6381 14.4458 36.6337 -9.6972 -11.2609 0.1143
# 2 14.4458 -6.1938 12.0792 -25.4144 12.1127 5.3829
# 3 36.6337 12.0792 83.8691 -7.6200 -3.1439 2.8720
# 4 -9.6972 -25.4144 -7.6200 30.8850 1.0709 6.1893
# 5 -11.2609 12.1127 -3.1439 1.0709 42.8861 0.5439
# 6 0.1143 5.3829 2.8720 6.1893 0.5439 27.7981
#
#
#
# Elastic Compliance Matrix: (Units=1/GPa)
#
#
# Indices 1 2 3 4 5 6 
#
# 1 0.010703 0.002091 -0.004505 0.004094 0.001799 -0.000930
# 2 0.002091 -0.027837 0.000846 -0.024469 0.008950 0.010567
# 3 -0.004505 0.000846 0.014127 0.003248 -0.000438 -0.002319
# 4 0.004094 -0.024469 0.003248 0.013826 0.007864 0.001154
# 5 0.001799 0.008950 -0.000438 0.007864 0.021083 -0.003859
# 6 -0.000930 0.010567 -0.002319 0.001154 -0.003859 0.033990
#
#
# Mechanical properties :
#
#
# Convention : Reuss Voigt Hill
#
# Bulk Modulus (GPa) = -162.81821 35.07006 -63.87408
# Shear Modulus (GPa) = 74.64864 28.72415 51.68640
#
# Velocity S-wave (km/s) = 5.73513 3.55759 4.77222
# Velocity P-wave (km/s) = 5.28067 5.68576 1.49038
#
# Compressibility (1/GPa) = -0.00614182
#
# Stress axis : x y z
#
# Youngs Moduli (GPa) = 93.42907 -35.92371 70.78496
#
# Poissons Ratio (x) = 0.07511 0.31889
# Poissons Ratio (y) = -0.19535 -0.05991
# Poissons Ratio (z) = 0.42090 0.03041
#
# Static dielectric constant tensor:
#      x y z
#    x 1.856360 0.008920 0.001360 
#    y 0.008920 1.889990 -0.036690 
#    z 0.001360 -0.036690 1.784870 
# 
# From -- ./inp_files/534857.got.cif
#   From: 2010.05.17/outbox.ucp.g08.bks.cvg/sg2_268_cif.got.tgz:534857.got - 2010.06.11 11:32:03.
