data_PCOD9075250
_publ_section_title
;
Structure prediction by ZEFSAII (Michael W. Deem and Ramdas Pophale) SiO2 
 PCOD9075250
Probable space group: P -1
;
_chemical_formula_sum "Si O2"
_cell_formula_units_Z 16
_cell_length_a 9.000000
_cell_length_b 12.000000
_cell_length_c 18.000000
_cell_angle_alpha 50.000000
_cell_angle_beta 30.000000
_cell_angle_gamma 50.000000
_cell_volume 725.531033
_symmetry_space_group_name_H-M "P -1"
_symmetry_group_IT_number 2
_symmetry_cell_setting 'triclinic'
loop_
_space_group_symop_operation_xyz
x,y,z
-x,-y,-z
loop_
_atom_site_type_symbol
_atom_site_label
_atom_site_fract_x
_atom_site_fract_y
_atom_site_fract_z
Si Si1 0.468710 0.690771 0.201166
Si Si2 0.197878 0.462315 0.184979
Si Si3 0.797072 0.857595 0.869393
Si Si4 0.312351 0.128210 0.343550
Si Si5 0.267167 0.581252 0.718375
Si Si6 0.902502 0.658071 0.368869
Si Si7 0.729123 0.992725 0.334565
Si Si8 0.325018 0.918610 0.295696
O O1 0.693848 0.531969 0.181989
O O2 0.456546 0.772298 0.251929
O O3 0.144046 0.658229 0.331082
O O4 0.601491 0.780906 0.041582
O O5 0.248364 0.288856 0.263234
O O6 0.924081 0.476894 0.238220
O O7 0.084254 0.571380 0.257387
O O8 0.500000 0.500000 0.000000
O O9 0.071843 0.738606 0.763691
O O10 0.951486 0.978147 0.790809
O O11 0.622181 0.950742 0.837885
O O12 0.577820 0.124259 0.288980
O O13 0.018785 0.099189 0.528428
O O14 0.410924 0.985891 0.307104
O O15 0.605729 0.592392 0.541801
O O16 0.772163 0.835456 0.342044
O O17 0.500000 0.000000 0.500000
#
# Coordination Sequence:
#
# PCOD9075250 Si02
#       8
#     2   2   2   2   2   2   2   2
#     4  12  27  43  72 107 144 182 234 295 353 409
#     4  12  29  48  69 104 149 185 233 292 355 416
#     4  12  24  46  71 102 145 181 231 297 351 409
#     4  11  25  44  74  99 141 187 232 288 349 420
#     4  12  26  47  71 100 143 190 237 281 349 428
#     4  12  26  45  74 102 142 186 238 292 346 422
#     4  12  24  44  73 107 137 179 238 292 347 417
#     4  11  23  45  71 101 138 186 234 286 353 413
#
# _framework density 22.052813
#
# number of rings (size 3 to 8) (size 9 to 14) (size 15 to 20)
#    0.000    0.250    5.000    3.000    7.000    0.000 
#    0.000    1.250    0.000    0.000    0.000    0.000 
#    0.000    0.000    0.000    0.000    0.000    0.000 
#
# Total GULP energy -89362.753013 kJ/mol
# GULP energy per Si atom -5585.172063 kJ/mol
# Density = 2.200262 g / cm^3
# Si number density = 22.052813 Si / 1000 Ang^3
#
#
#
# Elastic Constant Matrix: (Units=GPa)
#
#
# Indices 1 2 3 4 5 6 
#
# 1 81.8486 36.3497 24.9268 -1.4893 -4.7668 -0.5147
# 2 36.3497 97.0522 21.0802 7.1992 1.4902 18.0652
# 3 24.9268 21.0802 86.2766 6.1568 -6.1023 22.6519
# 4 -1.4893 7.1992 6.1568 32.3387 7.8356 7.1100
# 5 -4.7668 1.4902 -6.1023 7.8356 19.3349 1.4068
# 6 -0.5147 18.0652 22.6519 7.1100 1.4068 43.4031
#
#
#
# Elastic Compliance Matrix: (Units=1/GPa)
#
#
# Indices 1 2 3 4 5 6 
#
# 1 0.016544 -0.006265 -0.004459 0.001402 0.002235 0.004829
# 2 -0.006265 0.013844 -0.000129 -0.001780 -0.001536 -0.005428
# 3 -0.004459 -0.000129 0.015556 -0.002747 0.005504 -0.007846
# 4 0.001402 -0.001780 -0.002747 0.036215 -0.014823 -0.003261
# 5 0.002235 -0.001536 0.005504 -0.014823 0.060260 -0.001732
# 6 0.004829 -0.005428 -0.007846 -0.003261 -0.001732 0.030041
#
#
# Mechanical properties :
#
#
# Convention : Reuss Voigt Hill
#
# Bulk Modulus (GPa) = 41.25748 47.76562 44.51155
# Shear Modulus (GPa) = 24.72245 31.20337 27.96291
#
# Velocity S-wave (km/s) = 3.35185 3.76565 3.56476
# Velocity P-wave (km/s) = 5.80766 6.37287 6.09682
#
# Compressibility (1/GPa) = 0.02423803
#
# Stress axis : x y z
#
# Youngs Moduli (GPa) = 60.44485 72.23234 64.28493
#
# Poissons Ratio (x) = 0.45254 0.28664
# Poissons Ratio (y) = 0.37869 0.00830
# Poissons Ratio (z) = 0.26952 0.00932
#
# Static dielectric constant tensor:
#      x y z
#    x 1.861210 -0.052330 0.017730 
#    y -0.052330 1.826060 0.005390 
#    z 0.017730 0.005390 1.746520 
# 
# From -- ./inp_files/209208.got.cif
#   From: 2010.05.17/outbox.ucp.g08.bks.cvg/sg2_105_cif.got.tgz:209208.got - 2010.06.11 11:32:03.
