data_PCOD9075521
_publ_section_title
;
Structure prediction by ZEFSAII (Michael W. Deem and Ramdas Pophale) SiO2 
 PCOD9075521
Probable space group: P -1
;
_chemical_formula_sum "Si O2"
_cell_formula_units_Z 16
_cell_length_a 6.000000
_cell_length_b 18.000000
_cell_length_c 15.000000
_cell_angle_alpha 140.000000
_cell_angle_beta 50.000000
_cell_angle_gamma 130.000000
_cell_volume 759.581896
_symmetry_space_group_name_H-M "P -1"
_symmetry_group_IT_number 2
_symmetry_cell_setting 'triclinic'
loop_
_space_group_symop_operation_xyz
x,y,z
-x,-y,-z
loop_
_atom_site_type_symbol
_atom_site_label
_atom_site_fract_x
_atom_site_fract_y
_atom_site_fract_z
Si Si1 0.351381 0.750928 0.758761
Si Si2 0.357979 0.556816 0.440220
Si Si3 0.993097 0.635806 0.094326
Si Si4 0.743456 0.099624 0.419175
Si Si5 0.978212 0.881531 0.834566
Si Si6 0.861745 0.105597 0.592346
Si Si7 0.632001 0.357037 0.687359
Si Si8 0.176711 0.584186 0.807608
O O1 0.478830 0.664589 0.581273
O O2 0.629374 0.825330 0.825907
O O3 0.131187 0.663190 0.807508
O O4 0.154504 0.810001 0.793160
O O5 0.403785 0.607247 0.373785
O O6 0.507980 0.448654 0.311435
O O7 0.000000 0.500000 0.500000
O O8 0.638061 0.623131 0.166276
O O9 0.091889 0.761938 0.247582
O O10 0.000000 0.500000 0.000000
O O11 0.148946 0.647098 0.966938
O O12 0.948704 0.120361 0.477331
O O13 0.623854 0.217429 0.562382
O O14 0.849180 0.096123 0.285626
O O15 0.497026 0.968487 0.377522
O O16 0.000000 0.000000 0.000000
O O17 0.000000 0.000000 0.500000
O O18 0.934850 0.450514 0.736166
#
# Coordination Sequence:
#
# PCOD9075521 Si02
#       8
#     2   2   2   2   2   2   2   2
#     4  12  27  48  74 112 150 204 256 318 394 472
#     4  12  24  46  72 109 153 201 251 316 390 474
#     4  12  26  47  76 109 153 196 254 325 389 453
#     4  11  26  47  75 103 143 202 255 313 376 473
#     4  12  29  49  77 108 151 202 263 322 389 466
#     4  11  26  49  73 106 145 198 257 312 383 462
#     4  12  24  46  74 107 151 199 256 308 388 468
#     4  12  27  43  73 112 157 194 249 329 394 459
#
# _framework density 21.064219999999999
#
# number of rings (size 3 to 8) (size 9 to 14) (size 15 to 20)
#    0.000    0.250    5.000    3.375    5.250    1.000 
#    0.000    0.000    0.000    0.000    0.000    0.000 
#    0.000    0.000    0.000    0.000    0.000    0.000 
#
# Total GULP energy -89123.069493 kJ/mol
# GULP energy per Si atom -5570.191843 kJ/mol
# Density = 2.101628 g / cm^3
# Si number density = 21.064220 Si / 1000 Ang^3
#
#
#
# Elastic Constant Matrix: (Units=GPa)
#
#
# Indices 1 2 3 4 5 6 
#
# 1 121.1718 36.5707 55.6147 2.6208 14.1085 -19.9416
# 2 36.5707 87.4366 39.2572 6.1014 1.5718 -11.2818
# 3 55.6147 39.2572 185.3274 5.8365 18.0627 -10.7400
# 4 2.6208 6.1014 5.8365 42.3643 2.7596 9.6330
# 5 14.1085 1.5718 18.0627 2.7596 50.7620 1.2532
# 6 -19.9416 -11.2818 -10.7400 9.6330 1.2532 63.9650
#
#
#
# Elastic Compliance Matrix: (Units=1/GPa)
#
#
# Indices 1 2 3 4 5 6 
#
# 1 0.010918 -0.003169 -0.002232 -0.000352 -0.002186 0.002566
# 2 -0.003169 0.013946 -0.001980 -0.001940 0.001224 0.001407
# 3 -0.002232 -0.001980 0.006672 -0.000426 -0.001673 0.000172
# 4 -0.000352 -0.001940 -0.000426 0.024997 -0.000944 -0.004270
# 5 -0.002186 0.001224 -0.001673 -0.000944 0.020941 -0.001015
# 6 0.002566 0.001407 0.000172 -0.004270 -0.001015 0.017373
#
#
# Mechanical properties :
#
#
# Convention : Reuss Voigt Hill
#
# Bulk Modulus (GPa) = 59.61831 72.98014 66.29923
# Shear Modulus (GPa) = 43.40210 48.91779 46.15995
#
# Velocity S-wave (km/s) = 4.54416 4.82427 4.68631
# Velocity P-wave (km/s) = 7.47644 8.10883 7.79905
#
# Compressibility (1/GPa) = 0.01677337
#
# Stress axis : x y z
#
# Youngs Moduli (GPa) = 91.58930 71.70370 149.89007
#
# Poissons Ratio (x) = 0.22726 0.33459
# Poissons Ratio (y) = 0.29029 0.29675
# Poissons Ratio (z) = 0.20445 0.14196
#
# Static dielectric constant tensor:
#      x y z
#    x 1.851990 0.036840 -0.002100 
#    y 0.036840 1.843930 -0.003420 
#    z -0.002100 -0.003420 1.733820 
# 
# From -- ./inp_files/485248.got.cif
#   From: 2010.05.17/outbox.ucp.g08.bks.cvg/sg2_243_cif.got.tgz:485248.got - 2010.06.11 11:32:03.
