data_PCOD9075414
_publ_section_title
;
Structure prediction by ZEFSAII (Michael W. Deem and Ramdas Pophale) SiO2 
 PCOD9075414
Probable space group: P -1
;
_chemical_formula_sum "Si O2"
_cell_formula_units_Z 14
_cell_length_a 12.000000
_cell_length_b 9.000000
_cell_length_c 15.000000
_cell_angle_alpha 120.000000
_cell_angle_beta 130.000000
_cell_angle_gamma 30.000000
_cell_volume 613.666794
_symmetry_space_group_name_H-M "P -1"
_symmetry_group_IT_number 2
_symmetry_cell_setting 'triclinic'
loop_
_space_group_symop_operation_xyz
x,y,z
-x,-y,-z
loop_
_atom_site_type_symbol
_atom_site_label
_atom_site_fract_x
_atom_site_fract_y
_atom_site_fract_z
Si Si1 0.767584 0.139379 0.533425
Si Si2 0.072393 0.541040 0.800020
Si Si3 0.009504 0.674034 0.007441
Si Si4 0.362314 0.950156 0.399510
Si Si5 0.490078 0.669188 0.110594
Si Si6 0.394690 0.573192 0.216302
Si Si7 0.853420 0.932861 0.315087
O O1 0.500000 0.500000 0.500000
O O2 0.776016 0.973569 0.557476
O O3 0.961277 0.105673 0.644211
O O4 0.832222 0.998663 0.428219
O O5 0.258692 0.459290 0.803580
O O6 0.075538 0.332775 0.737955
O O7 0.134412 0.536932 0.931758
O O8 0.803040 0.857088 0.715823
O O9 0.127670 0.728926 0.132936
O O10 0.000000 0.500000 0.000000
O O11 0.723073 0.996765 0.933417
O O12 0.480974 0.644834 0.348345
O O13 0.500000 0.000000 0.500000
O O14 0.419092 0.645336 0.157827
O O15 0.500000 0.500000 0.000000
O O16 0.584581 0.231120 0.221882
#
# Coordination Sequence:
#
# PCOD9075414 Si02
#       7
#     2   2   2   2   2   2   2
#     4  11  24  48  69 100 139 187 234 284 345 408
#     4  12  27  47  70 107 140 183 236 288 350 417
#     4  12  28  46  73 105 145 182 231 293 353 415
#     4  12  27  45  75 101 144 187 231 291 352 408
#     4  12  25  46  73 100 140 187 234 283 346 420
#     4  12  25  48  71 106 141 187 232 286 353 416
#     4  11  27  43  74 102 139 185 235 285 346 419
#
# _framework density 22.813683000000001
#
# number of rings (size 3 to 8) (size 9 to 14) (size 15 to 20)
#    0.000    0.286    4.286    3.857    8.000    4.000 
#    0.000    0.000    0.000    0.000    0.000    0.000 
#    0.000    0.000    0.000    0.000    0.000    0.000 
#
# Total GULP energy -78101.266695 kJ/mol
# GULP energy per Si atom -5578.661907 kJ/mol
# Density = 2.276176 g / cm^3
# Si number density = 22.813683 Si / 1000 Ang^3
#
#
#
# Elastic Constant Matrix: (Units=GPa)
#
#
# Indices 1 2 3 4 5 6 
#
# 1 154.1425 18.9181 53.1655 15.4038 5.5676 40.7301
# 2 18.9181 47.2308 12.4587 17.8461 -22.5874 24.4207
# 3 53.1655 12.4587 76.5107 13.1816 -1.7408 0.4338
# 4 15.4038 17.8461 13.1816 29.0580 16.0723 4.4372
# 5 5.5676 -22.5874 -1.7408 16.0723 37.5132 -9.5614
# 6 40.7301 24.4207 0.4338 4.4372 -9.5614 36.6479
#
#
#
# Elastic Compliance Matrix: (Units=1/GPa)
#
#
# Indices 1 2 3 4 5 6 
#
# 1 0.016382 -0.000634 -0.012730 0.007524 -0.012163 -0.021718
# 2 -0.000634 -0.339851 -0.022304 0.403326 -0.356563 0.085572
# 3 -0.012730 -0.022304 0.023345 0.010813 -0.008676 0.025162
# 4 0.007524 0.403326 0.010813 -0.418730 0.389814 -0.124850
# 5 -0.012163 -0.356563 -0.008676 0.389814 -0.323132 0.119718
# 6 -0.021718 0.085572 0.025162 -0.124850 0.119718 0.040456
#
#
# Mechanical properties :
#
#
# Convention : Reuss Voigt Hill
#
# Bulk Modulus (GPa) = -2.69207 49.66317 23.48555
# Shear Modulus (GPa) = -4.74378 33.53326 14.39474
#
# Velocity S-wave (km/s) = -1.44356 3.83805 2.51464
# Velocity P-wave (km/s) = 1.99025 6.43872 4.32990
#
# Compressibility (1/GPa) = -0.37146117
#
# Stress axis : x y z
#
# Youngs Moduli (GPa) = 61.04087 -2.94246 42.83568
#
# Poissons Ratio (x) = -0.00187 0.54532
# Poissons Ratio (y) = 0.03872 0.95540
# Poissons Ratio (z) = 0.77708 -0.06563
#
# Static dielectric constant tensor:
#      x y z
#    x 6.807870 -2.368320 0.605900 
#    y -2.368320 2.942100 -0.310320 
#    z 0.605900 -0.310320 1.970950 
# 
# From -- ./inp_files/27213.got.cif
#   From: 2010.05.17/outbox.ucp.g08.bks.cvg/sg2_14_cif.got.tgz:27213.got - 2010.06.11 11:32:03.
