data_PCOD9075359
_publ_section_title
;
Structure prediction by ZEFSAII (Michael W. Deem and Ramdas Pophale) SiO2 
 PCOD9075359
Probable space group: P -1
;
_chemical_formula_sum "Si O2"
_cell_formula_units_Z 16
_cell_length_a 18.000000
_cell_length_b 9.000000
_cell_length_c 6.000000
_cell_angle_alpha 130.000000
_cell_angle_beta 90.000000
_cell_angle_gamma 80.000000
_cell_volume 725.212580
_symmetry_space_group_name_H-M "P -1"
_symmetry_group_IT_number 2
_symmetry_cell_setting 'triclinic'
loop_
_space_group_symop_operation_xyz
x,y,z
-x,-y,-z
loop_
_atom_site_type_symbol
_atom_site_label
_atom_site_fract_x
_atom_site_fract_y
_atom_site_fract_z
Si Si1 0.457538 0.723738 0.257282
Si Si2 0.849501 0.293334 0.594281
Si Si3 0.863406 0.581778 0.518687
Si Si4 0.560063 0.951975 0.758730
Si Si5 0.682644 0.406415 0.758405
Si Si6 0.693598 0.594124 0.433117
Si Si7 0.977309 0.318565 0.943050
Si Si8 0.921304 0.942916 0.008344
O O1 0.517290 0.830369 0.474669
O O2 0.381196 0.719873 0.385944
O O3 0.432030 0.842025 0.146468
O O4 0.500000 0.500000 0.000000
O O5 0.851412 0.508640 0.699106
O O6 0.768582 0.290027 0.688873
O O7 0.860012 0.142575 0.242617
O O8 0.918942 0.237560 0.710776
O O9 0.783080 0.591553 0.409198
O O10 0.930953 0.415286 0.253263
O O11 0.890803 0.786915 0.709228
O O12 0.641195 0.813431 0.676774
O O13 0.500000 0.000000 0.000000
O O14 0.684207 0.498956 0.592299
O O15 0.668436 0.521416 0.115756
O O16 0.000000 0.500000 0.000000
O O17 0.054073 0.167750 0.865578
O O18 0.000000 0.000000 0.000000
#
# Coordination Sequence:
#
# PCOD9075359 Si02
#       8
#     2   2   2   2   2   2   2   2
#     4  11  24  46  74 105 148 188 235 293 351 417
#     4  11  24  45  66  99 136 180 236 289 357 422
#     4  11  24  46  66  94 144 181 224 296 363 412
#     4  11  26  44  74 111 145 190 240 287 352 427
#     4  11  25  47  75 104 144 193 237 294 357 424
#     4  11  25  48  74 103 147 190 236 291 362 425
#     4  12  22  42  68  92 133 182 227 291 357 412
#     4  12  24  42  68  99 132 180 239 294 349 424
#
# _framework density 22.062495999999999
#
# number of rings (size 3 to 8) (size 9 to 14) (size 15 to 20)
#    0.000    0.750    5.000    2.250    3.500    2.000 
#    9.000    0.000    0.000    0.000    0.000    0.000 
#    0.000    0.000    0.000    0.000    0.000    0.000 
#
# Total GULP energy -89087.174000 kJ/mol
# GULP energy per Si atom -5567.948375 kJ/mol
# Density = 2.201228 g / cm^3
# Si number density = 22.062496 Si / 1000 Ang^3
#
#
#
# Elastic Constant Matrix: (Units=GPa)
#
#
# Indices 1 2 3 4 5 6 
#
# 1 95.9019 27.3386 6.5267 13.5144 -4.9810 7.5234
# 2 27.3386 83.8965 16.5083 8.5169 -2.6266 12.3504
# 3 6.5267 16.5083 64.9285 10.8073 -5.5403 5.4153
# 4 13.5144 8.5169 10.8073 29.0504 -0.4304 3.6975
# 5 -4.9810 -2.6266 -5.5403 -0.4304 34.9005 -5.5493
# 6 7.5234 12.3504 5.4153 3.6975 -5.5493 30.2629
#
#
#
# Elastic Compliance Matrix: (Units=1/GPa)
#
#
# Indices 1 2 3 4 5 6 
#
# 1 0.012176 -0.003433 0.000634 -0.004758 0.001377 -0.000905
# 2 -0.003433 0.014333 -0.002809 -0.000999 -0.000581 -0.004478
# 3 0.000634 -0.002809 0.017294 -0.005747 0.002400 -0.000963
# 4 -0.004758 -0.000999 -0.005747 0.039359 -0.001575 -0.002479
# 5 0.001377 -0.000581 0.002400 -0.001575 0.029987 0.005157
# 6 -0.000905 -0.004478 -0.000963 -0.002479 0.005157 0.036517
#
#
# Mechanical properties :
#
#
# Convention : Reuss Voigt Hill
#
# Bulk Modulus (GPa) = 30.68741 38.38602 34.53671
# Shear Modulus (GPa) = 29.11293 31.79966 30.45629
#
# Velocity S-wave (km/s) = 3.63652 3.80062 3.71948
# Velocity P-wave (km/s) = 5.61889 6.05774 5.84244
#
# Compressibility (1/GPa) = 0.03258666
#
# Stress axis : x y z
#
# Youngs Moduli (GPa) = 82.12966 69.76787 57.82420
#
# Poissons Ratio (x) = 0.23951 -0.03666
# Poissons Ratio (y) = 0.28195 0.16243
# Poissons Ratio (z) = -0.05206 0.19599
#
# Static dielectric constant tensor:
#      x y z
#    x 1.836590 -0.040210 -0.043470 
#    y -0.040210 1.742270 -0.230570 
#    z -0.043470 -0.230570 1.628740 
# 
# From -- ./inp_files/10685.got.cif
#   From: 2010.05.17/outbox.ucp.g08.bks.cvg/sg2_6_cif.got.tgz:10685.got - 2010.06.11 11:32:03.
