data_PCOD9075553
_publ_section_title
;
Structure prediction by ZEFSAII (Michael W. Deem and Ramdas Pophale) SiO2 
 PCOD9075553
Probable space group: P -1
;
_chemical_formula_sum "Si O2"
_cell_formula_units_Z 14
_cell_length_a 12.000000
_cell_length_b 30.000000
_cell_length_c 30.000000
_cell_angle_alpha 170.000000
_cell_angle_beta 160.000000
_cell_angle_gamma 20.000000
_cell_volume 622.618477
_symmetry_space_group_name_H-M "P -1"
_symmetry_group_IT_number 2
_symmetry_cell_setting 'triclinic'
loop_
_space_group_symop_operation_xyz
x,y,z
-x,-y,-z
loop_
_atom_site_type_symbol
_atom_site_label
_atom_site_fract_x
_atom_site_fract_y
_atom_site_fract_z
Si Si1 0.662315 0.208819 0.293692
Si Si2 0.376012 0.929229 0.092769
Si Si3 0.470179 0.069986 0.461223
Si Si4 0.151963 0.442640 0.396988
Si Si5 0.279329 0.498177 0.959033
Si Si6 0.565336 0.416945 0.610920
Si Si7 0.252770 0.985429 0.202395
O O1 0.500000 0.500000 0.500000
O O2 0.500041 0.248991 0.321262
O O3 0.062146 0.145686 0.386926
O O4 0.500000 0.000000 0.000000
O O5 0.388579 0.005195 0.223653
O O6 0.597755 0.108432 0.329155
O O7 0.488233 0.613628 0.818046
O O8 0.000000 0.000000 0.000000
O O9 0.502257 0.007780 0.358594
O O10 0.637178 0.287392 0.762473
O O11 0.607753 0.789383 0.259561
O O12 0.240684 0.481320 0.519908
O O13 0.042491 0.745573 0.637596
O O14 0.890200 0.280356 0.118627
O O15 0.500000 0.500000 0.000000
O O16 0.897893 0.504769 0.806104
#
# Coordination Sequence:
#
# PCOD9075553 Si02
#       7
#     2   2   2   2   2   2   2
#     4  12  22  38  63 101 137 171 222 282 356 419
#     4  12  23  44  70 107 141 179 229 294 354 412
#     4  12  25  46  68 100 144 183 231 293 346 409
#     4  12  21  39  65 101 137 175 220 287 352 411
#     4  12  28  50  72  97 141 193 239 280 335 429
#     4  12  25  44  71 101 137 186 241 280 345 415
#     4  12  24  40  69 102 139 172 223 289 358 403
#
# _framework density 22.485679999999999
#
# number of rings (size 3 to 8) (size 9 to 14) (size 15 to 20)
#    0.000    0.000    5.714    5.143    0.000    2.286 
#    0.000    4.286    0.000    0.000    0.000    0.000 
#    0.000    0.000    0.000    0.000    0.000    0.000 
#
# Total GULP energy -78063.547688 kJ/mol
# GULP energy per Si atom -5575.967692 kJ/mol
# Density = 2.243450 g / cm^3
# Si number density = 22.485680 Si / 1000 Ang^3
#
#
#
# Elastic Constant Matrix: (Units=GPa)
#
#
# Indices 1 2 3 4 5 6 
#
# 1 86.8581 -1.6129 28.9782 -10.6882 -21.5439 15.5920
# 2 -1.6129 37.9221 33.4587 -4.2290 2.0510 10.7119
# 3 28.9782 33.4587 225.0409 -12.4321 -16.5173 10.1643
# 4 -10.6882 -4.2290 -12.4321 49.1473 -0.6907 -0.1859
# 5 -21.5439 2.0510 -16.5173 -0.6907 41.1657 -8.2582
# 6 15.5920 10.7119 10.1643 -0.1859 -8.2582 32.6976
#
#
#
# Elastic Compliance Matrix: (Units=1/GPa)
#
#
# Indices 1 2 3 4 5 6 
#
# 1 0.015155 0.003990 -0.001641 0.003281 0.005818 -0.006535
# 2 0.003990 0.035460 -0.005389 0.002445 -0.004396 -0.012941
# 3 -0.001641 -0.005389 0.005572 0.000621 0.001917 0.001304
# 4 0.003281 0.002445 0.000621 0.021446 0.001807 -0.001980
# 5 0.005818 -0.004396 0.001917 0.001807 0.029463 0.005521
# 6 -0.006535 -0.012941 0.001304 -0.001980 0.005521 0.038917
#
#
# Mechanical properties :
#
#
# Convention : Reuss Voigt Hill
#
# Bulk Modulus (GPa) = 19.95753 52.38546 36.17149
# Shear Modulus (GPa) = 29.62158 43.86859 36.74509
#
# Velocity S-wave (km/s) = 3.63347 4.42176 4.04685
# Velocity P-wave (km/s) = 5.14760 7.02973 6.16096
#
# Compressibility (1/GPa) = 0.05010640
#
# Stress axis : x y z
#
# Youngs Moduli (GPa) = 65.98659 28.20072 179.45763
#
# Poissons Ratio (x) = -0.11252 0.29453
# Poissons Ratio (y) = -0.26328 0.96710
# Poissons Ratio (z) = 0.10830 0.15197
#
# Static dielectric constant tensor:
#      x y z
#    x 2.059960 -0.068340 0.043100 
#    y -0.068340 1.844030 0.023200 
#    z 0.043100 0.023200 1.787600 
# 
# From -- ./inp_files/434170.got.cif
#   From: 2010.05.17/outbox.ucp.g08.bks.cvg/sg2_218_cif.got.tgz:434170.got - 2010.06.11 11:32:03.
