data_PCOD9075263
_publ_section_title
;
Structure prediction by ZEFSAII (Michael W. Deem and Ramdas Pophale) SiO2 
 PCOD9075263
Probable space group: P -1
;
_chemical_formula_sum "Si O2"
_cell_formula_units_Z 16
_cell_length_a 9.000000
_cell_length_b 27.000000
_cell_length_c 12.000000
_cell_angle_alpha 30.000000
_cell_angle_beta 40.000000
_cell_angle_gamma 30.000000
_cell_volume 727.497153
_symmetry_space_group_name_H-M "P -1"
_symmetry_group_IT_number 2
_symmetry_cell_setting 'triclinic'
loop_
_space_group_symop_operation_xyz
x,y,z
-x,-y,-z
loop_
_atom_site_type_symbol
_atom_site_label
_atom_site_fract_x
_atom_site_fract_y
_atom_site_fract_z
Si Si1 0.065643 0.695720 0.465711
Si Si2 0.047293 0.380477 0.656139
Si Si3 0.158648 0.812882 0.969239
Si Si4 0.106626 0.080732 0.752469
Si Si5 0.381643 0.307261 0.380700
Si Si6 0.037454 0.079871 0.538078
Si Si7 0.570742 0.568851 0.091909
Si Si8 0.701158 0.881139 0.903051
O O1 0.223550 0.554797 0.704306
O O2 0.099784 0.770883 0.391501
O O3 0.734379 0.747806 0.526221
O O4 0.150303 0.737411 0.224722
O O5 0.144944 0.371708 0.490495
O O6 0.000000 0.500000 0.500000
O O7 0.732939 0.410450 0.783467
O O8 0.275145 0.244684 0.854019
O O9 0.893279 0.863049 0.934548
O O10 0.472151 0.697273 0.959066
O O11 0.123253 0.939897 0.759183
O O12 0.150073 0.078680 0.598887
O O13 0.372355 0.012796 0.823663
O O14 0.000000 0.000000 0.000000
O O15 0.687916 0.194024 0.487621
O O16 0.364370 0.411026 0.111405
O O17 0.171546 0.110014 0.302858
#
# Coordination Sequence:
#
# PCOD9075263 Si02
#       8
#     2   2   2   2   2   2   2   2
#     4  12  26  46  72 102 146 191 239 299 350 426
#     4  11  26  44  75 104 145 192 233 295 356 426
#     4  11  23  45  76 101 141 190 238 293 352 424
#     4  12  27  43  67 106 141 186 238 292 360 424
#     4  12  25  48  75 105 141 189 245 291 357 424
#     4  12  25  45  73 107 145 185 236 301 359 423
#     4  11  26  48  69 109 144 188 243 290 356 422
#     4  11  24  48  66 106 144 183 241 290 361 422
#
# _framework density 21.993213000000001
#
# number of rings (size 3 to 8) (size 9 to 14) (size 15 to 20)
#    0.000    0.500    6.250    3.000    5.250    2.500 
#    0.000    0.000    0.000    0.000    0.000    0.000 
#    0.000    0.000    0.000    0.000    0.000    0.000 
#
# Total GULP energy -89092.756090 kJ/mol
# GULP energy per Si atom -5568.297256 kJ/mol
# Density = 2.194316 g / cm^3
# Si number density = 21.993213 Si / 1000 Ang^3
#
#
#
# Elastic Constant Matrix: (Units=GPa)
#
#
# Indices 1 2 3 4 5 6 
#
# 1 72.6647 36.1529 48.6558 -15.6101 28.0065 16.0679
# 2 36.1529 41.5278 61.9717 -0.3327 -4.9743 5.3691
# 3 48.6558 61.9717 198.6785 5.9151 49.6650 28.0933
# 4 -15.6101 -0.3327 5.9151 42.6002 -10.3131 7.0016
# 5 28.0065 -4.9743 49.6650 -10.3131 20.1337 -17.1171
# 6 16.0679 5.3691 28.0933 7.0016 -17.1171 31.1120
#
#
#
# Elastic Compliance Matrix: (Units=1/GPa)
#
#
# Indices 1 2 3 4 5 6 
#
# 1 0.013111 0.002727 -0.008864 0.008423 0.014375 0.006776
# 2 0.002727 0.017268 0.002745 -0.001809 -0.023895 -0.019606
# 3 -0.008864 0.002745 0.003452 -0.002695 0.008391 0.006210
# 4 0.008423 -0.001809 -0.002695 0.028941 0.004524 -0.005628
# 5 0.014375 -0.023895 0.008391 0.004524 -0.008881 -0.016782
# 6 0.006776 -0.019606 0.006210 -0.005628 -0.016782 0.018452
#
#
# Mechanical properties :
#
#
# Convention : Reuss Voigt Hill
#
# Bulk Modulus (GPa) = 36.97180 67.38130 52.17655
# Shear Modulus (GPa) = 56.72684 29.84189 43.28437
#
# Velocity S-wave (km/s) = 5.08418 3.68757 4.44112
# Velocity P-wave (km/s) = 7.16325 6.98818 7.07626
#
# Compressibility (1/GPa) = 0.02704764
#
# Stress axis : x y z
#
# Youngs Moduli (GPa) = 76.27243 57.91173 289.67294
#
# Poissons Ratio (x) = -0.15791 2.56757
# Poissons Ratio (y) = -0.20797 -0.79529
# Poissons Ratio (z) = 0.67606 -0.15899
#
# Static dielectric constant tensor:
#      x y z
#    x 1.931620 0.038580 -0.074890 
#    y 0.038580 2.073710 0.010820 
#    z -0.074890 0.010820 1.813810 
# 
# From -- ./inp_files/407317.got.cif
#   From: 2010.05.17/outbox.ucp.g08.bks.cvg/sg2_204_cif.got.tgz:407317.got - 2010.06.11 11:32:03.
