data_PCOD9075638
_publ_section_title
;
Structure prediction by ZEFSAII (Michael W. Deem and Ramdas Pophale) SiO2 
 PCOD9075638
Probable space group: P -1
;
_chemical_formula_sum "Si O2"
_cell_formula_units_Z 16
_cell_length_a 9.000000
_cell_length_b 27.000000
_cell_length_c 27.000000
_cell_angle_alpha 170.000000
_cell_angle_beta 40.000000
_cell_angle_gamma 140.000000
_cell_volume 728.340053
_symmetry_space_group_name_H-M "P -1"
_symmetry_group_IT_number 2
_symmetry_cell_setting 'triclinic'
loop_
_space_group_symop_operation_xyz
x,y,z
-x,-y,-z
loop_
_atom_site_type_symbol
_atom_site_label
_atom_site_fract_x
_atom_site_fract_y
_atom_site_fract_z
Si Si1 0.738253 0.402676 0.866263
Si Si2 0.183839 0.777811 0.727956
Si Si3 0.782847 0.854774 0.380950
Si Si4 0.150187 0.644554 0.931003
Si Si5 0.452214 0.218983 0.269958
Si Si6 0.642091 0.371970 0.664254
Si Si7 0.977721 0.924667 0.150818
Si Si8 0.474150 0.178278 0.406120
O O1 0.696648 0.097279 0.604423
O O2 0.500000 0.500000 0.000000
O O3 0.845079 0.613927 0.090024
O O4 0.932574 0.456293 0.826737
O O5 0.370660 0.769068 0.716593
O O6 0.321765 0.855867 0.718570
O O7 0.000000 0.500000 0.500000
O O8 0.000000 0.000000 0.000000
O O9 0.590665 0.687705 0.301901
O O10 0.000000 0.000000 0.500000
O O11 0.074699 0.781763 0.034190
O O12 0.283165 0.899979 0.181949
O O13 0.343090 0.429522 0.662770
O O14 0.500000 0.500000 0.500000
O O15 0.194465 0.098555 0.237570
O O16 0.500000 0.000000 0.000000
O O17 0.570730 0.273934 0.529926
O O18 0.810527 0.163571 0.441304
O O19 0.799636 0.679878 0.927813
#
# Coordination Sequence:
#
# PCOD9075638 Si02
#       8
#     2   2   2   2   2   2   2   2
#     4  12  25  43  71 104 140 185 238 292 352 412
#     4  12  28  49  75 106 142 182 233 287 348 424
#     4  12  25  45  69 104 145 186 239 293 351 414
#     4  12  24  47  72 100 141 190 234 292 347 420
#     4  12  28  49  75 106 142 184 229 287 358 418
#     4  12  26  45  72 105 142 190 235 293 349 413
#     4  12  27  47  72 104 145 182 239 289 350 424
#     4  12  27  47  72 103 141 187 239 281 353 417
#
# _framework density 21.967760999999999
#
# number of rings (size 3 to 8) (size 9 to 14) (size 15 to 20)
#    0.000    0.000    1.250    9.000    7.000    0.000 
#    0.000    0.000    0.000    0.000    0.000    0.000 
#    0.000    0.000    0.000    0.000    0.000    0.000 
#
# Total GULP energy -89420.330451 kJ/mol
# GULP energy per Si atom -5588.770653 kJ/mol
# Density = 2.191776 g / cm^3
# Si number density = 21.967761 Si / 1000 Ang^3
#
#
#
# Elastic Constant Matrix: (Units=GPa)
#
#
# Indices 1 2 3 4 5 6 
#
# 1 95.0013 52.6424 6.7041 8.9874 7.3382 3.3503
# 2 52.6424 175.9917 22.7343 13.5486 0.7966 0.3486
# 3 6.7041 22.7343 102.9901 19.5583 0.7534 6.5519
# 4 8.9874 13.5486 19.5583 41.6038 8.3753 4.3905
# 5 7.3382 0.7966 0.7534 8.3753 45.6873 9.9284
# 6 3.3503 0.3486 6.5519 4.3905 9.9284 49.0441
#
#
#
# Elastic Compliance Matrix: (Units=1/GPa)
#
#
# Indices 1 2 3 4 5 6 
#
# 1 0.012866 -0.003777 0.000283 -0.001300 -0.001673 -0.000435
# 2 -0.003777 0.007039 -0.001122 -0.001111 0.000635 0.000329
# 3 0.000283 -0.001122 0.010941 -0.004903 0.000959 -0.001228
# 4 -0.001300 -0.001111 -0.004903 0.028005 -0.004648 -0.000815
# 5 -0.001673 0.000635 0.000959 -0.004648 0.023949 -0.004450
# 6 -0.000435 0.000329 -0.001228 -0.000815 -0.004450 0.021555
#
#
# Mechanical properties :
#
#
# Convention : Reuss Voigt Hill
#
# Bulk Modulus (GPa) = 46.26631 59.79383 53.03007
# Shear Modulus (GPa) = 41.39320 46.72719 44.06020
#
# Velocity S-wave (km/s) = 4.34553 4.61703 4.48334
# Velocity P-wave (km/s) = 6.80330 7.46329 7.14092
#
# Compressibility (1/GPa) = 0.02161400
#
# Stress axis : x y z
#
# Youngs Moduli (GPa) = 77.72159 142.07042 91.39776
#
# Poissons Ratio (x) = 0.53655 -0.02586
# Poissons Ratio (y) = 0.29353 0.10259
# Poissons Ratio (z) = -0.02199 0.15947
#
# Static dielectric constant tensor:
#      x y z
#    x 1.767290 -0.022230 -0.001290 
#    y -0.022230 1.692490 -0.050310 
#    z -0.001290 -0.050310 1.826600 
# 
# From -- ./inp_files/617701.got.cif
#   From: 2010.05.17/outbox.ucp.g08.bks.cvg/sg2_309_cif.got.tgz:617701.got - 2010.06.11 11:32:03.
