data_PCOD9075622
_publ_section_title
;
Structure prediction by ZEFSAII (Michael W. Deem and Ramdas Pophale) SiO2 
 PCOD9075622
Probable space group: P -1
;
_chemical_formula_sum "Si O2"
_cell_formula_units_Z 16
_cell_length_a 30.000000
_cell_length_b 30.000000
_cell_length_c 30.000000
_cell_angle_alpha 170.000000
_cell_angle_beta 170.000000
_cell_angle_gamma 10.000000
_cell_volume 706.864038
_symmetry_space_group_name_H-M "P -1"
_symmetry_group_IT_number 2
_symmetry_cell_setting 'triclinic'
loop_
_space_group_symop_operation_xyz
x,y,z
-x,-y,-z
loop_
_atom_site_type_symbol
_atom_site_label
_atom_site_fract_x
_atom_site_fract_y
_atom_site_fract_z
Si Si1 0.580760 0.530559 0.938672
Si Si2 0.845631 0.479065 0.372516
Si Si3 0.540332 0.413607 0.403337
Si Si4 0.932966 0.889738 0.621582
Si Si5 0.920372 0.563578 0.157783
Si Si6 0.773201 0.908528 0.261815
Si Si7 0.255189 0.864650 0.822234
Si Si8 0.178068 0.780590 0.035810
O O1 0.686813 0.355644 0.917389
O O2 0.225168 0.749296 0.803361
O O3 0.697027 0.240402 0.736312
O O4 0.756459 0.709346 0.277404
O O5 0.489165 0.630150 0.166119
O O6 0.000000 0.500000 0.500000
O O7 0.005811 0.134382 0.206121
O O8 0.942131 0.668988 0.685868
O O9 0.500000 0.500000 0.500000
O O10 0.886528 0.216153 0.538867
O O11 0.393448 0.732835 0.547095
O O12 0.389313 0.211888 0.049017
O O13 0.102053 0.855018 0.707784
O O14 0.784049 0.728181 0.139204
O O15 0.165155 0.662850 0.505470
O O16 0.090434 0.205816 0.978008
O O17 0.611134 0.716942 0.032741
#
# Coordination Sequence:
#
# PCOD9075622 Si02
#       8
#     2   2   2   2   2   2   2   2
#     4  12  25  43  66  96 129 168 211 260 316 375
#     4  12  25  44  67  96 129 168 211 260 313 372
#     4  12  24  42  66  96 129 168 211 260 316 378
#     4  12  25  43  66  94 128 166 210 262 316 375
#     4  12  25  43  66  94 127 168 213 262 316 375
#     4  12  24  43  65  94 129 168 211 262 315 375
#     4  12  24  43  65  94 126 166 212 262 315 375
#     4  12  24  43  67  96 129 168 211 260 313 375
#
# _framework density 22.635186999999998
#
# number of rings (size 3 to 8) (size 9 to 14) (size 15 to 20)
#    0.000    0.000    0.000   12.000    0.000    0.000 
#    0.000    0.000    0.000    0.000    0.000    0.000 
#    0.000    0.000    0.000    0.000    0.000    0.000 
#
# Total GULP energy -89457.628424 kJ/mol
# GULP energy per Si atom -5591.101776 kJ/mol
# Density = 2.258367 g / cm^3
# Si number density = 22.635187 Si / 1000 Ang^3
#
#
#
# Elastic Constant Matrix: (Units=GPa)
#
#
# Indices 1 2 3 4 5 6 
#
# 1 54.1388 -25.7962 -9.6320 6.7789 16.2380 6.4369
# 2 -25.7962 145.4518 70.8370 8.2986 25.1230 -2.4909
# 3 -9.6320 70.8370 171.3621 14.6579 24.1134 0.8666
# 4 6.7789 8.2986 14.6579 42.8595 5.1485 16.2079
# 5 16.2380 25.1230 24.1134 5.1485 35.6835 -2.9482
# 6 6.4369 -2.4909 0.8666 16.2079 -2.9482 41.7617
#
#
#
# Elastic Compliance Matrix: (Units=1/GPa)
#
#
# Indices 1 2 3 4 5 6 
#
# 1 0.029417 0.008072 0.001374 -0.002586 -0.019996 -0.004489
# 2 0.008072 0.011393 -0.002793 -0.001065 -0.009718 -0.000779
# 3 0.001374 -0.002793 0.007737 -0.001859 -0.003625 -0.000073
# 4 -0.002586 -0.001065 -0.001859 0.028974 -0.001906 -0.011006
# 5 -0.019996 -0.009718 -0.003625 -0.001906 0.047239 0.006652
# 6 -0.004489 -0.000779 -0.000073 -0.011006 0.006652 0.029334
#
#
# Mechanical properties :
#
#
# Convention : Reuss Voigt Hill
#
# Bulk Modulus (GPa) = 16.16726 49.08559 32.62642
# Shear Modulus (GPa) = 30.97781 46.43053 38.70417
#
# Velocity S-wave (km/s) = 3.70343 4.53399 4.13959
# Velocity P-wave (km/s) = 5.04433 7.01014 6.10685
#
# Compressibility (1/GPa) = 0.06185340
#
# Stress axis : x y z
#
# Youngs Moduli (GPa) = 33.99409 87.77221 129.24816
#
# Poissons Ratio (x) = -0.70853 -0.17762
# Poissons Ratio (y) = -0.27441 0.36104
# Poissons Ratio (z) = -0.04672 0.24518
#
# Static dielectric constant tensor:
#      x y z
#    x 2.033450 -0.004370 -0.114820 
#    y -0.004370 1.782040 -0.025860 
#    z -0.114820 -0.025860 1.859810 
# 
# From -- ./inp_files/624416.got.cif
#   From: 2010.05.17/outbox.ucp.g08.bks.cvg/sg2_313_cif.got.tgz:624416.got - 2010.06.11 11:32:03.
