data_PCOD9075540
_publ_section_title
;
Structure prediction by ZEFSAII (Michael W. Deem and Ramdas Pophale) SiO2 
 PCOD9075540
Probable space group: P -1
;
_chemical_formula_sum "Si O2"
_cell_formula_units_Z 16
_cell_length_a 20.184833
_cell_length_b 11.029951
_cell_length_c 10.255187
_cell_angle_alpha 130.507322
_cell_angle_beta 34.636547
_cell_angle_gamma 149.624115
_cell_volume 641.608781
_symmetry_space_group_name_H-M "P -1"
_symmetry_group_IT_number 2
_symmetry_cell_setting 'triclinic'
loop_
_space_group_symop_operation_xyz
x,y,z
-x,-y,-z
loop_
_atom_site_type_symbol
_atom_site_label
_atom_site_fract_x
_atom_site_fract_y
_atom_site_fract_z
Si Si1 0.969584 0.578459 0.782664
Si Si2 0.102325 0.850825 0.308584
Si Si3 0.312878 0.342900 0.779396
Si Si4 0.366330 0.725666 0.061752
Si Si5 0.590693 0.740088 0.207140
Si Si6 0.917985 0.034361 0.301352
Si Si7 0.464711 0.669123 0.109269
Si Si8 0.026383 0.711041 0.063291
O O1 0.974424 0.400432 0.695093
O O2 0.107062 0.832366 0.656210
O O3 0.816885 0.418947 0.809615
O O4 0.932912 0.630127 0.016923
O O5 0.078256 0.935933 0.531214
O O6 0.001150 0.783393 0.289434
O O7 0.320006 0.080091 0.091300
O O8 0.416185 0.611638 0.831636
O O9 0.414749 0.310258 0.668381
O O10 0.249060 0.242729 0.668116
O O11 0.113497 0.163692 0.041717
O O12 0.364964 0.689827 0.192440
O O13 0.500000 0.000000 0.000000
O O14 0.444878 0.666917 0.295744
O O15 0.600706 0.573817 0.004479
O O16 0.766118 0.032418 0.121173
O O17 0.000000 0.500000 0.000000
#
# Coordination Sequence:
#
# PCOD9075540 Si02
#       8
#     2   2   2   2   2   2   2   2
#     4  10  18  32  55  77 107 143 175 217 267 318
#     4  10  19  32  52  83 110 134 178 226 263 307
#     4   9  19  33  55  75 104 146 174 214 271 323
#     4  10  18  32  54  78 102 136 185 218 251 323
#     4   9  16  33  53  73 106 138 180 210 258 325
#     4  10  19  33  52  80 109 135 177 223 271 315
#     4   9  18  31  52  79 102 139 179 218 256 311
#     4   9  18  31  52  80 106 137 178 216 262 312
#
# _framework density 24.937315000000002
#
# number of rings (size 3 to 8) (size 9 to 14) (size 15 to 20)
#    0.000    2.500    2.500    0.375    0.000    0.000 
#    0.000    5.000    0.000    0.000    6.500    4.375 
#    0.000    0.000    0.000    0.000    0.000    0.000 
#
# Total GULP energy -89155.861905 kJ/mol
# GULP energy per Si atom -5572.241369 kJ/mol
# Density = 2.488056 g / cm^3
# Si number density = 24.937315 Si / 1000 Ang^3
#
#
#
# Elastic Constant Matrix: (Units=GPa)
#
#
# Indices 1 2 3 4 5 6 
#
# 1 134.7983 54.1422 33.7676 10.9274 30.5421 16.2519
# 2 54.1422 162.9361 20.1866 -6.4674 14.2211 -3.4664
# 3 33.7676 20.1866 85.3393 5.7429 19.3640 21.2502
# 4 10.9274 -6.4674 5.7429 29.3624 20.0220 12.3005
# 5 30.5421 14.2211 19.3640 20.0220 19.5229 7.8128
# 6 16.2519 -3.4664 21.2502 12.3005 7.8128 43.0225
#
#
#
# Elastic Compliance Matrix: (Units=1/GPa)
#
#
# Indices 1 2 3 4 5 6 
#
# 1 -0.027110 -0.016943 -0.045095 -0.192007 0.282490 0.034746
# 2 -0.016943 0.002226 -0.017118 -0.068680 0.106136 0.015396
# 3 -0.045095 -0.017118 -0.034786 -0.218015 0.326769 0.035829
# 4 -0.192007 -0.068680 -0.218015 -0.928730 1.448196 0.177224
# 5 0.282490 0.106136 0.326769 1.448196 -2.165124 -0.280430
# 6 0.034746 0.015396 0.035829 0.177224 -0.280430 -0.006082
#
#
# Mechanical properties :
#
#
# Convention : Reuss Voigt Hill
#
# Bulk Modulus (GPa) = -4.58758 66.58517 30.99880
# Shear Modulus (GPa) = -1.62657 36.71339 17.54341
#
# Velocity S-wave (km/s) = -0.80850 3.84112 2.65524
# Velocity P-wave (km/s) = 1.64779 6.81405 4.67526
#
# Compressibility (1/GPa) = -0.21797980
#
# Stress axis : x y z
#
# Youngs Moduli (GPa) = -36.88743 449.26636 -28.74745
#
# Poissons Ratio (x) = 7.61178 -1.29637
# Poissons Ratio (y) = -0.62497 -0.49208
# Poissons Ratio (z) = -1.66344 7.69032
#
# Static dielectric constant tensor:
#      x y z
#    x 2.035180 0.003090 -0.019930 
#    y 0.003090 2.200030 -0.039270 
#    z -0.019930 -0.039270 2.107170 
# 
# From -- ./inp_files/178986.got.cif
#   From: 2010.05.17/outbox.cif.g08.bks.cpg/sg2_90_cif.got.tgz:178986.got - 2010.06.03 11:33:40.
