data_PCOD9075446
_publ_section_title
;
Structure prediction by ZEFSAII (Michael W. Deem and Ramdas Pophale) SiO2 
 PCOD9075446
Probable space group: P -1
;
_chemical_formula_sum "Si O2"
_cell_formula_units_Z 15
_cell_length_a 12.000000
_cell_length_b 15.000000
_cell_length_c 21.000000
_cell_angle_alpha 160.000000
_cell_angle_beta 150.000000
_cell_angle_gamma 30.000000
_cell_volume 615.533390
_symmetry_space_group_name_H-M "P -1"
_symmetry_group_IT_number 2
_symmetry_cell_setting 'triclinic'
loop_
_space_group_symop_operation_xyz
x,y,z
-x,-y,-z
loop_
_atom_site_type_symbol
_atom_site_label
_atom_site_fract_x
_atom_site_fract_y
_atom_site_fract_z
Si Si1 0.750969 0.898153 0.184514
Si Si2 0.104243 0.701590 0.111932
Si Si3 0.862698 0.773463 0.784538
Si Si4 0.764767 0.779280 0.442756
Si Si5 0.750431 0.453480 0.331397
Si Si6 0.448267 0.881508 0.556254
Si Si7 0.000000 0.000000 0.500000
Si Si8 0.246233 0.159188 0.079894
O O1 0.815753 0.039095 0.373067
O O2 0.956194 0.798388 0.167957
O O3 0.524656 0.089523 0.164189
O O4 0.726157 0.606552 0.001077
O O5 0.194435 0.966170 0.327374
O O6 0.929246 0.677698 0.951748
O O7 0.640364 0.903710 0.716944
O O8 0.810572 0.729272 0.802479
O O9 0.002368 0.466259 0.624840
O O10 0.000000 0.000000 0.000000
O O11 0.657783 0.615083 0.329318
O O12 0.620014 0.895954 0.385519
O O13 0.564095 0.591448 0.385351
O O14 0.000000 0.500000 0.500000
O O15 0.793224 0.135778 0.135870
O O16 0.215873 0.899394 0.490223
#
# Coordination Sequence:
#
# PCOD9075446 Si02
#       8
#     2   2   2   2   2   2   1   2
#     4  11  26  48  68 104 143 190 251 306 352 447
#     4  11  25  45  73 101 143 189 248 298 365 435
#     4  12  26  47  69 109 153 185 244 309 369 442
#     4  12  25  47  75 110 145 200 244 299 382 442
#     4  12  23  47  76 107 153 189 250 305 365 447
#     4  12  26  48  74 105 150 200 241 312 367 444
#     4  12  26  50  72 106 150 196 246 306 378 426
#     4  12  24  44  72 106 141 195 240 309 366 431
#
# _framework density 24.369109000000002
#
# number of rings (size 3 to 8) (size 9 to 14) (size 15 to 20)
#    0.000    0.267    6.667    1.600    3.733    0.533 
#    2.400    2.000    0.000    0.000    0.000    0.000 
#    0.000    0.000    0.000    0.000    0.000    0.000 
#
# Total GULP energy -83684.970679 kJ/mol
# GULP energy per Si atom -5578.998045 kJ/mol
# Density = 2.431364 g / cm^3
# Si number density = 24.369109 Si / 1000 Ang^3
#
#
#
# Elastic Constant Matrix: (Units=GPa)
#
#
# Indices 1 2 3 4 5 6 
#
# 1 125.6274 31.4654 10.2688 -9.3890 -27.4068 -3.0498
# 2 31.4654 137.6308 17.8826 -21.4235 -3.6364 11.4332
# 3 10.2688 17.8826 13.8007 -19.5499 8.4497 4.6195
# 4 -9.3890 -21.4235 -19.5499 38.0974 14.1898 -10.4156
# 5 -27.4068 -3.6364 8.4497 14.1898 26.4691 -6.3739
# 6 -3.0498 11.4332 4.6195 -10.4156 -6.3739 51.4226
#
#
#
# Elastic Compliance Matrix: (Units=1/GPa)
#
#
# Indices 1 2 3 4 5 6 
#
# 1 0.006692 -0.002268 0.018720 0.012405 -0.005763 0.001018
# 2 -0.002268 0.008738 -0.002810 0.003427 -0.002433 -0.001432
# 3 0.018720 -0.002810 -0.072014 -0.060706 0.075808 0.005305
# 4 0.012405 0.003427 -0.060706 -0.013300 0.041728 0.007906
# 5 -0.005763 -0.002433 0.075808 0.041728 -0.015099 -0.000031
# 6 0.001018 -0.001432 0.005305 0.007906 -0.000031 0.020946
#
#
# Mechanical properties :
#
#
# Convention : Reuss Voigt Hill
#
# Bulk Modulus (GPa) = -34.12912 44.03249 4.95169
# Shear Modulus (GPa) = -49.46204 37.69396 -5.88404
#
# Velocity S-wave (km/s) = -4.51011 3.93720 -1.55557
# Velocity P-wave (km/s) = 6.41537 6.22711 1.09088
#
# Compressibility (1/GPa) = -0.02930049
#
# Stress axis : x y z
#
# Youngs Moduli (GPa) = 149.42134 114.44690 -13.88610
#
# Poissons Ratio (x) = 0.25960 0.25995
# Poissons Ratio (y) = 0.33893 -0.03902
# Poissons Ratio (z) = -2.79722 0.32162
#
# Static dielectric constant tensor:
#      x y z
#    x 1.967440 -0.039180 0.046920 
#    y -0.039180 1.979670 -0.056910 
#    z 0.046920 -0.056910 1.987380 
# 
# From -- ./inp_files/255996.got.cif
#   From: 2010.05.17/outbox.ucp.g08.bks.cvg/sg2_128_cif.got.tgz:255996.got - 2010.06.11 11:32:03.
