data_PCOD9075482
_publ_section_title
;
Structure prediction by ZEFSAII (Michael W. Deem and Ramdas Pophale) SiO2 
 PCOD9075482
Probable space group: P -1
;
_chemical_formula_sum "Si O2"
_cell_formula_units_Z 14
_cell_length_a 15.000000
_cell_length_b 12.000000
_cell_length_c 6.000000
_cell_angle_alpha 50.000000
_cell_angle_beta 110.000000
_cell_angle_gamma 130.000000
_cell_volume 629.093620
_symmetry_space_group_name_H-M "P -1"
_symmetry_group_IT_number 2
_symmetry_cell_setting 'triclinic'
loop_
_space_group_symop_operation_xyz
x,y,z
-x,-y,-z
loop_
_atom_site_type_symbol
_atom_site_label
_atom_site_fract_x
_atom_site_fract_y
_atom_site_fract_z
Si Si1 0.421747 0.470009 0.258098
Si Si2 0.885268 0.949229 0.095039
Si Si3 0.176269 0.378230 0.270667
Si Si4 0.970999 0.335555 0.848963
Si Si5 0.251391 0.698692 0.182797
Si Si6 0.344846 0.196453 0.189930
Si Si7 0.358751 0.872411 0.557359
O O1 0.500000 0.500000 0.500000
O O2 0.308262 0.470971 0.174602
O O3 0.361562 0.270524 0.359936
O O4 0.524025 0.643403 0.986185
O O5 0.871438 0.824768 0.449039
O O6 0.764027 0.827752 0.003907
O O7 0.916970 0.143723 0.932830
O O8 0.000000 0.000000 0.000000
O O9 0.197137 0.488235 0.375576
O O10 0.085025 0.384384 0.026403
O O11 0.859981 0.294689 0.946194
O O12 0.000000 0.500000 0.500000
O O13 0.308427 0.771577 0.392540
O O14 0.323362 0.782842 0.897340
O O15 0.322852 0.008226 0.373795
O O16 0.500000 0.000000 0.500000
#
# Coordination Sequence:
#
# PCOD9075482 Si02
#       7
#     2   2   2   2   2   2   2
#     4  11  25  47  73 112 154 207 258 330 395 471
#     4  12  26  46  76 115 158 206 270 326 405 480
#     4  12  27  47  80 112 158 209 270 325 404 481
#     4  12  27  51  78 118 163 212 270 337 411 480
#     4  12  28  49  80 114 161 209 270 332 410 476
#     4  11  26  45  76 110 156 201 267 326 395 479
#     4  12  28  48  80 113 161 213 269 330 404 484
#
# _framework density 22.254238999999998
#
# number of rings (size 3 to 8) (size 9 to 14) (size 15 to 20)
#    0.000    0.286    2.857    4.714    8.000    1.143 
#    0.000    0.000    0.000    0.000    0.000    0.000 
#    0.000    0.000    0.000    0.000    0.000    0.000 
#
# Total GULP energy -78054.888273 kJ/mol
# GULP energy per Si atom -5575.349162 kJ/mol
# Density = 2.220359 g / cm^3
# Si number density = 22.254239 Si / 1000 Ang^3
#
#
#
# Elastic Constant Matrix: (Units=GPa)
#
#
# Indices 1 2 3 4 5 6 
#
# 1 154.7868 52.0398 34.6577 4.6954 -3.6175 27.7160
# 2 52.0398 194.2310 47.2088 20.0277 14.6291 -4.2324
# 3 34.6577 47.2088 127.0441 1.7593 5.0463 4.7589
# 4 4.6954 20.0277 1.7593 51.3557 6.9835 11.6207
# 5 -3.6175 14.6291 5.0463 6.9835 43.2762 -0.8220
# 6 27.7160 -4.2324 4.7589 11.6207 -0.8220 60.5097
#
#
#
# Elastic Compliance Matrix: (Units=1/GPa)
#
#
# Indices 1 2 3 4 5 6 
#
# 1 0.008196 -0.002140 -0.001358 0.000839 0.001357 -0.003940
# 2 -0.002140 0.006609 -0.001844 -0.002545 -0.001748 0.002053
# 3 -0.001358 -0.001844 0.008957 0.000706 -0.000655 -0.000356
# 4 0.000839 -0.002545 0.000706 0.021837 -0.002768 -0.004849
# 5 0.001357 -0.001748 -0.000655 -0.002768 0.024338 0.000170
# 6 -0.003940 0.002053 -0.000356 -0.004849 0.000170 0.019436
#
#
# Mechanical properties :
#
#
# Convention : Reuss Voigt Hill
#
# Bulk Modulus (GPa) = 76.47715 82.65272 79.56494
# Shear Modulus (GPa) = 47.88464 53.83869 50.86167
#
# Velocity S-wave (km/s) = 4.64368 4.92393 4.78586
# Velocity P-wave (km/s) = 7.94931 8.33952 8.14675
#
# Compressibility (1/GPa) = 0.01307580
#
# Stress axis : x y z
#
# Youngs Moduli (GPa) = 122.01194 151.30781 111.64761
#
# Poissons Ratio (x) = 0.32384 0.15167
# Poissons Ratio (y) = 0.26114 0.20590
# Poissons Ratio (z) = 0.16575 0.27904
#
# Static dielectric constant tensor:
#      x y z
#    x 1.967760 -0.092550 -0.068410 
#    y -0.092550 1.853280 -0.016880 
#    z -0.068410 -0.016880 1.930340 
# 
# From -- ./inp_files/49007.got.cif
#   From: 2010.05.17/outbox.ucp.g08.bks.cvg/sg2_25_cif.got.tgz:49007.got - 2010.06.11 11:32:03.
