data_PCOD9075228
_publ_section_title
;
Structure prediction by ZEFSAII (Michael W. Deem and Ramdas Pophale) SiO2 
 PCOD9075228
Probable space group: P -1
;
_chemical_formula_sum "Si O2"
_cell_formula_units_Z 16
_cell_length_a 9.000000
_cell_length_b 24.000000
_cell_length_c 9.000000
_cell_angle_alpha 40.000000
_cell_angle_beta 100.000000
_cell_angle_gamma 130.000000
_cell_volume 729.599496
_symmetry_space_group_name_H-M "P -1"
_symmetry_group_IT_number 2
_symmetry_cell_setting 'triclinic'
loop_
_space_group_symop_operation_xyz
x,y,z
-x,-y,-z
loop_
_atom_site_type_symbol
_atom_site_label
_atom_site_fract_x
_atom_site_fract_y
_atom_site_fract_z
Si Si1 0.555134 0.376813 0.268241
Si Si2 0.599075 0.631010 0.446387
Si Si3 0.905614 0.550034 0.438117
Si Si4 0.006950 0.113704 0.553504
Si Si5 0.905424 0.038804 0.196266
Si Si6 0.530080 0.864405 0.210054
Si Si7 0.948390 0.628018 0.587985
Si Si8 0.796099 0.134472 0.231943
O O1 0.553948 0.435345 0.292753
O O2 0.560238 0.277716 0.515741
O O3 0.270761 0.253800 0.399726
O O4 0.795021 0.519432 0.922675
O O5 0.378657 0.549558 0.454895
O O6 0.779548 0.630013 0.490004
O O7 0.810592 0.803896 0.125818
O O8 0.914470 0.541237 0.633039
O O9 0.000000 0.500000 0.500000
O O10 0.095819 0.719879 0.088905
O O11 0.952617 0.169985 0.325429
O O12 0.068554 0.053781 0.592803
O O13 0.748681 0.981226 0.881165
O O14 0.835774 0.076100 0.235801
O O15 0.694338 0.954117 0.204606
O O16 0.255366 0.787938 0.324308
O O17 0.500000 0.000000 0.500000
#
# Coordination Sequence:
#
# PCOD9075228 Si02
#       8
#     2   2   2   2   2   2   2   2
#     4  11  23  44  70 107 137 189 240 290 359 435
#     4  12  24  45  73 100 144 185 244 286 366 428
#     4  12  29  49  72 101 148 194 238 301 363 426
#     4  11  23  45  75 102 147 186 239 294 362 432
#     4  11  24  45  75 104 141 194 232 297 358 432
#     4  11  23  46  72 107 144 185 234 297 365 427
#     4  12  26  43  73 105 143 190 238 302 357 428
#     4  12  28  46  70 109 141 188 247 296 359 432
#
# _framework density 21.929839999999999
#
# number of rings (size 3 to 8) (size 9 to 14) (size 15 to 20)
#    0.000    0.500    3.750    4.500    3.500    4.500 
#    0.000    0.000    0.000    0.000    0.000    0.000 
#    0.000    0.000    0.000    0.000    0.000    0.000 
#
# Total GULP energy -89311.144906 kJ/mol
# GULP energy per Si atom -5581.946557 kJ/mol
# Density = 2.187993 g / cm^3
# Si number density = 21.929840 Si / 1000 Ang^3
#
#
#
# Elastic Constant Matrix: (Units=GPa)
#
#
# Indices 1 2 3 4 5 6 
#
# 1 88.6784 39.8116 45.1254 1.4191 -13.1159 24.6592
# 2 39.8116 88.2386 21.6049 -7.3316 -18.2765 16.2428
# 3 45.1254 21.6049 77.7452 -5.9378 -23.3671 -2.5657
# 4 1.4191 -7.3316 -5.9378 33.9246 2.9502 -10.2869
# 5 -13.1159 -18.2765 -23.3671 2.9502 46.3912 -7.4046
# 6 24.6592 16.2428 -2.5657 -10.2869 -7.4046 36.5192
#
#
#
# Elastic Compliance Matrix: (Units=1/GPa)
#
#
# Indices 1 2 3 4 5 6 
#
# 1 0.029830 -0.006935 -0.019190 -0.012586 -0.006891 -0.023349
# 2 -0.006935 0.015384 0.001370 0.003404 0.004545 -0.000183
# 3 -0.019190 0.001370 0.028759 0.011133 0.012077 0.019953
# 4 -0.012586 0.003404 0.011133 0.038203 0.004049 0.019349
# 5 -0.006891 0.004545 0.012077 0.004049 0.028896 0.010480
# 6 -0.023349 -0.000183 0.019953 0.019349 0.010480 0.052207
#
#
# Mechanical properties :
#
#
# Convention : Reuss Voigt Hill
#
# Bulk Modulus (GPa) = 40.87804 51.97177 46.42490
# Shear Modulus (GPa) = 19.92475 33.24167 26.58321
#
# Velocity S-wave (km/s) = 3.01752 3.89758 3.48543
# Velocity P-wave (km/s) = 5.55170 6.63365 6.11665
#
# Compressibility (1/GPa) = 0.02446301
#
# Stress axis : x y z
#
# Youngs Moduli (GPa) = 33.52303 65.00110 34.77209
#
# Poissons Ratio (x) = 0.45080 0.66727
# Poissons Ratio (y) = 0.23249 -0.04764
# Poissons Ratio (z) = 0.64330 -0.08906
#
# Static dielectric constant tensor:
#      x y z
#    x 1.854770 -0.002070 0.006940 
#    y -0.002070 1.840780 0.046430 
#    z 0.006940 0.046430 1.797730 
# 
# From -- ./inp_files/225985.got.cif
#   From: 2010.05.17/outbox.ucp.g08.bks.cvg/sg2_113_cif.got.tgz:225985.got - 2010.06.11 11:32:03.
