data_PCOD9075456
_publ_section_title
;
Structure prediction by ZEFSAII (Michael W. Deem and Ramdas Pophale) SiO2 
 PCOD9075456
Probable space group: P -1
;
_chemical_formula_sum "Si O2"
_cell_formula_units_Z 12
_cell_length_a 6.000000
_cell_length_b 12.000000
_cell_length_c 15.000000
_cell_angle_alpha 140.000000
_cell_angle_beta 130.000000
_cell_angle_gamma 70.000000
_cell_volume 506.387931
_symmetry_space_group_name_H-M "P -1"
_symmetry_group_IT_number 2
_symmetry_cell_setting 'triclinic'
loop_
_space_group_symop_operation_xyz
x,y,z
-x,-y,-z
loop_
_atom_site_type_symbol
_atom_site_label
_atom_site_fract_x
_atom_site_fract_y
_atom_site_fract_z
Si Si1 0.304418 0.552396 0.788429
Si Si2 0.786297 0.975889 0.731064
Si Si3 0.239407 0.309886 0.322266
Si Si4 0.371154 0.166744 0.098205
Si Si5 0.065551 0.814854 0.434538
Si Si6 0.936936 0.688924 0.127700
O O1 0.468266 0.636470 0.787271
O O2 0.038276 0.645841 0.772156
O O3 0.145872 0.335459 0.640827
O O4 0.576300 0.644347 0.984724
O O5 0.849526 0.783379 0.660185
O O6 0.422476 0.899961 0.602588
O O7 0.878519 0.113754 0.751806
O O8 0.020946 0.108293 0.939975
O O9 0.500000 0.500000 0.500000
O O10 0.365308 0.181488 0.211642
O O11 0.500000 0.000000 0.000000
O O12 0.018573 0.705326 0.262646
O O13 0.000000 0.000000 0.500000
O O14 0.000000 0.500000 0.000000
#
# Coordination Sequence:
#
# PCOD9075456 Si02
#       6
#     2   2   2   2   2   2
#     4  11  26  47  76 104 145 189 237 297 360 427
#     4  11  25  45  75 103 147 178 240 296 355 420
#     4  12  26  47  74 111 144 185 236 301 366 420
#     4  11  26  45  73 109 144 186 233 289 366 428
#     4  12  27  46  71 105 144 189 241 294 352 421
#     4  11  27  47  74 103 142 193 243 288 353 426
#
# _framework density 23.697247000000001
#
# number of rings (size 3 to 8) (size 9 to 14) (size 15 to 20)
#    0.000    0.667    3.333    2.500    7.000    3.333 
#    3.000    0.000    0.000    0.000    0.000    0.000 
#    0.000    0.000    0.000    0.000    0.000    0.000 
#
# Total GULP energy -66832.450586 kJ/mol
# GULP energy per Si atom -5569.370882 kJ/mol
# Density = 2.364331 g / cm^3
# Si number density = 23.697247 Si / 1000 Ang^3
#
#
#
# Elastic Constant Matrix: (Units=GPa)
#
#
# Indices 1 2 3 4 5 6 
#
# 1 78.2702 42.7344 67.3655 0.7519 27.8923 19.5934
# 2 42.7344 173.5469 43.3934 19.7449 23.5828 21.0076
# 3 67.3655 43.3934 110.4770 2.8319 37.9204 -2.2088
# 4 0.7519 19.7449 2.8319 62.6035 6.7226 23.1304
# 5 27.8923 23.5828 37.9204 6.7226 64.8777 9.9869
# 6 19.5934 21.0076 -2.2088 23.1304 9.9869 62.9109
#
#
#
# Elastic Compliance Matrix: (Units=1/GPa)
#
#
# Indices 1 2 3 4 5 6 
#
# 1 0.035700 -0.002574 -0.020901 0.006284 -0.000819 -0.013173
# 2 -0.002574 0.007016 -0.000962 -0.001769 -0.000570 -0.000834
# 3 -0.020901 -0.000962 0.024597 -0.003586 -0.006209 0.009998
# 4 0.006284 -0.001769 -0.003586 0.019907 -0.000686 -0.008703
# 5 -0.000819 -0.000570 -0.006209 -0.000686 0.020090 -0.002710
# 6 -0.013173 -0.000834 0.009998 -0.008703 -0.002710 0.024258
#
#
# Mechanical properties :
#
#
# Convention : Reuss Voigt Hill
#
# Bulk Modulus (GPa) = 54.23120 74.36454 64.29787
# Shear Modulus (GPa) = 26.79699 51.99847 39.39773
#
# Velocity S-wave (km/s) = 3.36639 4.68940 4.08185
# Velocity P-wave (km/s) = 6.16805 7.79550 7.02904
#
# Compressibility (1/GPa) = 0.01843957
#
# Stress axis : x y z
#
# Youngs Moduli (GPa) = 28.01151 142.52843 40.65494
#
# Poissons Ratio (x) = 0.36682 0.84972
# Poissons Ratio (y) = 0.07209 0.03912
# Poissons Ratio (z) = 0.58546 0.13715
#
# Static dielectric constant tensor:
#      x y z
#    x 2.009770 -0.019810 -0.018370 
#    y -0.019810 1.971760 -0.029090 
#    z -0.018370 -0.029090 1.941940 
# 
# From -- ./inp_files/63980.got.cif
#   From: 2010.05.17/outbox.ucp.g08.bks.cvg/sg2_32_cif.got.tgz:63980.got - 2010.06.11 11:32:03.
