data_PCOD9075878
_publ_section_title
;
Structure prediction by ZEFSAII (Michael W. Deem and Ramdas Pophale) SiO2 
 PCOD9075878
Probable space group: P -1
;
_chemical_formula_sum "Si O2"
_cell_formula_units_Z 14
_cell_length_a 10.426723
_cell_length_b 11.965175
_cell_length_c 8.650726
_cell_angle_alpha 135.316754
_cell_angle_beta 44.397725
_cell_angle_gamma 110.322378
_cell_volume 501.831183
_symmetry_space_group_name_H-M "P -1"
_symmetry_group_IT_number 2
_symmetry_cell_setting 'triclinic'
loop_
_space_group_symop_operation_xyz
x,y,z
-x,-y,-z
loop_
_atom_site_type_symbol
_atom_site_label
_atom_site_fract_x
_atom_site_fract_y
_atom_site_fract_z
Si Si1 0.738973 0.940303 0.167030
Si Si2 0.517645 0.336497 0.426893
Si Si3 0.847524 0.663177 0.059468
Si Si4 0.016568 0.178019 0.615196
Si Si5 0.756033 0.473446 0.561261
Si Si6 0.830746 0.238633 0.524835
Si Si7 0.594589 0.829006 0.904430
O O1 0.748617 0.801432 0.151576
O O2 0.721432 0.111888 0.438364
O O3 0.586108 0.959994 0.178052
O O4 0.951899 0.858414 0.823920
O O5 0.500000 0.500000 0.500000
O O6 0.322277 0.369370 0.727006
O O7 0.690080 0.331543 0.389163
O O8 0.542766 0.183298 0.133035
O O9 0.968315 0.726407 0.148226
O O10 0.030457 0.534108 0.685512
O O11 0.849775 0.252476 0.704928
O O12 0.211601 0.176574 0.358923
O O13 0.000000 0.000000 0.500000
O O14 0.747797 0.417692 0.689123
O O15 0.624713 0.657713 0.807047
#
# Coordination Sequence:
#
# PCOD9075878 Si02
#       7
#     2   2   2   2   2   2   2
#     4   9  17  33  56  86 111 156 190 229 291 345
#     4   9  20  39  56  83 121 151 186 243 290 335
#     4  10  20  35  64  83 113 156 195 230 290 347
#     4  10  18  32  56  86 114 151 194 232 283 346
#     4  10  21  39  59  89 114 150 196 241 281 343
#     4   9  18  32  57  84 119 149 191 240 285 335
#     4   9  20  35  58  80 121 152 186 242 292 331
#
# _framework density 27.897825999999998
#
# number of rings (size 3 to 8) (size 9 to 14) (size 15 to 20)
#    0.000    2.571    1.429    0.000    2.000   10.286 
#    0.000    5.714    0.000    0.000    0.000    0.000 
#    0.000    0.000    0.000    0.000    0.000    0.000 
#
# Total GULP energy -78410.083732 kJ/mol
# GULP energy per Si atom -5600.720267 kJ/mol
# Density = 2.783433 g / cm^3
# Si number density = 27.897826 Si / 1000 Ang^3
#
#
#
# Elastic Constant Matrix: (Units=GPa)
#
#
# Indices 1 2 3 4 5 6 
#
# 1 187.8527 53.6691 41.8412 -5.4474 52.6916 10.0695
# 2 53.6691 127.8913 19.9811 -23.6555 8.3613 -5.0151
# 3 41.8412 19.9811 92.5403 -16.9184 0.1047 11.3747
# 4 -5.4474 -23.6555 -16.9184 42.4984 1.6297 5.3969
# 5 52.6916 8.3613 0.1047 1.6297 44.2232 -1.7682
# 6 10.0695 -5.0151 11.3747 5.3969 -1.7682 61.6720
#
#
#
# Elastic Compliance Matrix: (Units=1/GPa)
#
#
# Indices 1 2 3 4 5 6 
#
# 1 0.010606 -0.003355 -0.004157 -0.001519 -0.011994 -0.001449
# 2 -0.003355 0.010043 0.000147 0.005023 0.001951 0.000954
# 3 -0.004157 0.000147 0.013862 0.005168 0.004614 -0.002186
# 4 -0.001519 0.005023 0.005168 0.028557 -0.000317 -0.002805
# 5 -0.011994 0.001951 0.004614 -0.000317 0.036629 0.002344
# 6 -0.001449 0.000954 -0.002186 -0.002805 0.002344 0.017245
#
#
# Mechanical properties :
#
#
# Convention : Reuss Voigt Hill
#
# Bulk Modulus (GPa) = 50.55165 71.02969 60.79067
# Shear Modulus (GPa) = 36.16262 49.19824 42.68043
#
# Velocity S-wave (km/s) = 3.60426 4.20398 3.91562
# Velocity P-wave (km/s) = 5.95655 7.00575 6.50235
#
# Compressibility (1/GPa) = 0.01978175
#
# Stress axis : x y z
#
# Youngs Moduli (GPa) = 94.29011 99.57386 72.13891
#
# Poissons Ratio (x) = 0.33404 0.29987
# Poissons Ratio (y) = 0.31631 -0.01062
# Poissons Ratio (z) = 0.39195 -0.01466
#
# Static dielectric constant tensor:
#      x y z
#    x 2.205580 0.049040 0.033450 
#    y 0.049040 2.129040 0.033460 
#    z 0.033450 0.033460 2.139490 
# 
# From -- ./inp_files/154325.got.cif
#   From: 2010.05.17/outbox.cif.g08.bks.cpg/sg2_78_cif.got.tgz:154325.got - 2010.06.03 11:33:40.
