data_PCOD9075119
_publ_section_title
;
Structure prediction by ZEFSAII (Michael W. Deem and Ramdas Pophale) SiO2 
 PCOD9075119
Probable space group: P -1
;
_chemical_formula_sum "Si O2"
_cell_formula_units_Z 16
_cell_length_a 12.000000
_cell_length_b 9.000000
_cell_length_c 18.000000
_cell_angle_alpha 40.000000
_cell_angle_beta 140.000000
_cell_angle_gamma 140.000000
_cell_volume 723.717541
_symmetry_space_group_name_H-M "P -1"
_symmetry_group_IT_number 2
_symmetry_cell_setting 'triclinic'
loop_
_space_group_symop_operation_xyz
x,y,z
-x,-y,-z
loop_
_atom_site_type_symbol
_atom_site_label
_atom_site_fract_x
_atom_site_fract_y
_atom_site_fract_z
Si Si1 0.503130 0.721573 0.594644
Si Si2 0.780853 0.492713 0.898328
Si Si3 0.706614 0.303820 0.658616
Si Si4 0.929143 0.784846 0.169185
Si Si5 0.001138 0.122093 0.371622
Si Si6 0.678466 0.048713 0.902709
Si Si7 0.117644 0.330272 0.632950
Si Si8 0.284195 0.631918 0.909112
O O1 0.694631 0.688907 0.739870
O O2 0.441615 0.690349 0.485042
O O3 0.325499 0.501096 0.634621
O O4 0.500000 0.000000 0.500000
O O5 0.668982 0.247935 0.881914
O O6 0.736279 0.450652 0.981487
O O7 0.000000 0.500000 0.000000
O O8 0.821876 0.594138 0.638608
O O9 0.647523 0.130616 0.771323
O O10 0.859834 0.213791 0.732301
O O11 0.872449 0.724246 0.251829
O O12 0.813828 0.587571 0.119324
O O13 0.878928 0.021344 0.029163
O O14 0.821337 0.183349 0.233133
O O15 0.000000 0.000000 0.500000
O O16 0.993305 0.924487 0.377830
O O17 0.505988 0.781486 0.941687
O O18 0.000000 0.500000 0.500000
#
# Coordination Sequence:
#
# PCOD9075119 Si02
#       8
#     2   2   2   2   2   2   2   2
#     4  12  29  47  76 114 157 194 253 318 376 454
#     4  12  28  51  74 107 148 206 255 310 379 443
#     4  11  26  48  71 113 148 199 246 310 382 449
#     4  11  24  44  75 109 147 198 249 298 381 453
#     4  11  22  47  75 103 151 194 252 306 372 460
#     4  12  26  44  75 107 151 192 250 315 376 450
#     4  12  23  46  77 112 149 201 251 311 379 447
#     4  11  25  47  73 108 146 197 251 313 374 454
#
# _framework density 22.108073000000001
#
# number of rings (size 3 to 8) (size 9 to 14) (size 15 to 20)
#    0.000    0.500    2.500    5.625    5.250    2.500 
#    2.250    0.000    0.000    0.000    0.000    0.000 
#    0.000    0.000    0.000    0.000    0.000    0.000 
#
# Total GULP energy -89264.661329 kJ/mol
# GULP energy per Si atom -5579.041333 kJ/mol
# Density = 2.205775 g / cm^3
# Si number density = 22.108073 Si / 1000 Ang^3
#
#
#
# Elastic Constant Matrix: (Units=GPa)
#
#
# Indices 1 2 3 4 5 6 
#
# 1 137.6364 47.4379 61.9392 1.5001 -37.6940 -16.6918
# 2 47.4379 101.5209 25.2493 -2.7601 -5.0317 -27.8433
# 3 61.9392 25.2493 210.8635 9.9353 -20.6005 -10.2880
# 4 1.5001 -2.7601 9.9353 45.5667 -11.2312 3.6578
# 5 -37.6940 -5.0317 -20.6005 -11.2312 75.4319 0.6930
# 6 -16.6918 -27.8433 -10.2880 3.6578 0.6930 56.9754
#
#
#
# Elastic Compliance Matrix: (Units=1/GPa)
#
#
# Indices 1 2 3 4 5 6 
#
# 1 0.011131 -0.004174 -0.002316 0.001013 0.004796 0.000680
# 2 -0.004174 0.013230 -0.000242 0.000259 -0.001278 0.005198
# 3 -0.002316 -0.000242 0.005534 -0.001126 0.000168 0.000273
# 4 0.001013 0.000259 -0.001126 0.023186 0.003681 -0.001313
# 5 0.004796 -0.001278 0.000168 0.003681 0.016159 0.000378
# 6 0.000680 0.005198 0.000273 -0.001313 0.000378 0.020420
#
#
# Mechanical properties :
#
#
# Convention : Reuss Voigt Hill
#
# Bulk Modulus (GPa) = 60.85363 79.91930 70.38646
# Shear Modulus (GPa) = 46.04060 56.62109 51.33084
#
# Velocity S-wave (km/s) = 4.56842 5.06623 4.82375
# Velocity P-wave (km/s) = 7.44396 8.39345 7.93292
#
# Compressibility (1/GPa) = 0.01643287
#
# Stress axis : x y z
#
# Youngs Moduli (GPa) = 89.83860 75.58727 180.68849
#
# Poissons Ratio (x) = 0.31547 0.41846
# Poissons Ratio (y) = 0.37494 0.04367
# Poissons Ratio (z) = 0.20806 0.01827
#
# Static dielectric constant tensor:
#      x y z
#    x 1.849400 0.016160 0.041920 
#    y 0.016160 1.888710 -0.013290 
#    z 0.041920 -0.013290 1.830160 
# 
# From -- ./inp_files/566459.got.cif
#   From: 2010.05.17/outbox.ucp.g08.bks.cvg/sg2_284_cif.got.tgz:566459.got - 2010.06.11 11:32:03.
