data_PCOD9075590
_publ_section_title
;
Structure prediction by ZEFSAII (Michael W. Deem and Ramdas Pophale) SiO2 
 PCOD9075590
Probable space group: P -1
;
_chemical_formula_sum "Si O2"
_cell_formula_units_Z 16
_cell_length_a 27.000000
_cell_length_b 27.000000
_cell_length_c 9.000000
_cell_angle_alpha 140.000000
_cell_angle_beta 140.000000
_cell_angle_gamma 10.000000
_cell_volume 728.340053
_symmetry_space_group_name_H-M "P -1"
_symmetry_group_IT_number 2
_symmetry_cell_setting 'triclinic'
loop_
_space_group_symop_operation_xyz
x,y,z
-x,-y,-z
loop_
_atom_site_type_symbol
_atom_site_label
_atom_site_fract_x
_atom_site_fract_y
_atom_site_fract_z
Si Si1 0.044667 0.588409 0.581328
Si Si2 0.495663 0.187986 0.212669
Si Si3 0.455566 0.657240 0.864334
Si Si4 0.748780 0.250996 0.121104
Si Si5 0.416023 0.868379 0.370877
Si Si6 0.746906 0.740893 0.088699
Si Si7 0.028137 0.688189 0.080071
Si Si8 0.967959 0.145151 0.650714
O O1 0.361254 0.285130 0.542136
O O2 0.857355 0.693215 0.359390
O O3 0.057767 0.599811 0.809338
O O4 0.891748 0.802763 0.626313
O O5 0.550455 0.166814 0.455488
O O6 0.309376 0.422004 0.216486
O O7 0.330851 0.266194 0.036546
O O8 0.783801 0.898518 0.116844
O O9 0.352846 0.716022 0.916139
O O10 0.760185 0.342672 0.770963
O O11 0.458214 0.745520 0.109277
O O12 0.252241 0.835679 0.665136
O O13 0.846061 0.222281 0.399246
O O14 0.500000 0.500000 0.000000
O O15 0.000000 0.000000 0.000000
O O16 0.000000 0.500000 0.000000
O O17 0.500000 0.000000 0.000000
O O18 0.972313 0.824294 0.188966
#
# Coordination Sequence:
#
# PCOD9075590 Si02
#       8
#     2   2   2   2   2   2   2   2
#     4  12  23  45  68  96 133 173 228 274 324 404
#     4  12  26  41  67 100 135 172 220 283 342 381
#     4  12  24  46  73  99 132 185 225 262 329 403
#     4  12  28  46  69 108 140 172 220 279 331 383
#     4  12  23  42  70  99 126 178 231 270 320 402
#     4  12  23  43  67  94 129 177 225 275 330 401
#     4  12  26  42  66 102 136 168 220 283 338 379
#     4  12  25  47  72  96 139 183 219 268 328 407
#
# _framework density 21.967760999999999
#
# number of rings (size 3 to 8) (size 9 to 14) (size 15 to 20)
#    0.000    0.000    5.000    5.250    3.500    1.000 
#    0.000    0.000    0.000    0.000    0.000    0.000 
#    0.000    0.000    0.000    0.000    0.000    0.000 
#
# Total GULP energy -89361.175124 kJ/mol
# GULP energy per Si atom -5585.073445 kJ/mol
# Density = 2.191776 g / cm^3
# Si number density = 21.967761 Si / 1000 Ang^3
#
#
#
# Elastic Constant Matrix: (Units=GPa)
#
#
# Indices 1 2 3 4 5 6 
#
# 1 83.8651 21.7465 44.4451 -4.2966 -21.0721 -5.1531
# 2 21.7465 97.1142 -4.9743 -6.7144 -15.5345 -13.1745
# 3 44.4451 -4.9743 105.8471 -11.9311 -23.1339 -9.9798
# 4 -4.2966 -6.7144 -11.9311 26.7397 0.6766 -13.5500
# 5 -21.0721 -15.5345 -23.1339 0.6766 54.2902 -1.8234
# 6 -5.1531 -13.1745 -9.9798 -13.5500 -1.8234 39.1213
#
#
#
# Elastic Compliance Matrix: (Units=1/GPa)
#
#
# Indices 1 2 3 4 5 6 
#
# 1 0.017319 -0.004336 -0.007456 -0.002650 0.002274 -0.001893
# 2 -0.004336 0.014320 0.005600 0.010027 0.004991 0.009385
# 3 -0.007456 0.005600 0.016412 0.012250 0.005871 0.009607
# 4 -0.002650 0.010027 0.012250 0.058292 0.007230 0.026680
# 5 0.002274 0.004991 0.005871 0.007230 0.023379 0.007072
# 6 -0.001893 0.009385 0.009607 0.026680 0.007072 0.040494
#
#
# Mechanical properties :
#
#
# Convention : Reuss Voigt Hill
#
# Bulk Modulus (GPa) = 28.03921 45.47345 36.75633
# Shear Modulus (GPa) = 25.70828 39.07086 32.38957
#
# Velocity S-wave (km/s) = 3.42464 4.22187 3.84398
# Velocity P-wave (km/s) = 5.33189 6.67162 6.03902
#
# Compressibility (1/GPa) = 0.03566434
#
# Stress axis : x y z
#
# Youngs Moduli (GPa) = 57.73976 69.83346 60.93283
#
# Poissons Ratio (x) = 0.30283 0.45433
# Poissons Ratio (y) = 0.25038 -0.34121
# Poissons Ratio (z) = 0.43052 -0.39105
#
# Static dielectric constant tensor:
#      x y z
#    x 1.754520 -0.034230 0.053700 
#    y -0.034230 1.785020 0.061090 
#    z 0.053700 0.061090 1.788960 
# 
# From -- ./inp_files/350004.got.cif
#   From: 2010.05.17/outbox.ucp.g08.bks.cvg/sg2_176_cif.got.tgz:350004.got - 2010.06.11 11:32:03.
