data_PCOD9075903
_publ_section_title
;
Structure prediction by ZEFSAII (Michael W. Deem and Ramdas Pophale) SiO2 
 PCOD9075903
Probable space group: P -1
;
_chemical_formula_sum "Si O2"
_cell_formula_units_Z 16
_cell_length_a 10.627206
_cell_length_b 9.674114
_cell_length_c 12.577188
_cell_angle_alpha 53.773957
_cell_angle_beta 55.005081
_cell_angle_gamma 85.943559
_cell_volume 780.973341
_symmetry_space_group_name_H-M "P -1"
_symmetry_group_IT_number 2
_symmetry_cell_setting 'triclinic'
loop_
_space_group_symop_operation_xyz
x,y,z
-x,-y,-z
loop_
_atom_site_type_symbol
_atom_site_label
_atom_site_fract_x
_atom_site_fract_y
_atom_site_fract_z
Si Si1 0.767325 0.621324 0.384692
Si Si2 0.041346 0.757435 0.381180
Si Si3 0.228458 0.551252 0.259735
Si Si4 0.630192 0.169730 0.135092
Si Si5 0.221718 0.172815 0.053142
Si Si6 0.529500 0.467666 0.123044
Si Si7 0.537327 0.773504 0.291808
Si Si8 0.984611 0.173179 0.993786
O O1 0.895149 0.713869 0.379592
O O2 0.648261 0.722811 0.351481
O O3 0.635063 0.407475 0.557941
O O4 0.897920 0.647520 0.213111
O O5 0.937863 0.641195 0.585128
O O6 0.165240 0.664999 0.321455
O O7 0.152411 0.976568 0.237223
O O8 0.374405 0.484447 0.251230
O O9 0.301506 0.692388 0.062384
O O10 0.550690 0.273490 0.205097
O O11 0.513103 0.959980 0.251385
O O12 0.797825 0.154968 0.101939
O O13 0.308957 0.355974 0.997384
O O14 0.351103 0.178226 0.892701
O O15 0.064620 0.180676 0.064860
O O16 0.500000 0.500000 0.000000
O O17 0.000000 0.000000 0.000000
#
# Coordination Sequence:
#
# PCOD9075903 Si02
#       8
#     2   2   2   2   2   2   2   2
#     4  10  18  32  56  97 119 138 186 262 294 333
#     4  11  19  35  62  90 115 147 205 252 284 340
#     4  10  21  38  56  85 120 159 192 249 283 339
#     4  11  19  41  59  85 124 159 191 240 301 350
#     4  11  20  38  63  89 109 160 198 246 297 346
#     4  10  25  42  54  80 128 163 198 235 291 358
#     4  10  19  33  63  90 116 151 195 242 302 348
#     4  11  17  35  64  91 118 141 194 254 292 345
#
# _framework density 20.487252999999999
#
# number of rings (size 3 to 8) (size 9 to 14) (size 15 to 20)
#    0.000    1.500    6.250    0.750    0.000    1.000 
#    9.000    3.750    0.000   14.250    0.000    0.000 
#    0.000    0.000    0.000    0.000    0.000    0.000 
#
# Total GULP energy -89212.792042 kJ/mol
# GULP energy per Si atom -5575.799503 kJ/mol
# Density = 2.044062 g / cm^3
# Si number density = 20.487253 Si / 1000 Ang^3
#
#
#
# Elastic Constant Matrix: (Units=GPa)
#
#
# Indices 1 2 3 4 5 6 
#
# 1 72.3470 53.1096 4.0056 -5.9170 -9.5548 -4.9156
# 2 53.1096 103.9998 31.5877 -33.4522 -8.6124 -5.4236
# 3 4.0056 31.5877 110.5878 -32.1629 -5.0618 -5.2057
# 4 -5.9170 -33.4522 -32.1629 28.8460 -0.8998 -5.3673
# 5 -9.5548 -8.6124 -5.0618 -0.8998 23.0389 3.4431
# 6 -4.9156 -5.4236 -5.2057 -5.3673 3.4431 21.4719
#
#
#
# Elastic Compliance Matrix: (Units=1/GPa)
#
#
# Indices 1 2 3 4 5 6 
#
# 1 0.026633 -0.019173 -0.000869 -0.018397 0.003586 -0.004130
# 2 -0.019173 0.032611 0.004387 0.041633 0.004651 0.014573
# 3 -0.000869 0.004387 0.015530 0.024228 0.004133 0.010068
# 4 -0.018397 0.041633 0.024228 0.113761 0.011915 0.038704
# 5 0.003586 0.004651 0.004133 0.011915 0.048268 -0.001764
# 6 -0.004130 0.014573 0.010068 0.038704 -0.001764 0.061706
#
#
# Mechanical properties :
#
#
# Convention : Reuss Voigt Hill
#
# Bulk Modulus (GPa) = 23.00706 51.59338 37.30022
# Shear Modulus (GPa) = 14.52192 27.88680 21.20436
#
# Velocity S-wave (km/s) = 2.66527 3.69342 3.22064
# Velocity P-wave (km/s) = 4.55257 6.58986 5.66357
#
# Compressibility (1/GPa) = 0.04346491
#
# Stress axis : x y z
#
# Youngs Moduli (GPa) = 37.54677 30.66493 64.39018
#
# Poissons Ratio (x) = 0.58793 0.05595
# Poissons Ratio (y) = 0.71987 -0.28248
# Poissons Ratio (z) = 0.03263 -0.13453
#
# Static dielectric constant tensor:
#      x y z
#    x 1.799830 -0.017470 0.043160 
#    y -0.017470 1.739570 -0.017480 
#    z 0.043160 -0.017480 1.839080 
# 
# From -- ./inp_files/399676.got.cif
#   From: 2010.05.17/outbox.cif.g08.bks.cpg/sg2_200_cif.got.tgz:399676.got - 2010.06.03 11:33:40.
