data_PCOD9075683
_publ_section_title
;
Structure prediction by ZEFSAII (Michael W. Deem and Ramdas Pophale) SiO2 
 PCOD9075683
Probable space group: P -1
;
_chemical_formula_sum "Si O2"
_cell_formula_units_Z 16
_cell_length_a 15.054643
_cell_length_b 8.992433
_cell_length_c 8.535016
_cell_angle_alpha 60.113996
_cell_angle_beta 131.600978
_cell_angle_gamma 106.351686
_cell_volume 746.963415
_symmetry_space_group_name_H-M "P -1"
_symmetry_group_IT_number 2
_symmetry_cell_setting 'triclinic'
loop_
_space_group_symop_operation_xyz
x,y,z
-x,-y,-z
loop_
_atom_site_type_symbol
_atom_site_label
_atom_site_fract_x
_atom_site_fract_y
_atom_site_fract_z
Si Si1 0.840244 0.076250 0.642552
Si Si2 0.286158 0.832863 0.856014
Si Si3 0.144363 0.582202 0.034306
Si Si4 0.358083 0.333773 0.433102
Si Si5 0.531771 0.050422 0.756383
Si Si6 0.407995 0.779384 0.583742
Si Si7 0.542812 0.467358 0.823624
Si Si8 0.015365 0.281267 0.934229
O O1 0.808799 0.082498 0.419106
O O2 0.721986 0.146590 0.559142
O O3 0.887448 0.880711 0.841595
O O4 0.936317 0.209453 0.739935
O O5 0.218363 0.720823 0.960711
O O6 0.376000 0.948224 0.994067
O O7 0.372371 0.692482 0.934592
O O8 0.063983 0.680382 0.021347
O O9 0.237014 0.433892 0.296403
O O10 0.072778 0.464988 0.891948
O O11 0.396184 0.131578 0.588397
O O12 0.464937 0.391006 0.635383
O O13 0.374294 0.402932 0.238411
O O14 0.579613 0.169821 0.612127
O O15 0.510804 0.871022 0.747928
O O16 0.444957 0.578295 0.749189
#
# Coordination Sequence:
#
# PCOD9075683 Si02
#       8
#     2   2   2   2   2   2   2   2
#     4  11  23  38  54  79 113 143 177 230 276 310
#     4  10  21  36  56  82 112 140 174 225 276 316
#     4  10  19  38  61  78 101 140 189 229 260 314
#     4   8  13  27  52  76 101 132 170 211 255 315
#     4   9  18  32  55  84 109 144 179 206 263 338
#     4  10  18  32  54  80 114 145 174 212 261 330
#     4   8  15  28  49  78 105 135 168 201 259 328
#     4  10  23  39  57  77 101 146 195 223 266 321
#
# _framework density 21.420059999999999
#
# number of rings (size 3 to 8) (size 9 to 14) (size 15 to 20)
#    0.000    2.500    0.000    4.500    0.000    3.000 
#    0.000    2.500    0.000    0.000    0.000    0.000 
#    0.000    0.000    0.000    0.000    0.000    0.000 
#
# Total GULP energy -89154.739120 kJ/mol
# GULP energy per Si atom -5572.171195 kJ/mol
# Density = 2.137131 g / cm^3
# Si number density = 21.420060 Si / 1000 Ang^3
#
#
#
# Elastic Constant Matrix: (Units=GPa)
#
#
# Indices 1 2 3 4 5 6 
#
# 1 60.5452 -0.3347 15.6237 -3.1032 13.6850 -13.8437
# 2 -0.3347 73.7291 31.4493 16.4698 3.6909 -12.6754
# 3 15.6237 31.4493 111.2102 14.2809 5.9968 -2.3015
# 4 -3.1032 16.4698 14.2809 24.2775 -5.1440 10.9917
# 5 13.6850 3.6909 5.9968 -5.1440 24.4319 -6.1984
# 6 -13.8437 -12.6754 -2.3015 10.9917 -6.1984 31.5358
#
#
#
# Elastic Compliance Matrix: (Units=1/GPa)
#
#
# Indices 1 2 3 4 5 6 
#
# 1 0.022168 0.005514 -0.002946 -0.006923 -0.010941 0.011995
# 2 0.005514 0.023802 -0.003885 -0.022765 -0.005832 0.018492
# 3 -0.002946 -0.003885 0.011114 -0.004216 -0.001604 -0.000890
# 4 -0.006923 -0.022765 -0.004216 0.078118 0.015493 -0.036679
# 5 -0.010941 -0.005832 -0.001604 0.015493 0.050922 -0.002656
# 6 0.011995 0.018492 -0.000890 -0.036679 -0.002656 0.056606
#
#
# Mechanical properties :
#
#
# Convention : Reuss Voigt Hill
#
# Bulk Modulus (GPa) = 18.36596 37.66233 28.01414
# Shear Modulus (GPa) = 18.97430 29.29881 24.13655
#
# Velocity S-wave (km/s) = 2.97950 3.70242 3.36046
# Velocity P-wave (km/s) = 4.51988 5.99150 5.30695
#
# Compressibility (1/GPa) = 0.05444857
#
# Stress axis : x y z
#
# Youngs Moduli (GPa) = 45.10957 42.01375 89.97664
#
# Poissons Ratio (x) = -0.23165 0.26511
# Poissons Ratio (y) = -0.24872 0.34956
# Poissons Ratio (z) = 0.13291 0.16323
#
# Static dielectric constant tensor:
#      x y z
#    x 1.843680 0.015990 -0.003030 
#    y 0.015990 1.824460 0.003970 
#    z -0.003030 0.003970 1.791560 
# 
# From -- ./inp_files/328777.got.cif
#   From: 2010.05.17/outbox.cif.g08.bks.cpg/sg2_165_cif.got.tgz:328777.got - 2010.06.03 11:33:40.
