data_PCOD9075854
_publ_section_title
;
Structure prediction by ZEFSAII (Michael W. Deem and Ramdas Pophale) SiO2 
 PCOD9075854
Probable space group: P -1
;
_chemical_formula_sum "Si O2"
_cell_formula_units_Z 14
_cell_length_a 10.905730
_cell_length_b 11.585712
_cell_length_c 9.923441
_cell_angle_alpha 89.698154
_cell_angle_beta 54.642846
_cell_angle_gamma 133.690623
_cell_volume 537.461596
_symmetry_space_group_name_H-M "P -1"
_symmetry_group_IT_number 2
_symmetry_cell_setting 'triclinic'
loop_
_space_group_symop_operation_xyz
x,y,z
-x,-y,-z
loop_
_atom_site_type_symbol
_atom_site_label
_atom_site_fract_x
_atom_site_fract_y
_atom_site_fract_z
Si Si1 0.029631 0.214460 0.468979
Si Si2 0.355988 0.482391 0.894654
Si Si3 0.249791 0.569449 0.220827
Si Si4 0.150997 0.996981 0.707123
Si Si5 0.130439 0.952869 0.134556
Si Si6 0.662906 0.296118 0.241834
Si Si7 0.727616 0.197666 0.958861
O O1 0.022072 0.348532 0.453091
O O2 0.948124 0.094603 0.384451
O O3 0.883515 0.062953 0.692983
O O4 0.367215 0.415584 0.282505
O O5 0.340003 0.536441 0.048517
O O6 0.063533 0.220424 0.068025
O O7 0.395584 0.611464 0.765053
O O8 0.136717 0.604012 0.205281
O O9 0.541876 0.797338 0.108913
O O10 0.477839 0.165514 0.495827
O O11 0.083742 0.087011 0.776149
O O12 0.077847 0.785200 0.129852
O O13 0.563784 0.138182 0.194716
O O14 0.000000 0.500000 0.000000
O O15 0.500000 0.000000 0.000000
#
# Coordination Sequence:
#
# PCOD9075854 Si02
#       7
#     2   2   2   2   2   2   2
#     4  11  17  28  56  88 112 140 188 232 276 326
#     4  10  18  32  56  83 110 138 194 236 266 321
#     4   9  17  30  47  82 120 142 172 232 279 324
#     4  11  19  32  59  83 107 150 190 229 273 329
#     4  11  18  29  52  82 113 144 176 226 283 326
#     4  11  24  41  58  79 112 154 192 225 271 336
#     4   9  20  36  55  84 119 143 176 234 286 323
#
# _framework density 26.048370999999999
#
# number of rings (size 3 to 8) (size 9 to 14) (size 15 to 20)
#    0.000    1.714    4.286    3.857    0.000    1.143 
#    0.000    5.000    0.000    0.857    0.000    0.000 
#    0.000    0.000    0.000    0.000    0.000    0.000 
#
# Total GULP energy -78248.017074 kJ/mol
# GULP energy per Si atom -5589.144077 kJ/mol
# Density = 2.598908 g / cm^3
# Si number density = 26.048371 Si / 1000 Ang^3
#
#
#
# Elastic Constant Matrix: (Units=GPa)
#
#
# Indices 1 2 3 4 5 6 
#
# 1 59.2784 45.4676 29.9384 -5.1914 -2.9556 -32.3453
# 2 45.4676 70.2170 40.9813 0.9929 -5.1651 -35.7966
# 3 29.9384 40.9813 113.3932 -20.0309 -11.3095 -14.0888
# 4 -5.1914 0.9929 -20.0309 43.6023 -3.9145 0.2224
# 5 -2.9556 -5.1651 -11.3095 -3.9145 33.2983 -1.3915
# 6 -32.3453 -35.7966 -14.0888 0.2224 -1.3915 52.1251
#
#
#
# Elastic Compliance Matrix: (Units=1/GPa)
#
#
# Indices 1 2 3 4 5 6 
#
# 1 0.037709 -0.018426 -0.001106 0.004444 0.001073 0.010457
# 2 -0.018426 0.037237 -0.008195 -0.006772 0.001062 0.011981
# 3 -0.001106 -0.008195 0.013270 0.006505 0.003792 -0.002654
# 4 0.004444 -0.006772 0.006505 0.027031 0.004726 -0.000124
# 5 0.001073 0.001062 0.003792 0.004726 0.032271 0.003261
# 6 0.010457 0.011981 -0.002654 -0.000124 0.003261 0.033272
#
#
# Mechanical properties :
#
#
# Convention : Reuss Voigt Hill
#
# Bulk Modulus (GPa) = 30.52073 52.85146 41.68610
# Shear Modulus (GPa) = 20.22941 34.23856 27.23399
#
# Velocity S-wave (km/s) = 2.78979 3.62943 3.23695
# Velocity P-wave (km/s) = 4.70315 6.15609 5.47801
#
# Compressibility (1/GPa) = 0.03276461
#
# Stress axis : x y z
#
# Youngs Moduli (GPa) = 26.51876 26.85467 75.35730
#
# Poissons Ratio (x) = 0.49481 0.08331
# Poissons Ratio (y) = 0.48862 0.61755
# Poissons Ratio (z) = 0.02932 0.22007
#
# Static dielectric constant tensor:
#      x y z
#    x 2.079540 0.073310 -0.062190 
#    y 0.073310 2.141480 -0.050010 
#    z -0.062190 -0.050010 2.112210 
# 
# From -- ./inp_files/260424.got.cif
#   From: 2010.05.17/outbox.cif.g08.bks.cpg/sg2_131_cif.got.tgz:260424.got - 2010.06.03 11:33:40.
