data_PCOD9075149
_publ_section_title
;
Structure prediction by ZEFSAII (Michael W. Deem and Ramdas Pophale) SiO2 
 PCOD9075149
Probable space group: P -1
;
_chemical_formula_sum "Si O2"
_cell_formula_units_Z 16
_cell_length_a 9.000000
_cell_length_b 12.000000
_cell_length_c 9.000000
_cell_angle_alpha 70.000000
_cell_angle_beta 120.000000
_cell_angle_gamma 120.000000
_cell_volume 723.492119
_symmetry_space_group_name_H-M "P -1"
_symmetry_group_IT_number 2
_symmetry_cell_setting 'triclinic'
loop_
_space_group_symop_operation_xyz
x,y,z
-x,-y,-z
loop_
_atom_site_type_symbol
_atom_site_label
_atom_site_fract_x
_atom_site_fract_y
_atom_site_fract_z
Si Si1 0.201199 0.254595 0.285017
Si Si2 0.123803 0.124782 0.603042
Si Si3 0.848924 0.324132 0.074567
Si Si4 0.422484 0.520989 0.610094
Si Si5 0.555870 0.892064 0.013579
Si Si6 0.800948 0.898008 0.897785
Si Si7 0.145384 0.298065 0.771834
Si Si8 0.911092 0.442510 0.729363
O O1 0.212768 0.235156 0.473882
O O2 0.387054 0.374548 0.271448
O O3 0.204187 0.129028 0.263934
O O4 0.002219 0.262500 0.150550
O O5 0.285945 0.112240 0.791595
O O6 0.028126 0.185205 0.647317
O O7 0.000000 0.000000 0.500000
O O8 0.936660 0.414260 0.220084
O O9 0.635326 0.232937 0.038550
O O10 0.841831 0.394049 0.884079
O O11 0.500000 0.500000 0.500000
O O12 0.321523 0.401780 0.724390
O O13 0.255860 0.563539 0.458207
O O14 0.644849 0.933713 0.877177
O O15 0.500000 0.000000 0.000000
O O16 0.782451 0.766393 0.031860
O O17 0.000000 0.000000 0.000000
O O18 0.017540 0.362889 0.747348
#
# Coordination Sequence:
#
# PCOD9075149 Si02
#       8
#     2   2   2   2   2   2   2   2
#     4  12  23  44  68  98 139 180 220 282 340 405
#     4  11  23  44  70  95 132 182 227 278 345 398
#     4  11  23  41  68  98 138 180 221 274 343 402
#     4  12  24  42  66 103 140 175 223 274 347 403
#     4  11  25  44  70  99 133 179 233 281 336 405
#     4  11  25  46  69  99 132 177 230 285 336 405
#     4  11  24  43  72  97 134 182 224 285 340 412
#     4  11  24  42  67 101 140 176 223 280 335 414
#
# _framework density 22.114961000000001
#
# number of rings (size 3 to 8) (size 9 to 14) (size 15 to 20)
#    0.000    0.750    3.750    4.125    3.500    0.500 
#    2.250    0.625    0.000    0.000    0.000    0.000 
#    0.000    0.000    0.000    0.000    0.000    0.000 
#
# Total GULP energy -89278.917511 kJ/mol
# GULP energy per Si atom -5579.932344 kJ/mol
# Density = 2.206463 g / cm^3
# Si number density = 22.114961 Si / 1000 Ang^3
#
#
#
# Elastic Constant Matrix: (Units=GPa)
#
#
# Indices 1 2 3 4 5 6 
#
# 1 92.0451 46.3740 16.3880 21.3869 2.1831 -13.8954
# 2 46.3740 67.8603 -3.3660 26.3262 -8.4719 6.4166
# 3 16.3880 -3.3660 59.0074 6.6009 -8.3213 0.9114
# 4 21.3869 26.3262 6.6009 42.4909 -1.0310 -0.5810
# 5 2.1831 -8.4719 -8.3213 -1.0310 27.9488 5.7170
# 6 -13.8954 6.4166 0.9114 -0.5810 5.7170 43.4744
#
#
#
# Elastic Compliance Matrix: (Units=1/GPa)
#
#
# Indices 1 2 3 4 5 6 
#
# 1 0.026024 -0.022403 -0.011077 0.002331 -0.014867 0.013843
# 2 -0.022403 0.041125 0.013583 -0.016029 0.021043 -0.016496
# 3 -0.011077 0.013583 0.023506 -0.006276 0.013361 -0.007879
# 4 0.002331 -0.016029 -0.006276 0.033169 -0.006618 0.004556
# 5 -0.014867 0.021043 0.013361 -0.006618 0.050083 -0.014812
# 6 0.013843 -0.016496 -0.007879 0.004556 -0.014812 0.032035
#
#
# Mechanical properties :
#
#
# Convention : Reuss Voigt Hill
#
# Bulk Modulus (GPa) = 19.66099 37.52276 28.59188
# Shear Modulus (GPa) = 19.03390 33.41727 26.22559
#
# Velocity S-wave (km/s) = 2.93692 3.89147 3.44739
# Velocity P-wave (km/s) = 4.51778 6.09880 5.36683
#
# Compressibility (1/GPa) = 0.05086213
#
# Stress axis : x y z
#
# Youngs Moduli (GPa) = 38.42591 24.31634 42.54215
#
# Poissons Ratio (x) = 0.54475 0.47122
# Poissons Ratio (y) = 0.86085 -0.57786
# Poissons Ratio (z) = 0.42563 -0.33029
#
# Static dielectric constant tensor:
#      x y z
#    x 1.707670 -0.227960 -0.083200 
#    y -0.227960 1.545580 -0.168070 
#    z -0.083200 -0.168070 1.732210 
# 
# From -- ./inp_files/186177.got.cif
#   From: 2010.05.17/outbox.ucp.g08.bks.cvg/sg2_94_cif.got.tgz:186177.got - 2010.06.11 11:32:03.
