data_PCOD9075302
_publ_section_title
;
Structure prediction by ZEFSAII (Michael W. Deem and Ramdas Pophale) SiO2 
 PCOD9075302
Probable space group: P -1
;
_chemical_formula_sum "Si O2"
_cell_formula_units_Z 14
_cell_length_a 27.000000
_cell_length_b 15.000000
_cell_length_c 27.000000
_cell_angle_alpha 160.000000
_cell_angle_beta 10.000000
_cell_angle_gamma 160.000000
_cell_volume 630.401208
_symmetry_space_group_name_H-M "P -1"
_symmetry_group_IT_number 2
_symmetry_cell_setting 'triclinic'
loop_
_space_group_symop_operation_xyz
x,y,z
-x,-y,-z
loop_
_atom_site_type_symbol
_atom_site_label
_atom_site_fract_x
_atom_site_fract_y
_atom_site_fract_z
Si Si1 0.098997 0.832021 0.976014
Si Si2 0.071303 0.064396 0.573046
Si Si3 0.508016 0.687489 0.320649
Si Si4 0.481754 0.476925 0.564704
Si Si5 0.017744 0.531530 0.798120
Si Si6 0.541394 0.318459 0.003764
Si Si7 0.214741 0.432877 0.211784
O O1 0.843660 0.600483 0.132333
O O2 0.089490 0.127703 0.156445
O O3 0.400742 0.782435 0.672871
O O4 0.100529 0.761132 0.879350
O O5 0.303838 0.267496 0.485979
O O6 0.968260 0.255053 0.733515
O O7 0.781284 0.881175 0.788628
O O8 0.253583 0.857641 0.264842
O O9 0.511495 0.566911 0.198679
O O10 0.248275 0.517925 0.521446
O O11 0.500000 0.000000 0.500000
O O12 0.777816 0.627658 0.053145
O O13 0.500000 0.500000 0.500000
O O14 0.691607 0.407538 0.849043
O O15 0.000000 0.500000 0.500000
O O16 0.500000 0.500000 0.000000
#
# Coordination Sequence:
#
# PCOD9075302 Si02
#       7
#     2   2   2   2   2   2   2
#     4  11  24  45  68 101 135 184 238 285 350 416
#     4  11  25  45  71 107 147 186 232 294 360 423
#     4  12  26  45  75 105 139 190 240 288 348 424
#     4  11  24  41  72  98 136 188 236 292 339 417
#     4  11  24  46  72 102 144 183 235 292 354 416
#     4  12  27  46  71 106 147 182 242 298 349 432
#     4  12  28  46  69  99 141 190 230 293 361 416
#
# _framework density 22.208079000000001
#
# number of rings (size 3 to 8) (size 9 to 14) (size 15 to 20)
#    0.000    0.571    0.000    8.571    6.000    5.714 
#    0.000    0.000    0.000    0.000    0.000    0.000 
#    0.000    0.000    0.000    0.000    0.000    0.000 
#
# Total GULP energy -78156.154858 kJ/mol
# GULP energy per Si atom -5582.582490 kJ/mol
# Density = 2.215753 g / cm^3
# Si number density = 22.208079 Si / 1000 Ang^3
#
#
#
# Elastic Constant Matrix: (Units=GPa)
#
#
# Indices 1 2 3 4 5 6 
#
# 1 135.0796 38.1910 40.1792 4.8271 14.4826 -5.8055
# 2 38.1910 125.1649 32.3860 13.5403 12.0778 11.1594
# 3 40.1792 32.3860 146.8103 8.3087 5.8300 5.0001
# 4 4.8271 13.5403 8.3087 38.5423 3.1474 7.6517
# 5 14.4826 12.0778 5.8300 3.1474 48.6258 -6.3148
# 6 -5.8055 11.1594 5.0001 7.6517 -6.3148 5.7350
#
#
#
# Elastic Compliance Matrix: (Units=1/GPa)
#
#
# Indices 1 2 3 4 5 6 
#
# 1 0.011405 -0.005809 -0.002927 -0.006741 0.003851 0.038635
# 2 -0.005809 0.014745 0.000176 0.007162 -0.009530 -0.054775
# 3 -0.002927 0.000176 0.008078 0.001746 -0.002217 -0.015118
# 4 -0.006741 0.007162 0.001746 0.044999 -0.015850 -0.099774
# 5 0.003851 -0.009530 -0.002217 -0.015850 0.033826 0.082769
# 6 0.038635 -0.054775 -0.015118 -0.099774 0.082769 0.557499
#
#
# Mechanical properties :
#
#
# Convention : Reuss Voigt Hill
#
# Bulk Modulus (GPa) = 58.45730 69.84081 64.14906
# Shear Modulus (GPa) = 7.21111 38.33388 22.77249
#
# Velocity S-wave (km/s) = 1.80392 4.15917 3.20568
# Velocity P-wave (km/s) = 5.54243 7.38794 6.53070
#
# Compressibility (1/GPa) = 0.01710650
#
# Stress axis : x y z
#
# Youngs Moduli (GPa) = 87.68354 67.81954 123.79487
#
# Poissons Ratio (x) = 0.39400 0.36234
# Poissons Ratio (y) = 0.50940 -0.02177
# Poissons Ratio (z) = 0.25664 -0.01193
#
# Static dielectric constant tensor:
#      x y z
#    x 1.627280 0.013720 -0.126470 
#    y 0.013720 1.807990 0.026780 
#    z -0.126470 0.026780 1.681010 
# 
# From -- ./inp_files/544605.got.cif
#   From: 2010.05.17/outbox.ucp.g08.bks.cvg/sg2_273_cif.got.tgz:544605.got - 2010.06.11 11:32:03.
