data_PCOD9075417
_publ_section_title
;
Structure prediction by ZEFSAII (Michael W. Deem and Ramdas Pophale) SiO2 
 PCOD9075417
Probable space group: P -1
;
_chemical_formula_sum "Si O2"
_cell_formula_units_Z 10
_cell_length_a 9.000000
_cell_length_b 9.000000
_cell_length_c 12.000000
_cell_angle_alpha 130.000000
_cell_angle_beta 50.000000
_cell_angle_gamma 90.000000
_cell_volume 405.043232
_symmetry_space_group_name_H-M "P -1"
_symmetry_group_IT_number 2
_symmetry_cell_setting 'triclinic'
loop_
_space_group_symop_operation_xyz
x,y,z
-x,-y,-z
loop_
_atom_site_type_symbol
_atom_site_label
_atom_site_fract_x
_atom_site_fract_y
_atom_site_fract_z
Si Si1 0.154693 0.132132 0.871475
Si Si2 0.194668 0.937537 0.526671
Si Si3 0.236921 0.473741 0.072907
Si Si4 0.784096 0.501017 0.648306
Si Si5 0.626235 0.255873 0.236602
O O1 0.267745 0.008802 0.636123
O O2 0.346341 0.949279 0.796217
O O3 0.078396 0.406784 0.059519
O O4 0.907071 0.157342 0.017183
O O5 0.094427 0.799938 0.550019
O O6 0.473811 0.709358 0.215215
O O7 0.959814 0.207174 0.700457
O O8 0.288118 0.401918 0.143232
O O9 0.544578 0.662286 0.751513
O O10 0.000000 0.500000 0.500000
O O11 0.500000 0.500000 0.500000
#
# Coordination Sequence:
#
# PCOD9075417 Si02
#       5
#     2   2   2   2   2
#     4  11  26  47  81 113 149 209 256 322 382 464
#     4  12  27  53  78 115 160 203 257 320 388 468
#     4  12  29  50  81 117 158 201 259 321 396 455
#     4  12  28  51  81 113 155 208 257 323 384 461
#     4  11  24  48  77 113 155 196 268 318 381 456
#
# _framework density 24.688723
#
# number of rings (size 3 to 8) (size 9 to 14) (size 15 to 20)
#    0.000    0.400    2.000    4.800    8.400    2.400 
#    0.000    0.000    0.000    0.000    0.000    0.000 
#    0.000    0.000    0.000    0.000    0.000    0.000 
#
# Total GULP energy -56021.517387 kJ/mol
# GULP energy per Si atom -5602.151739 kJ/mol
# Density = 2.463253 g / cm^3
# Si number density = 24.688723 Si / 1000 Ang^3
#
#
#
# Elastic Constant Matrix: (Units=GPa)
#
#
# Indices 1 2 3 4 5 6 
#
# 1 159.7380 90.2375 53.2579 -5.3378 21.2490 -21.5959
# 2 90.2375 137.3076 67.1377 -5.1434 -0.9871 -28.2104
# 3 53.2579 67.1377 130.3316 -11.4373 11.7424 -20.2422
# 4 -5.3378 -5.1434 -11.4373 36.7781 -4.4975 0.8570
# 5 21.2490 -0.9871 11.7424 -4.4975 37.5560 7.4666
# 6 -21.5959 -28.2104 -20.2422 0.8570 7.4666 32.7364
#
#
#
# Elastic Compliance Matrix: (Units=1/GPa)
#
#
# Indices 1 2 3 4 5 6 
#
# 1 0.011688 -0.007077 0.000044 -0.000277 -0.007514 0.003360
# 2 -0.007077 0.015157 -0.004679 0.000150 0.005018 0.004351
# 3 0.000044 -0.004679 0.011231 0.002248 -0.004152 0.003829
# 4 -0.000277 0.000150 0.002248 0.028219 0.002847 -0.000052
# 5 -0.007514 0.005018 -0.004152 0.002847 0.034882 -0.011230
# 6 0.003360 0.004351 0.003829 -0.000052 -0.011230 0.041444
#
#
# Mechanical properties :
#
#
# Convention : Reuss Voigt Hill
#
# Bulk Modulus (GPa) = 68.24865 94.29372 81.27118
# Shear Modulus (GPa) = 29.25171 35.86371 32.55771
#
# Velocity S-wave (km/s) = 3.44586 3.81548 3.63537
# Velocity P-wave (km/s) = 6.59815 7.59516 7.11414
#
# Compressibility (1/GPa) = 0.01465230
#
# Stress axis : x y z
#
# Youngs Moduli (GPa) = 85.55918 65.97453 89.03651
#
# Poissons Ratio (x) = 0.46688 -0.00391
# Poissons Ratio (y) = 0.60547 0.41664
# Poissons Ratio (z) = -0.00376 0.30872
#
# Static dielectric constant tensor:
#      x y z
#    x 1.986900 0.016470 0.006600 
#    y 0.016470 2.015630 0.092140 
#    z 0.006600 0.092140 2.071370 
# 
# From -- ./inp_files/15638.got.cif
#   From: 2010.05.17/outbox.ucp.g08.bks.cvg/sg2_8_cif.got.tgz:15638.got - 2010.06.11 11:32:03.
