data_PCOD9075450
_publ_section_title
;
Structure prediction by ZEFSAII (Michael W. Deem and Ramdas Pophale) SiO2 
 PCOD9075450
Probable space group: P -1
;
_chemical_formula_sum "Si O2"
_cell_formula_units_Z 14
_cell_length_a 15.000000
_cell_length_b 15.000000
_cell_length_c 27.000000
_cell_angle_alpha 20.000000
_cell_angle_beta 160.000000
_cell_angle_gamma 160.000000
_cell_volume 621.679612
_symmetry_space_group_name_H-M "P -1"
_symmetry_group_IT_number 2
_symmetry_cell_setting 'triclinic'
loop_
_space_group_symop_operation_xyz
x,y,z
-x,-y,-z
loop_
_atom_site_type_symbol
_atom_site_label
_atom_site_fract_x
_atom_site_fract_y
_atom_site_fract_z
Si Si1 0.059625 0.306142 0.176533
Si Si2 0.970064 0.248392 0.821956
Si Si3 0.948798 0.271031 0.255093
Si Si4 0.311468 0.946648 0.661032
Si Si5 0.907315 0.842055 0.910242
Si Si6 0.253060 0.431147 0.733645
Si Si7 0.250744 0.393592 0.636961
O O1 0.922129 0.250388 0.190996
O O2 0.419781 0.468107 0.287430
O O3 0.920543 0.965580 0.263820
O O4 0.000000 0.500000 0.000000
O O5 0.198579 0.605739 0.758999
O O6 0.647897 0.192434 0.698372
O O7 0.939060 0.099408 0.830204
O O8 0.000000 0.000000 0.000000
O O9 0.714905 0.118426 0.258802
O O10 0.143989 0.110873 0.459860
O O11 0.010351 0.618525 0.106519
O O12 0.564578 0.634988 0.819791
O O13 0.129774 0.073733 0.863998
O O14 0.321052 0.502636 0.673619
O O15 0.979711 0.506971 0.558880
#
# Coordination Sequence:
#
# PCOD9075450 Si02
#       7
#     2   2   2   2   2   2   2
#     4  12  26  45  72 105 146 193 240 293 363 439
#     4  12  26  49  75 108 145 186 251 299 363 430
#     4  11  28  48  73 107 150 190 242 296 368 429
#     4  11  28  49  73 107 147 195 239 304 360 435
#     4  12  26  44  77 106 142 192 241 302 360 435
#     4  11  25  45  73 106 142 188 244 303 361 424
#     4  11  25  46  69 104 146 186 246 300 355 427
#
# _framework density 22.519638
#
# number of rings (size 3 to 8) (size 9 to 14) (size 15 to 20)
#    0.000    0.571    1.429    5.143    8.000    8.000 
#    0.000    0.000    0.000    0.000    0.000    0.000 
#    0.000    0.000    0.000    0.000    0.000    0.000 
#
# Total GULP energy -77973.318284 kJ/mol
# GULP energy per Si atom -5569.522735 kJ/mol
# Density = 2.246838 g / cm^3
# Si number density = 22.519638 Si / 1000 Ang^3
#
#
#
# Elastic Constant Matrix: (Units=GPa)
#
#
# Indices 1 2 3 4 5 6 
#
# 1 109.4312 -7.0571 13.7525 -2.4437 -22.9301 -11.2522
# 2 -7.0571 115.8358 26.9602 4.2501 -1.8838 5.4562
# 3 13.7525 26.9602 135.8383 -21.0386 -24.0445 0.2965
# 4 -2.4437 4.2501 -21.0386 31.8292 6.5094 -16.0410
# 5 -22.9301 -1.8838 -24.0445 6.5094 39.7535 -5.6089
# 6 -11.2522 5.4562 0.2965 -16.0410 -5.6089 20.0576
#
#
#
# Elastic Compliance Matrix: (Units=1/GPa)
#
#
# Indices 1 2 3 4 5 6 
#
# 1 0.012809 -0.000641 0.001862 0.009039 0.009431 0.017199
# 2 -0.000641 0.010255 -0.003709 -0.008861 -0.002199 -0.010796
# 3 0.001862 -0.003709 0.011489 0.014564 0.007675 0.015677
# 4 0.009039 -0.008861 0.014564 0.076847 0.011156 0.071844
# 5 0.009431 -0.002199 0.007675 0.011156 0.036833 0.024998
# 6 0.017199 -0.010796 0.015677 0.071844 0.024998 0.126658
#
#
# Mechanical properties :
#
#
# Convention : Reuss Voigt Hill
#
# Bulk Modulus (GPa) = 33.80914 47.60183 40.70549
# Shear Modulus (GPa) = 17.25767 40.15804 28.70786
#
# Velocity S-wave (km/s) = 2.77129 4.22743 3.57430
# Velocity P-wave (km/s) = 5.02850 6.70910 5.92865
#
# Compressibility (1/GPa) = 0.02957780
#
# Stress axis : x y z
#
# Youngs Moduli (GPa) = 78.06837 97.51463 87.03928
#
# Poissons Ratio (x) = 0.06256 -0.16210
# Poissons Ratio (y) = 0.05008 0.32279
# Poissons Ratio (z) = -0.14539 0.36164
#
# Static dielectric constant tensor:
#      x y z
#    x 2.028970 -0.008340 0.021380 
#    y -0.008340 1.793300 0.037110 
#    z 0.021380 0.037110 1.909210 
# 
# From -- ./inp_files/619628.got.cif
#   From: 2010.05.17/outbox.ucp.g08.bks.cvg/sg2_310_cif.got.tgz:619628.got - 2010.06.11 11:32:03.
