data_PCOD9075300
_publ_section_title
;
Structure prediction by ZEFSAII (Michael W. Deem and Ramdas Pophale) SiO2 
 PCOD9075300
Probable space group: P -1
;
_chemical_formula_sum "Si O2"
_cell_formula_units_Z 16
_cell_length_a 9.000000
_cell_length_b 24.000000
_cell_length_c 21.000000
_cell_angle_alpha 160.000000
_cell_angle_beta 150.000000
_cell_angle_gamma 40.000000
_cell_volume 744.844803
_symmetry_space_group_name_H-M "P -1"
_symmetry_group_IT_number 2
_symmetry_cell_setting 'triclinic'
loop_
_space_group_symop_operation_xyz
x,y,z
-x,-y,-z
loop_
_atom_site_type_symbol
_atom_site_label
_atom_site_fract_x
_atom_site_fract_y
_atom_site_fract_z
Si Si1 0.560708 0.150494 0.737132
Si Si2 0.724655 0.192281 0.275555
Si Si3 0.217752 0.416117 0.907915
Si Si4 0.225367 0.018801 0.242761
Si Si5 0.063868 0.284029 0.275023
Si Si6 0.379610 0.638720 0.716639
Si Si7 0.539930 0.329876 0.620080
Si Si8 0.977092 0.530471 0.815299
O O1 0.276790 0.232311 0.726718
O O2 0.651371 0.075217 0.755710
O O3 0.500000 0.000000 0.500000
O O4 0.822857 0.323209 0.999751
O O5 0.637828 0.272320 0.262670
O O6 0.791866 0.349110 0.519472
O O7 0.049012 0.149284 0.344076
O O8 0.500000 0.000000 0.000000
O O9 0.875615 0.390594 0.779805
O O10 0.195645 0.499276 0.919827
O O11 0.451213 0.536499 0.175035
O O12 0.483164 0.142711 0.427817
O O13 0.977491 0.882620 0.961382
O O14 0.151139 0.447145 0.435750
O O15 0.297482 0.315607 0.456263
O O16 0.734795 0.261307 0.162541
O O17 0.711231 0.614112 0.828416
#
# Coordination Sequence:
#
# PCOD9075300 Si02
#       8
#     2   2   2   2   2   2   2   2
#     4  12  27  46  68  99 139 183 231 275 327 407
#     4  12  25  41  67 103 141 173 216 273 343 413
#     4  11  26  45  72  93 132 183 235 272 335 396
#     4  12  25  42  69 101 137 173 225 282 346 394
#     4  11  24  43  71 101 137 172 222 290 340 400
#     4  11  24  41  70 101 133 172 222 270 352 396
#     4  11  24  46  70  98 133 178 228 286 334 396
#     4  12  24  46  70  96 139 181 223 277 335 407
#
# _framework density 21.480985
#
# number of rings (size 3 to 8) (size 9 to 14) (size 15 to 20)
#    0.000    0.500    2.500    5.625    3.500    1.500 
#    0.000    0.000    0.000    0.000    0.000    0.000 
#    0.000    0.000    0.000    0.000    0.000    0.000 
#
# Total GULP energy -89352.425079 kJ/mol
# GULP energy per Si atom -5584.526567 kJ/mol
# Density = 2.143209 g / cm^3
# Si number density = 21.480985 Si / 1000 Ang^3
#
#
#
# Elastic Constant Matrix: (Units=GPa)
#
#
# Indices 1 2 3 4 5 6 
#
# 1 82.7899 54.7193 35.8401 6.4467 2.4400 12.2188
# 2 54.7193 165.2323 26.9887 11.2896 -14.9402 25.3441
# 3 35.8401 26.9887 111.3008 21.6071 -8.8874 21.6853
# 4 6.4467 11.2896 21.6071 33.0235 3.6362 5.9663
# 5 2.4400 -14.9402 -8.8874 3.6362 39.4307 8.0806
# 6 12.2188 25.3441 21.6853 5.9663 8.0806 58.8699
#
#
#
# Elastic Compliance Matrix: (Units=1/GPa)
#
#
# Indices 1 2 3 4 5 6 
#
# 1 0.018176 -0.005939 -0.005544 0.002441 -0.005112 0.001281
# 2 -0.005939 0.008985 0.001357 -0.002715 0.005057 -0.003554
# 3 -0.005544 0.001357 0.013232 -0.007869 0.005438 -0.004256
# 4 0.002441 -0.002715 -0.007869 0.036458 -0.006470 0.000754
# 5 -0.005112 0.005057 0.005438 -0.006470 0.030786 -0.006689
# 6 0.001281 -0.003554 -0.004256 0.000754 -0.006689 0.020661
#
#
# Mechanical properties :
#
#
# Convention : Reuss Voigt Hill
#
# Bulk Modulus (GPa) = 49.65250 66.04658 57.84954
# Shear Modulus (GPa) = 32.20312 42.38314 37.29313
#
# Velocity S-wave (km/s) = 3.87608 4.44673 4.17117
# Velocity P-wave (km/s) = 6.57243 7.56160 7.08430
#
# Compressibility (1/GPa) = 0.02013997
#
# Stress axis : x y z
#
# Youngs Moduli (GPa) = 55.01772 111.29450 75.57366
#
# Poissons Ratio (x) = 0.66100 0.41902
# Poissons Ratio (y) = 0.32676 -0.10256
# Poissons Ratio (z) = 0.30504 -0.15103
#
# Static dielectric constant tensor:
#      x y z
#    x 1.890160 -0.042370 0.049010 
#    y -0.042370 1.751500 -0.023240 
#    z 0.049010 -0.023240 1.780950 
# 
# From -- ./inp_files/592008.got.cif
#   From: 2010.05.17/outbox.ucp.g08.bks.cvg/sg2_297_cif.got.tgz:592008.got - 2010.06.11 11:32:03.
