data_PCOD9075466
_publ_section_title
;
Structure prediction by ZEFSAII (Michael W. Deem and Ramdas Pophale) SiO2 
 PCOD9075466
Probable space group: P -1
;
_chemical_formula_sum "Si O2"
_cell_formula_units_Z 14
_cell_length_a 12.000000
_cell_length_b 6.000000
_cell_length_c 12.000000
_cell_angle_alpha 70.000000
_cell_angle_beta 100.000000
_cell_angle_gamma 60.000000
_cell_volume 636.948721
_symmetry_space_group_name_H-M "P -1"
_symmetry_group_IT_number 2
_symmetry_cell_setting 'triclinic'
loop_
_space_group_symop_operation_xyz
x,y,z
-x,-y,-z
loop_
_atom_site_type_symbol
_atom_site_label
_atom_site_fract_x
_atom_site_fract_y
_atom_site_fract_z
Si Si1 0.801807 0.855158 0.802944
Si Si2 0.158304 0.691570 0.591160
Si Si3 0.776365 0.239501 0.170810
Si Si4 0.053104 0.818931 0.152548
Si Si5 0.375241 0.785698 0.497400
Si Si6 0.354239 0.039350 0.680548
Si Si7 0.406921 0.140466 0.075066
O O1 0.896211 0.506358 0.833671
O O2 0.713068 0.892084 0.893314
O O3 0.859015 0.058671 0.798782
O O4 0.703091 0.988605 0.654985
O O5 0.185870 0.640356 0.737613
O O6 0.266377 0.738691 0.543943
O O7 0.209700 0.380166 0.597490
O O8 0.000000 0.000000 0.500000
O O9 0.684614 0.148539 0.226223
O O10 0.683198 0.504451 0.020909
O O11 0.920626 0.956148 0.190456
O O12 0.000000 0.000000 0.000000
O O13 0.500000 0.500000 0.500000
O O14 0.409373 0.910469 0.587902
O O15 0.477004 0.003294 0.781657
O O16 0.500000 0.000000 0.000000
#
# Coordination Sequence:
#
# PCOD9075466 Si02
#       7
#     2   2   2   2   2   2   2
#     4  12  30  49  78 112 157 201 256 325 387 462
#     4  11  25  46  72 107 149 198 261 313 387 460
#     4  11  26  44  75 108 149 196 252 318 385 460
#     4  12  28  49  76 113 153 202 256 318 392 462
#     4  11  28  47  74 108 155 202 264 317 390 462
#     4  11  27  47  78 108 149 206 255 323 386 465
#     4  12  26  47  77 109 153 198 258 317 393 465
#
# _framework density 21.979790999999999
#
# number of rings (size 3 to 8) (size 9 to 14) (size 15 to 20)
#    0.000    0.571    2.857    2.571   14.000    2.286 
#    0.000    0.000    0.000    0.000    0.000    0.000 
#    0.000    0.000    0.000    0.000    0.000    0.000 
#
# Total GULP energy -78040.235297 kJ/mol
# GULP energy per Si atom -5574.302521 kJ/mol
# Density = 2.192976 g / cm^3
# Si number density = 21.979791 Si / 1000 Ang^3
#
#
#
# Elastic Constant Matrix: (Units=GPa)
#
#
# Indices 1 2 3 4 5 6 
#
# 1 70.1658 9.5519 -11.1345 12.6119 -1.8950 -21.4481
# 2 9.5519 124.6555 15.3292 16.8017 18.0320 -25.8309
# 3 -11.1345 15.3292 83.1931 4.6985 5.0171 -16.7916
# 4 12.6119 16.8017 4.6985 55.5648 -6.0757 -7.4840
# 5 -1.8950 18.0320 5.0171 -6.0757 34.3867 5.9144
# 6 -21.4481 -25.8309 -16.7916 -7.4840 5.9144 41.7706
#
#
#
# Elastic Compliance Matrix: (Units=1/GPa)
#
#
# Indices 1 2 3 4 5 6 
#
# 1 0.019444 0.001553 0.005345 -0.003978 -0.003438 0.012867
# 2 0.001553 0.011209 0.000522 -0.003518 -0.007941 0.008433
# 3 0.005345 0.000522 0.014863 -0.001821 -0.004068 0.009292
# 4 -0.003978 -0.003518 -0.001821 0.020475 0.005873 -0.002113
# 5 -0.003438 -0.007941 -0.004068 0.005873 0.036832 -0.012474
# 6 0.012867 0.008433 0.009292 -0.002113 -0.012474 0.040885
#
#
# Mechanical properties :
#
#
# Convention : Reuss Voigt Hill
#
# Bulk Modulus (GPa) = 16.56817 33.94526 25.25672
# Shear Modulus (GPa) = 33.55973 43.96227 38.76100
#
# Velocity S-wave (km/s) = 3.91172 4.47712 4.20394
# Velocity P-wave (km/s) = 5.28738 6.49643 5.92284
#
# Compressibility (1/GPa) = 0.06035670
#
# Stress axis : x y z
#
# Youngs Moduli (GPa) = 51.42930 89.21172 67.28048
#
# Poissons Ratio (x) = -0.13851 -0.35964
# Poissons Ratio (y) = -0.07985 -0.03512
# Poissons Ratio (z) = -0.27491 -0.04657
#
# Static dielectric constant tensor:
#      x y z
#    x 1.735830 0.089590 0.019100 
#    y 0.089590 1.950810 -0.129160 
#    z 0.019100 -0.129160 1.826150 
# 
# From -- ./inp_files/71381.got.cif
#   From: 2010.05.17/outbox.ucp.g08.bks.cvg/sg2_36_cif.got.tgz:71381.got - 2010.06.11 11:32:03.
