data_PCOD9075996
_publ_section_title
;
Structure prediction by ZEFSAII (Michael W. Deem and Ramdas Pophale) SiO2 
 PCOD9075996
Probable space group: P -1
;
_chemical_formula_sum "Si O2"
_cell_formula_units_Z 16
_cell_length_a 16.532821
_cell_length_b 22.411269
_cell_length_c 12.623534
_cell_angle_alpha 24.657508
_cell_angle_beta 143.243155
_cell_angle_gamma 154.242078
_cell_volume 844.106133
_symmetry_space_group_name_H-M "P -1"
_symmetry_group_IT_number 2
_symmetry_cell_setting 'triclinic'
loop_
_space_group_symop_operation_xyz
x,y,z
-x,-y,-z
loop_
_atom_site_type_symbol
_atom_site_label
_atom_site_fract_x
_atom_site_fract_y
_atom_site_fract_z
Si Si1 0.285366 0.896453 0.430876
Si Si2 0.234544 0.100691 0.217088
Si Si3 0.047403 0.867077 0.056815
Si Si4 0.174692 0.057218 0.652953
Si Si5 0.393410 0.454224 0.166674
Si Si6 0.629890 0.838007 0.507220
Si Si7 0.212890 0.604204 0.480761
Si Si8 0.126886 0.522356 0.760620
O O1 0.225394 0.944069 0.187244
O O2 0.170341 0.666124 0.666142
O O3 0.500000 0.000000 0.500000
O O4 0.220618 0.952001 0.368013
O O5 0.285169 0.080973 0.419205
O O6 0.409335 0.321211 0.997198
O O7 0.058458 0.078058 0.085106
O O8 0.899232 0.627397 0.279920
O O9 0.108940 0.951801 0.866003
O O10 0.339074 0.297937 0.451245
O O11 0.260390 0.023898 0.702330
O O12 0.000000 0.000000 0.500000
O O13 0.375107 0.338548 0.231412
O O14 0.229705 0.450416 0.005355
O O15 0.420799 0.740228 0.441214
O O16 0.215738 0.638353 0.554022
O O17 0.089953 0.630952 0.248168
#
# Coordination Sequence:
#
# PCOD9075996 Si02
#       8
#     2   2   2   2   2   2   2   2
#     4  11  23  36  57  81 116 150 189 231 268 329
#     4  12  19  35  58  86 111 144 193 230 267 328
#     4  11  21  37  58  89 112 141 189 233 284 321
#     4  10  20  32  57  89 116 138 173 240 291 328
#     4  10  19  32  58  83 107 144 183 234 281 320
#     4  10  19  32  59  89 107 142 183 237 284 316
#     4  10  18  32  58  85 109 138 189 239 270 323
#     4  10  19  32  54  82 110 145 185 229 277 316
#
# _framework density 18.954962999999999
#
# number of rings (size 3 to 8) (size 9 to 14) (size 15 to 20)
#    0.750    0.750    5.000    2.250    0.000    0.000 
#    0.000    0.625    2.750    9.000    0.000    0.000 
#    0.000    0.000    0.000    0.000    0.000    0.000 
#
# Total GULP energy -89107.944242 kJ/mol
# GULP energy per Si atom -5569.246515 kJ/mol
# Density = 1.891182 g / cm^3
# Si number density = 18.954963 Si / 1000 Ang^3
#
#
#
# Elastic Constant Matrix: (Units=GPa)
#
#
# Indices 1 2 3 4 5 6 
#
# 1 136.3631 51.3682 51.0482 5.0951 15.6634 4.0195
# 2 51.3682 59.3969 32.7100 18.0212 -4.1820 10.2223
# 3 51.0482 32.7100 67.2486 8.9346 -1.2067 11.2677
# 4 5.0951 18.0212 8.9346 28.9255 -1.5026 10.9024
# 5 15.6634 -4.1820 -1.2067 -1.5026 26.7347 -7.7960
# 6 4.0195 10.2223 11.2677 10.9024 -7.7960 40.0350
#
#
#
# Elastic Compliance Matrix: (Units=1/GPa)
#
#
# Indices 1 2 3 4 5 6 
#
# 1 0.015655 -0.012554 -0.006797 0.006761 -0.011201 -0.000476
# 2 -0.012554 0.037534 -0.006143 -0.019001 0.012157 0.000948
# 3 -0.006797 -0.006143 0.023788 -0.000794 0.002987 -0.003646
# 4 0.006761 -0.019001 -0.000794 0.048991 -0.007235 -0.010354
# 5 -0.011201 0.012157 0.002987 -0.007235 0.048079 0.008512
# 6 -0.000476 0.000948 -0.003646 -0.010354 0.008512 0.030287
#
#
# Mechanical properties :
#
#
# Convention : Reuss Voigt Hill
#
# Bulk Modulus (GPa) = 38.47831 59.25129 48.86480
# Shear Modulus (GPa) = 18.94050 27.66450 23.30250
#
# Velocity S-wave (km/s) = 3.16450 3.82447 3.51003
# Velocity P-wave (km/s) = 5.80483 7.12944 6.50096
#
# Compressibility (1/GPa) = 0.02598867
#
# Stress axis : x y z
#
# Youngs Moduli (GPa) = 63.87791 26.64270 42.03847
#
# Poissons Ratio (x) = 0.33446 0.28573
# Poissons Ratio (y) = 0.80191 0.25825
# Poissons Ratio (z) = 0.43417 0.16367
#
# Static dielectric constant tensor:
#      x y z
#    x 1.670240 0.013070 0.030110 
#    y 0.013070 1.690130 -0.007650 
#    z 0.030110 -0.007650 1.695950 
# 
# From -- ./inp_files/457442.got.cif
#   From: 2010.05.17/outbox.cif.g08.bks.cpg/sg2_229_cif.got.tgz:457442.got - 2010.06.03 11:33:40.
