data_PCOD9075226
_publ_section_title
;
Structure prediction by ZEFSAII (Michael W. Deem and Ramdas Pophale) SiO2 
 PCOD9075226
Probable space group: P -1
;
_chemical_formula_sum "Si O2"
_cell_formula_units_Z 16
_cell_length_a 9.000000
_cell_length_b 9.000000
_cell_length_c 24.000000
_cell_angle_alpha 140.000000
_cell_angle_beta 140.000000
_cell_angle_gamma 40.000000
_cell_volume 723.717541
_symmetry_space_group_name_H-M "P -1"
_symmetry_group_IT_number 2
_symmetry_cell_setting 'triclinic'
loop_
_space_group_symop_operation_xyz
x,y,z
-x,-y,-z
loop_
_atom_site_type_symbol
_atom_site_label
_atom_site_fract_x
_atom_site_fract_y
_atom_site_fract_z
Si Si1 0.743349 0.544914 0.603179
Si Si2 0.474814 0.274241 0.889142
Si Si3 0.737272 0.079666 0.791447
Si Si4 0.825229 0.796233 0.044428
Si Si5 0.973406 0.205712 0.682156
Si Si6 0.479018 0.908623 0.868049
Si Si7 0.452415 0.638370 0.298648
Si Si8 0.059672 0.309395 0.514427
O O1 0.500000 0.500000 0.500000
O O2 0.872694 0.369850 0.643832
O O3 0.920267 0.454557 0.572809
O O4 0.690832 0.830775 0.691138
O O5 0.601425 0.235026 0.852914
O O6 0.203341 0.263650 0.790915
O O7 0.609259 0.011209 0.888345
O O8 0.500000 0.500000 0.000000
O O9 0.652660 0.253244 0.761555
O O10 0.033788 0.018118 0.869729
O O11 0.755612 0.837841 0.102099
O O12 0.627765 0.840462 0.949881
O O13 0.000000 0.500000 0.000000
O O14 0.760135 0.286181 0.692530
O O15 0.018048 0.918267 0.591884
O O16 0.426524 0.673658 0.763126
O O17 0.643615 0.762447 0.407090
O O18 0.000000 0.500000 0.500000
#
# Coordination Sequence:
#
# PCOD9075226 Si02
#       8
#     2   2   2   2   2   2   2   2
#     4  12  25  45  71 102 143 185 230 293 365 426
#     4  12  28  44  67 101 144 190 237 289 352 422
#     4  12  25  43  69 100 140 180 241 284 358 417
#     4  11  23  44  70 100 134 184 234 298 339 411
#     4  12  26  46  69 103 146 185 236 295 355 422
#     4  11  25  43  70  98 139 181 239 284 353 410
#     4  12  24  44  73 102 136 184 235 293 356 424
#     4  12  24  44  73 103 137 180 238 291 358 427
#
# _framework density 22.108073000000001
#
# number of rings (size 3 to 8) (size 9 to 14) (size 15 to 20)
#    0.000    0.250    1.250    8.250    5.250    0.500 
#    0.000    0.000    0.000    0.000    0.000    0.000 
#    0.000    0.000    0.000    0.000    0.000    0.000 
#
# Total GULP energy -89303.903032 kJ/mol
# GULP energy per Si atom -5581.493939 kJ/mol
# Density = 2.205775 g / cm^3
# Si number density = 22.108073 Si / 1000 Ang^3
#
#
#
# Elastic Constant Matrix: (Units=GPa)
#
#
# Indices 1 2 3 4 5 6 
#
# 1 143.0257 14.4295 34.1754 -4.8714 -36.1176 8.5118
# 2 14.4295 51.8353 25.7902 23.5594 -22.2190 29.6351
# 3 34.1754 25.7902 196.0470 20.3304 -9.7043 -0.0734
# 4 -4.8714 23.5594 20.3304 55.1917 1.2561 -1.6598
# 5 -36.1176 -22.2190 -9.7043 1.2561 57.7774 -2.7593
# 6 8.5118 29.6351 -0.0734 -1.6598 -2.7593 39.0257
#
#
#
# Elastic Compliance Matrix: (Units=1/GPa)
#
#
# Indices 1 2 3 4 5 6 
#
# 1 0.008930 0.004332 -0.001719 -0.000725 0.006746 -0.004794
# 2 0.004332 0.103693 -0.007939 -0.044203 0.038446 -0.078863
# 3 -0.001719 -0.007939 0.006182 0.001212 -0.002816 0.006267
# 4 -0.000725 -0.044203 0.001212 0.037879 -0.016440 0.034176
# 5 0.006746 0.038446 -0.002816 -0.016440 0.034813 -0.028909
# 6 -0.004794 -0.078863 0.006267 0.034176 -0.028909 0.085978
#
#
# Mechanical properties :
#
#
# Convention : Reuss Voigt Hill
#
# Bulk Modulus (GPa) = 9.24616 59.96647 34.60631
# Shear Modulus (GPa) = 15.42364 51.49984 33.46174
#
# Velocity S-wave (km/s) = 2.64417 4.83168 3.89466
# Velocity P-wave (km/s) = 3.67607 7.63610 5.99264
#
# Compressibility (1/GPa) = 0.10815303
#
# Stress axis : x y z
#
# Youngs Moduli (GPa) = 111.98666 9.64383 161.75841
#
# Poissons Ratio (x) = -0.04178 0.27808
# Poissons Ratio (y) = -0.48510 1.28414
# Poissons Ratio (z) = 0.19252 0.07656
#
# Static dielectric constant tensor:
#      x y z
#    x 1.931130 -0.133080 0.078150 
#    y -0.133080 2.043770 -0.065290 
#    z 0.078150 -0.065290 1.785540 
# 
# From -- ./inp_files/606882.got.cif
#   From: 2010.05.17/outbox.ucp.g08.bks.cvg/sg2_304_cif.got.tgz:606882.got - 2010.06.11 11:32:03.
