data_PCOD9075888
_publ_section_title
;
Structure prediction by ZEFSAII (Michael W. Deem and Ramdas Pophale) SiO2 
 PCOD9075888
Probable space group: P -1
;
_chemical_formula_sum "Si O2"
_cell_formula_units_Z 14
_cell_length_a 11.000968
_cell_length_b 8.200132
_cell_length_c 12.135000
_cell_angle_alpha 97.773965
_cell_angle_beta 131.935335
_cell_angle_gamma 110.677768
_cell_volume 644.438855
_symmetry_space_group_name_H-M "P -1"
_symmetry_group_IT_number 2
_symmetry_cell_setting 'triclinic'
loop_
_space_group_symop_operation_xyz
x,y,z
-x,-y,-z
loop_
_atom_site_type_symbol
_atom_site_label
_atom_site_fract_x
_atom_site_fract_y
_atom_site_fract_z
Si Si1 0.394750 0.558431 0.156271
Si Si2 0.145698 0.223836 0.161081
Si Si3 0.716251 0.202777 0.769517
Si Si4 0.073061 0.392025 0.324406
Si Si5 0.122648 0.106158 0.472549
Si Si6 0.508269 0.764085 0.566690
Si Si7 0.965060 0.683159 0.217005
O O1 0.298610 0.387282 0.178085
O O2 0.293493 0.676087 0.127063
O O3 0.637981 0.720909 0.333125
O O4 0.273938 0.425420 0.961941
O O5 0.030652 0.293320 0.166633
O O6 0.303920 0.240093 0.344850
O O7 0.000000 0.000000 0.000000
O O8 0.577767 0.210672 0.594480
O O9 0.916149 0.277791 0.825355
O O10 0.605461 0.969011 0.714562
O O11 0.034499 0.218563 0.369422
O O12 0.316710 0.570451 0.492539
O O13 0.985503 0.525787 0.285574
O O14 0.078461 0.910864 0.358250
O O15 0.000000 0.000000 0.500000
#
# Coordination Sequence:
#
# PCOD9075888 Si02
#       7
#     2   2   2   2   2   2   2
#     4  12  22  41  68  99 139 172 205 276 343 391
#     4  12  22  32  60 101 138 166 207 261 340 419
#     4  10  19  34  64  97 137 163 202 267 340 409
#     4  11  22  42  65  93 134 171 216 277 331 395
#     4  12  28  49  68  91 130 186 240 276 314 379
#     4  10  18  32  56  87 130 177 209 242 322 406
#     4  11  25  42  66 106 134 170 222 269 335 412
#
# _framework density 21.724326000000001
#
# number of rings (size 3 to 8) (size 9 to 14) (size 15 to 20)
#    0.000    0.857    4.286    6.857    2.000    1.143 
#    0.000    0.714    0.000    0.000    0.000    0.000 
#    0.000    0.000    0.000    0.000    0.000    0.000 
#
# Total GULP energy -78101.985066 kJ/mol
# GULP energy per Si atom -5578.713219 kJ/mol
# Density = 2.167488 g / cm^3
# Si number density = 21.724326 Si / 1000 Ang^3
#
#
#
# Elastic Constant Matrix: (Units=GPa)
#
#
# Indices 1 2 3 4 5 6 
#
# 1 35.1300 38.4894 25.3469 5.0562 7.8330 9.2534
# 2 38.4894 165.8733 49.2592 15.3556 0.7556 -3.2231
# 3 25.3469 49.2592 129.5939 21.8918 26.6207 -2.4880
# 4 5.0562 15.3556 21.8918 43.3844 -7.8626 1.3316
# 5 7.8330 0.7556 26.6207 -7.8626 17.8639 -1.5946
# 6 9.2534 -3.2231 -2.4880 1.3316 -1.5946 31.8799
#
#
#
# Elastic Compliance Matrix: (Units=1/GPa)
#
#
# Indices 1 2 3 4 5 6 
#
# 1 0.053346 -0.012256 0.001120 -0.007209 -0.029304 -0.017800
# 2 -0.012256 0.009980 -0.004310 0.002242 0.012788 0.004776
# 3 0.001120 -0.004310 0.018545 -0.014150 -0.034211 -0.000434
# 4 -0.007209 0.002242 -0.014150 0.037587 0.040846 0.001688
# 5 -0.029304 0.012788 -0.034211 0.040846 0.138348 0.012342
# 6 -0.017800 0.004776 -0.000434 0.001688 0.012342 0.037530
#
#
# Mechanical properties :
#
#
# Convention : Reuss Voigt Hill
#
# Bulk Modulus (GPa) = 19.61602 61.86535 40.74068
# Shear Modulus (GPa) = 14.56796 33.12575 23.84686
#
# Velocity S-wave (km/s) = 2.59237 3.90913 3.31675
# Velocity P-wave (km/s) = 4.24378 6.99388 5.78464
#
# Compressibility (1/GPa) = 0.05097875
#
# Stress axis : x y z
#
# Youngs Moduli (GPa) = 18.74572 100.20519 53.92317
#
# Poissons Ratio (x) = 1.22812 -0.06042
# Poissons Ratio (y) = 0.22975 0.23240
# Poissons Ratio (z) = -0.02100 0.43188
#
# Static dielectric constant tensor:
#      x y z
#    x 1.826500 -0.060700 -0.024630 
#    y -0.060700 1.859080 -0.024820 
#    z -0.024630 -0.024820 1.896100 
# 
# From -- ./inp_files/419489.got.cif
#   From: 2010.05.17/outbox.cif.g08.bks.cpg/sg2_210_cif.got.tgz:419489.got - 2010.06.03 11:33:40.
