data_PCOD9075484
_publ_section_title
;
Structure prediction by ZEFSAII (Michael W. Deem and Ramdas Pophale) SiO2 
 PCOD9075484
Probable space group: P -1
;
_chemical_formula_sum "Si O2"
_cell_formula_units_Z 13
_cell_length_a 15.000000
_cell_length_b 12.000000
_cell_length_c 6.000000
_cell_angle_alpha 110.000000
_cell_angle_beta 90.000000
_cell_angle_gamma 40.000000
_cell_volume 587.780148
_symmetry_space_group_name_H-M "P -1"
_symmetry_group_IT_number 2
_symmetry_cell_setting 'triclinic'
loop_
_space_group_symop_operation_xyz
x,y,z
-x,-y,-z
loop_
_atom_site_type_symbol
_atom_site_label
_atom_site_fract_x
_atom_site_fract_y
_atom_site_fract_z
Si Si1 0.823462 0.401174 0.184985
Si Si2 0.205901 0.362067 0.295686
Si Si3 0.348020 0.595306 0.493696
Si Si4 0.219596 0.120666 0.446593
Si Si5 0.000000 0.500000 0.000000
Si Si6 0.084200 0.033490 0.592995
Si Si7 0.574752 0.715119 0.025424
O O1 0.848489 0.482029 0.413180
O O2 0.753852 0.362985 0.289763
O O3 0.692663 0.586100 0.142169
O O4 0.973598 0.208718 0.904808
O O5 0.194113 0.245209 0.331449
O O6 0.365276 0.243718 0.112081
O O7 0.086500 0.483690 0.177825
O O8 0.500000 0.500000 0.500000
O O9 0.395368 0.439138 0.216300
O O10 0.241651 0.811999 0.538138
O O11 0.134544 0.082765 0.449105
O O12 0.166707 0.251997 0.755559
O O13 0.403370 0.902438 0.256459
O O14 0.000000 0.000000 0.500000
#
# Coordination Sequence:
#
# PCOD9075484 Si02
#       7
#     2   2   2   2   1   2   2
#     4  11  25  48  79 106 149 196 244 311 366 438
#     4  11  26  49  74 108 144 191 248 307 377 435
#     4  11  26  45  74 111 150 200 249 300 369 440
#     4  12  27  45  76 106 149 192 245 307 372 442
#     4  12  28  48  72 110 146 190 252 302 372 452
#     4  12  26  48  76 110 150 199 250 301 368 444
#     4  11  25  47  74 109 148 190 248 309 367 442
#
# _framework density 22.117113
#
# number of rings (size 3 to 8) (size 9 to 14) (size 15 to 20)
#    0.000    0.615    1.538    5.077    4.308    8.615 
#    0.000    0.000    0.000    0.000    0.000    0.000 
#    0.000    0.000    0.000    0.000    0.000    0.000 
#
# Total GULP energy -72409.078401 kJ/mol
# GULP energy per Si atom -5569.929108 kJ/mol
# Density = 2.206677 g / cm^3
# Si number density = 22.117113 Si / 1000 Ang^3
#
#
#
# Elastic Constant Matrix: (Units=GPa)
#
#
# Indices 1 2 3 4 5 6 
#
# 1 196.1351 74.6755 70.1768 -5.7667 -11.6075 6.6782
# 2 74.6755 123.0948 51.0585 21.0108 -4.2875 0.3858
# 3 70.1768 51.0585 160.3970 24.2875 -7.0846 -15.0149
# 4 -5.7667 21.0108 24.2875 37.6415 -10.4144 -9.0603
# 5 -11.6075 -4.2875 -7.0846 -10.4144 45.0110 -12.8882
# 6 6.6782 0.3858 -15.0149 -9.0603 -12.8882 52.0067
#
#
#
# Elastic Compliance Matrix: (Units=1/GPa)
#
#
# Indices 1 2 3 4 5 6 
#
# 1 0.008407 -0.004898 -0.003020 0.006722 0.002764 -0.000059
# 2 -0.004898 0.012857 -0.000957 -0.008513 -0.002702 -0.001895
# 3 -0.003020 -0.000957 0.008828 -0.005165 -0.000097 0.002020
# 4 0.006722 -0.008513 -0.005165 0.040796 0.011762 0.007731
# 5 0.002764 -0.002702 -0.000097 0.011762 0.027837 0.008585
# 6 -0.000059 -0.001895 0.002020 0.007731 0.008585 0.023307
#
#
# Mechanical properties :
#
#
# Convention : Reuss Voigt Hill
#
# Bulk Modulus (GPa) = 81.03599 96.82760 88.93179
# Shear Modulus (GPa) = 34.74682 45.84623 40.29652
#
# Velocity S-wave (km/s) = 3.96793 4.55783 4.27307
# Velocity P-wave (km/s) = 7.59682 8.46008 8.04005
#
# Compressibility (1/GPa) = 0.01234020
#
# Stress axis : x y z
#
# Youngs Moduli (GPa) = 118.94223 77.77569 113.28074
#
# Poissons Ratio (x) = 0.38097 0.34215
# Poissons Ratio (y) = 0.58262 0.10846
# Poissons Ratio (z) = 0.35925 0.07446
#
# Static dielectric constant tensor:
#      x y z
#    x 1.859080 -0.025190 -0.038440 
#    y -0.025190 1.912890 -0.009280 
#    z -0.038440 -0.009280 1.833550 
# 
# From -- ./inp_files/93898.got.cif
#   From: 2010.05.17/outbox.ucp.g08.bks.cvg/sg2_47_cif.got.tgz:93898.got - 2010.06.11 11:32:03.
