data_PCOD9075222
_publ_section_title
;
Structure prediction by ZEFSAII (Michael W. Deem and Ramdas Pophale) SiO2 
 PCOD9075222
Probable space group: P -1
;
_chemical_formula_sum "Si O2"
_cell_formula_units_Z 14
_cell_length_a 9.000000
_cell_length_b 15.000000
_cell_length_c 15.000000
_cell_angle_alpha 150.000000
_cell_angle_beta 70.000000
_cell_angle_gamma 130.000000
_cell_volume 642.379314
_symmetry_space_group_name_H-M "P -1"
_symmetry_group_IT_number 2
_symmetry_cell_setting 'triclinic'
loop_
_space_group_symop_operation_xyz
x,y,z
-x,-y,-z
loop_
_atom_site_type_symbol
_atom_site_label
_atom_site_fract_x
_atom_site_fract_y
_atom_site_fract_z
Si Si1 0.211637 0.491678 0.414989
Si Si2 0.452518 0.538206 0.732961
Si Si3 0.774691 0.714632 0.254381
Si Si4 0.723151 0.568166 0.947876
Si Si5 0.038323 0.509368 0.285890
Si Si6 0.482923 0.952024 0.066173
Si Si7 0.970788 0.829304 0.640156
O O1 0.372645 0.480534 0.323472
O O2 0.043843 0.431789 0.319339
O O3 0.097803 0.294305 0.352967
O O4 0.382131 0.789678 0.678560
O O5 0.333561 0.458527 0.784559
O O6 0.266367 0.351052 0.528024
O O7 0.579170 0.832614 0.953054
O O8 0.819087 0.630927 0.084829
O O9 0.557076 0.642496 0.191504
O O10 0.000000 0.000000 0.500000
O O11 0.779219 0.445379 0.770329
O O12 0.869699 0.861662 0.132638
O O13 0.093480 0.762072 0.510001
O O14 0.801736 0.294121 0.087645
O O15 0.500000 0.000000 0.000000
#
# Coordination Sequence:
#
# PCOD9075222 Si02
#       7
#     2   2   2   2   2   2   2
#     4  12  24  42  69 100 143 179 215 269 334 407
#     4  11  23  44  69 100 134 183 221 271 339 391
#     4  11  24  47  72  94 128 176 232 281 331 392
#     4  11  25  45  71  96 131 176 227 282 329 391
#     4  11  25  42  64 103 136 176 222 270 329 398
#     4  11  25  41  65 100 145 175 219 268 325 403
#     4  11  24  41  69 103 140 171 222 270 332 408
#
# _framework density 21.793977000000002
#
# number of rings (size 3 to 8) (size 9 to 14) (size 15 to 20)
#    0.000    0.857    5.714    1.714    4.000    0.571 
#    0.000    7.143    0.000    0.000    0.000    0.000 
#    0.000    0.000    0.000    0.000    0.000    0.000 
#
# Total GULP energy -78086.936837 kJ/mol
# GULP energy per Si atom -5577.638346 kJ/mol
# Density = 2.174437 g / cm^3
# Si number density = 21.793977 Si / 1000 Ang^3
#
#
#
# Elastic Constant Matrix: (Units=GPa)
#
#
# Indices 1 2 3 4 5 6 
#
# 1 78.5806 -13.5592 28.5394 -8.1812 1.7218 3.8507
# 2 -13.5592 28.6944 13.5877 -23.2923 -3.4051 -3.2585
# 3 28.5394 13.5877 98.5195 -8.3491 9.1173 -0.1469
# 4 -8.1812 -23.2923 -8.3491 33.4229 -8.3939 7.2341
# 5 1.7218 -3.4051 9.1173 -8.3939 48.5389 -11.1292
# 6 3.8507 -3.2585 -0.1469 7.2341 -11.1292 24.2975
#
#
#
# Elastic Compliance Matrix: (Units=1/GPa)
#
#
# Indices 1 2 3 4 5 6 
#
# 1 0.051824 0.116096 -0.025274 0.095750 0.025394 -0.009673
# 2 0.116096 0.362858 -0.066559 0.288863 0.079242 -0.019847
# 3 -0.025274 -0.066559 0.023822 -0.051399 -0.016450 0.002992
# 4 0.095750 0.288863 -0.051399 0.263899 0.066455 -0.024879
# 5 0.025394 0.079242 -0.016450 0.066455 0.041115 0.005550
# 6 -0.009673 -0.019847 0.002992 -0.024879 0.005550 0.049995
#
#
# Mechanical properties :
#
#
# Convention : Reuss Voigt Hill
#
# Bulk Modulus (GPa) = 2.05326 29.21446 15.63386
# Shear Modulus (GPa) = 5.51066 33.06698 19.28882
#
# Velocity S-wave (km/s) = 1.59186 3.89942 2.97821
# Velocity P-wave (km/s) = 2.07915 5.80585 4.36066
#
# Compressibility (1/GPa) = 0.48702954
#
# Stress axis : x y z
#
# Youngs Moduli (GPa) = 19.29609 2.75590 41.97720
#
# Poissons Ratio (x) = -0.31995 1.06095
# Poissons Ratio (y) = -2.24019 2.79396
# Poissons Ratio (z) = 0.48770 0.18343
#
# Static dielectric constant tensor:
#      x y z
#    x 1.862760 0.092860 0.023120 
#    y 0.092860 1.858160 0.032570 
#    z 0.023120 0.032570 1.768750 
# 
# From -- ./inp_files/245841.got.cif
#   From: 2010.05.17/outbox.ucp.g08.bks.cvg/sg2_123_cif.got.tgz:245841.got - 2010.06.11 11:32:03.
