data_PCOD9075860
_publ_section_title
;
Structure prediction by ZEFSAII (Michael W. Deem and Ramdas Pophale) SiO2 
 PCOD9075860
Probable space group: P -1
;
_chemical_formula_sum "Si O2"
_cell_formula_units_Z 16
_cell_length_a 12.432239
_cell_length_b 13.742427
_cell_length_c 16.725670
_cell_angle_alpha 157.220799
_cell_angle_beta 133.449609
_cell_angle_gamma 46.816930
_cell_volume 790.278426
_symmetry_space_group_name_H-M "P -1"
_symmetry_group_IT_number 2
_symmetry_cell_setting 'triclinic'
loop_
_space_group_symop_operation_xyz
x,y,z
-x,-y,-z
loop_
_atom_site_type_symbol
_atom_site_label
_atom_site_fract_x
_atom_site_fract_y
_atom_site_fract_z
Si Si1 0.299636 0.905167 0.585495
Si Si2 0.859487 0.066174 0.860127
Si Si3 0.777205 0.028208 0.213915
Si Si4 0.582696 0.532799 0.484966
Si Si5 0.857763 0.803559 0.818651
Si Si6 0.940471 0.724439 0.503156
Si Si7 0.912342 0.469674 0.849475
Si Si8 0.192823 0.394948 0.816813
O O1 0.256586 0.937629 0.682334
O O2 0.456639 0.713981 0.507288
O O3 0.170800 0.772462 0.378366
O O4 0.301574 0.184101 0.762661
O O5 0.807657 0.006158 0.876562
O O6 0.774851 0.324240 0.971498
O O7 0.858053 0.837266 0.625553
O O8 0.035711 0.092939 0.984271
O O9 0.654406 0.248279 0.276179
O O10 0.937509 0.104763 0.332663
O O11 0.791867 0.731634 0.974842
O O12 0.500000 0.500000 0.500000
O O13 0.718882 0.683086 0.686668
O O14 0.970117 0.561752 0.654928
O O15 0.832167 0.716230 0.366969
O O16 0.034875 0.436054 0.815988
O O17 0.000000 0.500000 0.000000
#
# Coordination Sequence:
#
# PCOD9075860 Si02
#       8
#     2   2   2   2   2   2   2   2
#     4  11  22  36  51  79 122 151 182 227 276 336
#     4  10  20  34  60  84 111 141 187 241 275 322
#     4  10  19  34  54  82 111 149 184 223 280 333
#     4   9  21  38  59  79 117 154 179 221 277 342
#     4   9  20  38  56  85 111 144 189 227 280 327
#     4  10  18  32  56  84 110 141 180 236 288 322
#     4  12  21  32  56  82 115 146 186 237 282 326
#     4  11  21  32  53  85 112 145 185 233 284 327
#
# _framework density 20.246030000000001
#
# number of rings (size 3 to 8) (size 9 to 14) (size 15 to 20)
#    0.000    1.750    3.750    1.500    1.750    0.500 
#    0.000    4.375    0.000    0.750    0.000    0.000 
#    0.000    0.000    0.000    0.000    0.000    0.000 
#
# Total GULP energy -89285.589205 kJ/mol
# GULP energy per Si atom -5580.349325 kJ/mol
# Density = 2.019995 g / cm^3
# Si number density = 20.246030 Si / 1000 Ang^3
#
#
#
# Elastic Constant Matrix: (Units=GPa)
#
#
# Indices 1 2 3 4 5 6 
#
# 1 28.0807 14.5822 9.5955 -1.4576 3.6078 1.6167
# 2 14.5822 89.4292 12.6086 23.5081 -4.7037 3.4684
# 3 9.5955 12.6086 56.5325 0.9101 -8.5287 0.5812
# 4 -1.4576 23.5081 0.9101 27.3220 9.4438 -5.6651
# 5 3.6078 -4.7037 -8.5287 9.4438 27.8589 5.4312
# 6 1.6167 3.4684 0.5812 -5.6651 5.4312 21.5259
#
#
#
# Elastic Compliance Matrix: (Units=1/GPa)
#
#
# Indices 1 2 3 4 5 6 
#
# 1 0.050830 -0.015946 -0.009233 0.027511 -0.023816 0.012250
# 2 -0.015946 0.023573 0.001166 -0.031471 0.020191 -0.016009
# 3 -0.009233 0.001166 0.020823 -0.006978 0.011045 -0.004680
# 4 0.027511 -0.031471 -0.006978 0.090669 -0.049455 0.039533
# 5 -0.023816 0.020191 0.011045 -0.049455 0.068800 -0.032137
# 6 0.012250 -0.016009 -0.004680 0.039533 -0.032137 0.066754
#
#
# Mechanical properties :
#
#
# Convention : Reuss Voigt Hill
#
# Bulk Modulus (GPa) = 21.18616 27.51279 24.34947
# Shear Modulus (GPa) = 12.97999 24.49177 18.73588
#
# Velocity S-wave (km/s) = 2.53477 3.48186 3.04536
# Velocity P-wave (km/s) = 4.36507 5.45740 4.94151
#
# Compressibility (1/GPa) = 0.04720063
#
# Stress axis : x y z
#
# Youngs Moduli (GPa) = 19.67341 42.42090 48.02464
#
# Poissons Ratio (x) = 0.67645 0.44340
# Poissons Ratio (y) = 0.31372 -0.05602
# Poissons Ratio (z) = 0.18164 -0.04948
#
# Static dielectric constant tensor:
#      x y z
#    x 1.706160 0.015590 0.000080 
#    y 0.015590 1.788140 0.034050 
#    z 0.000080 0.034050 1.727540 
# 
# From -- ./inp_files/117868.got.cif
#   From: 2010.05.17/outbox.cif.g08.bks.cpg/sg2_59_cif.got.tgz:117868.got - 2010.06.03 11:33:40.
