data_PCOD9075345
_publ_section_title
;
Structure prediction by ZEFSAII (Michael W. Deem and Ramdas Pophale) SiO2 
 PCOD9075345
Probable space group: P -1
;
_chemical_formula_sum "Si O2"
_cell_formula_units_Z 15
_cell_length_a 9.000000
_cell_length_b 9.000000
_cell_length_c 12.000000
_cell_angle_alpha 120.000000
_cell_angle_beta 60.000000
_cell_angle_gamma 130.000000
_cell_volume 621.029576
_symmetry_space_group_name_H-M "P -1"
_symmetry_group_IT_number 2
_symmetry_cell_setting 'triclinic'
loop_
_space_group_symop_operation_xyz
x,y,z
-x,-y,-z
loop_
_atom_site_type_symbol
_atom_site_label
_atom_site_fract_x
_atom_site_fract_y
_atom_site_fract_z
Si Si1 0.849335 0.905043 0.268804
Si Si2 0.146538 0.686039 0.597229
Si Si3 0.408744 0.274097 0.901278
Si Si4 0.790053 0.009190 0.682381
Si Si5 0.563870 0.697185 0.480675
Si Si6 0.155576 0.584948 0.215792
Si Si7 0.000000 0.500000 0.000000
Si Si8 0.625180 0.095970 0.098652
O O1 0.789084 0.810861 0.132994
O O2 0.671033 0.714703 0.330613
O O3 0.823512 0.097524 0.361789
O O4 0.069232 0.973014 0.260242
O O5 0.364944 0.710466 0.539570
O O6 0.000000 0.500000 0.500000
O O7 0.013147 0.612025 0.732283
O O8 0.619266 0.319814 0.783137
O O9 0.343221 0.079203 0.930133
O O10 0.500000 0.500000 0.000000
O O11 0.760588 0.872167 0.537639
O O12 0.551066 0.907002 0.762349
O O13 0.886947 0.235772 0.688063
O O14 0.500000 0.500000 0.500000
O O15 0.151526 0.563851 0.075893
O O16 0.817789 0.310159 0.073045
O O17 0.500000 0.000000 0.000000
#
# Coordination Sequence:
#
# PCOD9075345 Si02
#       8
#     2   2   2   2   2   2   1   2
#     4  12  26  45  69 109 144 189 242 308 370 433
#     4  12  24  45  74 104 144 187 238 310 382 432
#     4  11  26  46  71 105 152 192 246 307 372 435
#     4  11  24  45  71 102 142 187 246 297 360 441
#     4  12  25  45  71 102 141 190 244 295 363 448
#     4  11  24  44  70 102 138 192 244 292 362 443
#     4  12  22  44  76 100 140 190 254 290 356 426
#     4  11  24  47  74 103 142 194 250 298 360 447
#
# _framework density 24.153438999999999
#
# number of rings (size 3 to 8) (size 9 to 14) (size 15 to 20)
#    0.000    0.533    2.667    7.200    1.867    2.133 
#    0.000    2.000    0.000    0.000    0.000    0.000 
#    0.000    0.000    0.000    0.000    0.000    0.000 
#
# Total GULP energy -83529.399348 kJ/mol
# GULP energy per Si atom -5568.626623 kJ/mol
# Density = 2.409846 g / cm^3
# Si number density = 24.153439 Si / 1000 Ang^3
#
#
#
# Elastic Constant Matrix: (Units=GPa)
#
#
# Indices 1 2 3 4 5 6 
#
# 1 141.2943 45.8664 27.4159 21.0014 14.7311 11.7626
# 2 45.8664 152.7860 7.4081 -20.4425 -10.2872 -7.0332
# 3 27.4159 7.4081 41.7858 -2.0924 17.6246 -11.6565
# 4 21.0014 -20.4425 -2.0924 50.4886 1.2121 3.1735
# 5 14.7311 -10.2872 17.6246 1.2121 43.1640 7.2756
# 6 11.7626 -7.0332 -11.6565 3.1735 7.2756 49.5132
#
#
#
# Elastic Compliance Matrix: (Units=1/GPa)
#
#
# Indices 1 2 3 4 5 6 
#
# 1 0.011422 -0.004155 -0.008154 -0.006460 -0.000581 -0.004724
# 2 -0.004155 0.008704 0.000735 0.005112 0.002769 0.001662
# 3 -0.008154 0.000735 0.039733 0.004870 -0.015659 0.013384
# 4 -0.006460 0.005112 0.004870 0.024644 0.000445 0.001763
# 5 -0.000581 0.002769 -0.015659 0.000445 0.031729 -0.007846
# 6 -0.004724 0.001662 0.013384 0.001763 -0.007846 0.025746
#
#
# Mechanical properties :
#
#
# Convention : Reuss Voigt Hill
#
# Bulk Modulus (GPa) = 27.23931 55.24966 41.24449
# Shear Modulus (GPa) = 28.19088 45.64486 36.91787
#
# Velocity S-wave (km/s) = 3.42008 4.35188 3.91381
# Velocity P-wave (km/s) = 5.18633 6.94089 6.12674
#
# Compressibility (1/GPa) = 0.03671165
#
# Stress axis : x y z
#
# Youngs Moduli (GPa) = 87.54813 114.89570 25.16798
#
# Poissons Ratio (x) = 0.47735 0.20521
# Poissons Ratio (y) = 0.36373 -0.01849
# Poissons Ratio (z) = 0.71383 -0.08441
#
# Static dielectric constant tensor:
#      x y z
#    x 2.434350 0.235390 -0.859500 
#    y 0.235390 2.025980 -0.446920 
#    z -0.859500 -0.446920 3.824540 
# 
# From -- ./inp_files/383161.got.cif
#   From: 2010.05.17/outbox.ucp.g08.bks.cvg/sg2_192_cif.got.tgz:383161.got - 2010.06.11 11:32:03.
