data_PCOD9075447
_publ_section_title
;
Structure prediction by ZEFSAII (Michael W. Deem and Ramdas Pophale) SiO2 
 PCOD9075447
Probable space group: P -1
;
_chemical_formula_sum "Si O2"
_cell_formula_units_Z 16
_cell_length_a 9.000000
_cell_length_b 15.000000
_cell_length_c 9.000000
_cell_angle_alpha 80.000000
_cell_angle_beta 110.000000
_cell_angle_gamma 50.000000
_cell_volume 732.374747
_symmetry_space_group_name_H-M "P -1"
_symmetry_group_IT_number 2
_symmetry_cell_setting 'triclinic'
loop_
_space_group_symop_operation_xyz
x,y,z
-x,-y,-z
loop_
_atom_site_type_symbol
_atom_site_label
_atom_site_fract_x
_atom_site_fract_y
_atom_site_fract_z
Si Si1 0.944463 0.914272 0.197803
Si Si2 0.093894 0.231968 0.003762
Si Si3 0.884272 0.284817 0.435762
Si Si4 0.621803 0.572469 0.798587
Si Si5 0.755104 0.939174 0.621384
Si Si6 0.549105 0.775409 0.944543
Si Si7 0.416066 0.799302 0.420145
Si Si8 0.841843 0.657827 0.383592
O O1 0.892310 0.841306 0.114895
O O2 0.063191 0.825110 0.414090
O O3 0.183334 0.861831 0.230092
O O4 0.716087 0.076945 0.123449
O O5 0.865772 0.402895 0.904150
O O6 0.117352 0.142724 0.157976
O O7 0.333366 0.191014 0.113959
O O8 0.600032 0.402387 0.266860
O O9 0.059886 0.187806 0.389598
O O10 0.979292 0.335275 0.529404
O O11 0.592390 0.662239 0.897138
O O12 0.561908 0.660330 0.606743
O O13 0.500000 0.000000 0.500000
O O14 0.701508 0.069663 0.557778
O O15 0.724198 0.701699 0.168815
O O16 0.617208 0.756360 0.393772
O O17 0.000000 0.500000 0.500000
#
# Coordination Sequence:
#
# PCOD9075447 Si02
#       8
#     2   2   2   2   2   2   2   2
#     4  11  25  45  73 102 136 182 231 287 343 415
#     4  12  26  43  73 105 140 179 235 286 347 408
#     4  11  25  46  70 100 140 182 227 279 352 409
#     4  11  27  47  73 101 141 185 230 286 343 417
#     4  12  24  42  70 102 137 179 230 286 342 407
#     4  12  25  46  72 101 139 183 233 282 348 414
#     4  11  25  46  71 102 140 181 230 284 350 408
#     4  12  27  43  70 100 142 181 229 283 347 410
#
# _framework density 21.846738999999999
#
# number of rings (size 3 to 8) (size 9 to 14) (size 15 to 20)
#    0.000    0.500    2.500    5.250    3.500    6.500 
#    0.000    0.000    0.000    0.000    0.000    0.000 
#    0.000    0.000    0.000    0.000    0.000    0.000 
#
# Total GULP energy -89197.454232 kJ/mol
# GULP energy per Si atom -5574.840889 kJ/mol
# Density = 2.179701 g / cm^3
# Si number density = 21.846739 Si / 1000 Ang^3
#
#
#
# Elastic Constant Matrix: (Units=GPa)
#
#
# Indices 1 2 3 4 5 6 
#
# 1 78.8481 21.5938 12.9453 1.4898 31.3873 7.3782
# 2 21.5938 123.8299 25.6249 -17.4853 18.5154 5.3245
# 3 12.9453 25.6249 60.9160 -4.3182 7.0273 0.5871
# 4 1.4898 -17.4853 -4.3182 42.8744 5.9010 -0.5397
# 5 31.3873 18.5154 7.0273 5.9010 35.6749 1.8564
# 6 7.3782 5.3245 0.5871 -0.5397 1.8564 41.3019
#
#
#
# Elastic Compliance Matrix: (Units=1/GPa)
#
#
# Indices 1 2 3 4 5 6 
#
# 1 0.020222 -0.000185 -0.002093 0.001366 -0.017366 -0.002761
# 2 -0.000185 0.010264 -0.003345 0.004561 -0.005210 -0.000949
# 3 -0.002093 -0.003345 0.018322 0.000583 -0.000157 0.000559
# 4 0.001366 0.004561 0.000583 0.026298 -0.008027 -0.000136
# 5 -0.017366 -0.005210 -0.000157 -0.008027 0.047292 0.001546
# 6 -0.002761 -0.000949 0.000559 -0.000136 0.001546 0.024748
#
#
# Mechanical properties :
#
#
# Convention : Reuss Voigt Hill
#
# Bulk Modulus (GPa) = 26.62212 42.65800 34.64006
# Shear Modulus (GPa) = 29.25468 37.53225 33.39346
#
# Velocity S-wave (km/s) = 3.66332 4.14935 3.91389
# Velocity P-wave (km/s) = 5.48685 6.52108 6.02620
#
# Compressibility (1/GPa) = 0.03756275
#
# Stress axis : x y z
#
# Youngs Moduli (GPa) = 49.45024 97.42941 54.57963
#
# Poissons Ratio (x) = 0.01803 0.11422
# Poissons Ratio (y) = 0.00915 0.18256
# Poissons Ratio (z) = 0.10349 0.32588
#
# Static dielectric constant tensor:
#      x y z
#    x 1.949140 -0.083300 -0.068140 
#    y -0.083300 1.812900 0.112900 
#    z -0.068140 0.112900 1.947270 
# 
# From -- ./inp_files/207013.got.cif
#   From: 2010.05.17/outbox.ucp.g08.bks.cvg/sg2_104_cif.got.tgz:207013.got - 2010.06.11 11:32:03.
