data_PCOD9075471
_publ_section_title
;
Structure prediction by ZEFSAII (Michael W. Deem and Ramdas Pophale) SiO2 
 PCOD9075471
Probable space group: P -1
;
_chemical_formula_sum "Si O2"
_cell_formula_units_Z 15
_cell_length_a 18.000000
_cell_length_b 21.000000
_cell_length_c 9.000000
_cell_angle_alpha 130.000000
_cell_angle_beta 40.000000
_cell_angle_gamma 160.000000
_cell_volume 700.468056
_symmetry_space_group_name_H-M "P -1"
_symmetry_group_IT_number 2
_symmetry_cell_setting 'triclinic'
loop_
_space_group_symop_operation_xyz
x,y,z
-x,-y,-z
loop_
_atom_site_type_symbol
_atom_site_label
_atom_site_fract_x
_atom_site_fract_y
_atom_site_fract_z
Si Si1 0.243230 0.567943 0.549030
Si Si2 0.373765 0.791816 0.112917
Si Si3 0.787073 0.646551 0.731813
Si Si4 0.269658 0.023498 0.758952
Si Si5 0.500000 0.000000 0.500000
Si Si6 0.631800 0.388495 0.243654
Si Si7 0.913842 0.866863 0.329275
Si Si8 0.017513 0.780684 0.253140
O O1 0.229366 0.461890 0.365900
O O2 0.453822 0.755143 0.401502
O O3 0.349344 0.638951 0.662750
O O4 0.930326 0.397251 0.772783
O O5 0.376367 0.853774 0.343663
O O6 0.416518 0.719754 0.956897
O O7 0.650271 0.000097 0.912602
O O8 0.864656 0.699751 0.519313
O O9 0.500000 0.500000 0.000000
O O10 0.034967 0.856746 0.745655
O O11 0.337472 0.974968 0.639285
O O12 0.119695 0.983631 0.052202
O O13 0.395343 0.304603 0.492500
O O14 0.913569 0.621730 0.123963
O O15 0.926678 0.790244 0.288034
O O16 0.000000 0.000000 0.500000
#
# Coordination Sequence:
#
# PCOD9075471 Si02
#       8
#     2   2   2   2   1   2   2   2
#     4  11  27  45  74 110 140 197 243 302 364 435
#     4  12  25  49  70 106 147 188 254 289 370 432
#     4  11  26  48  75 109 146 192 244 300 371 437
#     4  12  26  48  75 103 154 187 246 305 363 435
#     4  12  26  50  68 108 146 204 236 302 368 428
#     4  11  25  46  75 108 141 191 249 297 374 431
#     4  12  25  48  72 109 144 194 242 302 369 433
#     4  11  25  47  75 105 148 192 240 312 356 441
#
# _framework density 21.414252999999999
#
# number of rings (size 3 to 8) (size 9 to 14) (size 15 to 20)
#    0.000    0.533    4.000    3.200    3.733    3.733 
#    4.800    0.000    0.000    0.000    0.000    0.000 
#    0.000    0.000    0.000    0.000    0.000    0.000 
#
# Total GULP energy -83568.179789 kJ/mol
# GULP energy per Si atom -5571.211986 kJ/mol
# Density = 2.136551 g / cm^3
# Si number density = 21.414253 Si / 1000 Ang^3
#
#
#
# Elastic Constant Matrix: (Units=GPa)
#
#
# Indices 1 2 3 4 5 6 
#
# 1 68.4703 30.7773 35.7559 -8.7320 -15.9464 8.1228
# 2 30.7773 138.0976 70.9265 -5.7208 1.6986 -3.7117
# 3 35.7559 70.9265 118.3003 2.5378 -35.4727 -3.3335
# 4 -8.7320 -5.7208 2.5378 55.9038 12.1691 -8.4915
# 5 -15.9464 1.6986 -35.4727 12.1691 21.0102 5.9836
# 6 8.1228 -3.7117 -3.3335 -8.4915 5.9836 37.5296
#
#
#
# Elastic Compliance Matrix: (Units=1/GPa)
#
#
# Indices 1 2 3 4 5 6 
#
# 1 0.008087 0.021396 -0.040273 0.025761 -0.083022 0.015854
# 2 0.021396 -0.039816 0.071737 -0.049971 0.181610 -0.042458
# 3 -0.040273 0.071737 -0.105740 0.076936 -0.278904 0.068294
# 4 0.025761 -0.049971 0.076936 -0.032914 0.184079 -0.040480
# 5 -0.083022 0.181610 -0.278904 0.184079 -0.652263 0.156801
# 6 0.015854 -0.042458 0.068294 -0.040480 0.156801 -0.009078
#
#
# Mechanical properties :
#
#
# Convention : Reuss Voigt Hill
#
# Bulk Modulus (GPa) = -31.49678 66.64307 17.57315
# Shear Modulus (GPa) = -5.27411 35.38263 15.05426
#
# Velocity S-wave (km/s) = -1.57106 4.06925 2.65429
# Velocity P-wave (km/s) = 4.24632 7.29842 4.19736
#
# Compressibility (1/GPa) = -0.03174928
#
# Stress axis : x y z
#
# Youngs Moduli (GPa) = 123.65315 -25.11556 -9.45713
#
# Poissons Ratio (x) = 0.53737 -0.38086
# Poissons Ratio (y) = -2.64569 0.67842
# Poissons Ratio (z) = 4.97984 1.80170
#
# Static dielectric constant tensor:
#      x y z
#    x 1.825670 0.059180 0.011960 
#    y 0.059180 1.822270 -0.005140 
#    z 0.011960 -0.005140 1.763210 
# 
# From -- ./inp_files/337788.got.cif
#   From: 2010.05.17/outbox.ucp.g08.bks.cvg/sg2_169_cif.got.tgz:337788.got - 2010.06.11 11:32:03.
