data_PCOD9075301
_publ_section_title
;
Structure prediction by ZEFSAII (Michael W. Deem and Ramdas Pophale) SiO2 
 PCOD9075301
Probable space group: P -1
;
_chemical_formula_sum "Si O2"
_cell_formula_units_Z 14
_cell_length_a 15.000000
_cell_length_b 15.000000
_cell_length_c 27.000000
_cell_angle_alpha 160.000000
_cell_angle_beta 160.000000
_cell_angle_gamma 20.000000
_cell_volume 621.679612
_symmetry_space_group_name_H-M "P -1"
_symmetry_group_IT_number 2
_symmetry_cell_setting 'triclinic'
loop_
_space_group_symop_operation_xyz
x,y,z
-x,-y,-z
loop_
_atom_site_type_symbol
_atom_site_label
_atom_site_fract_x
_atom_site_fract_y
_atom_site_fract_z
Si Si1 0.616621 0.391626 0.142474
Si Si2 0.359012 0.353712 0.608478
Si Si3 0.650592 0.023011 0.200511
Si Si4 0.136062 0.619077 0.872775
Si Si5 0.813990 0.451636 0.832925
Si Si6 0.846804 0.090739 0.883274
Si Si7 0.793955 0.282352 0.507428
O O1 0.571532 0.506338 0.234200
O O2 0.951125 0.145634 0.175428
O O3 0.477778 0.688052 0.191113
O O4 0.429435 0.221428 0.947355
O O5 0.538144 0.411323 0.688270
O O6 0.000000 0.500000 0.500000
O O7 0.500000 0.000000 0.500000
O O8 0.943476 0.834843 0.220857
O O9 0.360119 0.252459 0.137034
O O10 0.702915 0.197439 0.363502
O O11 0.912866 0.893736 0.864155
O O12 0.034385 0.392921 0.682004
O O13 0.500000 0.500000 0.000000
O O14 0.042148 0.693210 0.920384
O O15 0.000000 0.500000 0.000000
O O16 0.500000 0.500000 0.500000
O O17 0.000000 0.000000 0.500000
#
# Coordination Sequence:
#
# PCOD9075301 Si02
#       7
#     2   2   2   2   2   2   2
#     4  12  24  44  72 105 139 187 242 293 360 436
#     4  12  28  47  71 107 146 184 234 307 368 422
#     4  12  26  46  79 106 143 197 247 290 373 426
#     4  11  25  47  72 105 148 190 236 299 363 419
#     4  12  26  50  77 104 148 190 246 302 359 440
#     4  11  24  41  72 101 142 188 238 283 362 431
#     4  12  28  48  74 108 153 189 244 302 356 433
#
# _framework density 22.519638
#
# number of rings (size 3 to 8) (size 9 to 14) (size 15 to 20)
#    0.000    0.286    2.857    5.571    6.000    3.429 
#    2.571    0.000    0.000    0.000    0.000    0.000 
#    0.000    0.000    0.000    0.000    0.000    0.000 
#
# Total GULP energy -78083.519287 kJ/mol
# GULP energy per Si atom -5577.394235 kJ/mol
# Density = 2.246838 g / cm^3
# Si number density = 22.519638 Si / 1000 Ang^3
#
#
#
# Elastic Constant Matrix: (Units=GPa)
#
#
# Indices 1 2 3 4 5 6 
#
# 1 73.5730 61.7341 5.5476 7.5748 -18.6015 -16.2608
# 2 61.7341 197.7610 51.2248 -9.9884 -2.0006 -8.9902
# 3 5.5476 51.2248 78.4897 -1.7394 -9.9638 0.8217
# 4 7.5748 -9.9884 -1.7394 32.3016 -8.9557 -1.2397
# 5 -18.6015 -2.0006 -9.9638 -8.9557 43.1738 6.5717
# 6 -16.2608 -8.9902 0.8217 -1.2397 6.5717 57.5314
#
#
#
# Elastic Compliance Matrix: (Units=1/GPa)
#
#
# Indices 1 2 3 4 5 6 
#
# 1 0.024763 -0.009069 0.005229 -0.005485 0.009666 0.004285
# 2 -0.009069 0.009573 -0.006034 0.003626 -0.004037 -0.000442
# 3 0.005229 -0.006034 0.017043 -0.000568 0.005848 -0.000389
# 4 -0.005485 0.003626 -0.000568 0.034688 0.004991 -0.000798
# 5 0.009666 -0.004037 0.005848 0.004991 0.029718 -0.001270
# 6 0.004285 -0.000442 -0.000389 -0.000798 -0.001270 0.018657
#
#
# Mechanical properties :
#
#
# Convention : Reuss Voigt Hill
#
# Bulk Modulus (GPa) = 31.61504 65.20408 48.40956
# Shear Modulus (GPa) = 30.35218 42.02252 36.18735
#
# Velocity S-wave (km/s) = 3.67523 4.32445 4.01299
# Velocity P-wave (km/s) = 5.66385 7.34518 6.55862
#
# Compressibility (1/GPa) = 0.03163052
#
# Stress axis : x y z
#
# Youngs Moduli (GPa) = 40.38295 104.46258 58.67596
#
# Poissons Ratio (x) = 0.94738 -0.30682
# Poissons Ratio (y) = 0.36624 0.35405
# Poissons Ratio (z) = -0.21117 0.63033
#
# Static dielectric constant tensor:
#      x y z
#    x 1.890150 -0.039210 -0.066790 
#    y -0.039210 1.951970 0.176460 
#    z -0.066790 0.176460 1.937220 
# 
# From -- ./inp_files/619645.got.cif
#   From: 2010.05.17/outbox.ucp.g08.bks.cvg/sg2_310_cif.got.tgz:619645.got - 2010.06.11 11:32:03.
