data_PCOD9075738
_publ_section_title
;
Structure prediction by ZEFSAII (Michael W. Deem and Ramdas Pophale) SiO2 
 PCOD9075738
Probable space group: P -1
;
_chemical_formula_sum "Si O2"
_cell_formula_units_Z 16
_cell_length_a 17.358953
_cell_length_b 8.614528
_cell_length_c 14.245676
_cell_angle_alpha 114.839965
_cell_angle_beta 31.792882
_cell_angle_gamma 96.013385
_cell_volume 865.157324
_symmetry_space_group_name_H-M "P -1"
_symmetry_group_IT_number 2
_symmetry_cell_setting 'triclinic'
loop_
_space_group_symop_operation_xyz
x,y,z
-x,-y,-z
loop_
_atom_site_type_symbol
_atom_site_label
_atom_site_fract_x
_atom_site_fract_y
_atom_site_fract_z
Si Si1 0.023206 0.819561 0.726792
Si Si2 0.503349 0.488374 0.707350
Si Si3 0.885359 0.891972 0.180125
Si Si4 0.615939 0.338557 0.761933
Si Si5 0.416634 0.870695 0.582762
Si Si6 0.654083 0.100854 0.116735
Si Si7 0.865288 0.458968 0.294049
Si Si8 0.672856 0.914941 0.579840
O O1 0.196762 0.693784 0.455134
O O2 0.023871 0.669656 0.764785
O O3 0.042729 0.988863 0.806535
O O4 0.851098 0.924737 0.872118
O O5 0.522570 0.415460 0.776346
O O6 0.474937 0.343316 0.634384
O O7 0.368590 0.716654 0.876504
O O8 0.687920 0.460171 0.482675
O O9 0.743829 0.895255 0.395597
O O10 0.773275 0.022203 0.240349
O O11 0.029053 0.670647 0.939314
O O12 0.656639 0.115720 0.686993
O O13 0.500000 0.500000 0.000000
O O14 0.400557 0.843571 0.702870
O O15 0.500000 0.000000 0.500000
O O16 0.515889 0.049679 0.210499
O O17 0.807764 0.691013 0.420993
#
# Coordination Sequence:
#
# PCOD9075738 Si02
#       8
#     2   2   2   2   2   2   2   2
#     4  10  20  36  56  81 110 147 189 223 274 331
#     4  10  21  37  53  82 113 148 191 226 271 335
#     4  11  18  33  51  79 120 155 187 215 256 333
#     4  10  21  44  65  75 102 148 189 240 287 321
#     4  12  19  32  52  82 122 162 179 209 276 334
#     4  11  21  34  56  84 118 149 176 223 279 335
#     4  10  18  32  55  77 113 149 180 227 263 321
#     4  10  21  36  53  84 114 142 189 228 269 333
#
# _framework density 18.493745000000001
#
# number of rings (size 3 to 8) (size 9 to 14) (size 15 to 20)
#    0.000    1.500    6.250    1.875    0.000    1.000 
#    4.500    6.875    0.000    0.000    0.000    0.000 
#    0.000    0.000    0.000    0.000    0.000    0.000 
#
# Total GULP energy -89218.373593 kJ/mol
# GULP energy per Si atom -5576.148350 kJ/mol
# Density = 1.845165 g / cm^3
# Si number density = 18.493745 Si / 1000 Ang^3
#
#
#
# Elastic Constant Matrix: (Units=GPa)
#
#
# Indices 1 2 3 4 5 6 
#
# 1 8.7070 6.1261 17.9728 8.8625 -4.3264 -8.0708
# 2 6.1261 95.0506 28.5662 21.1856 5.4429 -9.7169
# 3 17.9728 28.5662 112.2473 17.4042 10.3982 -2.2556
# 4 8.8625 21.1856 17.4042 25.9770 -3.2413 -6.1125
# 5 -4.3264 5.4429 10.3982 -3.2413 32.1400 9.8931
# 6 -8.0708 -9.7169 -2.2556 -6.1125 9.8931 15.2927
#
#
#
# Elastic Compliance Matrix: (Units=1/GPa)
#
#
# Indices 1 2 3 4 5 6 
#
# 1 0.900931 0.061340 -0.124701 -0.173526 0.002985 0.424762
# 2 0.061340 0.018418 -0.009992 -0.021064 -0.005338 0.037636
# 3 -0.124701 -0.009992 0.027909 0.017778 -0.004461 -0.058052
# 4 -0.173526 -0.021064 0.017778 0.086920 0.005032 -0.070854
# 5 0.002985 -0.005338 -0.004461 0.005032 0.043094 -0.028341
# 6 0.424762 0.037636 -0.058052 -0.070854 -0.028341 0.294926
#
#
# Mechanical properties :
#
#
# Convention : Reuss Voigt Hill
#
# Bulk Modulus (GPa) = 1.24914 35.70387 18.47650
# Shear Modulus (GPa) = 2.79994 25.57129 14.18561
#
# Velocity S-wave (km/s) = 1.23178 3.72250 2.77257
# Velocity P-wave (km/s) = 1.64315 6.15011 4.50132
#
# Compressibility (1/GPa) = 0.80055246
#
# Stress axis : x y z
#
# Youngs Moduli (GPa) = 1.10996 54.29361 35.83085
#
# Poissons Ratio (x) = -3.33039 4.46815
# Poissons Ratio (y) = -0.06809 0.35803
# Poissons Ratio (z) = 0.13841 0.54251
#
# Static dielectric constant tensor:
#      x y z
#    x 1.640080 -0.012890 -0.018650 
#    y -0.012890 1.679680 0.003240 
#    z -0.018650 0.003240 1.650750 
# 
# From -- ./inp_files/178085.got.cif
#   From: 2010.05.17/outbox.cif.g08.bks.cpg/sg2_90_cif.got.tgz:178085.got - 2010.06.03 11:33:40.
