data_PCOD9075769
_publ_section_title
;
Structure prediction by ZEFSAII (Michael W. Deem and Ramdas Pophale) SiO2 
 PCOD9075769
Probable space group: P -1
;
_chemical_formula_sum "Si O2"
_cell_formula_units_Z 16
_cell_length_a 20.845191
_cell_length_b 10.489570
_cell_length_c 9.677162
_cell_angle_alpha 40.213351
_cell_angle_beta 39.143881
_cell_angle_gamma 53.755880
_cell_volume 862.408099
_symmetry_space_group_name_H-M "P -1"
_symmetry_group_IT_number 2
_symmetry_cell_setting 'triclinic'
loop_
_space_group_symop_operation_xyz
x,y,z
-x,-y,-z
loop_
_atom_site_type_symbol
_atom_site_label
_atom_site_fract_x
_atom_site_fract_y
_atom_site_fract_z
Si Si1 0.847180 0.404811 0.322572
Si Si2 0.863139 0.994057 0.801937
Si Si3 0.107588 0.112900 0.719348
Si Si4 0.015657 0.427830 0.811837
Si Si5 0.291163 0.054510 0.656225
Si Si6 0.547792 0.212712 0.286900
Si Si7 0.637701 0.546049 0.660619
Si Si8 0.941076 0.841895 0.536416
O O1 0.851499 0.197243 0.568809
O O2 0.733803 0.487936 0.454693
O O3 0.913943 0.547388 0.191692
O O4 0.905105 0.372453 0.106918
O O5 0.967203 0.004478 0.709954
O O6 0.876249 0.836302 0.789244
O O7 0.770085 0.968646 0.078928
O O8 0.123528 0.127908 0.516732
O O9 0.076572 0.303301 0.702089
O O10 0.207771 0.034857 0.691796
O O11 0.000000 0.000000 0.000000
O O12 0.998666 0.637344 0.595152
O O13 0.370006 0.871881 0.672036
O O14 0.336472 0.278084 0.415315
O O15 0.452819 0.356035 0.359271
O O16 0.500000 0.000000 0.500000
O O17 0.602760 0.347435 0.965412
#
# Coordination Sequence:
#
# PCOD9075769 Si02
#       8
#     2   2   2   2   2   2   2   2
#     4  10  18  32  55  82 112 148 187 236 282 335
#     4  10  19  33  54  77 110 155 192 231 278 328
#     4  12  22  34  50  79 120 159 192 228 280 341
#     4  10  21  33  50  79 116 153 193 227 274 337
#     4  11  20  34  55  82 117 150 187 236 288 333
#     4   9  20  35  55  85 112 142 188 246 293 337
#     4  10  18  34  57  84 114 143 191 241 291 335
#     4  10  21  34  50  75 115 157 196 228 271 335
#
# _framework density 18.552702
#
# number of rings (size 3 to 8) (size 9 to 14) (size 15 to 20)
#    0.000    1.750    3.750    1.875    3.500    0.000 
#    2.250    0.000    0.000    0.000    0.000   17.500 
#    0.000    0.625    0.000    0.000    0.000    0.000 
#
# Total GULP energy -89083.542294 kJ/mol
# GULP energy per Si atom -5567.721393 kJ/mol
# Density = 1.851047 g / cm^3
# Si number density = 18.552702 Si / 1000 Ang^3
#
#
#
# Elastic Constant Matrix: (Units=GPa)
#
#
# Indices 1 2 3 4 5 6 
#
# 1 131.4035 53.0049 19.9288 5.3109 2.6664 -22.7647
# 2 53.0049 74.4389 11.7750 -1.2626 0.4604 -26.9078
# 3 19.9288 11.7750 66.9423 -8.4897 -3.7642 -5.4622
# 4 5.3109 -1.2626 -8.4897 30.3214 -7.3208 -2.4322
# 5 2.6664 0.4604 -3.7642 -7.3208 21.0382 10.1767
# 6 -22.7647 -26.9078 -5.4622 -2.4322 10.1767 34.7871
#
#
#
# Elastic Compliance Matrix: (Units=1/GPa)
#
#
# Indices 1 2 3 4 5 6 
#
# 1 0.011508 -0.006722 -0.002761 -0.003945 -0.004616 0.002973
# 2 -0.006722 0.024493 -0.001192 0.001397 -0.007460 0.016640
# 3 -0.002761 -0.001192 0.017056 0.006650 0.006455 -0.001474
# 4 -0.003945 0.001397 0.006650 0.039395 0.016606 -0.002560
# 5 -0.004616 -0.007460 0.006455 0.016606 0.068044 -0.026523
# 6 0.002973 0.016640 -0.001474 -0.002560 -0.026523 0.050911
#
#
# Mechanical properties :
#
#
# Convention : Reuss Voigt Hill
#
# Bulk Modulus (GPa) = 31.53718 49.13356 40.33537
# Shear Modulus (GPa) = 20.54851 29.76773 25.15812
#
# Velocity S-wave (km/s) = 3.33164 4.00996 3.68643
# Velocity P-wave (km/s) = 5.64228 6.92679 6.31727
#
# Compressibility (1/GPa) = 0.03170861
#
# Stress axis : x y z
#
# Youngs Moduli (GPa) = 86.89330 40.82751 58.63093
#
# Poissons Ratio (x) = 0.27442 0.16188
# Poissons Ratio (y) = 0.58406 0.06988
# Poissons Ratio (z) = 0.23991 0.04866
#
# Static dielectric constant tensor:
#      x y z
#    x 1.735270 0.004590 -0.038730 
#    y 0.004590 1.710190 -0.052210 
#    z -0.038730 -0.052210 1.733660 
# 
# From -- ./inp_files/343293.got.cif
#   From: 2010.05.17/outbox.cif.g08.bks.cpg/sg2_172_cif.got.tgz:343293.got - 2010.06.03 11:33:40.
