data_PCOD9075200
_publ_section_title
;
Structure prediction by ZEFSAII (Michael W. Deem and Ramdas Pophale) SiO2 
 PCOD9075200
Probable space group: P -1
;
_chemical_formula_sum "Si O2"
_cell_formula_units_Z 16
_cell_length_a 12.000000
_cell_length_b 9.000000
_cell_length_c 27.000000
_cell_angle_alpha 150.000000
_cell_angle_beta 150.000000
_cell_angle_gamma 40.000000
_cell_volume 727.497153
_symmetry_space_group_name_H-M "P -1"
_symmetry_group_IT_number 2
_symmetry_cell_setting 'triclinic'
loop_
_space_group_symop_operation_xyz
x,y,z
-x,-y,-z
loop_
_atom_site_type_symbol
_atom_site_label
_atom_site_fract_x
_atom_site_fract_y
_atom_site_fract_z
Si Si1 0.476022 0.597645 0.775290
Si Si2 0.655421 0.717684 0.460895
Si Si3 0.780234 0.681401 0.246667
Si Si4 0.089879 0.056662 0.733479
Si Si5 0.198920 0.253610 0.314253
Si Si6 0.439993 0.354382 0.072255
Si Si7 0.593972 0.272313 0.395024
Si Si8 0.067119 0.647698 0.142618
O O1 0.388489 0.358030 0.634663
O O2 0.322369 0.898212 0.795859
O O3 0.458719 0.508180 0.799638
O O4 0.737408 0.605969 0.864646
O O5 0.582715 0.443376 0.387147
O O6 0.910613 0.802705 0.588158
O O7 0.500000 0.000000 0.500000
O O8 0.551137 0.510546 0.113660
O O9 0.967767 0.429403 0.261619
O O10 0.857904 0.799326 0.257410
O O11 0.741378 0.969519 0.351054
O O12 0.981847 0.280276 0.797680
O O13 0.364655 0.208924 0.317626
O O14 0.302788 0.482299 0.458915
O O15 0.150611 0.946207 0.234549
O O16 0.174648 0.414941 0.989180
O O17 0.500000 0.000000 0.000000
#
# Coordination Sequence:
#
# PCOD9075200 Si02
#       8
#     2   2   2   2   2   2   2   2
#     4  12  25  45  75 101 140 191 232 289 353 421
#     4  12  23  44  72 108 152 184 225 284 362 436
#     4  12  26  42  70 102 143 181 234 299 348 413
#     4  12  25  43  72 108 142 186 227 287 360 425
#     4  11  23  43  70 101 143 184 228 295 345 425
#     4  12  26  50  74  99 138 191 251 292 344 414
#     4  11  24  41  65 110 142 178 234 279 361 425
#     4  12  25  49  74 101 138 194 242 286 352 418
#
# _framework density 21.993213000000001
#
# number of rings (size 3 to 8) (size 9 to 14) (size 15 to 20)
#    0.000    0.250    6.250    2.625    0.000    3.500 
#    0.000    0.625    0.000    0.000    0.000    0.000 
#    0.000    0.000    0.000    0.000    0.000    0.000 
#
# Total GULP energy -89496.205343 kJ/mol
# GULP energy per Si atom -5593.512834 kJ/mol
# Density = 2.194316 g / cm^3
# Si number density = 21.993213 Si / 1000 Ang^3
#
#
#
# Elastic Constant Matrix: (Units=GPa)
#
#
# Indices 1 2 3 4 5 6 
#
# 1 165.5079 35.5509 36.3145 2.9735 14.8811 0.5173
# 2 35.5509 79.8481 4.3640 -11.5285 18.0866 -19.2606
# 3 36.3145 4.3640 54.9285 -9.0502 9.1883 13.9693
# 4 2.9735 -11.5285 -9.0502 31.9490 -2.6950 7.6132
# 5 14.8811 18.0866 9.1883 -2.6950 46.7619 -3.1659
# 6 0.5173 -19.2606 13.9693 7.6132 -3.1659 32.0378
#
#
#
# Elastic Compliance Matrix: (Units=1/GPa)
#
#
# Indices 1 2 3 4 5 6 
#
# 1 0.008248 -0.003558 -0.006177 -0.004147 -0.000180 0.001389
# 2 -0.003558 0.018124 0.000042 0.004211 -0.005004 0.009440
# 3 -0.006177 0.000042 0.029021 0.012239 -0.004120 -0.015844
# 4 -0.004147 0.004211 0.012239 0.039484 -0.001267 -0.012245
# 5 -0.000180 -0.005004 -0.004120 -0.001267 0.024215 0.001485
# 6 0.001389 0.009440 -0.015844 -0.012245 0.001485 0.046831
#
#
# Mechanical properties :
#
#
# Convention : Reuss Voigt Hill
#
# Bulk Modulus (GPa) = 27.77068 50.30481 39.03774
# Shear Modulus (GPa) = 25.34110 37.08673 31.21392
#
# Velocity S-wave (km/s) = 3.39812 4.11089 3.77138
# Velocity P-wave (km/s) = 5.29629 6.74204 6.06242
#
# Compressibility (1/GPa) = 0.03600920
#
# Stress axis : x y z
#
# Youngs Moduli (GPa) = 121.24565 55.17558 34.45810
#
# Poissons Ratio (x) = 0.19629 0.21283
# Poissons Ratio (y) = 0.43133 -0.00146
# Poissons Ratio (z) = 0.74888 -0.00234
#
# Static dielectric constant tensor:
#      x y z
#    x 1.788350 -0.000250 -0.033540 
#    y -0.000250 1.806560 -0.029000 
#    z -0.033540 -0.029000 1.852820 
# 
# From -- ./inp_files/618244.got.cif
#   From: 2010.05.17/outbox.ucp.g08.bks.cvg/sg2_310_cif.got.tgz:618244.got - 2010.06.11 11:32:03.
