data_PCOD9075507
_publ_section_title
;
Structure prediction by ZEFSAII (Michael W. Deem and Ramdas Pophale) SiO2 
 PCOD9075507
Probable space group: P -1
;
_chemical_formula_sum "Si O2"
_cell_formula_units_Z 14
_cell_length_a 15.000000
_cell_length_b 15.000000
_cell_length_c 9.000000
_cell_angle_alpha 110.000000
_cell_angle_beta 100.000000
_cell_angle_gamma 20.000000
_cell_volume 577.977739
_symmetry_space_group_name_H-M "P -1"
_symmetry_group_IT_number 2
_symmetry_cell_setting 'triclinic'
loop_
_space_group_symop_operation_xyz
x,y,z
-x,-y,-z
loop_
_atom_site_type_symbol
_atom_site_label
_atom_site_fract_x
_atom_site_fract_y
_atom_site_fract_z
Si Si1 0.044200 0.883092 0.312033
Si Si2 0.070474 0.197178 0.595461
Si Si3 0.682372 0.314342 0.166834
Si Si4 0.123869 0.173681 0.115297
Si Si5 0.539479 0.665777 0.201163
Si Si6 0.231935 0.184937 0.871104
Si Si7 0.800146 0.605983 0.518289
O O1 0.389712 0.545519 0.170018
O O2 0.002190 0.827066 0.356301
O O3 0.000000 0.000000 0.500000
O O4 0.799819 0.159068 0.274756
O O5 0.078602 0.261558 0.767477
O O6 0.865767 0.450574 0.557532
O O7 0.376878 0.883051 0.415001
O O8 0.555922 0.544833 0.214471
O O9 0.000000 0.000000 0.000000
O O10 0.879299 0.346877 0.073977
O O11 0.893677 0.468664 0.308072
O O12 0.334812 0.905335 0.138246
O O13 0.285541 0.077738 0.983871
O O14 0.507570 0.937453 0.704334
O O15 0.000000 0.500000 0.000000
O O16 0.000000 0.500000 0.500000
#
# Coordination Sequence:
#
# PCOD9075507 Si02
#       7
#     2   2   2   2   2   2   2
#     4  12  27  48  80 113 154 206 263 311 382 467
#     4  11  27  47  79 109 153 207 260 315 394 459
#     4  12  28  48  75 116 162 200 258 321 383 451
#     4  11  27  47  80 108 158 202 264 312 393 462
#     4  11  25  50  76 111 154 212 250 318 383 465
#     4  12  29  48  79 115 155 200 262 328 399 462
#     4  11  27  49  77 108 153 204 260 323 391 468
#
# _framework density 24.222386
#
# number of rings (size 3 to 8) (size 9 to 14) (size 15 to 20)
#    0.000    0.571    2.857    2.571   12.000    2.286 
#    0.000    0.000    0.000    0.000    0.000    0.000 
#    0.000    0.000    0.000    0.000    0.000    0.000 
#
# Total GULP energy -78010.867121 kJ/mol
# GULP energy per Si atom -5572.204794 kJ/mol
# Density = 2.416725 g / cm^3
# Si number density = 24.222386 Si / 1000 Ang^3
#
#
#
# Elastic Constant Matrix: (Units=GPa)
#
#
# Indices 1 2 3 4 5 6 
#
# 1 87.7022 16.8545 16.0815 7.8832 -11.8650 4.6869
# 2 16.8545 126.9441 10.9745 -2.8121 -2.6947 8.2130
# 3 16.0815 10.9745 119.4016 17.8199 -4.0853 4.1510
# 4 7.8832 -2.8121 17.8199 50.6867 9.5652 -10.8542
# 5 -11.8650 -2.6947 -4.0853 9.5652 43.4885 3.9856
# 6 4.6869 8.2130 4.1510 -10.8542 3.9856 38.0336
#
#
#
# Elastic Compliance Matrix: (Units=1/GPa)
#
#
# Indices 1 2 3 4 5 6 
#
# 1 0.012829 -0.001442 -0.000902 -0.003092 0.004235 -0.002497
# 2 -0.001442 0.008224 -0.000600 0.000587 0.000056 -0.001371
# 3 -0.000902 -0.000600 0.009260 -0.003896 0.001632 -0.002053
# 4 -0.003092 0.000587 -0.003896 0.024843 -0.007421 0.008547
# 5 0.004235 0.000056 0.001632 -0.007421 0.026452 -0.005602
# 6 -0.002497 -0.001371 -0.002053 0.008547 -0.005602 0.030147
#
#
# Mechanical properties :
#
#
# Convention : Reuss Voigt Hill
#
# Bulk Modulus (GPa) = 40.94165 46.87433 43.90799
# Shear Modulus (GPa) = 39.75031 45.78425 42.76728
#
# Velocity S-wave (km/s) = 4.05539 4.35232 4.20647
# Velocity P-wave (km/s) = 6.23437 6.68211 6.46212
#
# Compressibility (1/GPa) = 0.02442501
#
# Stress axis : x y z
#
# Youngs Moduli (GPa) = 77.94735 121.59935 107.98670
#
# Poissons Ratio (x) = 0.17539 0.09742
# Poissons Ratio (y) = 0.11243 0.06475
# Poissons Ratio (z) = 0.07032 0.07292
#
# Static dielectric constant tensor:
#      x y z
#    x 0.574430 1.203450 -0.131150 
#    y 1.203450 0.681000 0.191550 
#    z -0.131150 0.191550 1.963790 
# 
# From -- ./inp_files/313713.got.cif
#   From: 2010.05.17/outbox.ucp.g08.bks.cvg/sg2_157_cif.got.tgz:313713.got - 2010.06.11 11:32:03.
