data_PCOD9075299
_publ_section_title
;
Structure prediction by ZEFSAII (Michael W. Deem and Ramdas Pophale) SiO2 
 PCOD9075299
Probable space group: P -1
;
_chemical_formula_sum "Si O2"
_cell_formula_units_Z 16
_cell_length_a 12.000000
_cell_length_b 27.000000
_cell_length_c 9.000000
_cell_angle_alpha 150.000000
_cell_angle_beta 140.000000
_cell_angle_gamma 30.000000
_cell_volume 727.497153
_symmetry_space_group_name_H-M "P -1"
_symmetry_group_IT_number 2
_symmetry_cell_setting 'triclinic'
loop_
_space_group_symop_operation_xyz
x,y,z
-x,-y,-z
loop_
_atom_site_type_symbol
_atom_site_label
_atom_site_fract_x
_atom_site_fract_y
_atom_site_fract_z
Si Si1 0.663876 0.363096 0.887851
Si Si2 0.002177 0.264812 0.565645
Si Si3 0.618307 0.733765 0.169823
Si Si4 0.460691 0.789057 0.810459
Si Si5 0.588382 0.544689 0.828332
Si Si6 0.156544 0.218210 0.928375
Si Si7 0.897135 0.965707 0.086860
Si Si8 0.741998 0.005854 0.366209
O O1 0.634813 0.274845 0.530110
O O2 0.914364 0.315748 0.010608
O O3 0.500000 0.500000 0.000000
O O4 0.587427 0.369861 0.997135
O O5 0.166589 0.277407 0.675257
O O6 0.110603 0.197617 0.659757
O O7 0.790333 0.410335 0.759138
O O8 0.965893 0.177834 0.208321
O O9 0.466926 0.852736 0.434539
O O10 0.504553 0.761162 0.959782
O O11 0.658375 0.616842 0.994385
O O12 0.282675 0.938179 0.971917
O O13 0.689831 0.740968 0.836922
O O14 0.500000 0.500000 0.500000
O O15 0.274525 0.092203 0.820467
O O16 0.050679 0.005188 0.383776
O O17 0.781941 0.980679 0.165721
#
# Coordination Sequence:
#
# PCOD9075299 Si02
#       8
#     2   2   2   2   2   2   2   2
#     4  12  25  47  71 100 139 179 226 279 335 402
#     4  11  25  45  66  99 138 180 223 279 339 399
#     4  11  25  44  68 101 137 174 229 278 335 408
#     4  11  25  46  72 103 135 179 224 281 341 399
#     4  12  26  45  68  98 137 182 227 273 339 401
#     4  11  25  45  70 105 133 177 229 278 340 402
#     4  11  24  42  70 101 136 178 223 280 343 397
#     4  11  24  41  69 104 135 174 227 281 337 405
#
# _framework density 21.993213000000001
#
# number of rings (size 3 to 8) (size 9 to 14) (size 15 to 20)
#    0.000    0.750    2.500    4.125    5.250    6.500 
#    2.250    0.000    0.000    0.000    0.000    0.000 
#    0.000    0.000    0.000    0.000    0.000    0.000 
#
# Total GULP energy -89555.785302 kJ/mol
# GULP energy per Si atom -5597.236581 kJ/mol
# Density = 2.194316 g / cm^3
# Si number density = 21.993213 Si / 1000 Ang^3
#
#
#
# Elastic Constant Matrix: (Units=GPa)
#
#
# Indices 1 2 3 4 5 6 
#
# 1 113.1263 2.1405 14.3159 8.5773 7.7286 3.7679
# 2 2.1405 56.1457 13.3203 15.1466 10.9367 -0.1885
# 3 14.3159 13.3203 34.4250 17.7899 4.5701 2.2102
# 4 8.5773 15.1466 17.7899 32.5286 0.2743 3.2912
# 5 7.7286 10.9367 4.5701 0.2743 32.1069 3.3390
# 6 3.7679 -0.1885 2.2102 3.2912 3.3390 45.4269
#
#
#
# Elastic Compliance Matrix: (Units=1/GPa)
#
#
# Indices 1 2 3 4 5 6 
#
# 1 0.009506 0.001181 -0.003557 -0.001055 -0.002136 -0.000377
# 2 0.001181 0.022492 -0.003731 -0.008819 -0.007481 0.001366
# 3 -0.003557 -0.003731 0.043331 -0.020988 -0.003859 -0.000024
# 4 -0.001055 -0.008819 -0.020988 0.046834 0.006134 -0.002772
# 5 -0.002136 -0.007481 -0.003859 0.006134 0.034984 -0.002682
# 6 -0.000377 0.001366 -0.000024 -0.002772 -0.002682 0.022450
#
#
# Mechanical properties :
#
#
# Convention : Reuss Voigt Hill
#
# Bulk Modulus (GPa) = 15.84421 29.25007 22.54714
# Shear Modulus (GPa) = 23.49077 33.60716 28.54897
#
# Velocity S-wave (km/s) = 3.27171 3.91329 3.60680
# Velocity P-wave (km/s) = 4.63594 5.80921 5.25542
#
# Compressibility (1/GPa) = 0.06311454
#
# Stress axis : x y z
#
# Youngs Moduli (GPa) = 105.19732 44.46021 23.07804
#
# Poissons Ratio (x) = -0.05250 0.08209
# Poissons Ratio (y) = -0.12422 0.08611
# Poissons Ratio (z) = 0.37420 0.16588
#
# Static dielectric constant tensor:
#      x y z
#    x 1.784430 -0.047450 0.010970 
#    y -0.047450 1.882350 0.001130 
#    z 0.010970 0.001130 1.762820 
# 
# From -- ./inp_files/285896.got.cif
#   From: 2010.05.17/outbox.ucp.g08.bks.cvg/sg2_143_cif.got.tgz:285896.got - 2010.06.11 11:32:03.
