data_PCOD9075662
_publ_section_title
;
Structure prediction by ZEFSAII (Michael W. Deem and Ramdas Pophale) SiO2 
 PCOD9075662
Probable space group: P -1
;
_chemical_formula_sum "Si O2"
_cell_formula_units_Z 13
_cell_length_a 12.000000
_cell_length_b 9.000000
_cell_length_c 9.000000
_cell_angle_alpha 80.000000
_cell_angle_beta 140.000000
_cell_angle_gamma 120.000000
_cell_volume 501.352703
_symmetry_space_group_name_H-M "P -1"
_symmetry_group_IT_number 2
_symmetry_cell_setting 'triclinic'
loop_
_space_group_symop_operation_xyz
x,y,z
-x,-y,-z
loop_
_atom_site_type_symbol
_atom_site_label
_atom_site_fract_x
_atom_site_fract_y
_atom_site_fract_z
Si Si1 0.517835 0.209515 0.822472
Si Si2 0.127117 0.137819 0.960222
Si Si3 0.826582 0.539652 0.864873
Si Si4 0.795274 0.683155 0.489787
Si Si5 0.234809 0.611505 0.659052
Si Si6 0.486966 0.901617 0.655805
Si Si7 0.000000 0.000000 0.500000
O O1 0.630245 0.354659 0.774863
O O2 0.304361 0.198679 0.644752
O O3 0.513674 0.039857 0.786608
O O4 0.629897 0.270690 0.083619
O O5 0.062528 0.102558 0.724629
O O6 0.132665 0.312168 0.994281
O O7 0.343754 0.147921 0.176450
O O8 0.000000 0.000000 0.000000
O O9 0.787885 0.613994 0.659171
O O10 0.000000 0.500000 0.000000
O O11 0.693305 0.517514 0.299830
O O12 0.021885 0.840395 0.622988
O O13 0.267088 0.718022 0.519333
O O14 0.000000 0.500000 0.500000
O O15 0.500000 0.000000 0.500000
#
# Coordination Sequence:
#
# PCOD9075662 Si02
#       7
#     2   2   2   2   2   2   1
#     4  12  26  48  77 111 162 208 271 336 411 490
#     4  12  26  51  81 117 171 213 277 340 419 487
#     4  12  25  49  77 117 157 216 271 335 408 495
#     4  12  26  47  76 111 161 210 270 327 417 476
#     4  12  28  48  77 115 165 215 275 340 410 495
#     4  12  28  51  80 121 162 215 276 338 422 496
#     4  12  28  46  82 118 160 210 274 332 414 484
#
# _framework density 25.929849000000001
#
# number of rings (size 3 to 8) (size 9 to 14) (size 15 to 20)
#    0.000    0.000    1.538    7.846    4.308    1.231 
#    0.000    0.000    0.000    0.000    0.000    0.000 
#    0.000    0.000    0.000    0.000    0.000    0.000 
#
# Total GULP energy -72408.322796 kJ/mol
# GULP energy per Si atom -5569.870984 kJ/mol
# Density = 2.587083 g / cm^3
# Si number density = 25.929849 Si / 1000 Ang^3
#
#
#
# Elastic Constant Matrix: (Units=GPa)
#
#
# Indices 1 2 3 4 5 6 
#
# 1 166.1697 44.7181 81.0765 5.3971 -29.3864 -47.8145
# 2 44.7181 125.7282 43.0628 2.0401 -11.4536 -5.4300
# 3 81.0765 43.0628 115.2423 -16.8362 -12.1339 -20.8807
# 4 5.3971 2.0401 -16.8362 31.2283 -7.1967 -16.9965
# 5 -29.3864 -11.4536 -12.1339 -7.1967 63.7520 -11.8046
# 6 -47.8145 -5.4300 -20.8807 -16.9965 -11.8046 77.4333
#
#
#
# Elastic Compliance Matrix: (Units=1/GPa)
#
#
# Indices 1 2 3 4 5 6 
#
# 1 0.012447 -0.001368 -0.006671 -0.000961 0.005296 0.006387
# 2 -0.001368 0.009579 -0.003486 -0.003374 -0.000306 -0.001900
# 3 -0.006671 -0.003486 0.017379 0.013018 0.001713 0.003441
# 4 -0.000961 -0.003374 0.013018 0.049947 0.009872 0.015149
# 5 0.005296 -0.000306 0.001713 0.009872 0.021199 0.009109
# 6 0.006387 -0.001900 0.003441 0.015149 0.009109 0.022367
#
#
# Mechanical properties :
#
#
# Convention : Reuss Voigt Hill
#
# Bulk Modulus (GPa) = 61.14687 82.76169 71.95428
# Shear Modulus (GPa) = 30.97499 50.36824 40.67161
#
# Velocity S-wave (km/s) = 3.46000 4.41214 3.96476
# Velocity P-wave (km/s) = 6.29246 7.61202 6.98347
#
# Compressibility (1/GPa) = 0.01635407
#
# Stress axis : x y z
#
# Youngs Moduli (GPa) = 80.34290 104.39295 57.54032
#
# Poissons Ratio (x) = 0.14283 0.38384
# Poissons Ratio (y) = 0.10993 0.20061
# Poissons Ratio (z) = 0.53596 0.36395
#
# Static dielectric constant tensor:
#      x y z
#    x 1.838240 -0.135830 -0.008530 
#    y -0.135830 2.218900 0.086710 
#    z -0.008530 0.086710 2.062850 
# 
# From -- ./inp_files/183680.got.cif
#   From: 2010.05.17/outbox.ucp.g08.bks.cvg/sg2_92_cif.got.tgz:183680.got - 2010.06.11 11:32:03.
