data_PCOD9075078
_publ_section_title
;
Structure prediction by ZEFSAII (Michael W. Deem and Ramdas Pophale) SiO2 
 PCOD9075078
Probable space group: P -1
;
_chemical_formula_sum "Si O2"
_cell_formula_units_Z 16
_cell_length_a 12.000000
_cell_length_b 15.000000
_cell_length_c 15.000000
_cell_angle_alpha 140.000000
_cell_angle_beta 60.000000
_cell_angle_gamma 150.000000
_cell_volume 747.221570
_symmetry_space_group_name_H-M "P -1"
_symmetry_group_IT_number 2
_symmetry_cell_setting 'triclinic'
loop_
_space_group_symop_operation_xyz
x,y,z
-x,-y,-z
loop_
_atom_site_type_symbol
_atom_site_label
_atom_site_fract_x
_atom_site_fract_y
_atom_site_fract_z
Si Si1 0.929151 0.394584 0.211275
Si Si2 0.502451 0.073426 0.653469
Si Si3 0.255111 0.637276 0.562317
Si Si4 0.685613 0.886880 0.977360
Si Si5 0.870720 0.047963 0.227458
Si Si6 0.730217 0.774048 0.688040
Si Si7 0.794641 0.393337 0.094711
Si Si8 0.212586 0.919147 0.226952
O O1 0.912106 0.452444 0.358883
O O2 0.746030 0.317580 0.160997
O O3 0.190586 0.637458 0.235266
O O4 0.878330 0.185932 0.092504
O O5 0.500000 0.000000 0.500000
O O6 0.370101 0.856323 0.616033
O O7 0.365869 0.095468 0.736662
O O8 0.083483 0.367032 0.371353
O O9 0.498352 0.792710 0.631162
O O10 0.633044 0.736905 0.797529
O O11 0.430983 0.744105 0.977074
O O12 0.774828 0.915194 0.062434
O O13 0.027762 0.094969 0.270849
O O14 0.500000 0.500000 0.500000
O O15 0.840988 0.006799 0.763678
O O16 0.027202 0.718242 0.231958
O O17 0.812154 0.253419 0.943151
#
# Coordination Sequence:
#
# PCOD9075078 Si02
#       8
#     2   2   2   2   2   2   2   2
#     4  12  22  40  73 108 144 187 234 308 366 425
#     4  12  24  40  69 113 146 184 239 302 368 425
#     4  12  22  44  71 106 147 184 243 306 362 426
#     4  12  25  45  72 109 144 192 246 300 375 422
#     4  12  26  45  70 104 156 194 236 299 369 443
#     4  12  27  48  73  98 147 207 247 289 360 452
#     4  11  23  41  76 108 142 179 245 317 359 419
#     4  11  22  43  72 107 138 187 247 301 359 426
#
# _framework density 21.412658
#
# number of rings (size 3 to 8) (size 9 to 14) (size 15 to 20)
#    0.000    0.250    7.500    2.625    1.750    0.000 
#    0.000    5.625    0.000    0.000    0.000    0.000 
#    0.000    0.000    0.000    0.000    0.000    0.000 
#
# Total GULP energy -89135.067157 kJ/mol
# GULP energy per Si atom -5570.941697 kJ/mol
# Density = 2.136392 g / cm^3
# Si number density = 21.412658 Si / 1000 Ang^3
#
#
#
# Elastic Constant Matrix: (Units=GPa)
#
#
# Indices 1 2 3 4 5 6 
#
# 1 172.4340 48.2685 25.5989 -3.1223 19.6654 -3.6714
# 2 48.2685 98.8846 22.6061 -0.7442 2.7707 -10.4906
# 3 25.5989 22.6061 92.8459 -18.5191 23.8738 -2.1467
# 4 -3.1223 -0.7442 -18.5191 40.0638 -7.0844 9.7395
# 5 19.6654 2.7707 23.8738 -7.0844 38.4463 -4.9910
# 6 -3.6714 -10.4906 -2.1467 9.7395 -4.9910 26.7632
#
#
#
# Elastic Compliance Matrix: (Units=1/GPa)
#
#
# Indices 1 2 3 4 5 6 
#
# 1 0.007170 -0.003447 -0.000293 0.000013 -0.003368 -0.001024
# 2 -0.003447 0.013095 -0.003432 -0.002467 0.003261 0.005891
# 3 -0.000293 -0.003432 0.014987 0.006362 -0.008261 -0.004039
# 4 0.000013 -0.002467 0.006362 0.030736 0.000382 -0.011569
# 5 -0.003368 0.003261 -0.008261 0.000382 0.033512 0.006264
# 6 -0.001024 0.005891 -0.004039 -0.011569 0.006264 0.044588
#
#
# Mechanical properties :
#
#
# Convention : Reuss Voigt Hill
#
# Bulk Modulus (GPa) = 47.82975 61.90127 54.86551
# Shear Modulus (GPa) = 30.22939 38.90071 34.56505
#
# Velocity S-wave (km/s) = 3.76141 4.26692 4.02211
# Velocity P-wave (km/s) = 6.42261 7.29705 6.87375
#
# Compressibility (1/GPa) = 0.02090749
#
# Stress axis : x y z
#
# Youngs Moduli (GPa) = 139.46436 76.36365 66.72539
#
# Poissons Ratio (x) = 0.26325 0.01953
# Poissons Ratio (y) = 0.48077 0.22903
# Poissons Ratio (z) = 0.04082 0.26211
#
# Static dielectric constant tensor:
#      x y z
#    x 1.850010 0.068870 0.047340 
#    y 0.068870 1.849270 0.035410 
#    z 0.047340 0.035410 1.875180 
# 
# From -- ./inp_files/522509.got.cif
#   From: 2010.05.17/outbox.ucp.g08.bks.cvg/sg2_262_cif.got.tgz:522509.got - 2010.06.11 11:32:03.
