data_PCOD9075225
_publ_section_title
;
Structure prediction by ZEFSAII (Michael W. Deem and Ramdas Pophale) SiO2 
 PCOD9075225
Probable space group: P -1
;
_chemical_formula_sum "Si O2"
_cell_formula_units_Z 14
_cell_length_a 9.000000
_cell_length_b 12.000000
_cell_length_c 9.000000
_cell_angle_alpha 70.000000
_cell_angle_beta 110.000000
_cell_angle_gamma 60.000000
_cell_volume 614.029152
_symmetry_space_group_name_H-M "P -1"
_symmetry_group_IT_number 2
_symmetry_cell_setting 'triclinic'
loop_
_space_group_symop_operation_xyz
x,y,z
-x,-y,-z
loop_
_atom_site_type_symbol
_atom_site_label
_atom_site_fract_x
_atom_site_fract_y
_atom_site_fract_z
Si Si1 0.881223 0.541420 0.286316
Si Si2 0.779580 0.119302 0.465024
Si Si3 0.938600 0.358567 0.889666
Si Si4 0.549903 0.104165 0.916262
Si Si5 0.373717 0.452384 0.030761
Si Si6 0.962361 0.120564 0.804830
Si Si7 0.343356 0.026417 0.313088
O O1 0.637943 0.717420 0.161843
O O2 0.000000 0.500000 0.500000
O O3 0.039397 0.530671 0.236111
O O4 0.811884 0.467747 0.196676
O O5 0.560188 0.256562 0.229763
O O6 0.789367 0.996366 0.623523
O O7 0.800564 0.199670 0.573371
O O8 0.000000 0.000000 0.500000
O O9 0.755889 0.455953 0.905322
O O10 0.906695 0.268679 0.805801
O O11 0.180055 0.209494 0.108986
O O12 0.558064 0.092946 0.743606
O O13 0.500000 0.000000 0.000000
O O14 0.787829 0.006809 0.110095
O O15 0.500000 0.500000 0.000000
O O16 0.000000 0.000000 0.000000
O O17 0.500000 0.000000 0.500000
#
# Coordination Sequence:
#
# PCOD9075225 Si02
#       7
#     2   2   2   2   2   2   2
#     4  12  28  46  71 100 141 187 228 282 345 419
#     4  12  26  44  72 100 138 184 228 286 346 410
#     4  11  25  48  68 101 143 178 230 286 345 414
#     4  11  23  44  70 100 133 177 231 282 337 404
#     4  12  30  47  68 103 144 184 229 289 347 411
#     4  11  23  44  73 104 136 176 233 291 341 406
#     4  11  24  41  71  99 132 178 231 282 335 408
#
# _framework density 22.800219999999999
#
# number of rings (size 3 to 8) (size 9 to 14) (size 15 to 20)
#    0.000    0.571    5.714    3.000   10.000    0.571 
#    0.000    0.000    0.000    0.000    0.000    0.000 
#    0.000    0.000    0.000    0.000    0.000    0.000 
#
# Total GULP energy -77997.694254 kJ/mol
# GULP energy per Si atom -5571.263875 kJ/mol
# Density = 2.274833 g / cm^3
# Si number density = 22.800220 Si / 1000 Ang^3
#
#
#
# Elastic Constant Matrix: (Units=GPa)
#
#
# Indices 1 2 3 4 5 6 
#
# 1 113.5926 26.1812 13.2868 32.3003 -13.6756 -11.6355
# 2 26.1812 57.6690 5.8580 23.5454 19.3646 -18.5481
# 3 13.2868 5.8580 91.8596 46.2379 14.3964 11.1562
# 4 32.3003 23.5454 46.2379 35.3973 0.0592 7.0031
# 5 -13.6756 19.3646 14.3964 0.0592 27.6473 5.6125
# 6 -11.6355 -18.5481 11.1562 7.0031 5.6125 35.5919
#
#
#
# Elastic Compliance Matrix: (Units=1/GPa)
#
#
# Indices 1 2 3 4 5 6 
#
# 1 0.014171 -0.009471 -0.000951 -0.005165 0.014405 -0.001260
# 2 -0.009471 -0.015121 -0.031190 0.062883 0.025588 -0.017608
# 3 -0.000951 -0.031190 -0.005524 0.033957 0.029491 -0.026165
# 4 -0.005165 0.062883 0.033957 -0.061831 -0.073108 0.044133
# 5 0.014405 0.025588 0.029491 -0.073108 0.005647 0.022294
# 6 -0.001260 -0.017608 -0.026165 0.044133 0.022294 0.014511
#
#
# Mechanical properties :
#
#
# Convention : Reuss Voigt Hill
#
# Bulk Modulus (GPa) = -11.14870 39.30815 14.07972
# Shear Modulus (GPa) = 965.87867 34.24698 500.06283
#
# Velocity S-wave (km/s) = 20.60453 3.87983 14.82565
# Velocity P-wave (km/s) = 23.68885 6.11134 17.29899
#
# Compressibility (1/GPa) = -0.08969653
#
# Stress axis : x y z
#
# Youngs Moduli (GPa) = 70.56576 -66.13218 -181.02518
#
# Poissons Ratio (x) = -0.62631 -0.17209
# Poissons Ratio (y) = 0.66830 -5.64618
# Poissons Ratio (z) = 0.06708 -2.06266
#
# Static dielectric constant tensor:
#      x y z
#    x 1.539910 -0.440940 0.425430 
#    y -0.440940 1.001430 0.912420 
#    z 0.425430 0.912420 -0.709580 
# 
# From -- ./inp_files/154340.got.cif
#   From: 2010.05.17/outbox.ucp.g08.bks.cvg/sg2_78_cif.got.tgz:154340.got - 2010.06.11 11:32:03.
