data_PCOD9075352
_publ_section_title
;
Structure prediction by ZEFSAII (Michael W. Deem and Ramdas Pophale) SiO2 
 PCOD9075352
Probable space group: P -1
;
_chemical_formula_sum "Si O2"
_cell_formula_units_Z 16
_cell_length_a 9.000000
_cell_length_b 12.000000
_cell_length_c 12.000000
_cell_angle_alpha 130.000000
_cell_angle_beta 50.000000
_cell_angle_gamma 120.000000
_cell_volume 752.153660
_symmetry_space_group_name_H-M "P -1"
_symmetry_group_IT_number 2
_symmetry_cell_setting 'triclinic'
loop_
_space_group_symop_operation_xyz
x,y,z
-x,-y,-z
loop_
_atom_site_type_symbol
_atom_site_label
_atom_site_fract_x
_atom_site_fract_y
_atom_site_fract_z
Si Si1 0.293222 0.878309 0.534253
Si Si2 0.370015 0.289039 0.021872
Si Si3 0.610715 0.061955 0.877146
Si Si4 0.118841 0.693297 0.962465
Si Si5 0.196763 0.376415 0.738657
Si Si6 0.516550 0.627398 0.224898
Si Si7 0.925397 0.873914 0.540467
Si Si8 0.056949 0.839736 0.847870
O O1 0.337966 0.720768 0.367579
O O2 0.221724 0.861201 0.686187
O O3 0.094733 0.897316 0.570567
O O4 0.500000 0.000000 0.500000
O O5 0.471284 0.450038 0.119661
O O6 0.148202 0.256697 0.153564
O O7 0.481981 0.151076 0.913799
O O8 0.365115 0.309296 0.902879
O O9 0.715524 0.923370 0.701950
O O10 0.770306 0.191165 0.930444
O O11 0.500000 0.000000 0.000000
O O12 0.215696 0.546363 0.804712
O O13 0.107063 0.770775 0.898213
O O14 0.925553 0.639922 0.095655
O O15 0.395396 0.336360 0.670704
O O16 0.107613 0.276168 0.613656
O O17 0.000000 0.000000 0.500000
O O18 0.000000 0.000000 0.000000
#
# Coordination Sequence:
#
# PCOD9075352 Si02
#       8
#     2   2   2   2   2   2   2   2
#     4  12  28  47  73 107 145 190 243 299 365 431
#     4  11  24  45  74 105 142 192 246 291 360 431
#     4  12  25  46  69 104 145 188 243 294 360 434
#     4  11  24  45  72 104 144 193 239 295 362 431
#     4  11  24  45  73 107 146 188 242 298 363 427
#     4  11  24  44  73 105 143 190 241 297 356 434
#     4  12  25  44  75 106 142 190 237 301 360 430
#     4  12  26  47  72 105 146 190 241 302 361 430
#
# _framework density 21.272248999999999
#
# number of rings (size 3 to 8) (size 9 to 14) (size 15 to 20)
#    0.000    0.500    3.750    4.500    1.750    3.500 
#    2.250    1.250    0.000    0.000    0.000    0.000 
#    0.000    0.000    0.000    0.000    0.000    0.000 
#
# Total GULP energy -89187.136734 kJ/mol
# GULP energy per Si atom -5574.196046 kJ/mol
# Density = 2.122383 g / cm^3
# Si number density = 21.272249 Si / 1000 Ang^3
#
#
#
# Elastic Constant Matrix: (Units=GPa)
#
#
# Indices 1 2 3 4 5 6 
#
# 1 118.2375 35.7744 11.3990 1.6189 9.6065 -18.2883
# 2 35.7744 93.0990 22.5185 -10.8018 -3.9669 -37.1293
# 3 11.3990 22.5185 101.1002 -11.7364 -3.6935 -17.8989
# 4 1.6189 -10.8018 -11.7364 43.8602 -0.4224 -5.5050
# 5 9.6065 -3.9669 -3.6935 -0.4224 33.6154 0.0189
# 6 -18.2883 -37.1293 -17.8989 -5.5050 0.0189 25.7816
#
#
#
# Elastic Compliance Matrix: (Units=1/GPa)
#
#
# Indices 1 2 3 4 5 6 
#
# 1 0.010066 -0.003228 -0.000286 -0.001014 -0.003303 0.002078
# 2 -0.003228 0.034872 0.004418 0.016795 0.005703 0.054580
# 3 -0.000286 0.004418 0.012673 0.006562 0.002069 0.016357
# 4 -0.001014 0.016795 0.006562 0.033168 0.003390 0.035103
# 5 -0.003303 0.005703 0.002069 0.003390 0.031631 0.008008
# 6 0.002078 0.054580 0.016357 0.035103 0.008008 0.137709
#
#
# Mechanical properties :
#
#
# Convention : Reuss Voigt Hill
#
# Bulk Modulus (GPa) = 16.83031 50.20226 33.51628
# Shear Modulus (GPa) = 17.97801 36.83445 27.40623
#
# Velocity S-wave (km/s) = 2.91028 4.16573 3.59326
# Velocity P-wave (km/s) = 4.38429 6.84024 5.74504
#
# Compressibility (1/GPa) = 0.05941661
#
# Stress axis : x y z
#
# Youngs Moduli (GPa) = 99.34882 28.67618 78.90983
#
# Poissons Ratio (x) = 0.09257 0.02260
# Poissons Ratio (y) = 0.32072 -0.34860
# Poissons Ratio (z) = 0.02845 -0.12668
#
# Static dielectric constant tensor:
#      x y z
#    x 1.622200 -0.150680 0.194540 
#    y -0.150680 1.612710 0.148280 
#    z 0.194540 0.148280 1.549630 
# 
# From -- ./inp_files/392973.got.cif
#   From: 2010.05.17/outbox.ucp.g08.bks.cvg/sg2_197_cif.got.tgz:392973.got - 2010.06.11 11:32:03.
