data_PCOD9075346
_publ_section_title
;
Structure prediction by ZEFSAII (Michael W. Deem and Ramdas Pophale) SiO2 
 PCOD9075346
Probable space group: P -1
;
_chemical_formula_sum "Si O2"
_cell_formula_units_Z 15
_cell_length_a 9.000000
_cell_length_b 15.000000
_cell_length_c 15.000000
_cell_angle_alpha 30.000000
_cell_angle_beta 60.000000
_cell_angle_gamma 80.000000
_cell_volume 702.152635
_symmetry_space_group_name_H-M "P -1"
_symmetry_group_IT_number 2
_symmetry_cell_setting 'triclinic'
loop_
_space_group_symop_operation_xyz
x,y,z
-x,-y,-z
loop_
_atom_site_type_symbol
_atom_site_label
_atom_site_fract_x
_atom_site_fract_y
_atom_site_fract_z
Si Si1 0.962959 0.954308 0.833151
Si Si2 0.862170 0.322488 0.271608
Si Si3 0.666730 0.742719 0.949365
Si Si4 0.000000 0.000000 0.500000
Si Si5 0.753755 0.183588 0.769673
Si Si6 0.663764 0.147166 0.025673
Si Si7 0.933524 0.546595 0.249385
Si Si8 0.555511 0.763928 0.501115
O O1 0.891304 0.903712 0.795833
O O2 0.871723 0.074881 0.800963
O O3 0.874984 0.719066 0.108992
O O4 0.216629 0.109177 0.630665
O O5 0.903058 0.436119 0.258339
O O6 0.614835 0.213935 0.419594
O O7 0.911754 0.146886 0.411386
O O8 0.000000 0.500000 0.000000
O O9 0.752613 0.769278 0.801673
O O10 0.531074 0.835562 0.928973
O O11 0.544997 0.496340 0.240701
O O12 0.789539 0.245529 0.809680
O O13 0.814412 0.368972 0.517995
O O14 0.500000 0.000000 0.000000
O O15 0.819476 0.299419 0.927420
O O16 0.597481 0.899636 0.278460
#
# Coordination Sequence:
#
# PCOD9075346 Si02
#       8
#     2   2   2   1   2   2   2   2
#     4  11  25  44  70 102 139 186 235 281 352 418
#     4  12  23  46  73 103 140 183 234 294 353 413
#     4  12  23  45  68 100 142 185 231 293 353 411
#     4  12  24  40  74  98 132 184 230 288 354 414
#     4  12  24  42  72 103 141 188 233 287 349 413
#     4  11  25  45  69 102 145 185 234 291 346 415
#     4  11  25  45  70 103 142 183 236 292 346 421
#     4  11  24  44  70  97 140 182 229 291 342 416
#
# _framework density 21.362876
#
# number of rings (size 3 to 8) (size 9 to 14) (size 15 to 20)
#    0.000    0.533    5.333    2.800    0.000    3.733 
#    2.400    3.333    0.000    0.000    0.000    0.000 
#    0.000    0.000    0.000    0.000    0.000    0.000 
#
# Total GULP energy -83552.470851 kJ/mol
# GULP energy per Si atom -5570.164723 kJ/mol
# Density = 2.131425 g / cm^3
# Si number density = 21.362876 Si / 1000 Ang^3
#
#
#
# Elastic Constant Matrix: (Units=GPa)
#
#
# Indices 1 2 3 4 5 6 
#
# 1 95.7105 -0.7134 35.0680 -25.2329 -14.6987 -6.9971
# 2 -0.7134 2.6367 3.7559 -12.3979 -23.0418 -7.8104
# 3 35.0680 3.7559 127.0696 3.3626 6.3056 4.2381
# 4 -25.2329 -12.3979 3.3626 26.3552 -3.8604 8.3907
# 5 -14.6987 -23.0418 6.3056 -3.8604 36.4210 -0.0641
# 6 -6.9971 -7.8104 4.2381 8.3907 -0.0641 29.0208
#
#
#
# Elastic Compliance Matrix: (Units=1/GPa)
#
#
# Indices 1 2 3 4 5 6 
#
# 1 0.011632 -0.015369 -0.002592 0.004339 -0.004124 -0.002217
# 2 -0.015369 -0.025886 0.007265 -0.030879 -0.027116 -0.002866
# 3 -0.002592 0.007265 0.008257 0.000170 0.002139 0.000080
# 4 0.004339 -0.030879 0.000170 0.030554 -0.014604 -0.016155
# 5 -0.004124 -0.027116 0.002139 -0.014604 0.006712 -0.004367
# 6 -0.002217 -0.002866 0.000080 -0.016155 -0.004367 0.037802
#
#
# Mechanical properties :
#
#
# Convention : Reuss Voigt Hill
#
# Bulk Modulus (GPa) = -36.50907 33.51533 -1.49687
# Shear Modulus (GPa) = 61.47619 30.84647 46.16133
#
# Velocity S-wave (km/s) = 5.37025 3.80403 4.65351
# Velocity P-wave (km/s) = 4.61798 5.91750 5.30766
#
# Compressibility (1/GPa) = -0.02739046
#
# Stress axis : x y z
#
# Youngs Moduli (GPa) = 85.97194 -38.63022 121.10959
#
# Poissons Ratio (x) = -0.59372 0.31391
# Poissons Ratio (y) = 1.32133 -0.87986
# Poissons Ratio (z) = 0.22284 0.28065
#
# Static dielectric constant tensor:
#      x y z
#    x 1.816000 0.095510 0.036910 
#    y 0.095510 1.828260 0.050410 
#    z 0.036910 0.050410 1.854860 
# 
# From -- ./inp_files/503576.got.cif
#   From: 2010.05.17/outbox.ucp.g08.bks.cvg/sg2_252_cif.got.tgz:503576.got - 2010.06.11 11:32:03.
