data_PCOD9075620
_publ_section_title
;
Structure prediction by ZEFSAII (Michael W. Deem and Ramdas Pophale) SiO2 
 PCOD9075620
Probable space group: P -1
;
_chemical_formula_sum "Si O2"
_cell_formula_units_Z 16
_cell_length_a 12.000000
_cell_length_b 15.000000
_cell_length_c 15.000000
_cell_angle_alpha 140.000000
_cell_angle_beta 30.000000
_cell_angle_gamma 120.000000
_cell_volume 747.221570
_symmetry_space_group_name_H-M "P -1"
_symmetry_group_IT_number 2
_symmetry_cell_setting 'triclinic'
loop_
_space_group_symop_operation_xyz
x,y,z
-x,-y,-z
loop_
_atom_site_type_symbol
_atom_site_label
_atom_site_fract_x
_atom_site_fract_y
_atom_site_fract_z
Si Si1 0.805633 0.389542 0.192173
Si Si2 0.008188 0.716471 0.554395
Si Si3 0.990724 0.403527 0.268086
Si Si4 0.563260 0.807075 0.073730
Si Si5 0.000352 0.616136 0.200653
Si Si6 0.552531 0.491319 0.782341
Si Si7 0.213864 0.087328 0.299779
Si Si8 0.008222 0.119394 0.715484
O O1 0.500000 0.500000 0.500000
O O2 0.880996 0.506675 0.176254
O O3 0.942436 0.372996 0.178867
O O4 0.892513 0.211222 0.959331
O O5 0.000504 0.566056 0.400807
O O6 0.276984 0.636632 0.358643
O O7 0.980759 0.839124 0.592311
O O8 0.760242 0.801567 0.856913
O O9 0.743648 0.435404 0.522651
O O10 0.252778 0.260924 0.019582
O O11 0.307224 0.978352 0.396399
O O12 0.501540 0.667390 0.981255
O O13 0.826624 0.761138 0.500241
O O14 0.032201 0.725442 0.189922
O O15 0.284122 0.504076 0.958950
O O16 0.154927 0.952636 0.272574
O O17 0.500000 0.000000 0.000000
#
# Coordination Sequence:
#
# PCOD9075620 Si02
#       8
#     2   2   2   2   2   2   2   2
#     4  12  26  44  62  87 126 169 209 248 304 380
#     4   9  19  38  64  94 124 158 203 253 309 364
#     4   9  19  39  65  89 123 167 203 245 306 374
#     4   9  19  38  63  95 125 156 200 259 313 356
#     4  12  24  41  64  90 122 166 210 252 304 369
#     4   9  19  37  66  94 121 157 207 255 303 367
#     4  12  24  37  62  93 125 160 205 263 308 350
#     4  12  26  40  60  93 131 160 204 261 307 358
#
# _framework density 21.412658
#
# number of rings (size 3 to 8) (size 9 to 14) (size 15 to 20)
#    0.000    1.500    2.500    4.500    3.500    2.000 
#    0.000    0.000    0.000    3.750    0.000    0.000 
#    0.000    0.000    0.000    0.000    0.000    0.000 
#
# Total GULP energy -89324.626257 kJ/mol
# GULP energy per Si atom -5582.789141 kJ/mol
# Density = 2.136392 g / cm^3
# Si number density = 21.412658 Si / 1000 Ang^3
#
#
#
# Elastic Constant Matrix: (Units=GPa)
#
#
# Indices 1 2 3 4 5 6 
#
# 1 16.6155 11.8297 38.2072 -1.6180 -8.4875 -18.8530
# 2 11.8297 55.2396 2.5080 -6.3354 3.6020 12.0390
# 3 38.2072 2.5080 119.2804 1.3744 6.6955 25.4773
# 4 -1.6180 -6.3354 1.3744 24.3091 14.8916 -1.3630
# 5 -8.4875 3.6020 6.6955 14.8916 9.2535 -14.2068
# 6 -18.8530 12.0390 25.4773 -1.3630 -14.2068 18.3873
#
#
#
# Elastic Compliance Matrix: (Units=1/GPa)
#
#
# Indices 1 2 3 4 5 6 
#
# 1 0.024678 0.005079 -0.002719 0.034946 -0.053116 -0.012703
# 2 0.005079 0.015828 -0.003327 0.000865 0.006603 0.004619
# 3 -0.002719 -0.003327 0.007671 -0.013559 0.020009 0.003217
# 4 0.034946 0.000865 -0.013559 0.076895 -0.051100 0.020269
# 5 -0.053116 0.006603 0.020009 -0.051100 0.075696 -0.031811
# 6 -0.012703 0.004619 0.003217 0.020269 -0.031811 0.010803
#
#
# Mechanical properties :
#
#
# Convention : Reuss Voigt Hill
#
# Bulk Modulus (GPa) = 21.62524 32.91393 27.26958
# Shear Modulus (GPa) = 21.84170 19.62936 20.73553
#
# Velocity S-wave (km/s) = 3.19727 3.03102 3.11525
# Velocity P-wave (km/s) = 4.87352 5.25871 5.06978
#
# Compressibility (1/GPa) = 0.04624226
#
# Stress axis : x y z
#
# Youngs Moduli (GPa) = 40.52181 63.17744 130.36767
#
# Poissons Ratio (x) = -0.32086 0.35451
# Poissons Ratio (y) = -0.20580 0.43370
# Poissons Ratio (z) = 0.11019 0.21018
#
# Static dielectric constant tensor:
#      x y z
#    x 1.880190 -0.107840 0.078380 
#    y -0.107840 1.837300 -0.068180 
#    z 0.078380 -0.068180 1.784970 
# 
# From -- ./inp_files/262658.got.cif
#   From: 2010.05.17/outbox.ucp.g08.bks.cvg/sg2_132_cif.got.tgz:262658.got - 2010.06.11 11:32:03.
