data_PCOD9075626
_publ_section_title
;
Structure prediction by ZEFSAII (Michael W. Deem and Ramdas Pophale) SiO2 
 PCOD9075626
Probable space group: P -1
;
_chemical_formula_sum "Si O2"
_cell_formula_units_Z 14
_cell_length_a 24.000000
_cell_length_b 15.000000
_cell_length_c 6.000000
_cell_angle_alpha 90.000000
_cell_angle_beta 80.000000
_cell_angle_gamma 20.000000
_cell_volume 636.464036
_symmetry_space_group_name_H-M "P -1"
_symmetry_group_IT_number 2
_symmetry_cell_setting 'triclinic'
loop_
_space_group_symop_operation_xyz
x,y,z
-x,-y,-z
loop_
_atom_site_type_symbol
_atom_site_label
_atom_site_fract_x
_atom_site_fract_y
_atom_site_fract_z
Si Si1 0.436283 0.700838 0.508888
Si Si2 0.065011 0.803846 0.016828
Si Si3 0.422221 0.353285 0.916692
Si Si4 0.754701 0.253909 0.620505
Si Si5 0.015842 0.369430 0.946246
Si Si6 0.991614 0.762857 0.694915
Si Si7 0.318818 0.201516 0.136784
O O1 0.500000 0.500000 0.500000
O O2 0.509102 0.659897 0.262161
O O3 0.554244 0.560332 0.636435
O O4 0.209967 0.053937 0.678239
O O5 0.288525 0.482846 0.884079
O O6 0.033969 0.774580 0.853434
O O7 0.930386 0.989025 0.324455
O O8 0.000000 0.000000 0.000000
O O9 0.592345 0.030705 0.869543
O O10 0.271836 0.620891 0.200551
O O11 0.803746 0.087932 0.713076
O O12 0.828671 0.604460 0.963423
O O13 0.000000 0.500000 0.000000
O O14 0.047242 0.271686 0.157419
O O15 0.171772 0.470573 0.411379
O O16 0.500000 0.000000 0.000000
#
# Coordination Sequence:
#
# PCOD9075626 Si02
#       7
#     2   2   2   2   2   2   2
#     4  12  26  44  68 105 144 187 251 301 365 440
#     4  12  24  44  74 110 148 188 245 307 376 433
#     4  12  26  44  73 107 145 193 245 308 369 440
#     4  12  24  44  73 106 142 188 245 308 370 438
#     4  12  28  50  73 106 154 201 248 301 363 447
#     4  12  26  47  75 106 151 195 243 312 364 440
#     4  12  29  49  76 110 148 194 252 305 376 440
#
# _framework density 21.99653
#
# number of rings (size 3 to 8) (size 9 to 14) (size 15 to 20)
#    0.000    0.000    2.857    7.286    2.000   10.286 
#    0.000    0.000    0.000    0.000    0.000    0.000 
#    0.000    0.000    0.000    0.000    0.000    0.000 
#
# Total GULP energy -78036.667795 kJ/mol
# GULP energy per Si atom -5574.047700 kJ/mol
# Density = 2.194646 g / cm^3
# Si number density = 21.996530 Si / 1000 Ang^3
#
#
#
# Elastic Constant Matrix: (Units=GPa)
#
#
# Indices 1 2 3 4 5 6 
#
# 1 126.2408 25.9861 30.1636 -7.7787 3.5014 27.5955
# 2 25.9861 147.2760 19.0493 6.8442 -4.7975 24.9898
# 3 30.1636 19.0493 80.0870 13.7245 11.5975 8.3100
# 4 -7.7787 6.8442 13.7245 36.1918 8.5007 -2.6191
# 5 3.5014 -4.7975 11.5975 8.5007 34.5837 14.6800
# 6 27.5955 24.9898 8.3100 -2.6191 14.6800 61.3413
#
#
#
# Elastic Compliance Matrix: (Units=1/GPa)
#
#
# Indices 1 2 3 4 5 6 
#
# 1 0.010004 -0.000740 -0.003904 0.003265 0.000990 -0.003767
# 2 -0.000740 0.007963 -0.001383 -0.002301 0.003792 -0.003729
# 3 -0.003904 -0.001383 0.015728 -0.005507 -0.004116 0.000939
# 4 0.003265 -0.002301 -0.005507 0.033117 -0.008498 0.003662
# 5 0.000990 0.003792 -0.004116 -0.008498 0.037368 -0.010738
# 6 -0.003767 -0.003729 0.000939 0.003662 -0.010738 0.022115
#
#
# Mechanical properties :
#
#
# Convention : Reuss Voigt Hill
#
# Bulk Modulus (GPa) = 46.20997 56.00020 51.10509
# Shear Modulus (GPa) = 34.34953 44.98370 39.66661
#
# Velocity S-wave (km/s) = 3.95598 4.52711 4.25115
# Velocity P-wave (km/s) = 6.47455 7.26913 6.88332
#
# Compressibility (1/GPa) = 0.02164035
#
# Stress axis : x y z
#
# Youngs Moduli (GPa) = 99.96204 125.58532 63.58079
#
# Poissons Ratio (x) = 0.09299 0.24820
# Poissons Ratio (y) = 0.07401 0.08793
# Poissons Ratio (z) = 0.39022 0.17368
#
# Static dielectric constant tensor:
#      x y z
#    x 1.863920 -0.105900 -0.041950 
#    y -0.105900 1.953960 -0.025770 
#    z -0.041950 -0.025770 1.919000 
# 
# From -- ./inp_files/124237.got.cif
#   From: 2010.05.17/outbox.ucp.g08.bks.cvg/sg2_63_cif.got.tgz:124237.got - 2010.06.11 11:32:03.
