data_PCOD9075775
_publ_section_title
;
Structure prediction by ZEFSAII (Michael W. Deem and Ramdas Pophale) SiO2 
 PCOD9075775
Probable space group: P -1
;
_chemical_formula_sum "Si O2"
_cell_formula_units_Z 14
_cell_length_a 4.935688
_cell_length_b 15.218467
_cell_length_c 10.956250
_cell_angle_alpha 41.535184
_cell_angle_beta 92.747770
_cell_angle_gamma 79.704049
_cell_volume 515.653240
_symmetry_space_group_name_H-M "P -1"
_symmetry_group_IT_number 2
_symmetry_cell_setting 'triclinic'
loop_
_space_group_symop_operation_xyz
x,y,z
-x,-y,-z
loop_
_atom_site_type_symbol
_atom_site_label
_atom_site_fract_x
_atom_site_fract_y
_atom_site_fract_z
Si Si1 0.842709 0.216576 0.672044
Si Si2 0.535329 0.649450 0.854736
Si Si3 0.270869 0.207413 0.102195
Si Si4 0.903809 0.874287 0.581013
Si Si5 0.195539 0.574924 0.357667
Si Si6 0.172689 0.944382 0.837088
Si Si7 0.230291 0.362636 0.393526
O O1 0.876187 0.267458 0.757836
O O2 0.513257 0.260958 0.575567
O O3 0.972448 0.314421 0.489194
O O4 0.004819 0.053195 0.822431
O O5 0.686562 0.651984 0.987837
O O6 0.719055 0.659387 0.726760
O O7 0.206219 0.750086 0.726464
O O8 0.500000 0.500000 0.000000
O O9 0.328030 0.142559 0.309732
O O10 0.500727 0.157735 0.050394
O O11 0.011475 0.151461 0.117538
O O12 0.794203 0.936779 0.382235
O O13 0.000000 0.000000 0.500000
O O14 0.500000 0.500000 0.500000
O O15 0.198640 0.520925 0.275597
O O16 0.000000 0.500000 0.500000
#
# Coordination Sequence:
#
# PCOD9075775 Si02
#       7
#     2   2   2   2   2   2   2
#     4  10  18  32  55  83 106 135 177 229 283 326
#     4  12  25  38  54  79 114 156 189 216 261 328
#     4  11  22  36  50  77 105 144 178 228 258 324
#     4  10  20  35  54  74 106 139 182 221 272 303
#     4   8  16  30  50  75 106 136 171 221 279 328
#     4  11  20  31  57  78 105 135 176 223 284 314
#     4  10  20  34  50  75 112 147 177 220 274 323
#
# _framework density 27.150026
#
# number of rings (size 3 to 8) (size 9 to 14) (size 15 to 20)
#    0.000    1.714    4.286    2.143    4.000    0.571 
#    0.000    0.000    0.000    0.000    0.000    2.000 
#    0.000    0.143    0.000    0.000    0.000    0.000 
#
# Total GULP energy -78127.955964 kJ/mol
# GULP energy per Si atom -5580.568283 kJ/mol
# Density = 2.708823 g / cm^3
# Si number density = 27.150026 Si / 1000 Ang^3
#
#
#
# Elastic Constant Matrix: (Units=GPa)
#
#
# Indices 1 2 3 4 5 6 
#
# 1 153.0653 9.4989 9.3889 3.6230 -5.7919 -0.6815
# 2 9.4989 170.9210 37.0882 -33.9749 16.0410 7.3789
# 3 9.3889 37.0882 54.3357 -3.6032 1.1619 7.4926
# 4 3.6230 -33.9749 -3.6032 49.8159 9.9249 -7.6504
# 5 -5.7919 16.0410 1.1619 9.9249 21.9115 0.0666
# 6 -0.6815 7.3789 7.4926 -7.6504 0.0666 33.8127
#
#
#
# Elastic Compliance Matrix: (Units=1/GPa)
#
#
# Indices 1 2 3 4 5 6 
#
# 1 0.006803 -0.000879 -0.000777 -0.001793 0.003295 0.000089
# 2 -0.000879 0.009953 -0.005976 0.008829 -0.011205 0.001154
# 3 -0.000777 -0.005976 0.022896 -0.004043 0.004801 -0.004709
# 4 -0.001793 0.008829 -0.004043 0.030993 -0.020780 0.005986
# 5 0.003295 -0.011205 0.004801 -0.020780 0.063880 -0.003380
# 6 0.000089 0.001154 -0.004709 0.005986 -0.003380 0.031729
#
#
# Mechanical properties :
#
#
# Convention : Reuss Voigt Hill
#
# Bulk Modulus (GPa) = 41.00388 54.47490 47.73939
# Shear Modulus (GPa) = 26.36479 42.59775 34.48127
#
# Velocity S-wave (km/s) = 3.11959 3.96533 3.56761
# Velocity P-wave (km/s) = 5.30201 6.40883 5.88151
#
# Compressibility (1/GPa) = 0.02438794
#
# Stress axis : x y z
#
# Youngs Moduli (GPa) = 146.99630 100.47255 43.67570
#
# Poissons Ratio (x) = 0.08831 0.03394
# Poissons Ratio (y) = 0.12920 0.26100
# Poissons Ratio (z) = 0.11425 0.60041
#
# Static dielectric constant tensor:
#      x y z
#    x 2.104050 -0.352170 0.127380 
#    y -0.352170 2.280180 0.138960 
#    z 0.127380 0.138960 2.189720 
# 
# From -- ./inp_files/485128.got.cif
#   From: 2010.05.17/outbox.cif.g08.bks.cpg/sg2_243_cif.got.tgz:485128.got - 2010.06.03 11:33:40.
