data_PCOD9075509
_publ_section_title
;
Structure prediction by ZEFSAII (Michael W. Deem and Ramdas Pophale) SiO2 
 PCOD9075509
Probable space group: P -1
;
_chemical_formula_sum "Si O2"
_cell_formula_units_Z 13
_cell_length_a 12.000000
_cell_length_b 12.000000
_cell_length_c 15.000000
_cell_angle_alpha 150.000000
_cell_angle_beta 40.000000
_cell_angle_gamma 120.000000
_cell_volume 597.777256
_symmetry_space_group_name_H-M "P -1"
_symmetry_group_IT_number 2
_symmetry_cell_setting 'triclinic'
loop_
_space_group_symop_operation_xyz
x,y,z
-x,-y,-z
loop_
_atom_site_type_symbol
_atom_site_label
_atom_site_fract_x
_atom_site_fract_y
_atom_site_fract_z
Si Si1 0.487029 0.792938 0.301056
Si Si2 0.547045 0.151129 0.267889
Si Si3 0.308576 0.460747 0.264067
Si Si4 0.272331 0.533248 0.550563
Si Si5 0.000000 0.000000 0.500000
Si Si6 0.081759 0.588718 0.317623
Si Si7 0.807850 0.758992 0.335608
O O1 0.444301 0.580901 0.227217
O O2 0.500000 0.000000 0.500000
O O3 0.306659 0.994149 0.488167
O O4 0.696946 0.623374 0.002754
O O5 0.453374 0.294220 0.329885
O O6 0.714307 0.220707 0.248512
O O7 0.367234 0.280343 0.541440
O O8 0.609833 0.848379 0.012395
O O9 0.291389 0.515481 0.418679
O O10 0.115262 0.597934 0.410662
O O11 0.073347 0.513228 0.675983
O O12 0.979782 0.145799 0.512504
O O13 0.103914 0.151401 0.578293
O O14 0.000000 0.500000 0.000000
#
# Coordination Sequence:
#
# PCOD9075509 Si02
#       7
#     2   2   2   2   1   2   2
#     4  12  26  47  78 112 148 193 246 317 371 434
#     4  11  25  51  76 106 152 197 248 308 366 444
#     4  12  25  49  76 108 151 194 247 308 373 438
#     4  11  27  49  73 112 150 199 245 301 374 446
#     4  12  24  46  74 108 144 188 244 302 366 434
#     4  12  25  48  77 108 153 193 246 310 367 445
#     4  12  25  48  76 110 142 193 249 307 374 436
#
# _framework density 21.747230999999999
#
# number of rings (size 3 to 8) (size 9 to 14) (size 15 to 20)
#    0.000    0.308    4.615    4.154    0.000    1.846 
#    8.308    0.000    0.000    0.000    0.000    0.000 
#    0.000    0.000    0.000    0.000    0.000    0.000 
#
# Total GULP energy -72400.120797 kJ/mol
# GULP energy per Si atom -5569.240061 kJ/mol
# Density = 2.169773 g / cm^3
# Si number density = 21.747231 Si / 1000 Ang^3
#
#
#
# Elastic Constant Matrix: (Units=GPa)
#
#
# Indices 1 2 3 4 5 6 
#
# 1 184.4085 66.0516 22.7354 1.3218 12.1217 3.3445
# 2 66.0516 170.8866 40.3532 10.8094 0.6097 3.9229
# 3 22.7354 40.3532 51.9380 3.2844 -1.3570 -3.6625
# 4 1.3218 10.8094 3.2844 32.1404 7.4665 -2.5838
# 5 12.1217 0.6097 -1.3570 7.4665 20.0981 4.3306
# 6 3.3445 3.9229 -3.6625 -2.5838 4.3306 66.8311
#
#
#
# Elastic Compliance Matrix: (Units=1/GPa)
#
#
# Indices 1 2 3 4 5 6 
#
# 1 0.006741 -0.002391 -0.001322 0.001778 -0.004766 0.000108
# 2 -0.002391 0.008172 -0.005143 -0.002666 0.002026 -0.000876
# 3 -0.001322 -0.005143 0.024077 -0.001187 0.002704 0.001466
# 4 0.001778 -0.002666 -0.001187 0.035693 -0.014837 0.002344
# 5 -0.004766 0.002026 0.002704 -0.014837 0.059155 -0.004139
# 6 0.000108 -0.000876 0.001466 0.002344 -0.004139 0.015448
#
#
# Mechanical properties :
#
#
# Convention : Reuss Voigt Hill
#
# Bulk Modulus (GPa) = 46.99756 73.94595 60.47176
# Shear Modulus (GPa) = 28.72041 42.35344 35.53692
#
# Velocity S-wave (km/s) = 3.63801 4.41787 4.04677
# Velocity P-wave (km/s) = 6.26934 7.75240 7.04998
#
# Compressibility (1/GPa) = 0.02127770
#
# Stress axis : x y z
#
# Youngs Moduli (GPa) = 148.34977 122.36896 41.53287
#
# Poissons Ratio (x) = 0.29261 0.05492
# Poissons Ratio (y) = 0.35473 0.21359
# Poissons Ratio (z) = 0.19615 0.62932
#
# Static dielectric constant tensor:
#      x y z
#    x 1.880590 -0.023880 -0.017220 
#    y -0.023880 1.814760 -0.027770 
#    z -0.017220 -0.027770 1.800310 
# 
# From -- ./inp_files/519302.got.cif
#   From: 2010.05.17/outbox.ucp.g08.bks.cvg/sg2_260_cif.got.tgz:519302.got - 2010.06.11 11:32:03.
