data_PCOD9075644
_publ_section_title
;
Structure prediction by ZEFSAII (Michael W. Deem and Ramdas Pophale) SiO2 
 PCOD9075644
Probable space group: P -1
;
_chemical_formula_sum "Si O2"
_cell_formula_units_Z 16
_cell_length_a 9.000000
_cell_length_b 12.000000
_cell_length_c 9.000000
_cell_angle_alpha 130.000000
_cell_angle_beta 80.000000
_cell_angle_gamma 90.000000
_cell_volume 725.212580
_symmetry_space_group_name_H-M "P -1"
_symmetry_group_IT_number 2
_symmetry_cell_setting 'triclinic'
loop_
_space_group_symop_operation_xyz
x,y,z
-x,-y,-z
loop_
_atom_site_type_symbol
_atom_site_label
_atom_site_fract_x
_atom_site_fract_y
_atom_site_fract_z
Si Si1 0.759442 0.856130 0.841704
Si Si2 0.681466 0.200304 0.203901
Si Si3 0.515681 0.328994 0.603157
Si Si4 0.038623 0.643937 0.708018
Si Si5 0.754434 0.846605 0.472954
Si Si6 0.971455 0.337697 0.914475
Si Si7 0.522106 0.679434 0.902280
Si Si8 0.317059 0.804015 0.278535
O O1 0.764145 0.852680 0.657531
O O2 0.656497 0.750160 0.858118
O O3 0.926761 0.785923 0.797320
O O4 0.721629 0.024309 0.050596
O O5 0.535437 0.260404 0.377651
O O6 0.797925 0.311753 0.319921
O O7 0.630011 0.239022 0.080022
O O8 0.362738 0.270503 0.633349
O O9 0.523628 0.503453 0.747498
O O10 0.658766 0.243865 0.595860
O O11 0.000000 0.500000 0.500000
O O12 0.025333 0.646191 0.892180
O O13 0.900412 0.779310 0.290965
O O14 0.709141 0.019079 0.583426
O O15 0.815268 0.282174 0.838084
O O16 0.000000 0.500000 0.000000
O O17 0.482090 0.735573 0.122453
#
# Coordination Sequence:
#
# PCOD9075644 Si02
#       8
#     2   2   2   2   2   2   2   2
#     4  12  26  45  77 106 142 187 236 296 350 419
#     4  12  25  48  72 103 145 187 241 291 353 414
#     4  12  28  42  75 107 145 190 235 293 348 424
#     4  12  28  47  74 106 140 185 240 294 350 423
#     4  12  26  48  73 107 146 186 234 291 357 419
#     4  12  28  47  73 103 146 187 234 292 357 422
#     4  12  24  48  72 104 143 188 239 291 352 412
#     4  12  27  48  72 103 148 191 235 288 355 422
#
# _framework density 22.062495999999999
#
# number of rings (size 3 to 8) (size 9 to 14) (size 15 to 20)
#    0.000    0.000    3.750    5.250   10.500    0.000 
#    0.000    0.000    0.000    0.000    0.000    0.000 
#    0.000    0.000    0.000    0.000    0.000    0.000 
#
# Total GULP energy -89234.769282 kJ/mol
# GULP energy per Si atom -5577.173080 kJ/mol
# Density = 2.201228 g / cm^3
# Si number density = 22.062496 Si / 1000 Ang^3
#
#
#
# Elastic Constant Matrix: (Units=GPa)
#
#
# Indices 1 2 3 4 5 6 
#
# 1 32.5958 -12.6348 -19.8355 -19.6745 1.4573 13.2231
# 2 -12.6348 109.4153 14.2614 21.2399 4.4738 8.6504
# 3 -19.8355 14.2614 98.9425 4.7279 -9.9479 10.9669
# 4 -19.6745 21.2399 4.7279 31.9551 3.4427 -20.3830
# 5 1.4573 4.4738 -9.9479 3.4427 35.6526 2.3840
# 6 13.2231 8.6504 10.9669 -20.3830 2.3840 14.9944
#
#
#
# Elastic Compliance Matrix: (Units=1/GPa)
#
#
# Indices 1 2 3 4 5 6 
#
# 1 0.054310 -0.006253 0.006064 0.052276 -0.006352 0.023349
# 2 -0.006253 0.002864 -0.007400 0.019798 -0.006570 0.037231
# 3 0.006064 -0.007400 0.007955 0.025360 -0.001408 0.027800
# 4 0.052276 0.019798 0.025360 -0.038039 0.014830 -0.130137
# 5 -0.006352 -0.006570 -0.001408 0.014830 0.025534 0.026521
# 6 0.023349 0.037231 0.027800 -0.130137 0.026521 -0.176834
#
#
# Mechanical properties :
#
#
# Convention : Reuss Voigt Hill
#
# Bulk Modulus (GPa) = 20.01919 22.72620 21.37269
# Shear Modulus (GPa) = -54.12278 33.79794 -10.16242
#
# Velocity S-wave (km/s) = -4.95831 3.91822 -2.14853
# Velocity P-wave (km/s) = 4.86685 5.54915 1.88506
#
# Compressibility (1/GPa) = 0.04995208
#
# Stress axis : x y z
#
# Youngs Moduli (GPa) = 18.41272 349.18342 125.71409
#
# Poissons Ratio (x) = 2.18347 -0.76239
# Poissons Ratio (y) = 0.11514 0.93024
# Poissons Ratio (z) = -0.11166 2.58385
#
# Static dielectric constant tensor:
#      x y z
#    x 1.892980 0.024740 -0.026080 
#    y 0.024740 1.805390 -0.069760 
#    z -0.026080 -0.069760 1.782930 
# 
# From -- ./inp_files/190670.got.cif
#   From: 2010.05.17/outbox.ucp.g08.bks.cvg/sg2_96_cif.got.tgz:190670.got - 2010.06.11 11:32:03.
