data_PCOD9075315
_publ_section_title
;
Structure prediction by ZEFSAII (Michael W. Deem and Ramdas Pophale) SiO2 
 PCOD9075315
Probable space group: P -1
;
_chemical_formula_sum "Si O2"
_cell_formula_units_Z 16
_cell_length_a 18.000000
_cell_length_b 6.000000
_cell_length_c 9.000000
_cell_angle_alpha 80.000000
_cell_angle_beta 120.000000
_cell_angle_gamma 120.000000
_cell_volume 725.212580
_symmetry_space_group_name_H-M "P -1"
_symmetry_group_IT_number 2
_symmetry_cell_setting 'triclinic'
loop_
_space_group_symop_operation_xyz
x,y,z
-x,-y,-z
loop_
_atom_site_type_symbol
_atom_site_label
_atom_site_fract_x
_atom_site_fract_y
_atom_site_fract_z
Si Si1 0.410806 0.254442 0.517834
Si Si2 0.256527 0.013675 0.909382
Si Si3 0.769895 0.576838 0.351199
Si Si4 0.060355 0.742418 0.147514
Si Si5 0.401833 0.977071 0.835542
Si Si6 0.736339 0.165000 0.746250
Si Si7 0.076848 0.490474 0.687966
Si Si8 0.210132 0.288786 0.298632
O O1 0.500000 0.500000 0.500000
O O2 0.427456 0.200383 0.711059
O O3 0.309514 0.266974 0.403291
O O4 0.370661 0.985301 0.417434
O O5 0.263293 0.256953 0.802589
O O6 0.341168 0.980400 0.917869
O O7 0.151980 0.771234 0.793651
O O8 0.263592 0.005664 0.094604
O O9 0.858357 0.588672 0.341220
O O10 0.803774 0.684652 0.540054
O O11 0.676286 0.289171 0.293814
O O12 0.166909 0.752359 0.271102
O O13 0.987885 0.679497 0.220368
O O14 0.113153 0.058132 0.150823
O O15 0.000000 0.500000 0.000000
O O16 0.500000 0.000000 0.000000
O O17 0.759352 0.447105 0.789050
O O18 0.000000 0.500000 0.500000
#
# Coordination Sequence:
#
# PCOD9075315 Si02
#       8
#     2   2   2   2   2   2   2   2
#     4  11  26  45  71 105 139 182 239 288 361 430
#     4  11  25  45  67 103 143 183 235 295 349 421
#     4  11  24  46  72 103 143 192 237 296 357 418
#     4  11  24  45  66 104 143 183 239 292 353 423
#     4  11  26  45  70 104 143 184 241 289 355 432
#     4  11  25  46  68 101 144 185 237 292 353 428
#     4  11  24  42  72 102 140 186 246 286 349 434
#     4  11  24  45  75  96 146 192 229 299 357 420
#
# _framework density 22.062495999999999
#
# number of rings (size 3 to 8) (size 9 to 14) (size 15 to 20)
#    0.000    1.000    3.750    1.500    7.000    8.500 
#    0.000    0.000    0.000    0.000    0.000    0.000 
#    0.000    0.000    0.000    0.000    0.000    0.000 
#
# Total GULP energy -89203.851686 kJ/mol
# GULP energy per Si atom -5575.240730 kJ/mol
# Density = 2.201228 g / cm^3
# Si number density = 22.062496 Si / 1000 Ang^3
#
#
#
# Elastic Constant Matrix: (Units=GPa)
#
#
# Indices 1 2 3 4 5 6 
#
# 1 83.5104 55.4790 48.4701 14.4189 5.5399 40.1543
# 2 55.4790 107.4382 14.8114 4.5022 -2.2814 32.9144
# 3 48.4701 14.8114 94.8655 5.4373 -4.3207 15.7453
# 4 14.4189 4.5022 5.4373 41.9871 5.5522 -1.0304
# 5 5.5399 -2.2814 -4.3207 5.5522 41.6669 1.2510
# 6 40.1543 32.9144 15.7453 -1.0304 1.2510 37.9599
#
#
#
# Elastic Compliance Matrix: (Units=1/GPa)
#
#
# Indices 1 2 3 4 5 6 
#
# 1 0.049398 -0.012024 -0.017073 -0.013507 -0.006149 -0.034910
# 2 -0.012024 0.015781 0.004179 0.001460 0.002784 -0.002750
# 3 -0.017073 0.004179 0.017430 0.002843 0.003712 0.007162
# 4 -0.013507 0.001460 0.002843 0.028508 -0.002009 0.012683
# 5 -0.006149 0.002784 0.003712 -0.002009 0.025573 0.001653
# 6 -0.034910 -0.002750 0.007162 0.012683 0.001653 0.062975
#
#
# Mechanical properties :
#
#
# Convention : Reuss Voigt Hill
#
# Bulk Modulus (GPa) = 30.51435 58.14835 44.33135
# Shear Modulus (GPa) = 19.19946 35.45969 27.32958
#
# Velocity S-wave (km/s) = 2.95317 4.01339 3.52338
# Velocity P-wave (km/s) = 5.04868 6.92024 6.05718
#
# Compressibility (1/GPa) = 0.03277147
#
# Stress axis : x y z
#
# Youngs Moduli (GPa) = 20.24381 63.36798 57.37359
#
# Poissons Ratio (x) = 0.76194 0.97957
# Poissons Ratio (y) = 0.24341 -0.23977
# Poissons Ratio (z) = 0.34563 -0.26482
#
# Static dielectric constant tensor:
#      x y z
#    x 1.758960 -0.125010 -0.001540 
#    y -0.125010 1.938510 0.004900 
#    z -0.001540 0.004900 1.799070 
# 
# From -- ./inp_files/323591.got.cif
#   From: 2010.05.17/outbox.ucp.g08.bks.cvg/sg2_162_cif.got.tgz:323591.got - 2010.06.11 11:32:03.
