data_PCOD9075900
_publ_section_title
;
Structure prediction by ZEFSAII (Michael W. Deem and Ramdas Pophale) SiO2 
 PCOD9075900
Probable space group: P -1
;
_chemical_formula_sum "Si O2"
_cell_formula_units_Z 16
_cell_length_a 7.378681
_cell_length_b 15.627844
_cell_length_c 12.696832
_cell_angle_alpha 35.475961
_cell_angle_beta 130.629614
_cell_angle_gamma 133.629975
_cell_volume 600.985705
_symmetry_space_group_name_H-M "P -1"
_symmetry_group_IT_number 2
_symmetry_cell_setting 'triclinic'
loop_
_space_group_symop_operation_xyz
x,y,z
-x,-y,-z
loop_
_atom_site_type_symbol
_atom_site_label
_atom_site_fract_x
_atom_site_fract_y
_atom_site_fract_z
Si Si1 0.968487 0.583808 0.012110
Si Si2 0.376822 0.885975 0.830158
Si Si3 0.374314 0.470993 0.368314
Si Si4 0.028525 0.872489 0.413221
Si Si5 0.887700 0.614228 0.281059
Si Si6 0.442693 0.117533 0.468878
Si Si7 0.175166 0.969662 0.005324
Si Si8 0.560189 0.677277 0.931523
O O1 0.163768 0.550652 0.198708
O O2 0.088262 0.769490 0.851957
O O3 0.000000 0.500000 0.000000
O O4 0.678511 0.480155 0.018666
O O5 0.386520 0.058682 0.625400
O O6 0.541343 0.916153 0.969022
O O7 0.502635 0.800010 0.874016
O O8 0.500000 0.500000 0.500000
O O9 0.392829 0.439835 0.712377
O O10 0.201850 0.284424 0.479661
O O11 0.245579 0.835632 0.462380
O O12 0.227212 0.960137 0.492501
O O13 0.917851 0.980298 0.190557
O O14 0.785137 0.625826 0.112941
O O15 0.000000 0.500000 0.500000
O O16 0.115609 0.785763 0.190138
O O17 0.401632 0.238112 0.250913
O O18 0.000000 0.000000 0.000000
#
# Coordination Sequence:
#
# PCOD9075900 Si02
#       8
#     2   2   2   2   2   2   2   2
#     4  10  18  32  56  93 123 150 201 267 306 347
#     4  11  18  29  56  90 115 146 200 265 303 331
#     4  12  23  35  60  95 123 155 208 266 302 347
#     4  11  19  30  52  90 120 144 194 266 309 338
#     4  12  26  42  60  89 133 174 197 239 324 389
#     4  11  17  29  52  89 118 143 193 265 307 342
#     4  12  19  36  60  87 120 158 208 252 293 358
#     4  11  18  34  57  87 121 155 204 255 301 365
#
# _framework density 26.622931000000001
#
# number of rings (size 3 to 8) (size 9 to 14) (size 15 to 20)
#    0.000    0.750   10.000    2.250    0.000    0.000 
#    0.000    0.625    0.000    3.750    0.000    0.000 
#    0.000    0.000    0.000    0.000    0.000    0.000 
#
# Total GULP energy -89235.904797 kJ/mol
# GULP energy per Si atom -5577.244050 kJ/mol
# Density = 2.656234 g / cm^3
# Si number density = 26.622931 Si / 1000 Ang^3
#
#
#
# Elastic Constant Matrix: (Units=GPa)
#
#
# Indices 1 2 3 4 5 6 
#
# 1 69.4322 37.6002 32.4257 -7.5584 18.1897 25.8670
# 2 37.6002 178.5355 58.7997 -1.5700 -3.4830 32.2698
# 3 32.4257 58.7997 225.7665 9.9939 -9.4175 8.2876
# 4 -7.5584 -1.5700 9.9939 58.0229 10.4061 -13.0999
# 5 18.1897 -3.4830 -9.4175 10.4061 22.8294 -1.4565
# 6 25.8670 32.2698 8.2876 -13.0999 -1.4565 36.3339
#
#
#
# Elastic Compliance Matrix: (Units=1/GPa)
#
#
# Indices 1 2 3 4 5 6 
#
# 1 0.037080 -0.002707 -0.005716 0.007557 -0.037129 -0.021455
# 2 -0.002707 0.007497 -0.001175 -0.001642 0.003250 -0.004926
# 3 -0.005716 -0.001175 0.005893 -0.002538 0.008166 0.003181
# 4 0.007557 -0.001642 -0.002538 0.022662 -0.017385 0.004131
# 5 -0.037129 0.003250 0.008166 -0.017385 0.086379 0.018878
# 6 -0.021455 -0.004926 0.003181 0.004131 0.018878 0.048692
#
#
# Mechanical properties :
#
#
# Convention : Reuss Voigt Hill
#
# Bulk Modulus (GPa) = 31.97496 81.26504 56.62000
# Shear Modulus (GPa) = 21.02396 46.43115 33.72755
#
# Velocity S-wave (km/s) = 2.81320 4.18069 3.56316
# Velocity P-wave (km/s) = 4.75273 7.34132 6.18399
#
# Compressibility (1/GPa) = 0.03127447
#
# Stress axis : x y z
#
# Youngs Moduli (GPa) = 26.96847 133.38073 169.70657
#
# Poissons Ratio (x) = 0.36101 0.97012
# Poissons Ratio (y) = 0.07299 0.19937
# Poissons Ratio (z) = 0.15416 0.15670
#
# Static dielectric constant tensor:
#      x y z
#    x 2.372710 -0.151870 0.099600 
#    y -0.151870 2.013600 -0.058860 
#    z 0.099600 -0.058860 2.169320 
# 
# From -- ./inp_files/570942.got.cif
#   From: 2010.05.17/outbox.cif.g08.bks.cpg/sg2_286_cif.got.tgz:570942.got - 2010.06.03 11:33:40.
