data_PCOD9075813
_publ_section_title
;
Structure prediction by ZEFSAII (Michael W. Deem and Ramdas Pophale) SiO2 
 PCOD9075813
Probable space group: P -1
;
_chemical_formula_sum "Si O2"
_cell_formula_units_Z 16
_cell_length_a 9.218484
_cell_length_b 10.057441
_cell_length_c 12.664366
_cell_angle_alpha 131.828749
_cell_angle_beta 54.836366
_cell_angle_gamma 117.978137
_cell_volume 708.251407
_symmetry_space_group_name_H-M "P -1"
_symmetry_group_IT_number 2
_symmetry_cell_setting 'triclinic'
loop_
_space_group_symop_operation_xyz
x,y,z
-x,-y,-z
loop_
_atom_site_type_symbol
_atom_site_label
_atom_site_fract_x
_atom_site_fract_y
_atom_site_fract_z
Si Si1 0.512048 0.810965 0.150600
Si Si2 0.367732 0.470033 0.900707
Si Si3 0.097118 0.372727 0.543034
Si Si4 0.048605 0.984962 0.283913
Si Si5 0.229544 0.476957 0.318580
Si Si6 0.156558 0.068382 0.054006
Si Si7 0.657923 0.970751 0.494906
Si Si8 0.838492 0.644802 0.267296
O O1 0.642196 0.708701 0.117644
O O2 0.383477 0.921473 0.327517
O O3 0.391784 0.647565 0.055461
O O4 0.648334 0.932389 0.080412
O O5 0.562920 0.479654 0.770472
O O6 0.212256 0.461603 0.875151
O O7 0.196769 0.475056 0.456416
O O8 0.147162 0.450541 0.678449
O O9 0.131973 0.163729 0.407181
O O10 0.890216 0.392029 0.618503
O O11 0.842026 0.021847 0.380111
O O12 0.130848 0.969858 0.126063
O O13 0.013756 0.795573 0.259346
O O14 0.157261 0.277847 0.198250
O O15 0.000000 0.000000 0.000000
O O16 0.500000 0.000000 0.500000
O O17 0.676700 0.766315 0.408676
#
# Coordination Sequence:
#
# PCOD9075813 Si02
#       8
#     2   2   2   2   2   2   2   2
#     4  10  19  33  58  86 116 154 193 232 294 337
#     4  10  19  35  56  83 116 155 192 238 281 358
#     4  10  19  37  56  86 114 146 195 247 288 342
#     4   9  20  33  57  83 116 146 190 238 287 333
#     4   9  21  35  58  81 111 153 192 236 297 341
#     4  10  18  34  58  84 113 147 195 240 278 349
#     4  10  18  32  55  92 107 147 200 233 279 339
#     4  10  21  33  60  89 115 149 196 245 287 331
#
# _framework density 22.590848000000001
#
# number of rings (size 3 to 8) (size 9 to 14) (size 15 to 20)
#    0.750    1.500    1.250    2.625    0.000    0.500 
#    2.250    0.000    5.500   15.000    0.000    0.000 
#    0.000    0.000    0.000    0.000    0.000    0.000 
#
# Total GULP energy -89290.067683 kJ/mol
# GULP energy per Si atom -5580.629230 kJ/mol
# Density = 2.253943 g / cm^3
# Si number density = 22.590848 Si / 1000 Ang^3
#
#
#
# Elastic Constant Matrix: (Units=GPa)
#
#
# Indices 1 2 3 4 5 6 
#
# 1 68.8031 15.4507 20.8562 -7.3650 13.7279 -8.6775
# 2 15.4507 36.2843 39.1383 -14.0741 -1.7460 2.8016
# 3 20.8562 39.1383 101.9330 -14.2558 14.6604 -0.1331
# 4 -7.3650 -14.0741 -14.2558 35.3174 4.9052 0.3905
# 5 13.7279 -1.7460 14.6604 4.9052 41.6455 -6.7447
# 6 -8.6775 2.8016 -0.1331 0.3905 -6.7447 13.8727
#
#
#
# Elastic Compliance Matrix: (Units=1/GPa)
#
#
# Indices 1 2 3 4 5 6 
#
# 1 0.019052 -0.009578 0.000689 0.001034 -0.005217 0.011292
# 2 -0.009578 0.060624 -0.020907 0.012594 0.009262 -0.014287
# 3 0.000689 -0.020907 0.018860 0.000470 -0.007617 0.001118
# 4 0.001034 0.012594 0.000470 0.034476 -0.004888 -0.005239
# 5 -0.005217 0.009262 -0.007617 -0.004888 0.030997 0.010001
# 6 0.011292 -0.014287 0.001118 -0.005239 0.010001 0.087054
#
#
# Mechanical properties :
#
#
# Convention : Reuss Voigt Hill
#
# Bulk Modulus (GPa) = 25.67787 39.76787 32.72287
# Shear Modulus (GPa) = 15.44952 26.93880 21.19416
#
# Velocity S-wave (km/s) = 2.61795 3.45695 3.06629
# Velocity P-wave (km/s) = 4.53094 5.79446 5.20121
#
# Compressibility (1/GPa) = 0.03894404
#
# Stress axis : x y z
#
# Youngs Moduli (GPa) = 52.48756 16.49518 53.02353
#
# Poissons Ratio (x) = 0.15799 -0.03654
# Poissons Ratio (y) = 0.50273 1.10855
# Poissons Ratio (z) = -0.03617 0.34486
#
# Static dielectric constant tensor:
#      x y z
#    x 1.829180 0.013940 0.028360 
#    y 0.013940 1.899840 0.034970 
#    z 0.028360 0.034970 1.871380 
# 
# From -- ./inp_files/257024.got.cif
#   From: 2010.05.17/outbox.cif.g08.bks.cpg/sg2_129_cif.got.tgz:257024.got - 2010.06.03 11:33:40.
