data_PCOD9075004
_publ_section_title
;
Structure prediction by ZEFSAII (Michael W. Deem and Ramdas Pophale) SiO2 
 PCOD9075004
Probable space group: P -1
;
_chemical_formula_sum "Si O2"
_cell_formula_units_Z 16
_cell_length_a 12.000000
_cell_length_b 12.000000
_cell_length_c 12.000000
_cell_angle_alpha 120.000000
_cell_angle_beta 100.000000
_cell_angle_gamma 130.000000
_cell_volume 763.164900
_symmetry_space_group_name_H-M "P -1"
_symmetry_group_IT_number 2
_symmetry_cell_setting 'triclinic'
loop_
_space_group_symop_operation_xyz
x,y,z
-x,-y,-z
loop_
_atom_site_type_symbol
_atom_site_label
_atom_site_fract_x
_atom_site_fract_y
_atom_site_fract_z
Si Si1 0.083934 0.283666 0.875557
Si Si2 0.230882 0.590048 0.712790
Si Si3 0.721791 0.407116 0.720200
Si Si4 0.086752 0.567234 0.905271
Si Si5 0.782249 0.046515 0.327002
Si Si6 0.431622 0.562450 0.888697
Si Si7 0.701549 0.839424 0.434646
Si Si8 0.553897 0.100474 0.316192
O O1 0.070262 0.413621 0.885045
O O2 0.283826 0.417360 0.904143
O O3 0.135395 0.351251 0.051394
O O4 0.865740 0.999727 0.649314
O O5 0.150900 0.606783 0.806287
O O6 0.349201 0.591480 0.802637
O O7 0.374721 0.794068 0.744260
O O8 0.018660 0.330919 0.481129
O O9 0.485818 0.236037 0.619869
O O10 0.668736 0.307051 0.530864
O O11 0.852084 0.407980 0.784369
O O12 0.288489 0.840186 0.134158
O O13 0.630351 0.025652 0.310213
O O14 0.823372 0.008430 0.429529
O O15 0.664916 0.839639 0.114152
O O16 0.402727 0.399230 0.737675
#
# Coordination Sequence:
#
# PCOD9075004 Si02
#       8
#     2   2   2   2   2   2   2   2
#     4  11  22  39  62  94 130 167 208 262 321 369
#     4  11  24  42  66  96 125 168 214 266 309 367
#     4  12  25  37  62  96 133 173 198 257 322 389
#     4  11  22  39  62  94 130 167 208 262 321 369
#     4  12  22  39  68  99 124 160 206 270 320 365
#     4  11  24  42  66  96 125 168 214 266 309 367
#     4  12  24  42  64  97 132 163 214 258 320 377
#     4  12  24  42  64  97 132 163 214 258 320 377
#
# _framework density 20.965325
#
# number of rings (size 3 to 8) (size 9 to 14) (size 15 to 20)
#    0.000    0.500    7.500    2.625    0.000    3.500 
#    0.000    0.625    0.000    2.250    0.000    0.000 
#    0.000    0.000    0.000    0.000    0.000    0.000 
#
# Total GULP energy -89204.749628 kJ/mol
# GULP energy per Si atom -5575.296852 kJ/mol
# Density = 2.091761 g / cm^3
# Si number density = 20.965325 Si / 1000 Ang^3
#
#
#
# Elastic Constant Matrix: (Units=GPa)
#
#
# Indices 1 2 3 4 5 6 
#
# 1 47.1943 18.2377 11.8056 -1.3566 -17.6479 3.0532
# 2 18.2377 50.6780 25.9100 -17.1684 -21.3170 4.3384
# 3 11.8056 25.9100 175.9397 -6.5751 -13.3301 6.7328
# 4 -1.3566 -17.1684 -6.5751 31.6908 7.4818 -2.5129
# 5 -17.6479 -21.3170 -13.3301 7.4818 39.5371 -6.3353
# 6 3.0532 4.3384 6.7328 -2.5129 -6.3353 17.0297
#
#
#
# Elastic Compliance Matrix: (Units=1/GPa)
#
#
# Indices 1 2 3 4 5 6 
#
# 1 0.027448 -0.007747 -0.000206 -0.005200 0.008940 -0.000307
# 2 -0.007747 0.033631 -0.003068 0.014699 0.010900 0.000258
# 3 -0.000206 -0.003068 0.006206 -0.000558 0.000188 -0.001647
# 4 -0.005200 0.014699 -0.000558 0.039788 -0.001689 0.002651
# 5 0.008940 0.010900 0.000188 -0.001689 0.036995 0.009059
# 6 -0.000307 0.000258 -0.001647 0.002651 0.009059 0.063123
#
#
# Mechanical properties :
#
#
# Convention : Reuss Voigt Hill
#
# Bulk Modulus (GPa) = 22.10278 42.85761 32.48019
# Shear Modulus (GPa) = 20.46547 32.17544 26.32046
#
# Velocity S-wave (km/s) = 3.12774 3.92177 3.54705
# Velocity P-wave (km/s) = 4.85892 6.40262 5.68343
#
# Compressibility (1/GPa) = 0.04524319
#
# Stress axis : x y z
#
# Youngs Moduli (GPa) = 36.43279 29.73423 161.14009
#
# Poissons Ratio (x) = 0.23036 0.03321
# Poissons Ratio (y) = 0.28225 0.49432
# Poissons Ratio (z) = 0.00751 0.09121
#
# Static dielectric constant tensor:
#      x y z
#    x 1.794290 0.021420 -0.008740 
#    y 0.021420 1.736690 0.003830 
#    z -0.008740 0.003830 1.804540 
# 
# From -- ./inp_files/428739.got.cif
#   From: 2010.05.17/outbox.ucp.g08.bks.cvg/sg2_215_cif.got.tgz:428739.got - 2010.06.11 11:32:03.
