data_PCOD9075073
_publ_section_title
;
Structure prediction by ZEFSAII (Michael W. Deem and Ramdas Pophale) SiO2 
 PCOD9075073
Probable space group: P -1
;
_chemical_formula_sum "Si O2"
_cell_formula_units_Z 16
_cell_length_a 15.000000
_cell_length_b 12.000000
_cell_length_c 15.000000
_cell_angle_alpha 120.000000
_cell_angle_beta 30.000000
_cell_angle_gamma 140.000000
_cell_volume 747.221570
_symmetry_space_group_name_H-M "P -1"
_symmetry_group_IT_number 2
_symmetry_cell_setting 'triclinic'
loop_
_space_group_symop_operation_xyz
x,y,z
-x,-y,-z
loop_
_atom_site_type_symbol
_atom_site_label
_atom_site_fract_x
_atom_site_fract_y
_atom_site_fract_z
Si Si1 0.432847 0.319106 0.019938
Si Si2 0.260128 0.620662 0.639663
Si Si3 0.791993 0.976846 0.222022
Si Si4 0.792471 0.174125 0.870177
Si Si5 0.563330 0.165640 0.701492
Si Si6 0.028504 0.024103 0.592820
Si Si7 0.425327 0.813118 0.761237
Si Si8 0.994836 0.647828 0.740131
O O1 0.500000 0.500000 0.000000
O O2 0.467230 0.228595 0.876079
O O3 0.153701 0.166115 0.259107
O O4 0.676493 0.429597 0.925218
O O5 0.574465 0.780677 0.394860
O O6 0.271810 0.660529 0.749937
O O7 0.139652 0.675395 0.713749
O O8 0.059087 0.396518 0.688310
O O9 0.621436 0.940619 0.271456
O O10 0.946474 0.167301 0.226673
O O11 0.000000 0.000000 0.000000
O O12 0.911565 0.098323 0.752466
O O13 0.736405 0.227577 0.027925
O O14 0.500000 0.000000 0.000000
O O15 0.869090 0.339348 0.461104
O O16 0.543355 0.015715 0.705003
O O17 0.342752 0.159421 0.396927
O O18 0.000000 0.000000 0.500000
#
# Coordination Sequence:
#
# PCOD9075073 Si02
#       8
#     2   2   2   2   2   2   2   2
#     4  12  26  43  73 109 141 188 249 299 365 436
#     4  11  25  45  72 103 138 193 238 287 373 432
#     4  11  23  42  68 105 149 184 234 303 359 427
#     4  12  26  50  73 102 142 190 240 301 362 425
#     4  11  22  43  69 103 140 191 234 301 364 421
#     4  12  28  46  72 107 149 189 242 303 363 434
#     4  12  24  47  76  97 145 188 245 293 355 440
#     4  11  22  43  69 100 144 183 237 299 364 426
#
# _framework density 21.412658
#
# number of rings (size 3 to 8) (size 9 to 14) (size 15 to 20)
#    0.000    0.500    5.000    3.750    1.750    3.500 
#    0.000    0.000    0.000    0.000    0.000    0.000 
#    0.000    0.000    0.000    0.000    0.000    0.000 
#
# Total GULP energy -89255.377269 kJ/mol
# GULP energy per Si atom -5578.461079 kJ/mol
# Density = 2.136392 g / cm^3
# Si number density = 21.412658 Si / 1000 Ang^3
#
#
#
# Elastic Constant Matrix: (Units=GPa)
#
#
# Indices 1 2 3 4 5 6 
#
# 1 83.9690 36.5832 29.0660 6.4313 0.9421 16.0167
# 2 36.5832 103.6761 28.0554 0.9730 2.0483 13.2055
# 3 29.0660 28.0554 73.2666 19.5825 4.2505 17.3753
# 4 6.4313 0.9730 19.5825 30.9620 -3.2293 3.9032
# 5 0.9421 2.0483 4.2505 -3.2293 31.7607 11.0851
# 6 16.0167 13.2055 17.3753 3.9032 11.0851 40.3621
#
#
#
# Elastic Compliance Matrix: (Units=1/GPa)
#
#
# Indices 1 2 3 4 5 6 
#
# 1 0.015706 -0.004054 -0.003889 -0.000047 0.001590 -0.003664
# 2 -0.004054 0.012164 -0.003564 0.002932 0.000555 -0.001273
# 3 -0.003889 -0.003564 0.020966 -0.011979 -0.002078 -0.004588
# 4 -0.000047 0.002932 -0.011979 0.040591 0.006018 -0.001362
# 5 0.001590 0.000555 -0.002078 0.006018 0.035909 -0.010362
# 6 -0.003664 -0.001273 -0.004588 -0.001362 -0.010362 0.031599
#
#
# Mechanical properties :
#
#
# Convention : Reuss Voigt Hill
#
# Bulk Modulus (GPa) = 38.72462 49.81341 44.26901
# Shear Modulus (GPa) = 26.51723 31.76411 29.14067
#
# Velocity S-wave (km/s) = 3.52289 3.85571 3.69305
# Velocity P-wave (km/s) = 5.88828 6.56780 6.23730
#
# Compressibility (1/GPa) = 0.02582337
#
# Stress axis : x y z
#
# Youngs Moduli (GPa) = 63.66860 82.21073 47.69522
#
# Poissons Ratio (x) = 0.33328 0.18550
# Poissons Ratio (y) = 0.25811 0.16996
# Poissons Ratio (z) = 0.24762 0.29296
#
# Static dielectric constant tensor:
#      x y z
#    x 1.839380 -0.069260 -0.040670 
#    y -0.069260 1.824350 -0.058550 
#    z -0.040670 -0.058550 1.868410 
# 
# From -- ./inp_files/532580.got.cif
#   From: 2010.05.17/outbox.ucp.g08.bks.cvg/sg2_267_cif.got.tgz:532580.got - 2010.06.11 11:32:03.
