data_PCOD9075237
_publ_section_title
;
Structure prediction by ZEFSAII (Michael W. Deem and Ramdas Pophale) SiO2 
 PCOD9075237
Probable space group: P -1
;
_chemical_formula_sum "Si O2"
_cell_formula_units_Z 16
_cell_length_a 12.000000
_cell_length_b 21.000000
_cell_length_c 18.000000
_cell_angle_alpha 160.000000
_cell_angle_beta 40.000000
_cell_angle_gamma 150.000000
_cell_volume 744.844803
_symmetry_space_group_name_H-M "P -1"
_symmetry_group_IT_number 2
_symmetry_cell_setting 'triclinic'
loop_
_space_group_symop_operation_xyz
x,y,z
-x,-y,-z
loop_
_atom_site_type_symbol
_atom_site_label
_atom_site_fract_x
_atom_site_fract_y
_atom_site_fract_z
Si Si1 0.672871 0.085085 0.188895
Si Si2 0.887265 0.608058 0.592795
Si Si3 0.343841 0.407433 0.900623
Si Si4 0.278338 0.797531 0.339157
Si Si5 0.272866 0.249130 0.301432
Si Si6 0.545059 0.532371 0.263871
Si Si7 0.078339 0.141366 0.436283
Si Si8 0.720992 0.247114 0.872140
O O1 0.777356 0.321537 0.341230
O O2 0.857195 0.209172 0.299989
O O3 0.411646 0.942791 0.198497
O O4 0.671069 0.888916 0.930086
O O5 0.856754 0.690970 0.619832
O O6 0.712795 0.595463 0.722081
O O7 0.428582 0.409580 0.775276
O O8 0.500000 0.500000 0.000000
O O9 0.258019 0.560573 0.101445
O O10 0.127555 0.121965 0.712420
O O11 0.343523 0.895232 0.328116
O O12 0.033772 0.738150 0.401883
O O13 0.500000 0.000000 0.500000
O O14 0.500000 0.500000 0.500000
O O15 0.137413 0.092168 0.272704
O O16 0.721261 0.717696 0.446633
O O17 0.587181 0.344604 0.042687
O O18 0.000000 0.500000 0.000000
#
# Coordination Sequence:
#
# PCOD9075237 Si02
#       8
#     2   2   2   2   2   2   2   2
#     4  11  27  46  75 108 143 196 250 298 367 438
#     4  11  26  47  73 110 141 201 244 301 363 437
#     4  11  26  42  70 107 142 191 240 301 362 428
#     4  11  25  42  67 102 141 187 233 298 359 424
#     4  12  26  49  71 101 149 187 244 300 361 432
#     4  11  24  47  71 103 148 186 245 294 367 429
#     4  12  25  46  70 102 145 192 237 300 365 428
#     4  11  23  44  73 104 142 186 240 299 361 429
#
# _framework density 21.480985
#
# number of rings (size 3 to 8) (size 9 to 14) (size 15 to 20)
#    0.000    0.750    5.000    0.750    5.250    3.500 
#    0.000    0.000    0.000    0.000    0.000    0.000 
#    0.000    0.000    0.000    0.000    0.000    0.000 
#
# Total GULP energy -89134.494367 kJ/mol
# GULP energy per Si atom -5570.905898 kJ/mol
# Density = 2.143209 g / cm^3
# Si number density = 21.480985 Si / 1000 Ang^3
#
#
#
# Elastic Constant Matrix: (Units=GPa)
#
#
# Indices 1 2 3 4 5 6 
#
# 1 117.4515 24.7284 21.1335 -3.6568 14.5461 -15.2939
# 2 24.7284 106.0446 16.2698 -1.8506 10.7012 -15.5580
# 3 21.1335 16.2698 80.3384 -1.9954 0.9886 -5.7389
# 4 -3.6568 -1.8506 -1.9954 32.1856 -2.1799 3.8925
# 5 14.5461 10.7012 0.9886 -2.1799 48.5584 -5.7698
# 6 -15.2939 -15.5580 -5.7389 3.8925 -5.7698 51.8798
#
#
#
# Elastic Compliance Matrix: (Units=1/GPa)
#
#
# Indices 1 2 3 4 5 6 
#
# 1 0.009743 -0.001427 -0.002096 0.000507 -0.002311 0.001917
# 2 -0.001427 0.010511 -0.001565 -0.000050 -0.001576 0.002387
# 3 -0.002096 -0.001565 0.013350 0.000499 0.000775 0.000438
# 4 0.000507 -0.000050 0.000499 0.031473 0.001017 -0.002059
# 5 -0.002311 -0.001576 0.000775 0.001017 0.021815 0.001282
# 6 0.001917 0.002387 0.000438 -0.002059 0.001282 0.020902
#
#
# Mechanical properties :
#
#
# Convention : Reuss Voigt Hill
#
# Bulk Modulus (GPa) = 42.68257 47.56640 45.12448
# Shear Modulus (GPa) = 39.75189 42.63829 41.19509
#
# Velocity S-wave (km/s) = 4.30648 4.46009 4.38396
# Velocity P-wave (km/s) = 6.68138 6.97960 6.83211
#
# Compressibility (1/GPa) = 0.02342877
#
# Stress axis : x y z
#
# Youngs Moduli (GPa) = 102.63323 95.13710 74.90769
#
# Poissons Ratio (x) = 0.13577 0.15701
# Poissons Ratio (y) = 0.14647 0.11720
# Poissons Ratio (z) = 0.21513 0.14885
#
# Static dielectric constant tensor:
#      x y z
#    x 1.779320 -0.030570 -0.007160 
#    y -0.030570 1.953570 -0.013980 
#    z -0.007160 -0.013980 1.898730 
# 
# From -- ./inp_files/476362.got.cif
#   From: 2010.05.17/outbox.ucp.g08.bks.cvg/sg2_239_cif.got.tgz:476362.got - 2010.06.11 11:32:03.
