data_PCOD9075937
_publ_section_title
;
Structure prediction by ZEFSAII (Michael W. Deem and Ramdas Pophale) SiO2 
 PCOD9075937
Probable space group: P -1
;
_chemical_formula_sum "Si O2"
_cell_formula_units_Z 16
_cell_length_a 20.291928
_cell_length_b 17.267562
_cell_length_c 8.156729
_cell_angle_alpha 138.199270
_cell_angle_beta 28.742779
_cell_angle_gamma 148.893763
_cell_volume 709.880647
_symmetry_space_group_name_H-M "P -1"
_symmetry_group_IT_number 2
_symmetry_cell_setting 'triclinic'
loop_
_space_group_symop_operation_xyz
x,y,z
-x,-y,-z
loop_
_atom_site_type_symbol
_atom_site_label
_atom_site_fract_x
_atom_site_fract_y
_atom_site_fract_z
Si Si1 0.081522 0.856847 0.648573
Si Si2 0.256668 0.198439 0.293642
Si Si3 0.166779 0.652729 0.036388
Si Si4 0.809550 0.314565 0.313219
Si Si5 0.432452 0.504188 0.476491
Si Si6 0.791893 0.414865 0.834709
Si Si7 0.875526 0.105602 0.002256
Si Si8 0.736683 0.826669 0.366813
O O1 0.079578 0.733061 0.367271
O O2 0.230921 0.024782 0.524151
O O3 0.106973 0.850858 0.777165
O O4 0.902388 0.832779 0.972348
O O5 0.400761 0.376445 0.230625
O O6 0.270533 0.180397 0.430432
O O7 0.065944 0.156811 0.610990
O O8 0.255483 0.074701 0.012079
O O9 0.272675 0.690761 0.033461
O O10 0.010738 0.472252 0.099619
O O11 0.269712 0.705357 0.724303
O O12 0.719169 0.336746 0.693991
O O13 0.819708 0.186695 0.145498
O O14 0.500000 0.500000 0.500000
O O15 0.571930 0.677839 0.402619
O O16 0.249970 0.474255 0.862333
O O17 0.000000 0.500000 0.500000
#
# Coordination Sequence:
#
# PCOD9075937 Si02
#       8
#     2   2   2   2   2   2   2   2
#     4  10  19  35  59  88 122 164 206 252 308 365
#     4   9  18  32  56  83 116 160 198 254 299 363
#     4  10  20  33  58  91 120 153 206 254 300 362
#     4  10  20  32  56  93 117 156 201 260 296 358
#     4  10  21  37  64  90 122 164 203 253 318 361
#     4  10  20  36  63  90 122 159 203 251 302 371
#     4  10  18  32  57  86 120 153 209 247 300 358
#     4   9  20  35  57  87 120 161 206 252 307 368
#
# _framework density 22.539000999999999
#
# number of rings (size 3 to 8) (size 9 to 14) (size 15 to 20)
#    0.000    2.250    1.250    2.250    8.750    1.000 
#    0.000    1.250    5.500    3.750    0.000    0.000 
#    0.000    0.000    0.000    0.000    0.000    0.000 
#
# Total GULP energy -89290.732615 kJ/mol
# GULP energy per Si atom -5580.670788 kJ/mol
# Density = 2.248770 g / cm^3
# Si number density = 22.539001 Si / 1000 Ang^3
#
#
#
# Elastic Constant Matrix: (Units=GPa)
#
#
# Indices 1 2 3 4 5 6 
#
# 1 86.1756 14.4036 26.5729 3.9572 16.4158 -19.7895
# 2 14.4036 112.8306 35.9277 23.6432 -12.1635 6.1087
# 3 26.5729 35.9277 39.1522 23.1319 -0.6228 -1.9063
# 4 3.9572 23.6432 23.1319 32.8475 1.4635 -2.5551
# 5 16.4158 -12.1635 -0.6228 1.4635 29.1237 8.1321
# 6 -19.7895 6.1087 -1.9063 -2.5551 8.1321 28.5059
#
#
#
# Elastic Compliance Matrix: (Units=1/GPa)
#
#
# Indices 1 2 3 4 5 6 
#
# 1 0.039374 -0.005416 -0.038954 0.031349 -0.037896 0.039511
# 2 -0.005416 0.015088 -0.006212 -0.007319 0.012866 -0.011735
# 3 -0.038954 -0.006212 0.091803 -0.059693 0.033992 -0.034620
# 4 0.031349 -0.007319 -0.059693 0.078439 -0.036192 0.036696
# 5 -0.037896 0.012866 0.033992 -0.036192 0.078235 -0.052355
# 6 0.039511 -0.011735 -0.034620 0.036696 -0.052355 0.080934
#
#
# Mechanical properties :
#
#
# Convention : Reuss Voigt Hill
#
# Bulk Modulus (GPa) = 22.17257 43.55186 32.86221
# Shear Modulus (GPa) = 9.99854 28.84571 19.42212
#
# Velocity S-wave (km/s) = 2.10849 3.58133 2.93868
# Velocity P-wave (km/s) = 3.97321 6.03871 5.11138
#
# Compressibility (1/GPa) = 0.04510078
#
# Stress axis : x y z
#
# Youngs Moduli (GPa) = 25.39747 66.27589 10.89288
#
# Poissons Ratio (x) = 0.35896 0.42432
# Poissons Ratio (y) = 0.13756 0.06767
# Poissons Ratio (z) = 0.98934 0.41171
#
# Static dielectric constant tensor:
#      x y z
#    x 1.893640 0.025410 0.027980 
#    y 0.025410 1.894790 -0.022710 
#    z 0.027980 -0.022710 1.839360 
# 
# From -- ./inp_files/268856.got.cif
#   From: 2010.05.17/outbox.cif.g08.bks.cpg/sg2_135_cif.got.tgz:268856.got - 2010.06.03 11:33:40.
