data_PCOD9075242
_publ_section_title
;
Structure prediction by ZEFSAII (Michael W. Deem and Ramdas Pophale) SiO2 
 PCOD9075242
Probable space group: P -1
;
_chemical_formula_sum "Si O2"
_cell_formula_units_Z 14
_cell_length_a 6.000000
_cell_length_b 12.000000
_cell_length_c 12.000000
_cell_angle_alpha 50.000000
_cell_angle_beta 110.000000
_cell_angle_gamma 100.000000
_cell_volume 620.665057
_symmetry_space_group_name_H-M "P -1"
_symmetry_group_IT_number 2
_symmetry_cell_setting 'triclinic'
loop_
_space_group_symop_operation_xyz
x,y,z
-x,-y,-z
loop_
_atom_site_type_symbol
_atom_site_label
_atom_site_fract_x
_atom_site_fract_y
_atom_site_fract_z
Si Si1 0.923067 0.742538 0.287008
Si Si2 0.961304 0.744867 0.039415
Si Si3 0.191849 0.844448 0.602460
Si Si4 0.388338 0.351503 0.110415
Si Si5 0.937149 0.006660 0.280456
Si Si6 0.370216 0.534297 0.571826
Si Si7 0.163332 0.409108 0.255044
O O1 0.847054 0.874039 0.274574
O O2 0.150809 0.651887 0.438119
O O3 0.734020 0.619566 0.313444
O O4 0.984089 0.795479 0.138358
O O5 0.692337 0.729877 0.961107
O O6 0.055235 0.857451 0.891167
O O7 0.062109 0.574684 0.159063
O O8 0.431277 0.750068 0.723412
O O9 0.179850 0.936458 0.426466
O O10 0.989398 0.723176 0.642256
O O11 0.174360 0.940177 0.653072
O O12 0.177046 0.386176 0.139443
O O13 0.500000 0.500000 0.000000
O O14 0.500000 0.500000 0.500000
O O15 0.571458 0.591490 0.649138
#
# Coordination Sequence:
#
# PCOD9075242 Si02
#       7
#     2   2   2   2   2   2   2
#     4  11  25  46  69 103 142 178 227 282 342 415
#     4  12  24  44  69 104 143 177 228 280 348 409
#     4  11  25  47  71 100 139 179 237 281 337 408
#     4  12  23  41  71 103 133 180 228 288 339 393
#     4  11  25  47  68  98 146 182 220 287 343 411
#     4  11  23  44  74 102 130 180 237 281 334 399
#     4  12  23  44  74 102 132 178 236 288 330 403
#
# _framework density 22.556449000000001
#
# number of rings (size 3 to 8) (size 9 to 14) (size 15 to 20)
#    0.000    0.571    4.286    4.286    2.000    0.571 
#    7.714    1.429    0.000    0.000    0.000    0.000 
#    0.000    0.000    0.000    0.000    0.000    0.000 
#
# Total GULP energy -78184.669998 kJ/mol
# GULP energy per Si atom -5584.619286 kJ/mol
# Density = 2.250511 g / cm^3
# Si number density = 22.556449 Si / 1000 Ang^3
#
#
#
# Elastic Constant Matrix: (Units=GPa)
#
#
# Indices 1 2 3 4 5 6 
#
# 1 38.4004 19.8892 11.0432 1.7545 6.3856 5.0668
# 2 19.8892 151.6430 31.2280 13.3927 2.7353 -9.2418
# 3 11.0432 31.2280 111.9377 12.7757 -5.5428 -5.0752
# 4 1.7545 13.3927 12.7757 44.8952 0.5186 -1.3129
# 5 6.3856 2.7353 -5.5428 0.5186 42.4013 9.9943
# 6 5.0668 -9.2418 -5.0752 -1.3129 9.9943 35.6562
#
#
#
# Elastic Compliance Matrix: (Units=1/GPa)
#
#
# Indices 1 2 3 4 5 6 
#
# 1 0.029777 -0.003680 -0.002347 0.000510 -0.003494 -0.004521
# 2 -0.003680 0.007696 -0.001521 -0.001640 -0.000695 0.002436
# 3 -0.002347 -0.001521 0.009966 -0.002285 0.001587 0.000829
# 4 0.000510 -0.001640 -0.002285 0.023407 -0.000605 0.000209
# 5 -0.003494 -0.000695 0.001587 -0.000605 0.025963 -0.006757
# 6 -0.004521 0.002436 0.000829 0.000209 -0.006757 0.031339
#
#
# Mechanical properties :
#
#
# Convention : Reuss Voigt Hill
#
# Bulk Modulus (GPa) = 30.91815 47.36687 39.14251
# Shear Modulus (GPa) = 32.46246 40.57860 36.52053
#
# Velocity S-wave (km/s) = 3.79775 4.24604 4.02814
# Velocity P-wave (km/s) = 5.74172 6.71441 6.24702
#
# Compressibility (1/GPa) = 0.03234347
#
# Stress axis : x y z
#
# Youngs Moduli (GPa) = 33.58349 129.93702 100.33794
#
# Poissons Ratio (x) = 0.47811 0.23552
# Poissons Ratio (y) = 0.12357 0.15260
# Poissons Ratio (z) = 0.07883 0.19761
#
# Static dielectric constant tensor:
#      x y z
#    x 1.952090 -0.016250 0.068090 
#    y -0.016250 1.869000 -0.031240 
#    z 0.068090 -0.031240 1.898090 
# 
# From -- ./inp_files/68378.got.cif
#   From: 2010.05.17/outbox.ucp.g08.bks.cvg/sg2_35_cif.got.tgz:68378.got - 2010.06.11 11:32:03.
