data_PCOD9075312
_publ_section_title
;
Structure prediction by ZEFSAII (Michael W. Deem and Ramdas Pophale) SiO2 
 PCOD9075312
Probable space group: P -1
;
_chemical_formula_sum "Si O2"
_cell_formula_units_Z 16
_cell_length_a 12.000000
_cell_length_b 15.000000
_cell_length_c 9.000000
_cell_angle_alpha 40.000000
_cell_angle_beta 50.000000
_cell_angle_gamma 50.000000
_cell_volume 759.581896
_symmetry_space_group_name_H-M "P -1"
_symmetry_group_IT_number 2
_symmetry_cell_setting 'triclinic'
loop_
_space_group_symop_operation_xyz
x,y,z
-x,-y,-z
loop_
_atom_site_type_symbol
_atom_site_label
_atom_site_fract_x
_atom_site_fract_y
_atom_site_fract_z
Si Si1 0.739068 0.288751 0.564872
Si Si2 0.489075 0.675548 0.759986
Si Si3 0.510932 0.856219 0.078486
Si Si4 0.385896 0.007797 0.452530
Si Si5 0.038681 0.120258 0.708430
Si Si6 0.313365 0.445914 0.535766
Si Si7 0.024150 0.432764 0.403216
Si Si8 0.691505 0.480186 0.056653
O O1 0.652065 0.169271 0.771313
O O2 0.657388 0.411627 0.600225
O O3 0.714704 0.389961 0.306920
O O4 0.907726 0.196510 0.599836
O O5 0.620663 0.590725 0.639345
O O6 0.340531 0.631954 0.893471
O O7 0.447143 0.844222 0.548443
O O8 0.553453 0.623308 0.935554
O O9 0.610629 0.703278 0.254924
O O10 0.587202 0.879302 0.830978
O O11 0.500000 0.000000 0.000000
O O12 0.207886 0.047107 0.592915
O O13 0.500000 0.000000 0.500000
O O14 0.048528 0.261158 0.611357
O O15 0.000000 0.000000 0.000000
O O16 0.132349 0.489444 0.645853
O O17 0.000000 0.500000 0.500000
O O18 0.161521 0.469474 0.158553
#
# Coordination Sequence:
#
# PCOD9075312 Si02
#       8
#     2   2   2   2   2   2   2   2
#     4  11  26  45  73 106 139 187 229 300 352 411
#     4  11  24  44  68 106 136 188 232 292 347 425
#     4  12  25  47  70 105 143 181 236 286 355 422
#     4  12  27  45  72 101 142 186 238 284 359 422
#     4  11  28  48  71 104 143 185 237 292 358 421
#     4  11  24  43  69 103 140 179 236 286 353 413
#     4  11  25  43  71  99 136 189 232 288 347 416
#     4  11  24  42  71 102 141 176 244 282 356 410
#
# _framework density 21.064219999999999
#
# number of rings (size 3 to 8) (size 9 to 14) (size 15 to 20)
#    0.000    0.750    3.750    1.875    7.000    4.000 
#    0.000    1.250    0.000    0.000    0.000    0.000 
#    0.000    0.000    0.000    0.000    0.000    0.000 
#
# Total GULP energy -89255.376943 kJ/mol
# GULP energy per Si atom -5578.461059 kJ/mol
# Density = 2.101628 g / cm^3
# Si number density = 21.064220 Si / 1000 Ang^3
#
#
#
# Elastic Constant Matrix: (Units=GPa)
#
#
# Indices 1 2 3 4 5 6 
#
# 1 117.5055 54.8496 75.0088 4.5739 -5.0821 -13.4134
# 2 54.8496 100.3205 42.7600 -1.9537 -12.6453 -4.7709
# 3 75.0088 42.7600 167.7338 14.5760 -3.2142 -11.7445
# 4 4.5739 -1.9537 14.5760 26.0267 8.0672 -2.9805
# 5 -5.0821 -12.6453 -3.2142 8.0672 43.8185 -12.0048
# 6 -13.4134 -4.7709 -11.7445 -2.9805 -12.0048 33.5483
#
#
#
# Elastic Compliance Matrix: (Units=1/GPa)
#
#
# Indices 1 2 3 4 5 6 
#
# 1 0.014727 -0.005725 -0.004850 -0.000108 0.000712 0.003621
# 2 -0.005725 0.014010 -0.001060 0.001746 0.003148 0.000614
# 3 -0.004850 -0.001060 0.008859 -0.004341 0.000834 0.000924
# 4 -0.000108 0.001746 -0.004341 0.043419 -0.007899 -0.000284
# 5 0.000712 0.003148 0.000834 -0.007899 0.028179 0.010406
# 6 0.003621 0.000614 0.000924 -0.000284 0.010406 0.035365
#
#
# Mechanical properties :
#
#
# Convention : Reuss Voigt Hill
#
# Bulk Modulus (GPa) = 69.79978 81.19963 75.49970
# Shear Modulus (GPa) = 28.96846 34.87479 31.92163
#
# Velocity S-wave (km/s) = 3.71245 4.07337 3.89709
# Velocity P-wave (km/s) = 7.18227 7.79458 7.49468
#
# Compressibility (1/GPa) = 0.01432669
#
# Stress axis : x y z
#
# Youngs Moduli (GPa) = 67.90473 71.37892 112.88423
#
# Poissons Ratio (x) = 0.40862 0.54744
# Poissons Ratio (y) = 0.38873 0.11964
# Poissons Ratio (z) = 0.32931 0.07565
#
# Static dielectric constant tensor:
#      x y z
#    x 1.948990 0.074720 -0.148080 
#    y 0.074720 1.810600 -0.066510 
#    z -0.148080 -0.066510 1.995540 
# 
# From -- ./inp_files/271457.got.cif
#   From: 2010.05.17/outbox.ucp.g08.bks.cvg/sg2_136_cif.got.tgz:271457.got - 2010.06.11 11:32:03.
