data_PCOD9075698
_publ_section_title
;
Structure prediction by ZEFSAII (Michael W. Deem and Ramdas Pophale) SiO2 
 PCOD9075698
Probable space group: P -1
;
_chemical_formula_sum "Si O2"
_cell_formula_units_Z 14
_cell_length_a 9.672847
_cell_length_b 12.291520
_cell_length_c 11.403044
_cell_angle_alpha 38.373977
_cell_angle_beta 55.755690
_cell_angle_gamma 41.633712
_cell_volume 558.270102
_symmetry_space_group_name_H-M "P -1"
_symmetry_group_IT_number 2
_symmetry_cell_setting 'triclinic'
loop_
_space_group_symop_operation_xyz
x,y,z
-x,-y,-z
loop_
_atom_site_type_symbol
_atom_site_label
_atom_site_fract_x
_atom_site_fract_y
_atom_site_fract_z
Si Si1 0.248065 0.285952 0.107079
Si Si2 0.393999 0.087856 0.603682
Si Si3 0.541678 0.385346 0.322536
Si Si4 0.811702 0.051090 0.652155
Si Si5 0.433941 0.801420 0.135621
Si Si6 0.935527 0.841879 0.138804
Si Si7 0.842994 0.322167 0.052336
O O1 0.167358 0.140351 0.269431
O O2 0.461931 0.139595 0.202532
O O3 0.336668 0.282842 0.940503
O O4 0.116957 0.519753 0.032021
O O5 0.436787 0.261659 0.473563
O O6 0.157498 0.188776 0.672789
O O7 0.500000 0.000000 0.500000
O O8 0.409580 0.621513 0.245828
O O9 0.624038 0.393490 0.149035
O O10 0.750920 0.235088 0.431606
O O11 0.997495 0.927168 0.763149
O O12 0.607587 0.171188 0.730619
O O13 0.261063 0.033342 0.962533
O O14 0.121079 0.662419 0.115059
O O15 0.000000 0.000000 0.000000
#
# Coordination Sequence:
#
# PCOD9075698 Si02
#       7
#     2   2   2   2   2   2   2
#     4   9  19  34  54  78 108 144 178 212 262 319
#     4  10  21  38  57  78 104 139 178 220 265 314
#     4  10  20  35  54  80 110 141 175 216 263 313
#     4  10  18  32  54  82 109 140 177 220 257 302
#     4   9  19  34  54  78 108 144 178 212 262 319
#     4  10  21  38  57  78 104 139 178 220 265 314
#     4  10  20  35  54  80 110 141 175 216 263 313
#
# _framework density 25.077466000000001
#
# number of rings (size 3 to 8) (size 9 to 14) (size 15 to 20)
#    0.000    2.286    0.000    2.571    0.000    2.286 
#    0.000   14.286    0.000    0.000    0.000    0.000 
#    0.000    0.000    0.000    0.000    0.000    0.000 
#
# Total GULP energy -78076.985614 kJ/mol
# GULP energy per Si atom -5576.927544 kJ/mol
# Density = 2.502039 g / cm^3
# Si number density = 25.077466 Si / 1000 Ang^3
#
#
#
# Elastic Constant Matrix: (Units=GPa)
#
#
# Indices 1 2 3 4 5 6 
#
# 1 37.5451 23.1672 18.8372 10.7994 -15.0775 -3.6604
# 2 23.1672 135.3399 52.9756 29.2137 -10.0584 12.8850
# 3 18.8372 52.9756 94.0599 26.3314 -9.7702 -3.0980
# 4 10.7994 29.2137 26.3314 64.4908 -3.0671 1.4844
# 5 -15.0775 -10.0584 -9.7702 -3.0671 45.0723 -2.9303
# 6 -3.6604 12.8850 -3.0980 1.4844 -2.9303 28.5001
#
#
#
# Elastic Compliance Matrix: (Units=1/GPa)
#
#
# Indices 1 2 3 4 5 6 
#
# 1 0.036743 -0.004617 -0.002615 -0.002649 0.011020 0.007793
# 2 -0.004617 0.011136 -0.005031 -0.002109 -0.000692 -0.006136
# 3 -0.002615 -0.005031 0.015245 -0.003535 0.001321 0.003916
# 4 -0.002649 -0.002109 -0.003535 0.018323 -0.000929 -0.000821
# 5 0.011020 -0.000692 0.001321 -0.000929 0.026242 0.004619
# 6 0.007793 -0.006136 0.003916 -0.000821 0.004619 0.039806
#
#
# Mechanical properties :
#
#
# Convention : Reuss Voigt Hill
#
# Bulk Modulus (GPa) = 25.90856 50.76723 38.33789
# Shear Modulus (GPa) = 27.04349 39.07697 33.06023
#
# Velocity S-wave (km/s) = 3.28746 3.95175 3.63481
# Velocity P-wave (km/s) = 4.97631 6.41170 5.73906
#
# Compressibility (1/GPa) = 0.03859728
#
# Stress axis : x y z
#
# Youngs Moduli (GPa) = 27.21601 89.79522 65.59737
#
# Poissons Ratio (x) = 0.41460 0.17154
# Poissons Ratio (y) = 0.12566 0.33003
# Poissons Ratio (z) = 0.07117 0.45177
#
# Static dielectric constant tensor:
#      x y z
#    x 2.121180 -0.116510 0.013700 
#    y -0.116510 2.102390 0.073340 
#    z 0.013700 0.073340 2.025020 
# 
# From -- ./inp_files/162293.got.cif
#   From: 2010.05.17/outbox.cif.g08.bks.cpg/sg2_82_cif.got.tgz:162293.got - 2010.06.03 11:33:40.
