data_PCOD9075964
_publ_section_title
;
Structure prediction by ZEFSAII (Michael W. Deem and Ramdas Pophale) SiO2 
 PCOD9075964
Probable space group: P -1
;
_chemical_formula_sum "Si O2"
_cell_formula_units_Z 14
_cell_length_a 9.587220
_cell_length_b 7.110912
_cell_length_c 9.231075
_cell_angle_alpha 57.245132
_cell_angle_beta 108.847249
_cell_angle_gamma 89.272619
_cell_volume 486.781410
_symmetry_space_group_name_H-M "P -1"
_symmetry_group_IT_number 2
_symmetry_cell_setting 'triclinic'
loop_
_space_group_symop_operation_xyz
x,y,z
-x,-y,-z
loop_
_atom_site_type_symbol
_atom_site_label
_atom_site_fract_x
_atom_site_fract_y
_atom_site_fract_z
Si Si1 0.824952 0.899038 0.683422
Si Si2 0.645795 0.654672 0.350410
Si Si3 0.305459 0.788663 0.238129
Si Si4 0.405887 0.712800 0.731410
Si Si5 0.982667 0.497837 0.236590
Si Si6 0.719632 0.435233 0.967387
Si Si7 0.942845 0.821992 0.335354
O O1 0.777350 0.994635 0.786913
O O2 0.697579 0.063249 0.472314
O O3 0.991445 0.959184 0.700416
O O4 0.586500 0.661093 0.786204
O O5 0.479922 0.804059 0.269748
O O6 0.684228 0.443779 0.566267
O O7 0.632261 0.513434 0.259754
O O8 0.773107 0.796131 0.316004
O O9 0.242962 0.740863 0.080830
O O10 0.363340 0.697904 0.889107
O O11 0.968164 0.348348 0.437852
O O12 0.849095 0.509957 0.072967
O O13 0.985844 0.732278 0.223812
O O14 0.131618 0.357483 0.259079
#
# Coordination Sequence:
#
# PCOD9075964 Si02
#       7
#     2   2   2   2   2   2   2
#     4  11  22  39  64  92 116 158 203 240 293 363
#     4   9  17  36  58  84 115 160 202 237 283 361
#     4   9  19  33  58  87 120 156 196 236 300 358
#     4   9  17  32  58  85 115 153 204 236 284 349
#     4  11  21  36  63  89 120 154 202 245 297 347
#     4  10  18  32  57  90 120 155 193 246 297 348
#     4  11  21  38  63  91 115 158 204 252 280 356
#
# _framework density 28.760342000000001
#
# number of rings (size 3 to 8) (size 9 to 14) (size 15 to 20)
#    0.000    2.000    2.857    3.857    0.000    0.571 
#    0.000    3.571    0.000   13.714    0.000    0.000 
#    0.000    0.000    0.000    0.000    0.000    0.000 
#
# Total GULP energy -78507.103535 kJ/mol
# GULP energy per Si atom -5607.650252 kJ/mol
# Density = 2.869488 g / cm^3
# Si number density = 28.760342 Si / 1000 Ang^3
#
#
#
# Elastic Constant Matrix: (Units=GPa)
#
#
# Indices 1 2 3 4 5 6 
#
# 1 195.2757 78.7814 56.0722 23.6202 9.2560 -1.6039
# 2 78.7814 153.1407 50.6713 32.2447 1.5243 -12.2559
# 3 56.0722 50.6713 182.7530 51.5295 -1.6678 -23.7776
# 4 23.6202 32.2447 51.5295 51.5361 -6.6314 -3.5954
# 5 9.2560 1.5243 -1.6678 -6.6314 63.5475 16.2527
# 6 -1.6039 -12.2559 -23.7776 -3.5954 16.2527 40.5199
#
#
#
# Elastic Compliance Matrix: (Units=1/GPa)
#
#
# Indices 1 2 3 4 5 6 
#
# 1 0.006803 -0.003147 -0.001410 0.000093 -0.000623 -0.001252
# 2 -0.003147 0.009281 -0.000092 -0.004204 -0.000872 0.002606
# 3 -0.001410 -0.000092 0.008824 -0.007984 -0.001689 0.005064
# 4 0.000093 -0.004204 -0.007984 0.030180 0.004307 -0.005002
# 5 -0.000623 -0.000872 -0.001689 0.004307 0.018367 -0.008264
# 6 -0.001252 0.002606 0.005064 -0.005002 -0.008264 0.031260
#
#
# Mechanical properties :
#
#
# Convention : Reuss Voigt Hill
#
# Bulk Modulus (GPa) = 64.04924 100.24658 82.14791
# Shear Modulus (GPa) = 41.94060 54.16368 48.05214
#
# Velocity S-wave (km/s) = 3.82288 4.34438 4.09195
# Velocity P-wave (km/s) = 6.46562 7.75219 7.13795
#
# Compressibility (1/GPa) = 0.01561299
#
# Stress axis : x y z
#
# Youngs Moduli (GPa) = 146.98675 107.74123 113.32295
#
# Poissons Ratio (x) = 0.33906 0.15973
# Poissons Ratio (y) = 0.46257 0.01037
# Poissons Ratio (z) = 0.20718 0.00986
#
# Static dielectric constant tensor:
#      x y z
#    x 2.354720 0.021760 -0.053900 
#    y 0.021760 2.158970 -0.077600 
#    z -0.053900 -0.077600 2.274710 
# 
# From -- ./inp_files/176482.got.cif
#   From: 2010.05.17/outbox.cif.g08.bks.cpg/sg2_89_cif.got.tgz:176482.got - 2010.06.03 11:33:40.
