data_PCOD9075233
_publ_section_title
;
Structure prediction by ZEFSAII (Michael W. Deem and Ramdas Pophale) SiO2 
 PCOD9075233
Probable space group: P -1
;
_chemical_formula_sum "Si O2"
_cell_formula_units_Z 12
_cell_length_a 9.000000
_cell_length_b 6.000000
_cell_length_c 18.000000
_cell_angle_alpha 120.000000
_cell_angle_beta 40.000000
_cell_angle_gamma 100.000000
_cell_volume 501.352703
_symmetry_space_group_name_H-M "P -1"
_symmetry_group_IT_number 2
_symmetry_cell_setting 'triclinic'
loop_
_space_group_symop_operation_xyz
x,y,z
-x,-y,-z
loop_
_atom_site_type_symbol
_atom_site_label
_atom_site_fract_x
_atom_site_fract_y
_atom_site_fract_z
Si Si1 0.067450 0.907207 0.356624
Si Si2 0.586879 0.189837 0.649690
Si Si3 0.271438 0.777363 0.843845
Si Si4 0.493637 0.921411 0.104519
Si Si5 0.322581 0.767868 0.654383
Si Si6 0.145270 0.323109 0.197197
O O1 0.230068 0.917219 0.367807
O O2 0.263508 0.845969 0.204301
O O3 0.003529 0.631500 0.333167
O O4 0.803018 0.165851 0.501264
O O5 0.384258 0.491218 0.797219
O O6 0.432934 0.006707 0.652157
O O7 0.306991 0.681806 0.730615
O O8 0.434198 0.955614 0.829708
O O9 0.000000 0.000000 0.000000
O O10 0.383108 0.180588 0.134370
O O11 0.735820 0.707467 0.935617
O O12 0.500000 0.500000 0.500000
O O13 0.037368 0.843262 0.752458
#
# Coordination Sequence:
#
# PCOD9075233 Si02
#       6
#     2   2   2   2   2   2
#     4  11  23  44  72 104 138 185 232 288 350 420
#     4  11  26  43  73 104 139 185 238 282 355 423
#     4  12  26  48  70 103 145 190 233 287 357 418
#     4  11  24  44  71 101 139 190 230 285 350 421
#     4  12  26  46  71 104 144 181 234 298 349 413
#     4  11  24  45  69 104 142 180 236 289 343 418
#
# _framework density 23.935244999999998
#
# number of rings (size 3 to 8) (size 9 to 14) (size 15 to 20)
#    0.000    0.667    6.667    0.500    2.333    3.333 
#    6.000    0.000    0.000    0.000    0.000    0.000 
#    0.000    0.000    0.000    0.000    0.000    0.000 
#
# Total GULP energy -66839.768273 kJ/mol
# GULP energy per Si atom -5569.980689 kJ/mol
# Density = 2.388077 g / cm^3
# Si number density = 23.935245 Si / 1000 Ang^3
#
#
#
# Elastic Constant Matrix: (Units=GPa)
#
#
# Indices 1 2 3 4 5 6 
#
# 1 96.9778 33.9239 46.9462 1.0389 -5.5447 26.0412
# 2 33.9239 58.9581 50.0588 0.8193 -17.2983 38.5309
# 3 46.9462 50.0588 160.8536 -0.6858 -11.3146 4.7938
# 4 1.0389 0.8193 -0.6858 35.1343 -0.0875 -3.5378
# 5 -5.5447 -17.2983 -11.3146 -0.0875 36.3310 0.1831
# 6 26.0412 38.5309 4.7938 -3.5378 0.1831 20.3382
#
#
#
# Elastic Compliance Matrix: (Units=1/GPa)
#
#
# Indices 1 2 3 4 5 6 
#
# 1 0.013012 -0.011397 -0.000662 0.000381 -0.003672 0.005186
# 2 -0.011397 -0.021001 0.007609 0.006367 -0.009624 0.053780
# 3 -0.000662 0.007609 0.004842 -0.001564 0.005102 -0.015027
# 4 0.000381 0.006367 -0.001564 0.027532 0.002706 -0.007416
# 5 -0.003672 -0.009624 0.005102 0.002706 0.023866 0.021989
# 6 0.005186 0.053780 -0.015027 -0.007416 0.021989 -0.057305
#
#
# Mechanical properties :
#
#
# Convention : Reuss Voigt Hill
#
# Bulk Modulus (GPa) = -83.01349 64.29414 -9.35968
# Shear Modulus (GPa) = -1199.49254 30.75141 -584.37056
#
# Velocity S-wave (km/s) = -22.41046 3.58826 -15.64214
# Velocity P-wave (km/s) = 26.54046 6.63985 18.17015
#
# Compressibility (1/GPa) = -0.01204623
#
# Stress axis : x y z
#
# Youngs Moduli (GPa) = 76.85063 -47.61730 206.52446
#
# Poissons Ratio (x) = -0.54270 0.13673
# Poissons Ratio (y) = 0.87588 -1.57151
# Poissons Ratio (z) = 0.05088 0.36234
#
# Static dielectric constant tensor:
#      x y z
#    x 1.771210 0.090940 0.051990 
#    y 0.090940 1.845910 -0.070840 
#    z 0.051990 -0.070840 1.955590 
# 
# From -- ./inp_files/22485.got.cif
#   From: 2010.05.17/outbox.ucp.g08.bks.cvg/sg2_12_cif.got.tgz:22485.got - 2010.06.11 11:32:03.
