data_PCOD9075688
_publ_section_title
;
Structure prediction by ZEFSAII (Michael W. Deem and Ramdas Pophale) SiO2 
 PCOD9075688
Probable space group: P -1
;
_chemical_formula_sum "Si O2"
_cell_formula_units_Z 16
_cell_length_a 11.252885
_cell_length_b 8.507053
_cell_length_c 13.005326
_cell_angle_alpha 54.787531
_cell_angle_beta 76.277586
_cell_angle_gamma 52.358829
_cell_volume 792.642485
_symmetry_space_group_name_H-M "P -1"
_symmetry_group_IT_number 2
_symmetry_cell_setting 'triclinic'
loop_
_space_group_symop_operation_xyz
x,y,z
-x,-y,-z
loop_
_atom_site_type_symbol
_atom_site_label
_atom_site_fract_x
_atom_site_fract_y
_atom_site_fract_z
Si Si1 0.751310 0.284440 0.495581
Si Si2 0.729618 0.026823 0.888002
Si Si3 0.951342 0.109357 0.140801
Si Si4 0.847535 0.597890 0.869812
Si Si5 0.698072 0.127825 0.077164
Si Si6 0.548992 0.513607 0.642869
Si Si7 0.965441 0.250040 0.305911
Si Si8 0.579357 0.646024 0.807535
O O1 0.676546 0.431543 0.560501
O O2 0.612430 0.333598 0.438181
O O3 0.843804 0.349228 0.383562
O O4 0.876074 0.003466 0.600127
O O5 0.785064 0.797462 0.895755
O O6 0.865911 0.059771 0.844433
O O7 0.586807 0.264781 0.774181
O O8 0.705966 0.994262 0.023269
O O9 0.857907 0.026096 0.138396
O O10 0.911310 0.184106 0.240198
O O11 0.902317 0.349053 0.001853
O O12 0.986811 0.580711 0.797375
O O13 0.709459 0.678472 0.791991
O O14 0.576208 0.167688 0.169233
O O15 0.637742 0.388582 0.942986
O O16 0.553859 0.641548 0.693852
#
# Coordination Sequence:
#
# PCOD9075688 Si02
#       8
#     2   2   2   2   2   2   2   2
#     4  10  20  34  60  80 101 139 191 227 251 308
#     4  10  18  32  54  81 109 137 180 217 265 325
#     4  10  18  33  55  79 113 140 170 219 276 318
#     4  10  20  35  54  79 114 143 166 216 283 322
#     4   9  18  31  52  79 105 141 181 213 261 320
#     4  10  19  36  57  80 103 141 184 226 263 300
#     4  10  19  35  56  83 105 139 184 219 263 316
#     4   9  19  34  51  76 110 142 172 219 269 320
#
# _framework density 20.185642999999999
#
# number of rings (size 3 to 8) (size 9 to 14) (size 15 to 20)
#    0.000    2.250    2.500    2.625    0.000    1.500 
#    0.000    2.500    0.000    0.000    0.000    0.000 
#    0.000    0.000    0.000    0.000    0.000    0.000 
#
# Total GULP energy -89314.736319 kJ/mol
# GULP energy per Si atom -5582.171020 kJ/mol
# Density = 2.013970 g / cm^3
# Si number density = 20.185643 Si / 1000 Ang^3
#
#
#
# Elastic Constant Matrix: (Units=GPa)
#
#
# Indices 1 2 3 4 5 6 
#
# 1 52.7557 34.1996 43.5332 28.1907 13.9403 -0.5710
# 2 34.1996 63.0572 44.1076 41.0034 -7.3758 -13.1668
# 3 43.5332 44.1076 94.5395 35.8843 17.4058 -4.0287
# 4 28.1907 41.0034 35.8843 42.8165 1.5555 -0.5155
# 5 13.9403 -7.3758 17.4058 1.5555 24.0337 0.2633
# 6 -0.5710 -13.1668 -4.0287 -0.5155 0.2633 17.7770
#
#
#
# Elastic Compliance Matrix: (Units=1/GPa)
#
#
# Indices 1 2 3 4 5 6 
#
# 1 0.065214 -0.069446 0.003347 0.022468 -0.062502 -0.047006
# 2 -0.069446 0.192805 -0.032844 -0.114546 0.129250 0.127893
# 3 0.003347 -0.032844 0.026308 0.008130 -0.031408 -0.017556
# 4 0.022468 -0.114546 0.008130 0.112702 -0.060512 -0.078111
# 5 -0.062502 0.129250 -0.031408 -0.060512 0.143284 0.082729
# 6 -0.047006 0.127893 -0.017556 -0.078111 0.082729 0.142000
#
#
# Mechanical properties :
#
#
# Convention : Reuss Voigt Hill
#
# Bulk Modulus (GPa) = 11.56857 50.44815 31.00836
# Shear Modulus (GPa) = 5.50048 22.82623 14.16336
#
# Velocity S-wave (km/s) = 1.65253 3.36641 2.65175
# Velocity P-wave (km/s) = 3.06344 6.33692 4.97701
#
# Compressibility (1/GPa) = 0.08644108
#
# Stress axis : x y z
#
# Youngs Moduli (GPa) = 15.33423 5.18660 38.01102
#
# Poissons Ratio (x) = 0.36019 -0.12723
# Poissons Ratio (y) = 1.06490 1.24842
# Poissons Ratio (z) = -0.05133 0.17035
#
# Static dielectric constant tensor:
#      x y z
#    x 1.718290 -0.013210 0.005200 
#    y -0.013210 1.735340 -0.003120 
#    z 0.005200 -0.003120 1.741740 
# 
# From -- ./inp_files/277584.got.cif
#   From: 2010.05.17/outbox.cif.g08.bks.cpg/sg2_139_cif.got.tgz:277584.got - 2010.06.03 11:33:40.
