data_PCOD9075506
_publ_section_title
;
Structure prediction by ZEFSAII (Michael W. Deem and Ramdas Pophale) SiO2 
 PCOD9075506
Probable space group: P -1
;
_chemical_formula_sum "Si O2"
_cell_formula_units_Z 15
_cell_length_a 9.000000
_cell_length_b 9.000000
_cell_length_c 24.000000
_cell_angle_alpha 40.000000
_cell_angle_beta 140.000000
_cell_angle_gamma 110.000000
_cell_volume 647.049418
_symmetry_space_group_name_H-M "P -1"
_symmetry_group_IT_number 2
_symmetry_cell_setting 'triclinic'
loop_
_space_group_symop_operation_xyz
x,y,z
-x,-y,-z
loop_
_atom_site_type_symbol
_atom_site_label
_atom_site_fract_x
_atom_site_fract_y
_atom_site_fract_z
Si Si1 0.739121 0.524467 0.751071
Si Si2 0.728381 0.859575 0.452692
Si Si3 0.801427 0.478990 0.904277
Si Si4 0.931294 0.587001 0.228652
Si Si5 0.306024 0.834697 0.946643
Si Si6 0.911841 0.954197 0.697548
Si Si7 0.899019 0.309403 0.498492
Si Si8 0.500000 0.500000 0.500000
O O1 0.894075 0.364715 0.900117
O O2 0.774215 0.788140 0.689284
O O3 0.433628 0.573183 0.642284
O O4 0.891081 0.389148 0.774672
O O5 0.587177 0.699390 0.440614
O O6 0.887746 0.712715 0.599630
O O7 0.960284 0.783398 0.495040
O O8 0.481915 0.198971 0.282070
O O9 0.738480 0.286387 0.975655
O O10 0.000000 0.500000 0.000000
O O11 0.848391 0.826536 0.183458
O O12 0.646276 0.671171 0.091050
O O13 0.158903 0.801073 0.860600
O O14 0.018505 0.036414 0.651686
O O15 0.667965 0.256906 0.568610
O O16 0.000000 0.500000 0.500000
#
# Coordination Sequence:
#
# PCOD9075506 Si02
#       8
#     2   2   2   2   2   2   2   1
#     4  12  28  46  77 115 155 201 265 324 385 463
#     4  12  26  47  77 110 153 204 255 319 385 464
#     4  12  27  47  75 114 154 198 257 324 387 457
#     4  11  27  48  79 108 153 209 258 317 392 470
#     4  11  25  50  75 108 156 208 253 316 402 457
#     4  12  25  47  76 113 156 205 259 317 392 462
#     4  12  27  45  75 118 154 197 267 321 377 467
#     4  12  20  46  78 102 150 204 252 306 402 442
#
# _framework density 23.182155000000002
#
# number of rings (size 3 to 8) (size 9 to 14) (size 15 to 20)
#    0.000    0.267    5.333    2.000    3.733    4.267 
#    0.000    0.000    0.000    0.000    0.000    0.000 
#    0.000    0.000    0.000    0.000    0.000    0.000 
#
# Total GULP energy -83626.392020 kJ/mol
# GULP energy per Si atom -5575.092801 kJ/mol
# Density = 2.312939 g / cm^3
# Si number density = 23.182155 Si / 1000 Ang^3
#
#
#
# Elastic Constant Matrix: (Units=GPa)
#
#
# Indices 1 2 3 4 5 6 
#
# 1 163.6861 -3.5926 38.2917 23.8923 -16.9346 2.9519
# 2 -3.5926 90.2894 39.8205 28.5915 16.3012 30.5697
# 3 38.2917 39.8205 95.0165 19.1668 -32.8476 -22.2595
# 4 23.8923 28.5915 19.1668 45.4873 -4.7512 -15.3659
# 5 -16.9346 16.3012 -32.8476 -4.7512 32.5742 -15.0661
# 6 2.9519 30.5697 -22.2595 -15.3659 -15.0661 22.1003
#
#
#
# Elastic Compliance Matrix: (Units=1/GPa)
#
#
# Indices 1 2 3 4 5 6 
#
# 1 0.006798 -0.000760 0.000111 -0.001915 0.004746 0.002158
# 2 -0.000760 0.001658 0.005758 0.002246 0.010663 0.012439
# 3 0.000111 0.005758 0.005900 -0.010780 -0.004170 -0.012375
# 4 -0.001915 0.002246 -0.010780 0.022436 -0.012916 -0.006914
# 5 0.004746 0.010663 -0.004170 -0.012916 0.012460 -0.020068
# 6 0.002158 0.012439 -0.012375 -0.006914 -0.020068 -0.003197
#
#
# Mechanical properties :
#
#
# Convention : Reuss Voigt Hill
#
# Bulk Modulus (GPa) = 40.68937 55.33681 48.01309
# Shear Modulus (GPa) = 113.56465 38.33051 75.94758
#
# Velocity S-wave (km/s) = 7.00673 4.07067 5.72995
# Velocity P-wave (km/s) = 9.11313 6.78352 8.03322
#
# Compressibility (1/GPa) = 0.02457644
#
# Stress axis : x y z
#
# Youngs Moduli (GPa) = 147.09888 603.15574 169.47961
#
# Poissons Ratio (x) = 0.45822 -0.01887
# Poissons Ratio (y) = 0.11175 -0.97592
# Poissons Ratio (z) = -0.01638 -3.47317
#
# Static dielectric constant tensor:
#      x y z
#    x 1.958760 -0.006240 0.055540 
#    y -0.006240 1.886510 0.006170 
#    z 0.055540 0.006170 1.910530 
# 
# From -- ./inp_files/606630.got.cif
#   From: 2010.05.17/outbox.ucp.g08.bks.cvg/sg2_304_cif.got.tgz:606630.got - 2010.06.11 11:32:03.
