data_PCOD9075060
_publ_section_title
;
Structure prediction by ZEFSAII (Michael W. Deem and Ramdas Pophale) SiO2 
 PCOD9075060
Probable space group: P -1
;
_chemical_formula_sum "Si O2"
_cell_formula_units_Z 14
_cell_length_a 6.000000
_cell_length_b 12.000000
_cell_length_c 12.000000
_cell_angle_alpha 70.000000
_cell_angle_beta 70.000000
_cell_angle_gamma 50.000000
_cell_volume 612.923978
_symmetry_space_group_name_H-M "P -1"
_symmetry_group_IT_number 2
_symmetry_cell_setting 'triclinic'
loop_
_space_group_symop_operation_xyz
x,y,z
-x,-y,-z
loop_
_atom_site_type_symbol
_atom_site_label
_atom_site_fract_x
_atom_site_fract_y
_atom_site_fract_z
Si Si1 0.313462 0.854190 0.040234
Si Si2 0.740943 0.298303 0.340931
Si Si3 0.681898 0.056680 0.402104
Si Si4 0.594773 0.901731 0.783436
Si Si5 0.629632 0.780886 0.236622
Si Si6 0.264400 0.606387 0.211476
Si Si7 0.228197 0.725673 0.416534
O O1 0.396752 0.864584 0.147329
O O2 0.341578 0.703498 0.097244
O O3 0.548448 0.847249 0.923862
O O4 0.000000 0.000000 0.000000
O O5 0.641869 0.193320 0.422459
O O6 0.524900 0.436128 0.250359
O O7 0.780858 0.341718 0.442943
O O8 0.063320 0.186065 0.271652
O O9 0.564780 0.123854 0.277224
O O10 0.500000 0.000000 0.500000
O O11 0.005525 0.904382 0.398442
O O12 0.414890 0.078567 0.747742
O O13 0.539993 0.694633 0.352612
O O14 0.963806 0.656158 0.186311
O O15 0.166514 0.671312 0.332975
#
# Coordination Sequence:
#
# PCOD9075060 Si02
#       7
#     2   2   2   2   2   2   2
#     4  11  24  43  74 100 126 175 236 270 320 407
#     4  12  27  41  66 103 141 172 217 283 341 379
#     4  12  23  41  68 101 132 173 227 270 328 403
#     4  12  23  41  71  98 133 177 224 276 328 392
#     4  11  22  42  72  95 130 176 228 271 328 396
#     4  11  26  44  66 101 136 176 225 277 330 390
#     4  11  22  43  68  97 132 182 227 263 326 414
#
# _framework density 22.841332000000001
#
# number of rings (size 3 to 8) (size 9 to 14) (size 15 to 20)
#    0.000    0.571    5.714    3.000    0.000    3.429 
#    0.000    1.429    0.000    0.000    0.000    0.000 
#    0.000    0.000    0.000    0.000    0.000    0.000 
#
# Total GULP energy -78121.666628 kJ/mol
# GULP energy per Si atom -5580.119045 kJ/mol
# Density = 2.278934 g / cm^3
# Si number density = 22.841332 Si / 1000 Ang^3
#
#
#
# Elastic Constant Matrix: (Units=GPa)
#
#
# Indices 1 2 3 4 5 6 
#
# 1 55.6780 25.9154 11.8978 -7.2661 -6.8438 -12.8809
# 2 25.9154 102.9924 12.7892 -36.0682 -1.5421 -21.2617
# 3 11.8978 12.7892 88.2289 -10.2606 -20.0495 -5.0139
# 4 -7.2661 -36.0682 -10.2606 28.8571 -0.2375 8.5726
# 5 -6.8438 -1.5421 -20.0495 -0.2375 34.6869 -3.3590
# 6 -12.8809 -21.2617 -5.0139 8.5726 -3.3590 29.0507
#
#
#
# Elastic Compliance Matrix: (Units=1/GPa)
#
#
# Indices 1 2 3 4 5 6 
#
# 1 0.022384 -0.005014 -0.001308 -0.003283 0.004139 0.007477
# 2 -0.005014 0.019876 0.000990 0.022129 0.001209 0.006104
# 3 -0.001308 0.000990 0.013930 0.005364 0.008058 0.001898
# 4 -0.003283 0.022129 0.005364 0.064280 0.003597 -0.002887
# 5 0.004139 0.001209 0.008058 0.003597 0.035070 0.007105
# 6 0.007477 0.006104 0.001898 -0.002887 0.007105 0.044206
#
#
# Mechanical properties :
#
#
# Convention : Reuss Voigt Hill
#
# Bulk Modulus (GPa) = 21.96557 38.67823 30.32190
# Shear Modulus (GPa) = 22.16457 31.60541 26.88499
#
# Velocity S-wave (km/s) = 3.11846 3.72384 3.43451
# Velocity P-wave (km/s) = 4.75435 5.95479 5.38810
#
# Compressibility (1/GPa) = 0.04552579
#
# Stress axis : x y z
#
# Youngs Moduli (GPa) = 44.67521 50.31151 71.78857
#
# Poissons Ratio (x) = 0.25227 0.09390
# Poissons Ratio (y) = 0.22401 -0.07109
# Poissons Ratio (z) = 0.05844 -0.04982
#
# Static dielectric constant tensor:
#      x y z
#    x 1.981660 0.038150 0.019210 
#    y 0.038150 1.843560 0.075950 
#    z 0.019210 0.075950 1.907420 
# 
# From -- ./inp_files/27196.got.cif
#   From: 2010.05.17/outbox.ucp.g08.bks.cvg/sg2_14_cif.got.tgz:27196.got - 2010.06.11 11:32:03.
