data_PCOD9075968
_publ_section_title
;
Structure prediction by ZEFSAII (Michael W. Deem and Ramdas Pophale) SiO2 
 PCOD9075968
Probable space group: P -1
;
_chemical_formula_sum "Si O2"
_cell_formula_units_Z 16
_cell_length_a 19.546448
_cell_length_b 13.788046
_cell_length_c 25.026953
_cell_angle_alpha 159.489424
_cell_angle_beta 161.614730
_cell_angle_gamma 21.504587
_cell_volume 690.601311
_symmetry_space_group_name_H-M "P -1"
_symmetry_group_IT_number 2
_symmetry_cell_setting 'triclinic'
loop_
_space_group_symop_operation_xyz
x,y,z
-x,-y,-z
loop_
_atom_site_type_symbol
_atom_site_label
_atom_site_fract_x
_atom_site_fract_y
_atom_site_fract_z
Si Si1 0.399335 0.244873 0.282298
Si Si2 0.171952 0.046559 0.225192
Si Si3 0.096329 0.533301 0.030003
Si Si4 0.441532 0.393153 0.129744
Si Si5 0.528994 0.251715 0.001815
Si Si6 0.315600 0.936517 0.163462
Si Si7 0.087615 0.107633 0.357713
Si Si8 0.087745 0.564859 0.508285
O O1 0.500000 0.500000 0.500000
O O2 0.129375 0.379769 0.131098
O O3 0.416265 0.064552 0.256248
O O4 0.518532 0.996896 0.196873
O O5 0.056979 0.354078 0.331017
O O6 0.328482 0.757511 0.225665
O O7 0.314909 0.069760 0.290703
O O8 0.954684 0.970743 0.005060
O O9 0.303442 0.308137 0.030985
O O10 0.000000 0.500000 0.000000
O O11 0.204744 0.778632 0.252963
O O12 0.429835 0.273969 0.999766
O O13 0.711936 0.326679 0.306365
O O14 0.427557 0.578277 0.068269
O O15 0.810719 0.168338 0.172217
O O16 0.163814 0.331112 0.494113
O O17 0.105142 0.165541 0.463416
#
# Coordination Sequence:
#
# PCOD9075968 Si02
#       8
#     2   2   2   2   2   2   2   2
#     4  11  23  43  59  88 125 160 204 253 297 365
#     4  10  18  32  58  91 123 145 196 256 303 348
#     4  11  23  42  60  80 121 172 199 237 307 370
#     4  10  19  36  62  86 119 156 196 246 304 356
#     4   9  20  39  65  90 116 161 199 246 312 357
#     4  10  20  36  63  88 119 160 196 245 312 359
#     4   9  19  36  57  87 127 149 193 252 305 345
#     4  10  18  32  57  92 117 147 190 258 296 341
#
# _framework density 23.168216000000001
#
# number of rings (size 3 to 8) (size 9 to 14) (size 15 to 20)
#    0.000    2.000    2.500    1.500    0.000    1.000 
#    9.000    7.500    0.000    0.000    0.000    0.000 
#    0.000    0.000    0.000    0.000    0.000    0.000 
#
# Total GULP energy -89255.749278 kJ/mol
# GULP energy per Si atom -5578.484330 kJ/mol
# Density = 2.311548 g / cm^3
# Si number density = 23.168216 Si / 1000 Ang^3
#
#
#
# Elastic Constant Matrix: (Units=GPa)
#
#
# Indices 1 2 3 4 5 6 
#
# 1 195.6253 28.1135 53.5057 15.3215 -9.6512 -18.8855
# 2 28.1135 40.1143 16.0402 -0.0051 1.1004 0.8575
# 3 53.5057 16.0402 105.8508 24.0812 -13.2887 -7.4586
# 4 15.3215 -0.0051 24.0812 36.7084 -9.5327 -7.4703
# 5 -9.6512 1.1004 -13.2887 -9.5327 32.5505 7.7785
# 6 -18.8855 0.8575 -7.4586 -7.4703 7.7785 30.2892
#
#
#
# Elastic Compliance Matrix: (Units=1/GPa)
#
#
# Indices 1 2 3 4 5 6 
#
# 1 0.006712 -0.003804 -0.002449 -0.000437 0.000144 0.003545
# 2 -0.003804 0.029153 -0.003601 0.002836 -0.002071 -0.002853
# 3 -0.002449 -0.003601 0.013133 -0.006981 0.002868 -0.000649
# 4 -0.000437 0.002836 -0.006981 0.034531 0.005856 0.004941
# 5 0.000144 -0.002071 0.002868 0.005856 0.035339 -0.006777
# 6 0.003545 -0.002853 -0.000649 0.004941 -0.006777 0.038105
#
#
# Mechanical properties :
#
#
# Convention : Reuss Voigt Hill
#
# Bulk Modulus (GPa) = 34.14164 59.65657 46.89910
# Shear Modulus (GPa) = 26.81748 36.17167 31.49458
#
# Velocity S-wave (km/s) = 3.40591 3.95557 3.69099
# Velocity P-wave (km/s) = 5.49867 6.83134 6.20091
#
# Compressibility (1/GPa) = 0.02928975
#
# Stress axis : x y z
#
# Youngs Moduli (GPa) = 148.98869 34.30171 76.14142
#
# Poissons Ratio (x) = 0.13050 0.18648
# Poissons Ratio (y) = 0.56682 0.27417
# Poissons Ratio (z) = 0.36489 0.12351
#
# Static dielectric constant tensor:
#      x y z
#    x 1.927090 -0.020640 0.013430 
#    y -0.020640 1.946850 0.025530 
#    z 0.013430 0.025530 1.890920 
# 
# From -- ./inp_files/620839.got.cif
#   From: 2010.05.17/outbox.cif.g08.bks.cpg/sg2_311_cif.got.tgz:620839.got - 2010.06.03 11:33:40.
