data_PCOD9075845
_publ_section_title
;
Structure prediction by ZEFSAII (Michael W. Deem and Ramdas Pophale) SiO2 
 PCOD9075845
Probable space group: P -1
;
_chemical_formula_sum "Si O2"
_cell_formula_units_Z 16
_cell_length_a 14.323339
_cell_length_b 24.448074
_cell_length_c 13.695833
_cell_angle_alpha 148.491841
_cell_angle_beta 31.446688
_cell_angle_gamma 161.104693
_cell_volume 780.454647
_symmetry_space_group_name_H-M "P -1"
_symmetry_group_IT_number 2
_symmetry_cell_setting 'triclinic'
loop_
_space_group_symop_operation_xyz
x,y,z
-x,-y,-z
loop_
_atom_site_type_symbol
_atom_site_label
_atom_site_fract_x
_atom_site_fract_y
_atom_site_fract_z
Si Si1 0.084113 0.053938 0.172655
Si Si2 0.925877 0.121854 0.243165
Si Si3 0.880174 0.633861 0.965186
Si Si4 0.635678 0.430661 0.054365
Si Si5 0.090385 0.651559 0.385356
Si Si6 0.772300 0.387464 0.440766
Si Si7 0.690578 0.747498 0.211707
Si Si8 0.357068 0.548035 0.698635
O O1 0.919347 0.062407 0.263670
O O2 0.376406 0.245810 0.247563
O O3 0.869589 0.905001 0.218445
O O4 0.189973 0.012408 0.939853
O O5 0.285189 0.295500 0.165421
O O6 0.793199 0.175869 0.439557
O O7 0.586753 0.437890 0.880973
O O8 0.170276 0.699437 0.787243
O O9 0.806648 0.595629 0.087040
O O10 0.894257 0.750695 0.077694
O O11 0.749625 0.479603 0.137955
O O12 0.688532 0.342434 0.822040
O O13 0.884882 0.522403 0.464540
O O14 0.891564 0.564598 0.333180
O O15 0.454696 0.262237 0.581031
O O16 0.000000 0.500000 0.500000
O O17 0.500000 0.500000 0.500000
#
# Coordination Sequence:
#
# PCOD9075845 Si02
#       8
#     2   2   2   2   2   2   2   2
#     4  10  21  36  59  86 123 150 195 245 291 344
#     4  10  20  38  58  88 118 150 191 255 289 337
#     4   9  18  32  56  84 112 149 190 237 287 340
#     4  10  19  36  63  87 114 149 203 242 283 354
#     4  11  21  38  66  84 116 157 199 234 298 347
#     4   9  20  33  56  90 112 146 197 242 273 352
#     4  10  18  32  56  81 115 154 184 236 298 326
#     4  11  22  40  62  82 120 162 193 236 296 354
#
# _framework density 20.500871
#
# number of rings (size 3 to 8) (size 9 to 14) (size 15 to 20)
#    0.000    2.000    3.750    1.125    3.500    0.000 
#    0.000    8.750    0.000    1.500    0.000    0.000 
#    0.000    0.000    0.000    0.000    0.000    0.000 
#
# Total GULP energy -89338.587676 kJ/mol
# GULP energy per Si atom -5583.661730 kJ/mol
# Density = 2.045421 g / cm^3
# Si number density = 20.500871 Si / 1000 Ang^3
#
#
#
# Elastic Constant Matrix: (Units=GPa)
#
#
# Indices 1 2 3 4 5 6 
#
# 1 68.3275 20.5037 29.8904 -4.4485 -5.9649 -32.1265
# 2 20.5037 52.7172 33.2142 -3.9552 5.4641 -35.2581
# 3 29.8904 33.2142 89.6796 8.9258 -18.5895 -26.3276
# 4 -4.4485 -3.9552 8.9258 18.8533 -5.1515 8.1061
# 5 -5.9649 5.4641 -18.5895 -5.1515 31.3176 3.8893
# 6 -32.1265 -35.2581 -26.3276 8.1061 3.8893 46.5043
#
#
#
# Elastic Compliance Matrix: (Units=1/GPa)
#
#
# Indices 1 2 3 4 5 6 
#
# 1 0.023490 0.006916 -0.005583 0.001199 -0.002120 0.018279
# 2 0.006916 0.054956 -0.015257 -0.003174 -0.022851 0.040270
# 3 -0.005583 -0.015257 0.021650 -0.010115 0.013096 -0.002500
# 4 0.001199 -0.003174 -0.010115 0.068335 0.008493 -0.019926
# 5 -0.002120 -0.022851 0.013096 0.008493 0.046767 -0.016767
# 6 0.018279 0.040270 -0.002500 -0.019926 -0.016767 0.068122
#
#
# Mechanical properties :
#
#
# Convention : Reuss Voigt Hill
#
# Bulk Modulus (GPa) = 13.84149 41.99344 27.91747
# Shear Modulus (GPa) = 14.91422 27.80943 21.36182
#
# Velocity S-wave (km/s) = 2.70013 3.68706 3.23150
# Velocity P-wave (km/s) = 4.06045 6.21724 5.25078
#
# Compressibility (1/GPa) = 0.07224656
#
# Stress axis : x y z
#
# Youngs Moduli (GPa) = 42.57193 18.19647 46.18948
#
# Poissons Ratio (x) = -0.12585 0.25789
# Poissons Ratio (y) = -0.29444 0.70473
# Poissons Ratio (z) = 0.23769 0.27763
#
# Static dielectric constant tensor:
#      x y z
#    x 1.729740 0.002280 0.004300 
#    y 0.002280 1.741160 -0.008780 
#    z 0.004300 -0.008780 1.775570 
# 
# From -- ./inp_files/455519.got.cif
#   From: 2010.05.17/outbox.cif.g08.bks.cpg/sg2_228_cif.got.tgz:455519.got - 2010.06.03 11:33:40.
