data_PCOD9075154
_publ_section_title
;
Structure prediction by ZEFSAII (Michael W. Deem and Ramdas Pophale) SiO2 
 PCOD9075154
Probable space group: P -1
;
_chemical_formula_sum "Si O2"
_cell_formula_units_Z 14
_cell_length_a 9.000000
_cell_length_b 9.000000
_cell_length_c 21.000000
_cell_angle_alpha 50.000000
_cell_angle_beta 40.000000
_cell_angle_gamma 80.000000
_cell_volume 638.399559
_symmetry_space_group_name_H-M "P -1"
_symmetry_group_IT_number 2
_symmetry_cell_setting 'triclinic'
loop_
_space_group_symop_operation_xyz
x,y,z
-x,-y,-z
loop_
_atom_site_type_symbol
_atom_site_label
_atom_site_fract_x
_atom_site_fract_y
_atom_site_fract_z
Si Si1 0.804358 0.204150 0.425160
Si Si2 0.516680 0.105966 0.260288
Si Si3 0.469894 0.627956 0.034222
Si Si4 0.382966 0.260193 0.474830
Si Si5 0.353789 0.245310 0.824431
Si Si6 0.731642 0.077328 0.742129
Si Si7 0.169602 0.315535 0.987781
O O1 0.587662 0.265946 0.459135
O O2 0.153405 0.436272 0.228508
O O3 0.718367 0.102533 0.553590
O O4 0.712288 0.967441 0.478015
O O5 0.685111 0.392322 0.149054
O O6 0.346373 0.057111 0.264067
O O7 0.808570 0.125615 0.147155
O O8 0.754341 0.721409 0.957909
O O9 0.500000 0.500000 0.000000
O O10 0.515459 0.864785 0.924643
O O11 0.581560 0.524825 0.299092
O O12 0.075355 0.206274 0.610524
O O13 0.618753 0.235193 0.726512
O O14 0.360382 0.289452 0.884761
O O15 0.000000 0.000000 0.000000
#
# Coordination Sequence:
#
# PCOD9075154 Si02
#       7
#     2   2   2   2   2   2   2
#     4  11  24  41  71 105 138 169 235 290 339 397
#     4  11  23  41  71 105 131 179 231 286 336 408
#     4  12  24  43  71 106 134 176 230 288 338 403
#     4  11  24  42  69  99 137 185 224 284 343 401
#     4  12  25  46  68 102 142 187 226 277 347 413
#     4  12  25  45  72 100 144 180 229 279 345 416
#     4  11  24  41  71 100 141 176 232 281 343 399
#
# _framework density 21.929839999999999
#
# number of rings (size 3 to 8) (size 9 to 14) (size 15 to 20)
#    0.000    0.571    5.714    2.143    4.000    1.714 
#    0.000    0.714    0.000    0.000    0.000    0.000 
#    0.000    0.000    0.000    0.000    0.000    0.000 
#
# Total GULP energy -78225.869403 kJ/mol
# GULP energy per Si atom -5587.562100 kJ/mol
# Density = 2.187993 g / cm^3
# Si number density = 21.929840 Si / 1000 Ang^3
#
#
#
# Elastic Constant Matrix: (Units=GPa)
#
#
# Indices 1 2 3 4 5 6 
#
# 1 106.7739 9.3911 45.1608 3.1911 2.5606 -19.9778
# 2 9.3911 46.9653 -0.5376 14.8642 -4.9265 -14.8020
# 3 45.1608 -0.5376 104.4329 16.6297 9.0964 6.5639
# 4 3.1911 14.8642 16.6297 28.7659 -10.8550 1.5566
# 5 2.5606 -4.9265 9.0964 -10.8550 44.2674 5.8634
# 6 -19.9778 -14.8020 6.5639 1.5566 5.8634 25.9132
#
#
#
# Elastic Compliance Matrix: (Units=1/GPa)
#
#
# Indices 1 2 3 4 5 6 
#
# 1 0.015114 0.000933 -0.007529 0.001110 -0.000834 0.014214
# 2 0.000933 0.034903 0.002435 -0.022747 -0.005240 0.022592
# 3 -0.007529 0.002435 0.015288 -0.010446 -0.004105 -0.006729
# 4 0.001110 -0.022747 -0.010446 0.059516 0.016366 -0.016770
# 5 -0.000834 -0.005240 -0.004105 0.016366 0.028232 -0.009968
# 6 0.014214 0.022592 -0.006729 -0.016770 -0.009968 0.067421
#
#
# Mechanical properties :
#
#
# Convention : Reuss Voigt Hill
#
# Bulk Modulus (GPa) = 17.54901 40.68897 29.11899
# Shear Modulus (GPa) = 20.17831 33.39982 26.78906
#
# Velocity S-wave (km/s) = 3.03666 3.90684 3.49890
# Velocity P-wave (km/s) = 4.50719 6.24064 5.44336
#
# Compressibility (1/GPa) = 0.05698327
#
# Stress axis : x y z
#
# Youngs Moduli (GPa) = 66.16287 28.65053 65.41237
#
# Poissons Ratio (x) = -0.02672 0.49247
# Poissons Ratio (y) = -0.06172 -0.15927
# Poissons Ratio (z) = 0.49812 -0.06976
#
# Static dielectric constant tensor:
#      x y z
#    x 1.781860 0.011590 0.005070 
#    y 0.011590 1.895260 -0.025700 
#    z 0.005070 -0.025700 1.760300 
# 
# From -- ./inp_files/158173.got.cif
#   From: 2010.05.17/outbox.ucp.g08.bks.cvg/sg2_80_cif.got.tgz:158173.got - 2010.06.11 11:32:03.
