data_PCOD9075210
_publ_section_title
;
Structure prediction by ZEFSAII (Michael W. Deem and Ramdas Pophale) SiO2 
 PCOD9075210
Probable space group: P -1
;
_chemical_formula_sum "Si O2"
_cell_formula_units_Z 16
_cell_length_a 12.000000
_cell_length_b 9.000000
_cell_length_c 21.000000
_cell_angle_alpha 30.000000
_cell_angle_beta 40.000000
_cell_angle_gamma 50.000000
_cell_volume 727.418465
_symmetry_space_group_name_H-M "P -1"
_symmetry_group_IT_number 2
_symmetry_cell_setting 'triclinic'
loop_
_space_group_symop_operation_xyz
x,y,z
-x,-y,-z
loop_
_atom_site_type_symbol
_atom_site_label
_atom_site_fract_x
_atom_site_fract_y
_atom_site_fract_z
Si Si1 0.463611 0.707734 0.249503
Si Si2 0.662007 0.188082 0.415222
Si Si3 0.013771 0.761906 0.843123
Si Si4 0.624159 0.564451 0.745030
Si Si5 0.249790 0.892831 0.959436
Si Si6 0.676963 0.677184 0.932448
Si Si7 0.964053 0.314238 0.752048
Si Si8 0.701661 0.607947 0.352507
O O1 0.498828 0.382596 0.388733
O O2 0.414304 0.648412 0.220058
O O3 0.644692 0.885246 0.120655
O O4 0.344593 0.990333 0.211199
O O5 0.802094 0.181807 0.297595
O O6 0.753666 0.394337 0.352278
O O7 0.616546 0.886416 0.590468
O O8 0.858447 0.692376 0.886397
O O9 0.975738 0.054954 0.791122
O O10 0.000000 0.500000 0.000000
O O11 0.811848 0.516622 0.715150
O O12 0.476589 0.451101 0.903667
O O13 0.273504 0.070303 0.814725
O O14 0.315968 0.571842 0.032735
O O15 0.086219 0.807744 0.109041
O O16 0.165125 0.430973 0.633249
O O17 0.500000 0.500000 0.500000
#
# Coordination Sequence:
#
# PCOD9075210 Si02
#       8
#     2   2   2   2   2   2   2   2
#     4  11  23  44  71 104 143 186 237 289 345 420
#     4  11  27  48  70 101 145 191 238 293 357 423
#     4  12  25  44  74 107 141 190 238 294 355 417
#     4  12  25  45  71 107 145 186 234 298 360 409
#     4  11  23  43  75 106 140 187 238 288 351 416
#     4  12  23  44  75 108 141 186 243 288 348 428
#     4  12  25  45  71 104 146 181 240 300 347 423
#     4  11  25  48  70 103 145 189 232 291 363 425
#
# _framework density 21.995591999999998
#
# number of rings (size 3 to 8) (size 9 to 14) (size 15 to 20)
#    0.000    0.500    2.500    6.750    0.000    4.000 
#    4.500    0.000    0.000    0.000    0.000    0.000 
#    0.000    0.000    0.000    0.000    0.000    0.000 
#
# Total GULP energy -89096.618315 kJ/mol
# GULP energy per Si atom -5568.538645 kJ/mol
# Density = 2.194553 g / cm^3
# Si number density = 21.995592 Si / 1000 Ang^3
#
#
#
# Elastic Constant Matrix: (Units=GPa)
#
#
# Indices 1 2 3 4 5 6 
#
# 1 134.0957 15.4604 40.1337 -1.3399 -9.6237 -24.7861
# 2 15.4604 113.5310 43.0294 -6.3574 4.4011 5.5616
# 3 40.1337 43.0294 98.6997 3.1515 19.8096 -16.2116
# 4 -1.3399 -6.3574 3.1515 39.4377 -2.4604 2.6011
# 5 -9.6237 4.4011 19.8096 -2.4604 41.4045 -4.4707
# 6 -24.7861 5.5616 -16.2116 2.6011 -4.4707 43.2702
#
#
#
# Elastic Compliance Matrix: (Units=1/GPa)
#
#
# Indices 1 2 3 4 5 6 
#
# 1 0.009946 -0.000126 -0.004237 0.000658 0.004887 0.004591
# 2 -0.000126 0.011319 -0.005845 0.002616 0.001316 -0.003738
# 3 -0.004237 -0.005845 0.016794 -0.003199 -0.008161 0.003965
# 4 0.000658 0.002616 -0.003199 0.026388 0.002707 -0.002464
# 5 0.004887 0.001316 -0.008161 0.002707 0.029478 0.002456
# 6 0.004591 -0.003738 0.003965 -0.002464 0.002456 0.028109
#
#
# Mechanical properties :
#
#
# Convention : Reuss Voigt Hill
#
# Bulk Modulus (GPa) = 56.68011 60.39705 58.53858
# Shear Modulus (GPa) = 33.70812 41.33601 37.52207
#
# Velocity S-wave (km/s) = 3.91896 4.33978 4.13472
# Velocity P-wave (km/s) = 6.80459 7.25464 7.03322
#
# Compressibility (1/GPa) = 0.01764287
#
# Stress axis : x y z
#
# Youngs Moduli (GPa) = 100.54277 88.34431 59.54402
#
# Poissons Ratio (x) = 0.01113 0.25230
# Poissons Ratio (y) = 0.01267 0.34805
# Poissons Ratio (z) = 0.42601 0.51639
#
# Static dielectric constant tensor:
#      x y z
#    x 1.852910 -0.049370 -0.016640 
#    y -0.049370 1.858770 -0.038050 
#    z -0.016640 -0.038050 1.851060 
# 
# From -- ./inp_files/593898.got.cif
#   From: 2010.05.17/outbox.ucp.g08.bks.cvg/sg2_297_cif.got.tgz:593898.got - 2010.06.11 11:32:03.
