data_PCOD9075235
_publ_section_title
;
Structure prediction by ZEFSAII (Michael W. Deem and Ramdas Pophale) SiO2 
 PCOD9075235
Probable space group: P -1
;
_chemical_formula_sum "Si O2"
_cell_formula_units_Z 16
_cell_length_a 9.000000
_cell_length_b 27.000000
_cell_length_c 12.000000
_cell_angle_alpha 150.000000
_cell_angle_beta 140.000000
_cell_angle_gamma 30.000000
_cell_volume 727.497153
_symmetry_space_group_name_H-M "P -1"
_symmetry_group_IT_number 2
_symmetry_cell_setting 'triclinic'
loop_
_space_group_symop_operation_xyz
x,y,z
-x,-y,-z
loop_
_atom_site_type_symbol
_atom_site_label
_atom_site_fract_x
_atom_site_fract_y
_atom_site_fract_z
Si Si1 0.572583 0.157342 0.521252
Si Si2 0.231544 0.313116 0.408080
Si Si3 0.668484 0.942502 0.670779
Si Si4 0.049651 0.140676 0.909675
Si Si5 0.191881 0.826536 0.914276
Si Si6 0.463410 0.458688 0.526188
Si Si7 0.614629 0.407661 0.774907
Si Si8 0.730768 0.837802 0.268281
O O1 0.369338 0.254503 0.495494
O O2 0.380494 0.155243 0.502326
O O3 0.783207 0.182790 0.751385
O O4 0.741232 0.013966 0.287213
O O5 0.443496 0.345900 0.549362
O O6 0.893872 0.445115 0.477291
O O7 0.197281 0.212621 0.131543
O O8 0.759513 0.905609 0.522051
O O9 0.908062 0.925571 0.861012
O O10 0.344687 0.082256 0.734697
O O11 0.930438 0.168581 0.023849
O O12 0.364648 0.690144 0.687473
O O13 0.445364 0.841070 0.110183
O O14 0.500000 0.500000 0.500000
O O15 0.576918 0.459053 0.722236
O O16 0.958729 0.301700 0.805404
O O17 0.500000 0.500000 0.000000
#
# Coordination Sequence:
#
# PCOD9075235 Si02
#       8
#     2   2   2   2   2   2   2   2
#     4  11  25  45  73 112 156 196 258 312 389 468
#     4  12  27  48  78 111 155 205 257 320 385 459
#     4  11  23  44  72 108 149 195 253 314 384 463
#     4  11  25  44  75 112 153 199 254 318 385 459
#     4  12  23  47  73 110 146 199 260 319 376 468
#     4  12  26  50  80 108 151 202 264 315 386 463
#     4  12  30  53  76 115 158 205 261 327 388 458
#     4  11  26  46  72 106 151 200 249 319 392 450
#
# _framework density 21.993213000000001
#
# number of rings (size 3 to 8) (size 9 to 14) (size 15 to 20)
#    0.000    0.500    5.000    1.875    5.250    1.000 
#    0.000    1.875    0.000    0.000    0.000    0.000 
#    0.000    0.000    0.000    0.000    0.000    0.000 
#
# Total GULP energy -89161.650678 kJ/mol
# GULP energy per Si atom -5572.603167 kJ/mol
# Density = 2.194316 g / cm^3
# Si number density = 21.993213 Si / 1000 Ang^3
#
#
#
# Elastic Constant Matrix: (Units=GPa)
#
#
# Indices 1 2 3 4 5 6 
#
# 1 80.3460 29.4593 34.3536 -11.6812 3.3094 12.8313
# 2 29.4593 190.2881 34.8560 -35.4125 -15.0435 9.4007
# 3 34.3536 34.8560 145.6900 -28.1352 -15.2438 -2.5704
# 4 -11.6812 -35.4125 -28.1352 48.9510 -6.5099 -2.3724
# 5 3.3094 -15.0435 -15.2438 -6.5099 53.6187 -7.0047
# 6 12.8313 9.4007 -2.5704 -2.3724 -7.0047 40.7482
#
#
#
# Elastic Compliance Matrix: (Units=1/GPa)
#
#
# Indices 1 2 3 4 5 6 
#
# 1 0.015652 -0.001810 -0.003784 -0.000448 -0.003302 -0.005343
# 2 -0.001810 0.006615 0.000005 0.004677 0.002504 -0.000253
# 3 -0.003784 0.000005 0.009168 0.005007 0.003804 0.002714
# 4 -0.000448 0.004677 0.005007 0.027532 0.006378 0.002077
# 5 -0.003302 0.002504 0.003804 0.006378 0.022048 0.004863
# 6 -0.005343 -0.000253 0.002714 0.002077 0.004863 0.027410
#
#
# Mechanical properties :
#
#
# Convention : Reuss Voigt Hill
#
# Bulk Modulus (GPa) = 49.36598 68.18466 58.77532
# Shear Modulus (GPa) = 39.57059 49.84058 44.70558
#
# Velocity S-wave (km/s) = 4.24632 4.76561 4.51344
# Velocity P-wave (km/s) = 6.82176 7.83270 7.34464
#
# Compressibility (1/GPa) = 0.02025687
#
# Stress axis : x y z
#
# Youngs Moduli (GPa) = 63.88909 151.16060 109.07721
#
# Poissons Ratio (x) = 0.27367 0.41273
# Poissons Ratio (y) = 0.11567 -0.00054
# Poissons Ratio (z) = 0.24175 -0.00075
#
# Static dielectric constant tensor:
#      x y z
#    x 1.913310 -0.013300 -0.002730 
#    y -0.013300 1.847500 0.068130 
#    z -0.002730 0.068130 1.824210 
# 
# From -- ./inp_files/407364.got.cif
#   From: 2010.05.17/outbox.ucp.g08.bks.cvg/sg2_204_cif.got.tgz:407364.got - 2010.06.11 11:32:03.
