data_PCOD9075904
_publ_section_title
;
Structure prediction by ZEFSAII (Michael W. Deem and Ramdas Pophale) SiO2 
 PCOD9075904
Probable space group: P -1
;
_chemical_formula_sum "Si O2"
_cell_formula_units_Z 12
_cell_length_a 13.219994
_cell_length_b 9.711762
_cell_length_c 9.408792
_cell_angle_alpha 79.100477
_cell_angle_beta 33.371537
_cell_angle_gamma 58.689993
_cell_volume 484.531557
_symmetry_space_group_name_H-M "P -1"
_symmetry_group_IT_number 2
_symmetry_cell_setting 'triclinic'
loop_
_space_group_symop_operation_xyz
x,y,z
-x,-y,-z
loop_
_atom_site_type_symbol
_atom_site_label
_atom_site_fract_x
_atom_site_fract_y
_atom_site_fract_z
Si Si1 0.199552 0.442708 0.396235
Si Si2 0.820013 0.860061 0.808026
Si Si3 0.733070 0.982436 0.201127
Si Si4 0.549818 0.322666 0.539609
Si Si5 0.998171 0.609251 0.111520
Si Si6 0.607563 0.147506 0.775228
O O1 0.000000 0.500000 0.500000
O O2 0.078326 0.645425 0.558295
O O3 0.197251 0.333332 0.549693
O O4 0.457284 0.311250 0.038545
O O5 0.816816 0.958082 0.652906
O O6 0.585361 0.873039 0.055106
O O7 0.778580 0.958823 0.985360
O O8 0.655902 0.168457 0.323102
O O9 0.500000 0.000000 0.500000
O O10 0.948924 0.789047 0.072002
O O11 0.500000 0.500000 0.500000
O O12 0.693209 0.202615 0.536119
O O13 0.264330 0.441793 0.899346
O O14 0.000000 0.500000 0.000000
#
# Coordination Sequence:
#
# PCOD9075904 Si02
#       6
#     2   2   2   2   2   2
#     4  10  18  32  56  97 120 144 204 265 297 346
#     4  10  19  33  60  96 112 154 208 265 293 349
#     4  12  21  38  66  94 122 159 217 261 298 364
#     4  12  27  43  59  93 135 167 200 252 323 379
#     4  12  21  38  67  96 121 160 212 260 302 359
#     4  10  20  35  60  90 124 158 201 258 312 351
#
# _framework density 24.766186999999999
#
# number of rings (size 3 to 8) (size 9 to 14) (size 15 to 20)
#    0.000    1.000    8.333    1.000    4.667    0.667 
#    0.000    0.833    0.000    2.000    0.000    0.000 
#    0.000    0.000    0.000    0.000    0.000    0.000 
#
# Total GULP energy -67122.523280 kJ/mol
# GULP energy per Si atom -5593.543607 kJ/mol
# Density = 2.470982 g / cm^3
# Si number density = 24.766187 Si / 1000 Ang^3
#
#
#
# Elastic Constant Matrix: (Units=GPa)
#
#
# Indices 1 2 3 4 5 6 
#
# 1 62.1039 53.9649 40.9643 -10.5580 23.6848 -4.3049
# 2 53.9649 212.6127 47.8765 -4.0272 41.2341 -13.2116
# 3 40.9643 47.8765 78.2647 0.3596 48.4692 12.2279
# 4 -10.5580 -4.0272 0.3596 53.5832 -10.5366 16.1514
# 5 23.6848 41.2341 48.4692 -10.5366 51.0772 3.6083
# 6 -4.3049 -13.2116 12.2279 16.1514 3.6083 39.9191
#
#
#
# Elastic Compliance Matrix: (Units=1/GPa)
#
#
# Indices 1 2 3 4 5 6 
#
# 1 0.031307 -0.004878 -0.019883 0.006437 0.009305 0.004407
# 2 -0.004878 0.006784 0.000914 -0.002223 -0.004736 0.002767
# 3 -0.019883 0.000914 0.047515 -0.008742 -0.037744 -0.009448
# 4 0.006437 -0.002223 -0.008742 0.024950 0.012861 -0.008621
# 5 0.009305 -0.004736 -0.037744 0.012861 0.057515 0.000595
# 6 0.004407 0.002767 -0.009448 -0.008621 0.000595 0.032770
#
#
# Mechanical properties :
#
#
# Convention : Reuss Voigt Hill
#
# Bulk Modulus (GPa) = 26.37584 70.95473 48.66529
# Shear Modulus (GPa) = 19.14459 42.92761 31.03610
#
# Velocity S-wave (km/s) = 2.78333 4.16783 3.54385
# Velocity P-wave (km/s) = 4.58282 7.20230 6.03636
#
# Compressibility (1/GPa) = 0.03791348
#
# Stress axis : x y z
#
# Youngs Moduli (GPa) = 31.94219 147.40717 21.04584
#
# Poissons Ratio (x) = 0.71901 0.41845
# Poissons Ratio (y) = 0.15581 -0.01924
# Poissons Ratio (z) = 0.63510 -0.13478
#
# Static dielectric constant tensor:
#      x y z
#    x 2.020570 0.067080 -0.148100 
#    y 0.067080 1.939220 -0.020950 
#    z -0.148100 -0.020950 2.036920 
# 
# From -- ./inp_files/151940.got.cif
#   From: 2010.05.17/outbox.cif.g08.bks.cpg/sg2_76_cif.got.tgz:151940.got - 2010.06.03 11:33:40.
