data_PCOD9075563
_publ_section_title
;
Structure prediction by ZEFSAII (Michael W. Deem and Ramdas Pophale) SiO2 
 PCOD9075563
Probable space group: P -1
;
_chemical_formula_sum "Si O2"
_cell_formula_units_Z 12
_cell_length_a 9.000000
_cell_length_b 15.000000
_cell_length_c 12.000000
_cell_angle_alpha 20.000000
_cell_angle_beta 110.000000
_cell_angle_gamma 110.000000
_cell_volume 519.584618
_symmetry_space_group_name_H-M "P -1"
_symmetry_group_IT_number 2
_symmetry_cell_setting 'triclinic'
loop_
_space_group_symop_operation_xyz
x,y,z
-x,-y,-z
loop_
_atom_site_type_symbol
_atom_site_label
_atom_site_fract_x
_atom_site_fract_y
_atom_site_fract_z
Si Si1 0.130626 0.141939 0.647043
Si Si2 0.224533 0.276480 0.274704
Si Si3 0.805391 0.006663 0.937685
Si Si4 0.608777 0.209446 0.213066
Si Si5 0.036438 0.343904 0.955782
Si Si6 0.686730 0.594210 0.200678
O O1 0.210213 0.272095 0.408161
O O2 0.015136 0.360273 0.406156
O O3 0.244397 0.095410 0.832995
O O4 0.058004 0.863704 0.905263
O O5 0.289212 0.995669 0.587443
O O6 0.313424 0.568645 0.943192
O O7 0.055675 0.281459 0.163792
O O8 0.739071 0.296318 0.576463
O O9 0.745646 0.798929 0.072158
O O10 0.000000 0.000000 0.000000
O O11 0.500000 0.000000 0.500000
O O12 0.494944 0.362744 0.921651
O O13 0.214918 0.322939 0.982422
#
# Coordination Sequence:
#
# PCOD9075563 Si02
#       6
#     2   2   2   2   2   2
#     4  12  25  42  66 100 138 170 211 271 334 389
#     4  12  26  44  66 100 134 174 214 268 335 384
#     4  12  23  42  66  98 133 170 216 266 323 388
#     4  12  26  45  69  94 133 174 222 268 316 392
#     4  12  22  40  70  98 134 164 217 278 327 383
#     4  12  24  41  68 100 124 168 229 268 313 382
#
# _framework density 23.095372000000001
#
# number of rings (size 3 to 8) (size 9 to 14) (size 15 to 20)
#    0.000    0.000    5.000    6.000    2.333    0.000 
#    0.000    5.000    0.000    0.000    0.000    0.000 
#    0.000    0.000    0.000    0.000    0.000    0.000 
#
# Total GULP energy -66907.947901 kJ/mol
# GULP energy per Si atom -5575.662325 kJ/mol
# Density = 2.304281 g / cm^3
# Si number density = 23.095372 Si / 1000 Ang^3
#
#
#
# Elastic Constant Matrix: (Units=GPa)
#
#
# Indices 1 2 3 4 5 6 
#
# 1 41.0287 38.2129 38.9703 -5.6715 24.6440 -10.3768
# 2 38.2129 170.4995 69.0045 -50.8090 8.3909 17.0935
# 3 38.9703 69.0045 156.1413 -20.4182 44.8084 1.5474
# 4 -5.6715 -50.8090 -20.4182 51.0063 -16.5670 8.8183
# 5 24.6440 8.3909 44.8084 -16.5670 42.5667 4.0256
# 6 -10.3768 17.0935 1.5474 8.8183 4.0256 18.2055
#
#
#
# Elastic Compliance Matrix: (Units=1/GPa)
#
#
# Indices 1 2 3 4 5 6 
#
# 1 -0.013768 0.021350 -0.010449 0.035290 0.033365 -0.051476
# 2 0.021350 -0.005075 0.000563 -0.013774 -0.019959 0.027971
# 3 -0.010449 0.000563 0.010011 0.004274 -0.002090 -0.008943
# 4 0.035290 -0.013774 0.004274 -0.004654 -0.027914 0.041111
# 5 0.033365 -0.019959 -0.002090 -0.027914 -0.005535 0.052680
# 6 -0.051476 0.027971 -0.008943 0.041111 0.052680 -0.031475
#
#
# Mechanical properties :
#
#
# Convention : Reuss Voigt Hill
#
# Bulk Modulus (GPa) = 70.93723 73.33834 72.13778
# Shear Modulus (GPa) = -72.75141 37.12116 -17.81513
#
# Velocity S-wave (km/s) = -5.61861 4.01346 -2.78037
# Velocity P-wave (km/s) = 3.36306 7.30073 4.58206
#
# Compressibility (1/GPa) = 0.01409697
#
# Stress axis : x y z
#
# Youngs Moduli (GPa) = -72.63068 -197.06359 99.89293
#
# Poissons Ratio (x) = 4.20728 1.04376
# Poissons Ratio (y) = 1.55065 -0.05629
# Poissons Ratio (z) = -0.75890 0.11104
#
# Static dielectric constant tensor:
#      x y z
#    x 1.341370 0.033040 0.309200 
#    y 0.033040 1.840590 0.006150 
#    z 0.309200 0.006150 1.665490 
# 
# From -- ./inp_files/24197.got.cif
#   From: 2010.05.17/outbox.ucp.g08.bks.cvg/sg2_13_cif.got.tgz:24197.got - 2010.06.11 11:32:03.
