data_PCOD9075452
_publ_section_title
;
Structure prediction by ZEFSAII (Michael W. Deem and Ramdas Pophale) SiO2 
 PCOD9075452
Probable space group: P -1
;
_chemical_formula_sum "Si O2"
_cell_formula_units_Z 12
_cell_length_a 9.000000
_cell_length_b 12.000000
_cell_length_c 12.000000
_cell_angle_alpha 120.000000
_cell_angle_beta 40.000000
_cell_angle_gamma 90.000000
_cell_volume 523.519695
_symmetry_space_group_name_H-M "P -1"
_symmetry_group_IT_number 2
_symmetry_cell_setting 'triclinic'
loop_
_space_group_symop_operation_xyz
x,y,z
-x,-y,-z
loop_
_atom_site_type_symbol
_atom_site_label
_atom_site_fract_x
_atom_site_fract_y
_atom_site_fract_z
Si Si1 0.402369 0.195506 0.443962
Si Si2 0.237390 0.435408 0.442561
Si Si3 0.731722 0.346719 0.957455
Si Si4 0.635402 0.165622 0.770085
Si Si5 0.410077 0.739334 0.398381
Si Si6 0.864676 0.831629 0.878458
O O1 0.276460 0.321776 0.468044
O O2 0.477348 0.249217 0.540162
O O3 0.108511 0.215790 0.657727
O O4 0.720628 0.993645 0.126198
O O5 0.000000 0.500000 0.500000
O O6 0.116080 0.619270 0.655861
O O7 0.587186 0.320557 0.130341
O O8 0.582661 0.331100 0.928030
O O9 0.605401 0.537394 0.151556
O O10 0.557082 0.185992 0.693826
O O11 0.444351 0.139104 0.943617
O O12 0.000000 0.000000 0.500000
O O13 0.043265 0.835741 0.677764
#
# Coordination Sequence:
#
# PCOD9075452 Si02
#       6
#     2   2   2   2   2   2
#     4  12  27  48  71 104 143 185 229 287 351 411
#     4  11  26  44  72 106 137 181 234 284 348 408
#     4  11  25  45  74 100 140 183 234 286 343 415
#     4  12  25  44  71 108 134 182 236 286 346 407
#     4  11  28  46  71 102 142 185 230 285 350 414
#     4  11  26  45  74 102 142 180 236 282 349 410
#
# _framework density 22.921773999999999
#
# number of rings (size 3 to 8) (size 9 to 14) (size 15 to 20)
#    0.000    0.667    3.333    2.500    7.000    6.000 
#    3.000    0.000    0.000    0.000    0.000    0.000 
#    0.000    0.000    0.000    0.000    0.000    0.000 
#
# Total GULP energy -66949.131480 kJ/mol
# GULP energy per Si atom -5579.094290 kJ/mol
# Density = 2.286960 g / cm^3
# Si number density = 22.921774 Si / 1000 Ang^3
#
#
#
# Elastic Constant Matrix: (Units=GPa)
#
#
# Indices 1 2 3 4 5 6 
#
# 1 125.7629 51.4114 19.9055 6.0667 27.5778 -6.4533
# 2 51.4114 79.1274 31.5756 -2.2183 3.5272 -0.7655
# 3 19.9055 31.5756 144.1299 -16.3921 15.9481 4.4864
# 4 6.0667 -2.2183 -16.3921 47.7241 24.6801 2.7088
# 5 27.5778 3.5272 15.9481 24.6801 44.3907 -0.0640
# 6 -6.4533 -0.7655 4.4864 2.7088 -0.0640 32.7987
#
#
#
# Elastic Compliance Matrix: (Units=1/GPa)
#
#
# Indices 1 2 3 4 5 6 
#
# 1 0.013465 -0.008791 0.001543 0.003581 -0.010209 0.001917
# 2 -0.008791 0.019621 -0.004209 -0.003076 0.007124 -0.000428
# 3 0.001543 -0.004209 0.009367 0.006996 -0.007882 -0.001669
# 4 0.003581 -0.003076 0.006996 0.035471 -0.024219 -0.003301
# 5 -0.010209 0.007124 -0.007882 -0.024219 0.044602 0.001323
# 6 0.001917 -0.000428 -0.001669 -0.003301 0.001323 0.031360
#
#
# Mechanical properties :
#
#
# Convention : Reuss Voigt Hill
#
# Bulk Modulus (GPa) = 51.17659 61.64500 56.41079
# Shear Modulus (GPa) = 27.27588 41.39121 34.33355
#
# Velocity S-wave (km/s) = 3.45331 4.25403 3.87441
# Velocity P-wave (km/s) = 6.18673 7.14710 6.68419
#
# Compressibility (1/GPa) = 0.01954019
#
# Stress axis : x y z
#
# Youngs Moduli (GPa) = 74.26612 50.96555 106.75837
#
# Poissons Ratio (x) = 0.44801 -0.16477
# Poissons Ratio (y) = 0.65284 0.44938
# Poissons Ratio (z) = -0.11462 0.21453
#
# Static dielectric constant tensor:
#      x y z
#    x 1.869760 0.064740 0.014940 
#    y 0.064740 1.870940 0.012570 
#    z 0.014940 0.012570 1.906780 
# 
# From -- ./inp_files/243256.got.cif
#   From: 2010.05.17/outbox.ucp.g08.bks.cvg/sg2_122_cif.got.tgz:243256.got - 2010.06.11 11:32:03.
