data_PCOD9075652
_publ_section_title
;
Structure prediction by ZEFSAII (Michael W. Deem and Ramdas Pophale) SiO2 
 PCOD9075652
Probable space group: P -1
;
_chemical_formula_sum "Si O2"
_cell_formula_units_Z 16
_cell_length_a 11.607010
_cell_length_b 9.716300
_cell_length_c 8.748634
_cell_angle_alpha 68.899027
_cell_angle_beta 64.743181
_cell_angle_gamma 108.914400
_cell_volume 686.180690
_symmetry_space_group_name_H-M "P -1"
_symmetry_group_IT_number 2
_symmetry_cell_setting 'triclinic'
loop_
_space_group_symop_operation_xyz
x,y,z
-x,-y,-z
loop_
_atom_site_type_symbol
_atom_site_label
_atom_site_fract_x
_atom_site_fract_y
_atom_site_fract_z
Si Si1 0.459238 0.548887 0.714455
Si Si2 0.850887 0.592572 0.237304
Si Si3 0.420927 0.212233 0.705856
Si Si4 0.208456 0.986790 0.173181
Si Si5 0.859437 0.821579 0.390443
Si Si6 0.948169 0.217294 0.223586
Si Si7 0.737176 0.667100 0.831127
Si Si8 0.726182 0.236355 0.567403
O O1 0.302246 0.508692 0.739105
O O2 0.474800 0.393365 0.699352
O O3 0.585225 0.736535 0.486917
O O4 0.405602 0.508752 0.935990
O O5 0.827966 0.452781 0.434092
O O6 0.847004 0.747275 0.258927
O O7 0.994885 0.672665 0.010873
O O8 0.552049 0.174273 0.661871
O O9 0.270289 0.055982 0.940053
O O10 0.259945 0.162832 0.173828
O O11 0.025178 0.864132 0.333136
O O12 0.269850 0.875437 0.252185
O O13 0.740245 0.680920 0.641145
O O14 0.889918 0.014504 0.306240
O O15 0.811983 0.213295 0.386786
O O16 0.102559 0.299531 0.208893
#
# Coordination Sequence:
#
# PCOD9075652 Si02
#       8
#     2   2   2   2   2   2   2   2
#     4   8  17  35  54  79 101 134 182 221 246 302
#     4  10  22  32  54  82 109 133 167 221 273 304
#     4   9  18  31  55  78  98 139 185 216 242 294
#     4  10  18  32  54  80 107 136 177 212 249 318
#     4  11  19  34  56  83 104 137 168 216 271 307
#     4  10  18  34  52  78 107 134 177 214 255 310
#     4   9  16  32  56  77 103 134 178 216 252 305
#     4  11  19  33  52  81 107 137 174 215 257 307
#
# _framework density 23.317473
#
# number of rings (size 3 to 8) (size 9 to 14) (size 15 to 20)
#    0.000    2.250    2.500    2.625    0.000    0.500 
#    0.000    0.000    0.000   21.750    0.000    0.000 
#    0.000    0.000    0.000    0.000    0.000    0.000 
#
# Total GULP energy -89405.031729 kJ/mol
# GULP energy per Si atom -5587.814483 kJ/mol
# Density = 2.326440 g / cm^3
# Si number density = 23.317473 Si / 1000 Ang^3
#
#
#
# Elastic Constant Matrix: (Units=GPa)
#
#
# Indices 1 2 3 4 5 6 
#
# 1 44.3825 15.9345 21.1429 -2.0707 4.4821 -24.7308
# 2 15.9345 32.2616 15.4752 3.5496 -4.4844 -16.7649
# 3 21.1429 15.4752 195.6042 -7.2066 2.9379 -8.9302
# 4 -2.0707 3.5496 -7.2066 18.7157 -4.6902 3.8832
# 5 4.4821 -4.4844 2.9379 -4.6902 32.1921 2.8994
# 6 -24.7308 -16.7649 -8.9302 3.8832 2.8994 33.6070
#
#
#
# Elastic Compliance Matrix: (Units=1/GPa)
#
#
# Indices 1 2 3 4 5 6 
#
# 1 0.043123 -0.005520 -0.002873 -0.003847 -0.009728 0.029500
# 2 -0.005520 0.047672 -0.002823 -0.013989 0.003804 0.020257
# 3 -0.002873 -0.002823 0.005643 0.002915 0.000130 -0.002371
# 4 -0.003847 -0.013989 0.002915 0.062564 0.008971 -0.017038
# 5 -0.009728 0.003804 0.000130 0.008971 0.035080 -0.009289
# 6 0.029500 0.020257 -0.002371 -0.017038 -0.009289 0.063710
#
#
# Mechanical properties :
#
#
# Convention : Reuss Voigt Hill
#
# Bulk Modulus (GPa) = 13.51233 41.92817 27.72025
# Shear Modulus (GPa) = 16.39927 31.54933 23.97430
#
# Velocity S-wave (km/s) = 2.65486 3.68235 3.20999
# Velocity P-wave (km/s) = 3.89939 6.00833 5.06485
#
# Compressibility (1/GPa) = 0.07400647
#
# Stress axis : x y z
#
# Youngs Moduli (GPa) = 23.18954 20.97684 177.19674
#
# Poissons Ratio (x) = 0.11579 0.50913
# Poissons Ratio (y) = 0.12800 0.50015
# Poissons Ratio (z) = 0.06663 0.05921
#
# Static dielectric constant tensor:
#      x y z
#    x 1.940390 0.010790 -0.004580 
#    y 0.010790 1.833420 -0.029020 
#    z -0.004580 -0.029020 1.913730 
# 
# From -- ./inp_files/298140.got.cif
#   From: 2010.05.17/outbox.cif.g08.bks.cpg/sg2_150_cif.got.tgz:298140.got - 2010.06.03 11:33:40.
