data_PCOD9075562
_publ_section_title
;
Structure prediction by ZEFSAII (Michael W. Deem and Ramdas Pophale) SiO2 
 PCOD9075562
Probable space group: P -1
;
_chemical_formula_sum "Si O2"
_cell_formula_units_Z 14
_cell_length_a 12.178546
_cell_length_b 7.182121
_cell_length_c 12.144083
_cell_angle_alpha 75.865528
_cell_angle_beta 136.328346
_cell_angle_gamma 130.687143
_cell_volume 501.026436
_symmetry_space_group_name_H-M "P -1"
_symmetry_group_IT_number 2
_symmetry_cell_setting 'triclinic'
loop_
_space_group_symop_operation_xyz
x,y,z
-x,-y,-z
loop_
_atom_site_type_symbol
_atom_site_label
_atom_site_fract_x
_atom_site_fract_y
_atom_site_fract_z
Si Si1 0.379202 0.233631 0.700132
Si Si2 0.246174 0.542779 0.336387
Si Si3 0.763094 0.904205 0.632035
Si Si4 0.186024 0.410162 0.797023
Si Si5 0.302985 0.798702 0.130577
Si Si6 0.270136 0.570417 0.599822
Si Si7 0.304511 0.067451 0.895492
O O1 0.259005 0.124008 0.512251
O O2 0.617631 0.336562 0.840896
O O3 0.396538 0.471220 0.708497
O O4 0.243655 0.011457 0.730747
O O5 0.523325 0.774802 0.518624
O O6 0.204518 0.293475 0.289991
O O7 0.190319 0.653001 0.187056
O O8 0.169219 0.497255 0.414076
O O9 0.976695 0.225302 0.755518
O O10 0.127194 0.435239 0.628252
O O11 0.422711 0.719005 0.944915
O O12 0.247347 0.236054 0.863218
O O13 0.538410 0.105895 0.290867
O O14 0.215661 0.852950 0.957852
#
# Coordination Sequence:
#
# PCOD9075562 Si02
#       7
#     2   2   2   2   2   2   2
#     4   9  18  32  54  81 105 138 178 220 267 310
#     4   9  18  32  53  80 111 142 175 221 273 317
#     4   9  18  34  57  82 106 139 185 226 262 314
#     4   9  18  34  57  82 106 139 185 226 262 314
#     4  10  18  32  54  78 110 144 176 216 268 328
#     4   9  18  32  54  81 105 138 178 220 267 310
#     4   9  18  32  53  80 111 142 175 221 273 317
#
# _framework density 27.942637000000001
#
# number of rings (size 3 to 8) (size 9 to 14) (size 15 to 20)
#    0.000    2.857    0.000    2.571    0.000    5.143 
#    0.000   12.143    0.000   57.429    0.000    0.000 
#    0.000    0.000    0.000    0.000    0.000    0.000 
#
# Total GULP energy -78307.486887 kJ/mol
# GULP energy per Si atom -5593.391921 kJ/mol
# Density = 2.787904 g / cm^3
# Si number density = 27.942637 Si / 1000 Ang^3
#
#
#
# Elastic Constant Matrix: (Units=GPa)
#
#
# Indices 1 2 3 4 5 6 
#
# 1 48.4617 43.1009 10.4112 -10.2473 -1.7454 10.0808
# 2 43.1009 188.6490 48.1448 -33.9705 -6.7403 46.1394
# 3 10.4112 48.1448 110.0063 -37.9566 -17.7773 0.7715
# 4 -10.2473 -33.9705 -37.9566 63.0475 10.1080 5.1459
# 5 -1.7454 -6.7403 -17.7773 10.1080 38.2941 -18.0118
# 6 10.0808 46.1394 0.7715 5.1459 -18.0118 61.6825
#
#
#
# Elastic Compliance Matrix: (Units=1/GPa)
#
#
# Indices 1 2 3 4 5 6 
#
# 1 0.025999 -0.005833 0.000596 0.001431 0.000059 0.000005
# 2 -0.005833 0.010013 -0.003192 0.003990 -0.004927 -0.008268
# 3 0.000596 -0.003192 0.013087 0.005047 0.005808 0.003401
# 4 0.001431 0.003990 0.005047 0.022850 -0.006215 -0.007003
# 5 0.000059 -0.004927 0.005808 -0.006215 0.036544 0.014793
# 6 0.000005 -0.008268 0.003401 -0.007003 0.014793 0.027257
#
#
# Mechanical properties :
#
#
# Convention : Reuss Voigt Hill
#
# Bulk Modulus (GPa) = 31.01689 61.15899 46.08794
# Shear Modulus (GPa) = 30.60816 48.96882 39.78849
#
# Velocity S-wave (km/s) = 3.31326 4.19080 3.77760
# Velocity P-wave (km/s) = 5.07555 6.73438 5.96293
#
# Compressibility (1/GPa) = 0.03224050
#
# Stress axis : x y z
#
# Youngs Moduli (GPa) = 38.46346 99.87181 76.41117
#
# Poissons Ratio (x) = 0.58259 -0.04553
# Poissons Ratio (y) = 0.22437 0.24387
# Poissons Ratio (z) = -0.02292 0.31875
#
# Static dielectric constant tensor:
#      x y z
#    x 2.184440 -0.001760 0.024720 
#    y -0.001760 2.206750 0.069570 
#    z 0.024720 0.069570 2.264320 
# 
# From -- ./inp_files/169288.got.cif
#   From: 2010.05.17/outbox.cif.g08.bks.cpg/sg2_85_cif.got.tgz:169288.got - 2010.06.03 11:33:40.
