data_PCOD9075742
_publ_section_title
;
Structure prediction by ZEFSAII (Michael W. Deem and Ramdas Pophale) SiO2 
 PCOD9075742
Probable space group: P -1
;
_chemical_formula_sum "Si O2"
_cell_formula_units_Z 16
_cell_length_a 21.293891
_cell_length_b 9.852198
_cell_length_c 10.258045
_cell_angle_alpha 39.419113
_cell_angle_beta 142.645881
_cell_angle_gamma 125.199435
_cell_volume 825.157033
_symmetry_space_group_name_H-M "P -1"
_symmetry_group_IT_number 2
_symmetry_cell_setting 'triclinic'
loop_
_space_group_symop_operation_xyz
x,y,z
-x,-y,-z
loop_
_atom_site_type_symbol
_atom_site_label
_atom_site_fract_x
_atom_site_fract_y
_atom_site_fract_z
Si Si1 0.966091 0.286012 0.226902
Si Si2 0.593033 0.084771 0.413322
Si Si3 0.361513 0.061030 0.111860
Si Si4 0.221942 0.250890 0.062010
Si Si5 0.836035 0.964337 0.357485
Si Si6 0.716442 0.463552 0.268550
Si Si7 0.110089 0.862695 0.067733
Si Si8 0.102205 0.245828 0.134350
O O1 0.088251 0.214822 0.464113
O O2 0.910049 0.156537 0.340513
O O3 0.913735 0.208945 0.064884
O O4 0.940693 0.531916 0.033071
O O5 0.471938 0.055978 0.226193
O O6 0.625319 0.304658 0.241704
O O7 0.619762 0.070466 0.624160
O O8 0.667962 0.887057 0.625759
O O9 0.270569 0.979753 0.935168
O O10 0.324301 0.309736 0.900839
O O11 0.157058 0.285539 0.060732
O O12 0.160102 0.087577 0.993402
O O13 0.243327 0.461548 0.860687
O O14 0.822103 0.878208 0.543237
O O15 0.809993 0.321594 0.600276
O O16 0.001082 0.877176 0.953678
#
# Coordination Sequence:
#
# PCOD9075742 Si02
#       8
#     2   2   2   2   2   2   2   2
#     4  10  20  34  55  83 108 138 178 217 263 320
#     4   9  20  34  54  80 107 134 178 229 265 309
#     4  10  18  34  57  82 103 135 180 224 269 312
#     4  10  22  36  52  78 111 143 177 218 265 315
#     4  10  20  34  55  77 108 141 174 219 267 315
#     4  10  18  32  55  78 105 138 174 222 270 309
#     4  10  20  35  55  80 107 138 181 224 260 310
#     4  11  22  35  52  79 112 145 177 213 262 322
#
# _framework density 19.390248
#
# number of rings (size 3 to 8) (size 9 to 14) (size 15 to 20)
#    0.000    2.000    0.000    6.000    0.000    4.500 
#    0.000    0.625    0.000    1.500    0.000    0.000 
#    0.000    0.000    0.000    0.000    0.000    0.000 
#
# Total GULP energy -89297.447793 kJ/mol
# GULP energy per Si atom -5581.090487 kJ/mol
# Density = 1.934611 g / cm^3
# Si number density = 19.390248 Si / 1000 Ang^3
#
#
#
# Elastic Constant Matrix: (Units=GPa)
#
#
# Indices 1 2 3 4 5 6 
#
# 1 119.4980 31.5992 37.5315 8.2596 -1.5189 27.4905
# 2 31.5992 49.9111 24.9812 -1.3236 -11.2275 18.3123
# 3 37.5315 24.9812 63.5545 3.5579 5.1903 14.7905
# 4 8.2596 -1.3236 3.5579 24.8352 18.6847 -5.1986
# 5 -1.5189 -11.2275 5.1903 18.6847 30.1075 -1.5503
# 6 27.4905 18.3123 14.7905 -5.1986 -1.5503 30.0056
#
#
#
# Elastic Compliance Matrix: (Units=1/GPa)
#
#
# Indices 1 2 3 4 5 6 
#
# 1 0.013822 0.000052 -0.005445 -0.013277 0.009286 -0.011832
# 2 0.000052 0.039957 -0.012023 -0.023485 0.030469 -0.021002
# 3 -0.005445 -0.012023 0.024064 0.008692 -0.014237 0.001234
# 4 -0.013277 -0.023485 0.008692 0.106312 -0.075010 0.036756
# 5 0.009286 0.030469 -0.014237 -0.075010 0.092594 -0.028296
# 6 -0.011832 -0.021002 0.001234 0.036756 -0.028296 0.061283
#
#
# Mechanical properties :
#
#
# Convention : Reuss Voigt Hill
#
# Bulk Modulus (GPa) = 23.24859 46.79862 35.02360
# Shear Modulus (GPa) = 12.91325 26.24645 19.57985
#
# Velocity S-wave (km/s) = 2.58343 3.68311 3.18115
# Velocity P-wave (km/s) = 4.57326 6.50189 5.62091
#
# Compressibility (1/GPa) = 0.04301337
#
# Stress axis : x y z
#
# Youngs Moduli (GPa) = 72.34667 25.02706 41.55520
#
# Poissons Ratio (x) = -0.00130 0.22625
# Poissons Ratio (y) = -0.00377 0.49960
# Poissons Ratio (z) = 0.39390 0.30089
#
# Static dielectric constant tensor:
#      x y z
#    x 1.707300 0.020140 -0.022780 
#    y 0.020140 1.688320 -0.018490 
#    z -0.022780 -0.018490 1.704350 
# 
# From -- ./inp_files/343354.got.cif
#   From: 2010.05.17/outbox.cif.g08.bks.cpg/sg2_172_cif.got.tgz:343354.got - 2010.06.03 11:33:40.
