data_PCOD9075046
_publ_section_title
;
Structure prediction by ZEFSAII (Michael W. Deem and Ramdas Pophale) SiO2 
 PCOD9075046
Probable space group: P -1
;
_chemical_formula_sum "Si O2"
_cell_formula_units_Z 16
_cell_length_a 9.000000
_cell_length_b 21.000000
_cell_length_c 18.000000
_cell_angle_alpha 150.000000
_cell_angle_beta 140.000000
_cell_angle_gamma 30.000000
_cell_volume 848.746679
_symmetry_space_group_name_H-M "P -1"
_symmetry_group_IT_number 2
_symmetry_cell_setting 'triclinic'
loop_
_space_group_symop_operation_xyz
x,y,z
-x,-y,-z
loop_
_atom_site_type_symbol
_atom_site_label
_atom_site_fract_x
_atom_site_fract_y
_atom_site_fract_z
Si Si1 0.365589 0.655328 0.349839
Si Si2 0.607556 0.853533 0.641410
Si Si3 0.214796 0.038109 0.969313
Si Si4 0.180634 0.717096 0.809823
Si Si5 0.164858 0.523637 0.020110
Si Si6 0.704380 0.982598 0.467807
Si Si7 0.346022 0.848658 0.233064
Si Si8 0.558199 0.824207 0.022061
O O1 0.548610 0.723825 0.502146
O O2 0.560801 0.478381 0.286556
O O3 0.302778 0.602589 0.193112
O O4 0.036373 0.811247 0.408998
O O5 0.953755 0.767580 0.705608
O O6 0.457364 0.914567 0.564682
O O7 0.452855 0.025653 0.801028
O O8 0.964343 0.068028 0.847010
O O9 0.032104 0.202152 0.117055
O O10 0.500000 0.000000 0.000000
O O11 0.387325 0.884920 0.938575
O O12 0.344973 0.797795 0.956762
O O13 0.896774 0.657331 0.995999
O O14 0.419573 0.346215 0.898549
O O15 0.000000 0.500000 0.000000
O O16 0.506684 0.926202 0.353016
O O17 0.713365 0.095490 0.645819
#
# Coordination Sequence:
#
# PCOD9075046 Si02
#       8
#     2   2   2   2   2   2   2   2
#     4  12  23  39  67  95 129 164 214 272 323 366
#     4  11  23  38  62  99 129 160 215 274 321 377
#     4  11  24  40  62  96 135 170 208 271 331 381
#     4  11  22  43  70  94 123 177 228 260 310 404
#     4  12  20  41  69  95 125 168 230 268 304 394
#     4  11  23  40  65  93 129 170 210 273 325 380
#     4  11  23  42  64  93 131 171 215 261 329 388
#     4  11  22  41  74  95 123 174 233 260 312 400
#
# _framework density 18.851326
#
# number of rings (size 3 to 8) (size 9 to 14) (size 15 to 20)
#    0.000    0.750    5.000    3.750    3.500    0.000 
#    2.250    1.250    0.000    4.500    0.000    0.000 
#    0.000    0.000    0.000    0.000    0.000    0.000 
#
# Total GULP energy -89068.486368 kJ/mol
# GULP energy per Si atom -5566.780398 kJ/mol
# Density = 1.880842 g / cm^3
# Si number density = 18.851326 Si / 1000 Ang^3
#
#
#
# Elastic Constant Matrix: (Units=GPa)
#
#
# Indices 1 2 3 4 5 6 
#
# 1 43.9184 23.7842 31.5829 3.2202 -5.3531 -10.5010
# 2 23.7842 185.5924 48.4843 -15.5457 -18.6892 -5.1604
# 3 31.5829 48.4843 150.2088 -10.4122 -3.0125 -8.0742
# 4 3.2202 -15.5457 -10.4122 46.1673 -0.4025 0.2794
# 5 -5.3531 -18.6892 -3.0125 -0.4025 37.4360 -2.3469
# 6 -10.5010 -5.1604 -8.0742 0.2794 -2.3469 28.3307
#
#
#
# Elastic Compliance Matrix: (Units=1/GPa)
#
#
# Indices 1 2 3 4 5 6 
#
# 1 0.031024 -0.002276 -0.005481 -0.004196 0.003431 0.009848
# 2 -0.002276 0.006513 -0.001416 0.002056 0.002844 0.000154
# 3 -0.005481 -0.001416 0.008376 0.001788 -0.000796 0.000014
# 4 -0.004196 0.002056 0.001788 0.023060 0.000766 -0.000835
# 5 0.003431 0.002844 -0.000796 0.000766 0.028814 0.003942
# 6 0.009848 0.000154 0.000014 -0.000835 0.003942 0.039315
#
#
# Mechanical properties :
#
#
# Convention : Reuss Voigt Hill
#
# Bulk Modulus (GPa) = 36.27578 65.26915 50.77246
# Shear Modulus (GPa) = 30.36999 40.77802 35.57400
#
# Velocity S-wave (km/s) = 4.01811 4.65600 4.34877
# Velocity P-wave (km/s) = 6.38842 7.97513 7.22546
#
# Compressibility (1/GPa) = 0.02756660
#
# Stress axis : x y z
#
# Youngs Moduli (GPa) = 32.23262 153.54935 119.39570
#
# Poissons Ratio (x) = 0.34949 0.65443
# Poissons Ratio (y) = 0.07336 0.16903
# Poissons Ratio (z) = 0.17667 0.21738
#
# Static dielectric constant tensor:
#      x y z
#    x 1.775770 0.038530 -0.000550 
#    y 0.038530 1.667780 -0.005380 
#    z -0.000550 -0.005380 1.639870 
# 
# From -- ./inp_files/562677.got.cif
#   From: 2010.05.17/outbox.ucp.g08.bks.cvg/sg2_282_cif.got.tgz:562677.got - 2010.06.11 11:32:03.
