data_PCOD9075056
_publ_section_title
;
Structure prediction by ZEFSAII (Michael W. Deem and Ramdas Pophale) SiO2 
 PCOD9075056
Probable space group: P -1
;
_chemical_formula_sum "Si O2"
_cell_formula_units_Z 14
_cell_length_a 9.000000
_cell_length_b 9.000000
_cell_length_c 18.000000
_cell_angle_alpha 30.000000
_cell_angle_beta 70.000000
_cell_angle_gamma 60.000000
_cell_volume 617.235917
_symmetry_space_group_name_H-M "P -1"
_symmetry_group_IT_number 2
_symmetry_cell_setting 'triclinic'
loop_
_space_group_symop_operation_xyz
x,y,z
-x,-y,-z
loop_
_atom_site_type_symbol
_atom_site_label
_atom_site_fract_x
_atom_site_fract_y
_atom_site_fract_z
Si Si1 0.852486 0.311174 0.170790
Si Si2 0.183705 0.301298 0.593059
Si Si3 0.799121 0.166155 0.996888
Si Si4 0.511720 0.342106 0.851028
Si Si5 0.469476 0.293579 0.434385
Si Si6 0.641303 0.685160 0.301433
Si Si7 0.233859 0.238962 0.145952
O O1 0.694676 0.400707 0.218852
O O2 0.056065 0.185985 0.214724
O O3 0.822999 0.043890 0.241428
O O4 0.796686 0.631912 0.989867
O O5 0.339428 0.270901 0.526012
O O6 0.227954 0.443487 0.596639
O O7 0.000000 0.500000 0.500000
O O8 0.733068 0.887001 0.154224
O O9 0.637122 0.367313 0.881838
O O10 0.787455 0.447079 0.935859
O O11 0.000000 0.000000 0.000000
O O12 0.607499 0.382995 0.743763
O O13 0.500000 0.000000 0.000000
O O14 0.625699 0.362032 0.412849
O O15 0.500000 0.000000 0.500000
O O16 0.436076 0.948443 0.243190
#
# Coordination Sequence:
#
# PCOD9075056 Si02
#       7
#     2   2   2   2   2   2   2
#     4  11  22  42  70 106 139 184 243 292 355 429
#     4  12  27  47  70  99 146 197 243 286 353 443
#     4  12  25  39  71 108 143 182 236 301 360 420
#     4  12  23  44  71 103 145 179 235 305 365 418
#     4  12  27  46  72 102 145 190 235 296 365 427
#     4  12  25  49  72 103 142 196 245 293 359 434
#     4  11  23  42  75 105 141 186 241 301 358 428
#
# _framework density 22.681764999999999
#
# number of rings (size 3 to 8) (size 9 to 14) (size 15 to 20)
#    0.000    0.286    5.714    3.429    2.000    2.286 
#    0.000    0.714    0.000    0.000    0.000    0.000 
#    0.000    0.000    0.000    0.000    0.000    0.000 
#
# Total GULP energy -78003.066526 kJ/mol
# GULP energy per Si atom -5571.647609 kJ/mol
# Density = 2.263014 g / cm^3
# Si number density = 22.681765 Si / 1000 Ang^3
#
#
#
# Elastic Constant Matrix: (Units=GPa)
#
#
# Indices 1 2 3 4 5 6 
#
# 1 208.5007 60.0331 43.5160 5.5537 -25.9144 9.8221
# 2 60.0331 68.2292 12.4727 -7.6268 -12.5867 12.5355
# 3 43.5160 12.4727 66.0434 1.7933 -19.2733 11.1865
# 4 5.5537 -7.6268 1.7933 35.5409 5.3446 -5.4837
# 5 -25.9144 -12.5867 -19.2733 5.3446 50.2448 -6.0490
# 6 9.8221 12.5355 11.1865 -5.4837 -6.0490 52.4777
#
#
#
# Elastic Compliance Matrix: (Units=1/GPa)
#
#
# Indices 1 2 3 4 5 6 
#
# 1 0.007462 -0.006086 -0.003426 -0.002395 0.001348 0.000693
# 2 -0.006086 0.021306 0.000923 0.004695 0.001636 -0.003468
# 3 -0.003426 0.000923 0.019487 -0.001610 0.005720 -0.003242
# 4 -0.002395 0.004695 -0.001610 0.030522 -0.003629 0.002441
# 5 0.001348 0.001636 0.005720 -0.003629 0.023646 0.000484
# 6 0.000693 -0.003468 -0.003242 0.002441 0.000484 0.020756
#
#
# Mechanical properties :
#
#
# Convention : Reuss Voigt Hill
#
# Bulk Modulus (GPa) = 32.17727 63.86854 48.02291
# Shear Modulus (GPa) = 33.17477 42.76944 37.97211
#
# Velocity S-wave (km/s) = 3.82857 4.34710 4.09605
# Velocity P-wave (km/s) = 5.81043 7.30863 6.60216
#
# Compressibility (1/GPa) = 0.03107784
#
# Stress axis : x y z
#
# Youngs Moduli (GPa) = 134.00799 46.93471 51.31631
#
# Poissons Ratio (x) = 0.28563 0.17583
# Poissons Ratio (y) = 0.81554 -0.04738
# Poissons Ratio (z) = 0.45917 -0.04334
#
# Static dielectric constant tensor:
#      x y z
#    x 1.869470 0.100380 0.014410 
#    y 0.100380 1.957650 0.008880 
#    z 0.014410 0.008880 1.971170 
# 
# From -- ./inp_files/151698.got.cif
#   From: 2010.05.17/outbox.ucp.g08.bks.cvg/sg2_76_cif.got.tgz:151698.got - 2010.06.11 11:32:03.
