data_PCOD9075515
_publ_section_title
;
Structure prediction by ZEFSAII (Michael W. Deem and Ramdas Pophale) SiO2 
 PCOD9075515
Probable space group: P -1
;
_chemical_formula_sum "Si O2"
_cell_formula_units_Z 16
_cell_length_a 12.000000
_cell_length_b 12.000000
_cell_length_c 12.000000
_cell_angle_alpha 80.000000
_cell_angle_beta 110.000000
_cell_angle_gamma 40.000000
_cell_volume 722.981415
_symmetry_space_group_name_H-M "P -1"
_symmetry_group_IT_number 2
_symmetry_cell_setting 'triclinic'
loop_
_space_group_symop_operation_xyz
x,y,z
-x,-y,-z
loop_
_atom_site_type_symbol
_atom_site_label
_atom_site_fract_x
_atom_site_fract_y
_atom_site_fract_z
Si Si1 0.655024 0.432256 0.226687
Si Si2 0.974319 0.438751 0.708293
Si Si3 0.171796 0.904218 0.822186
Si Si4 0.074192 0.563059 0.045211
Si Si5 0.088337 0.248517 0.396553
Si Si6 0.383350 0.913889 0.333995
Si Si7 0.652282 0.023352 0.240361
Si Si8 0.359909 0.671133 0.314418
O O1 0.823955 0.197396 0.253501
O O2 0.848265 0.371811 0.326180
O O3 0.505553 0.516975 0.273950
O O4 0.433854 0.663765 0.025460
O O5 0.920772 0.434232 0.816695
O O6 0.010539 0.543726 0.710499
O O7 0.231231 0.164880 0.781620
O O8 0.699353 0.664103 0.503660
O O9 0.181334 0.009820 0.735489
O O10 0.942425 0.102640 0.802052
O O11 0.358768 0.327275 0.117092
O O12 0.000000 0.500000 0.000000
O O13 0.824785 0.846402 0.862546
O O14 0.255079 0.052154 0.386619
O O15 0.268503 0.100110 0.593817
O O16 0.369212 0.797417 0.309916
O O17 0.500000 0.500000 0.500000
#
# Coordination Sequence:
#
# PCOD9075515 Si02
#       8
#     2   2   2   2   2   2   2   2
#     4  11  26  46  73 104 145 188 244 307 369 438
#     4  12  27  51  76 110 157 196 254 305 373 455
#     4  11  26  47  69 107 145 187 245 307 366 436
#     4  12  27  48  75 111 153 203 245 311 374 443
#     4  12  23  48  75 107 150 200 242 309 374 445
#     4  12  25  49  77 111 154 199 247 310 384 442
#     4  12  28  46  79 110 149 198 253 306 374 448
#     4  12  27  47  76 106 143 196 250 302 380 447
#
# _framework density 22.130583000000001
#
# number of rings (size 3 to 8) (size 9 to 14) (size 15 to 20)
#    0.000    0.250    3.750    4.875    5.250    3.500 
#    2.250    0.000    0.000    0.000    0.000    0.000 
#    0.000    0.000    0.000    0.000    0.000    0.000 
#
# Total GULP energy -89317.449466 kJ/mol
# GULP energy per Si atom -5582.340592 kJ/mol
# Density = 2.208021 g / cm^3
# Si number density = 22.130583 Si / 1000 Ang^3
#
#
#
# Elastic Constant Matrix: (Units=GPa)
#
#
# Indices 1 2 3 4 5 6 
#
# 1 66.7516 0.6116 10.4843 1.8326 -12.1058 -4.9730
# 2 0.6116 104.5031 15.5640 7.3335 -15.5722 -17.0635
# 3 10.4843 15.5640 100.3987 -2.5770 -22.6622 0.3537
# 4 1.8326 7.3335 -2.5770 35.1011 -6.3174 -10.0446
# 5 -12.1058 -15.5722 -22.6622 -6.3174 37.6706 -2.4598
# 6 -4.9730 -17.0635 0.3537 -10.0446 -2.4598 45.2484
#
#
#
# Elastic Compliance Matrix: (Units=1/GPa)
#
#
# Indices 1 2 3 4 5 6 
#
# 1 0.016276 0.001236 -0.000606 0.000642 0.005661 0.002710
# 2 0.001236 0.011155 -0.000805 -0.000296 0.004771 0.004543
# 3 -0.000606 -0.000805 0.011792 0.002460 0.007009 0.000465
# 4 0.000642 -0.000296 0.002460 0.032182 0.007450 0.007489
# 5 0.005661 0.004771 0.007009 0.007450 0.036195 0.005988
# 6 0.002710 0.004543 0.000465 0.007489 0.005988 0.026095
#
#
# Mechanical properties :
#
#
# Convention : Reuss Voigt Hill
#
# Bulk Modulus (GPa) = 25.72528 36.10814 30.91671
# Shear Modulus (GPa) = 34.01292 39.93693 36.97493
#
# Velocity S-wave (km/s) = 3.92461 4.25267 4.09193
# Velocity P-wave (km/s) = 5.67330 6.36121 6.02708
#
# Compressibility (1/GPa) = 0.03887227
#
# Stress axis : x y z
#
# Youngs Moduli (GPa) = 61.44098 89.64426 84.80291
#
# Poissons Ratio (x) = -0.11081 0.05143
# Poissons Ratio (y) = -0.07595 0.06826
# Poissons Ratio (z) = 0.03726 0.07216
#
# Static dielectric constant tensor:
#      x y z
#    x 1.840280 -0.004710 0.031800 
#    y -0.004710 1.825600 -0.018690 
#    z 0.031800 -0.018690 1.881160 
# 
# From -- ./inp_files/428180.got.cif
#   From: 2010.05.17/outbox.ucp.g08.bks.cvg/sg2_215_cif.got.tgz:428180.got - 2010.06.11 11:32:03.
