data_PCOD9075809
_publ_section_title
;
Structure prediction by ZEFSAII (Michael W. Deem and Ramdas Pophale) SiO2 
 PCOD9075809
Probable space group: P -1
;
_chemical_formula_sum "Si O2"
_cell_formula_units_Z 16
_cell_length_a 11.772324
_cell_length_b 19.630902
_cell_length_c 7.088062
_cell_angle_alpha 116.675818
_cell_angle_beta 73.773872
_cell_angle_gamma 153.798741
_cell_volume 613.847622
_symmetry_space_group_name_H-M "P -1"
_symmetry_group_IT_number 2
_symmetry_cell_setting 'triclinic'
loop_
_space_group_symop_operation_xyz
x,y,z
-x,-y,-z
loop_
_atom_site_type_symbol
_atom_site_label
_atom_site_fract_x
_atom_site_fract_y
_atom_site_fract_z
Si Si1 0.983887 0.032501 0.847689
Si Si2 0.600585 0.677264 0.556577
Si Si3 0.528782 0.020175 0.282845
Si Si4 0.912764 0.121806 0.237138
Si Si5 0.458052 0.643731 0.214776
Si Si6 0.483129 0.835258 0.406744
Si Si7 0.113513 0.661840 0.861120
Si Si8 0.107974 0.485450 0.652260
O O1 0.280535 0.216450 0.859250
O O2 0.799587 0.862367 0.622892
O O3 0.872653 0.049956 0.977576
O O4 0.000000 0.000000 0.000000
O O5 0.468576 0.585445 0.301212
O O6 0.363081 0.577026 0.667822
O O7 0.788891 0.724038 0.626642
O O8 0.500000 0.000000 0.500000
O O9 0.830682 0.161369 0.291263
O O10 0.451583 0.062937 0.341315
O O11 0.339005 0.854127 0.046634
O O12 0.699578 0.967113 0.301847
O O13 0.474143 0.744938 0.376032
O O14 0.153143 0.466284 0.057903
O O15 0.173084 0.678417 0.304679
O O16 0.208893 0.630675 0.816727
O O17 0.998411 0.587651 0.606568
#
# Coordination Sequence:
#
# PCOD9075809 Si02
#       8
#     2   2   2   2   2   2   2   2
#     4  10  18  32  55  90 123 150 196 252 303 358
#     4  10  19  34  60  89 125 147 193 263 309 351
#     4  10  22  41  58  82 125 174 199 237 301 377
#     4  10  21  37  55  86 122 161 197 243 302 362
#     4  10  19  36  64  97 112 154 203 264 311 339
#     4  10  20  37  60  87 121 155 206 238 305 365
#     4   9  19  38  61  89 126 153 207 255 302 358
#     4   9  19  36  62  95 116 153 203 268 303 339
#
# _framework density 26.065100000000001
#
# number of rings (size 3 to 8) (size 9 to 14) (size 15 to 20)
#    0.000    2.250    2.500    1.875    0.000    0.500 
#    9.000    6.250    2.750    6.000    0.000    0.000 
#    0.000    0.000    0.000    0.000    0.000    0.000 
#
# Total GULP energy -89296.262157 kJ/mol
# GULP energy per Si atom -5581.016385 kJ/mol
# Density = 2.600577 g / cm^3
# Si number density = 26.065100 Si / 1000 Ang^3
#
#
#
# Elastic Constant Matrix: (Units=GPa)
#
#
# Indices 1 2 3 4 5 6 
#
# 1 117.0882 38.9699 38.6063 3.0505 0.1588 34.4939
# 2 38.9699 155.7272 25.7806 -6.7131 -9.7044 36.8442
# 3 38.6063 25.7806 98.1980 4.4628 -9.8122 11.7418
# 4 3.0505 -6.7131 4.4628 34.6205 2.5093 -6.0839
# 5 0.1588 -9.7044 -9.8122 2.5093 39.9383 -1.3727
# 6 34.4939 36.8442 11.7418 -6.0839 -1.3727 46.7572
#
#
#
# Elastic Compliance Matrix: (Units=1/GPa)
#
#
# Indices 1 2 3 4 5 6 
#
# 1 0.012432 -0.000785 -0.003773 -0.002057 -0.001310 -0.007911
# 2 -0.000785 0.008220 -0.001076 0.000728 0.001502 -0.005489
# 3 -0.003773 -0.001076 0.012258 -0.001589 0.002880 0.000431
# 4 -0.002057 0.000728 -0.001589 0.030475 -0.001940 0.005251
# 5 -0.001310 0.001502 0.002880 -0.001940 0.026223 -0.000423
# 6 -0.007911 -0.005489 0.000431 0.005251 -0.000423 0.032111
#
#
# Mechanical properties :
#
#
# Convention : Reuss Voigt Hill
#
# Bulk Modulus (GPa) = 46.20770 64.19189 55.19979
# Shear Modulus (GPa) = 35.66311 42.10699 38.88505
#
# Velocity S-wave (km/s) = 3.70298 4.02363 3.86663
# Velocity P-wave (km/s) = 6.00408 6.80200 6.41546
#
# Compressibility (1/GPa) = 0.02164142
#
# Stress axis : x y z
#
# Youngs Moduli (GPa) = 80.43874 121.65956 81.58076
#
# Poissons Ratio (x) = 0.09549 0.30780
# Poissons Ratio (y) = 0.06314 0.08779
# Poissons Ratio (z) = 0.30349 0.13092
#
# Static dielectric constant tensor:
#      x y z
#    x 2.080600 -0.058710 0.036700 
#    y -0.058710 2.124030 0.031330 
#    z 0.036700 0.031330 2.342590 
# 
# From -- ./inp_files/320712.got.cif
#   From: 2010.05.17/outbox.cif.g08.bks.cpg/sg2_161_cif.got.tgz:320712.got - 2010.06.03 11:33:40.
