data_PCOD9075643
_publ_section_title
;
Structure prediction by ZEFSAII (Michael W. Deem and Ramdas Pophale) SiO2 
 PCOD9075643
Probable space group: P -1
;
_chemical_formula_sum "Si O2"
_cell_formula_units_Z 16
_cell_length_a 9.000000
_cell_length_b 9.000000
_cell_length_c 15.000000
_cell_angle_alpha 110.000000
_cell_angle_beta 40.000000
_cell_angle_gamma 100.000000
_cell_volume 725.993766
_symmetry_space_group_name_H-M "P -1"
_symmetry_group_IT_number 2
_symmetry_cell_setting 'triclinic'
loop_
_space_group_symop_operation_xyz
x,y,z
-x,-y,-z
loop_
_atom_site_type_symbol
_atom_site_label
_atom_site_fract_x
_atom_site_fract_y
_atom_site_fract_z
Si Si1 0.526935 0.371827 0.201480
Si Si2 0.982291 0.186113 0.019509
Si Si3 0.961584 0.266586 0.236237
Si Si4 0.492020 0.255076 0.747068
Si Si5 0.527070 0.814417 0.975623
Si Si6 0.135363 0.809026 0.292135
Si Si7 0.880575 0.556742 0.470352
Si Si8 0.735009 0.063983 0.437456
O O1 0.775488 0.257230 0.063121
O O2 0.536031 0.551888 0.200487
O O3 0.395258 0.287625 0.168672
O O4 0.379571 0.375767 0.361501
O O5 0.887325 0.285993 0.172336
O O6 0.232232 0.212211 0.870330
O O7 0.000000 0.000000 0.000000
O O8 0.888890 0.415276 0.365504
O O9 0.864553 0.124151 0.304413
O O10 0.239201 0.223905 0.082488
O O11 0.661187 0.160909 0.725319
O O12 0.627457 0.203655 0.582831
O O13 0.301623 0.764195 0.119358
O O14 0.500000 0.000000 0.000000
O O15 0.009618 0.684106 0.382482
O O16 0.928706 0.943515 0.378881
O O17 0.000000 0.500000 0.500000
O O18 0.500000 0.000000 0.500000
#
# Coordination Sequence:
#
# PCOD9075643 Si02
#       8
#     2   2   2   2   2   2   2   2
#     4  12  28  48  75 104 153 188 243 307 364 434
#     4  12  29  47  73 109 148 194 244 302 371 429
#     4  12  24  48  72 101 149 191 243 299 362 437
#     4  12  26  50  71 105 145 196 241 299 364 435
#     4  12  25  45  76 108 141 191 247 304 361 433
#     4  12  27  45  78 107 142 194 245 298 365 437
#     4  12  25  48  74 111 145 188 247 306 361 435
#     4  12  28  46  72 108 150 189 243 300 361 432
#
# _framework density 22.038757
#
# number of rings (size 3 to 8) (size 9 to 14) (size 15 to 20)
#    0.000    0.000    6.250    2.250    7.000    2.500 
#    0.000    0.000    0.000    0.000    0.000    0.000 
#    0.000    0.000    0.000    0.000    0.000    0.000 
#
# Total GULP energy -89322.813523 kJ/mol
# GULP energy per Si atom -5582.675845 kJ/mol
# Density = 2.198860 g / cm^3
# Si number density = 22.038757 Si / 1000 Ang^3
#
#
#
# Elastic Constant Matrix: (Units=GPa)
#
#
# Indices 1 2 3 4 5 6 
#
# 1 40.4759 -18.2511 6.0501 -2.0788 -21.4414 -3.9415
# 2 -18.2511 73.8912 28.1289 -17.9006 -13.2343 5.9886
# 3 6.0501 28.1289 143.4106 -20.9375 -13.0976 5.7751
# 4 -2.0788 -17.9006 -20.9375 44.1981 1.3412 5.4887
# 5 -21.4414 -13.2343 -13.0976 1.3412 58.0079 2.7201
# 6 -3.9415 5.9886 5.7751 5.4887 2.7201 24.1585
#
#
#
# Elastic Compliance Matrix: (Units=1/GPa)
#
#
# Indices 1 2 3 4 5 6 
#
# 1 0.042955 0.016642 -0.002284 0.007143 0.019009 -0.000334
# 2 0.016642 0.023361 -0.002686 0.009359 0.010929 -0.005790
# 3 -0.002284 -0.002686 0.008162 0.002953 0.000429 -0.002377
# 4 0.007143 0.009359 0.002953 0.029118 0.005194 -0.009061
# 5 0.019009 0.010929 0.000429 0.005194 0.026920 -0.003922
# 6 -0.000334 -0.005790 -0.002377 -0.009061 -0.003922 0.045843
#
#
# Mechanical properties :
#
#
# Convention : Reuss Voigt Hill
#
# Bulk Modulus (GPa) = 10.22274 32.18149 21.20211
# Shear Modulus (GPa) = 26.93629 41.39625 34.16627
#
# Velocity S-wave (km/s) = 3.49982 4.33868 3.94163
# Velocity P-wave (km/s) = 4.58042 6.30340 5.50968
#
# Compressibility (1/GPa) = 0.09782116
#
# Stress axis : x y z
#
# Youngs Moduli (GPa) = 23.27994 42.80716 122.51364
#
# Poissons Ratio (x) = -0.71238 0.27980
# Poissons Ratio (y) = -0.38742 0.32911
# Poissons Ratio (z) = 0.05317 0.11499
#
# Static dielectric constant tensor:
#      x y z
#    x 1.855740 0.044500 0.003560 
#    y 0.044500 1.818210 0.041480 
#    z 0.003560 0.041480 1.791570 
# 
# From -- ./inp_files/495370.got.cif
#   From: 2010.05.17/outbox.ucp.g08.bks.cvg/sg2_248_cif.got.tgz:495370.got - 2010.06.11 11:32:03.
