data_PCOD9075418
_publ_section_title
;
Structure prediction by ZEFSAII (Michael W. Deem and Ramdas Pophale) SiO2 
 PCOD9075418
Probable space group: P -1
;
_chemical_formula_sum "Si O2"
_cell_formula_units_Z 15
_cell_length_a 18.000000
_cell_length_b 12.000000
_cell_length_c 18.000000
_cell_angle_alpha 30.000000
_cell_angle_beta 20.000000
_cell_angle_gamma 30.000000
_cell_volume 633.120058
_symmetry_space_group_name_H-M "P -1"
_symmetry_group_IT_number 2
_symmetry_cell_setting 'triclinic'
loop_
_space_group_symop_operation_xyz
x,y,z
-x,-y,-z
loop_
_atom_site_type_symbol
_atom_site_label
_atom_site_fract_x
_atom_site_fract_y
_atom_site_fract_z
Si Si1 0.237681 0.827239 0.281591
Si Si2 0.298950 0.873852 0.599270
Si Si3 0.669356 0.592827 0.936795
Si Si4 0.589448 0.099358 0.285378
Si Si5 0.021615 0.694320 0.070857
Si Si6 0.041552 0.292053 0.520921
Si Si7 0.500000 0.500000 0.500000
Si Si8 0.862345 0.310838 0.383069
O O1 0.494193 0.789083 0.036703
O O2 0.233352 0.709376 0.433488
O O3 0.134478 0.711970 0.377462
O O4 0.086349 0.093913 0.282090
O O5 0.430973 0.671929 0.537666
O O6 0.440903 0.044049 0.391024
O O7 0.073450 0.049764 0.673862
O O8 0.233773 0.754506 0.801713
O O9 0.582487 0.367078 0.137548
O O10 0.894113 0.480680 0.839292
O O11 0.735528 0.697451 0.739782
O O12 0.500000 0.000000 0.500000
O O13 0.842013 0.930621 0.130129
O O14 0.925045 0.552886 0.182622
O O15 0.000000 0.500000 0.500000
O O16 0.685668 0.306692 0.488104
#
# Coordination Sequence:
#
# PCOD9075418 Si02
#       8
#     2   2   2   2   2   2   1   2
#     4  11  25  49  73 106 145 191 241 294 362 424
#     4  12  27  45  72 106 146 187 237 305 354 419
#     4  12  26  44  76 104 142 194 241 286 360 437
#     4  12  25  44  75 106 142 183 240 301 355 423
#     4  12  25  45  74 110 137 193 242 291 361 427
#     4  12  27  47  70 104 150 187 239 295 358 428
#     4  12  24  50  72 106 146 188 236 306 360 408
#     4  11  24  48  78 105 145 187 243 302 351 434
#
# _framework density 23.692188999999999
#
# number of rings (size 3 to 8) (size 9 to 14) (size 15 to 20)
#    0.000    0.267    5.333    3.600    1.867    5.333 
#    0.000    0.000    0.000    0.000    0.000    0.000 
#    0.000    0.000    0.000    0.000    0.000    0.000 
#
# Total GULP energy -83622.068996 kJ/mol
# GULP energy per Si atom -5574.804600 kJ/mol
# Density = 2.363826 g / cm^3
# Si number density = 23.692189 Si / 1000 Ang^3
#
#
#
# Elastic Constant Matrix: (Units=GPa)
#
#
# Indices 1 2 3 4 5 6 
#
# 1 61.1605 20.7868 -0.7171 5.3014 -4.1801 5.7201
# 2 20.7868 77.7107 36.7556 26.1895 13.5993 4.4451
# 3 -0.7171 36.7556 20.5528 -7.1195 0.3427 15.1939
# 4 5.3014 26.1895 -7.1195 22.7400 -6.4480 8.2914
# 5 -4.1801 13.5993 0.3427 -6.4480 6.3576 3.1229
# 6 5.7201 4.4451 15.1939 8.2914 3.1229 39.0849
#
#
#
# Elastic Compliance Matrix: (Units=1/GPa)
#
#
# Indices 1 2 3 4 5 6 
#
# 1 0.016274 0.001421 -0.006053 -0.008282 -0.001231 0.001665
# 2 0.001421 -0.000639 0.012269 0.013160 0.019534 -0.009257
# 3 -0.006053 0.012269 0.016517 -0.025130 -0.058096 0.003043
# 4 -0.008282 0.013160 -0.025130 0.013271 -0.022958 0.008504
# 5 -0.001231 0.019534 -0.058096 -0.022958 0.085413 0.018589
# 6 0.001665 -0.009257 0.003043 0.008504 0.018589 0.021922
#
#
# Mechanical properties :
#
#
# Convention : Reuss Voigt Hill
#
# Bulk Modulus (GPa) = 21.08532 30.34162 25.71347
# Shear Modulus (GPa) = 32.61696 20.47641 26.54669
#
# Velocity S-wave (km/s) = 3.71441 2.94303 3.35099
# Velocity P-wave (km/s) = 5.22636 4.93791 5.08418
#
# Compressibility (1/GPa) = 0.04742636
#
# Stress axis : x y z
#
# Youngs Moduli (GPa) = 61.44603 -1565.07063 60.54343
#
# Poissons Ratio (x) = 2.22431 0.36648
# Poissons Ratio (y) = -0.08733 -0.74280
# Poissons Ratio (z) = 0.37194 19.20155
#
# Static dielectric constant tensor:
#      x y z
#    x 1.912260 -0.048430 -0.095580 
#    y -0.048430 1.986310 0.027070 
#    z -0.095580 0.027070 1.921820 
# 
# From -- ./inp_files/70427.got.cif
#   From: 2010.05.17/outbox.ucp.g08.bks.cvg/sg2_36_cif.got.tgz:70427.got - 2010.06.11 11:32:03.
