data_PCOD9075354
_publ_section_title
;
Structure prediction by ZEFSAII (Michael W. Deem and Ramdas Pophale) SiO2 
 PCOD9075354
Probable space group: P -1
;
_chemical_formula_sum "Si O2"
_cell_formula_units_Z 14
_cell_length_a 12.000000
_cell_length_b 12.000000
_cell_length_c 6.000000
_cell_angle_alpha 110.000000
_cell_angle_beta 130.000000
_cell_angle_gamma 70.000000
_cell_volume 612.923978
_symmetry_space_group_name_H-M "P -1"
_symmetry_group_IT_number 2
_symmetry_cell_setting 'triclinic'
loop_
_space_group_symop_operation_xyz
x,y,z
-x,-y,-z
loop_
_atom_site_type_symbol
_atom_site_label
_atom_site_fract_x
_atom_site_fract_y
_atom_site_fract_z
Si Si1 0.834211 0.049597 0.261874
Si Si2 0.819143 0.263685 0.101347
Si Si3 0.740862 0.643739 0.759498
Si Si4 0.387262 0.568629 0.726417
Si Si5 0.360871 0.781817 0.567194
Si Si6 0.577222 0.910452 0.730871
Si Si7 0.898278 0.630193 0.457411
O O1 0.816893 0.125477 0.064950
O O2 0.782480 0.152226 0.445626
O O3 0.000000 0.000000 0.500000
O O4 0.722318 0.956168 0.036138
O O5 0.751809 0.360452 0.266889
O O6 0.988715 0.276017 0.306023
O O7 0.703796 0.283908 0.765024
O O8 0.663857 0.525696 0.573606
O O9 0.629688 0.768239 0.655645
O O10 0.821769 0.633627 0.609302
O O11 0.818607 0.647167 0.113779
O O12 0.450107 0.677359 0.762620
O O13 0.500000 0.500000 0.000000
O O14 0.448495 0.891538 0.720358
O O15 0.500000 0.000000 0.500000
O O16 0.000000 0.500000 0.500000
#
# Coordination Sequence:
#
# PCOD9075354 Si02
#       7
#     2   2   2   2   2   2   2
#     4  11  26  47  72 109 148 200 259 312 382 460
#     4  11  24  44  73 107 146 195 251 319 384 458
#     4  12  29  48  78 115 157 204 262 322 394 470
#     4  11  26  45  74 109 148 193 258 317 395 460
#     4  11  26  47  80 104 153 199 256 326 388 461
#     4  12  27  50  75 111 153 208 264 319 386 469
#     4  12  26  47  77 115 158 200 254 324 402 469
#
# _framework density 22.841332000000001
#
# number of rings (size 3 to 8) (size 9 to 14) (size 15 to 20)
#    0.000    0.571    2.857    3.429   10.000    4.000 
#    0.000    0.000    0.000    0.000    0.000    0.000 
#    0.000    0.000    0.000    0.000    0.000    0.000 
#
# Total GULP energy -77993.725221 kJ/mol
# GULP energy per Si atom -5570.980373 kJ/mol
# Density = 2.278934 g / cm^3
# Si number density = 22.841332 Si / 1000 Ang^3
#
#
#
# Elastic Constant Matrix: (Units=GPa)
#
#
# Indices 1 2 3 4 5 6 
#
# 1 78.7491 38.0800 30.2444 -13.9542 5.5582 13.6086
# 2 38.0800 133.3711 35.1672 -22.2634 8.4777 20.1671
# 3 30.2444 35.1672 132.8759 -8.9517 16.0480 19.1617
# 4 -13.9542 -22.2634 -8.9517 48.2548 8.8493 7.0284
# 5 5.5582 8.4777 16.0480 8.8493 30.6421 1.7729
# 6 13.6086 20.1671 19.1617 7.0284 1.7729 44.5409
#
#
#
# Elastic Compliance Matrix: (Units=1/GPa)
#
#
# Indices 1 2 3 4 5 6 
#
# 1 0.016235 -0.002829 -0.001947 0.003900 -0.002074 -0.003375
# 2 -0.002829 0.010122 -0.000755 0.004861 -0.003062 -0.004039
# 3 -0.001947 -0.000755 0.009360 0.002174 -0.004780 -0.003243
# 4 0.003900 0.004861 0.002174 0.027664 -0.010702 -0.008267
# 5 -0.002074 -0.003062 -0.004780 -0.010702 0.039209 0.004205
# 6 -0.003375 -0.004039 -0.003243 -0.008267 0.004205 0.027843
#
#
# Mechanical properties :
#
#
# Convention : Reuss Voigt Hill
#
# Bulk Modulus (GPa) = 40.55930 61.33102 50.94516
# Shear Modulus (GPa) = 33.39717 40.78786 37.09251
#
# Velocity S-wave (km/s) = 3.82794 4.23034 4.03416
# Velocity P-wave (km/s) = 6.11007 7.12533 6.63714
#
# Compressibility (1/GPa) = 0.02465526
#
# Stress axis : x y z
#
# Youngs Moduli (GPa) = 61.59594 98.79906 106.83502
#
# Poissons Ratio (x) = 0.27949 0.20797
# Poissons Ratio (y) = 0.17425 0.08068
# Poissons Ratio (z) = 0.11991 0.07461
#
# Static dielectric constant tensor:
#      x y z
#    x 2.137580 0.045950 0.035460 
#    y 0.045950 1.755670 0.172110 
#    z 0.035460 0.172110 1.566830 
# 
# From -- ./inp_files/60312.got.cif
#   From: 2010.05.17/outbox.ucp.g08.bks.cvg/sg2_31_cif.got.tgz:60312.got - 2010.06.11 11:32:03.
