data_PCOD9075810
_publ_section_title
;
Structure prediction by ZEFSAII (Michael W. Deem and Ramdas Pophale) SiO2 
 PCOD9075810
Probable space group: P -1
;
_chemical_formula_sum "Si O2"
_cell_formula_units_Z 16
_cell_length_a 11.326795
_cell_length_b 15.471526
_cell_length_c 21.836296
_cell_angle_alpha 157.276954
_cell_angle_beta 150.721365
_cell_angle_gamma 41.936119
_cell_volume 684.618308
_symmetry_space_group_name_H-M "P -1"
_symmetry_group_IT_number 2
_symmetry_cell_setting 'triclinic'
loop_
_space_group_symop_operation_xyz
x,y,z
-x,-y,-z
loop_
_atom_site_type_symbol
_atom_site_label
_atom_site_fract_x
_atom_site_fract_y
_atom_site_fract_z
Si Si1 0.842835 0.552701 0.129915
Si Si2 0.688172 0.430205 0.119719
Si Si3 0.344168 0.260059 0.054669
Si Si4 0.839662 0.939293 0.582625
Si Si5 0.357951 0.979506 0.335727
Si Si6 0.089755 0.382676 0.359920
Si Si7 0.419189 0.704667 0.458227
Si Si8 0.838008 0.178358 0.231253
O O1 0.777360 0.477269 0.121081
O O2 0.143885 0.692226 0.351382
O O3 0.622780 0.662104 0.079741
O O4 0.785937 0.299661 0.904906
O O5 0.768495 0.693914 0.356334
O O6 0.866903 0.315615 0.164705
O O7 0.359879 0.516227 0.252020
O O8 0.609874 0.257256 0.147240
O O9 0.289608 0.089126 0.978347
O O10 0.115211 0.125625 0.819045
O O11 0.800559 0.901565 0.613993
O O12 0.632454 0.051227 0.538677
O O13 0.431660 0.046411 0.342804
O O14 0.366342 0.370196 0.455336
O O15 0.116013 0.639598 0.570563
O O16 0.021917 0.217890 0.281890
#
# Coordination Sequence:
#
# PCOD9075810 Si02
#       8
#     2   2   2   2   2   2   2   2
#     4  10  23  45  63  84 126 166 200 252 296 359
#     4  10  22  41  65  86 121 165 204 247 304 350
#     4  10  18  32  55  90 123 159 192 248 305 354
#     4  10  19  37  62  90 122 156 202 258 296 359
#     4  10  22  39  60  90 126 156 199 254 309 351
#     4  10  20  35  60  90 119 162 197 250 301 364
#     4  11  23  37  64  89 121 163 200 246 307 363
#     4   9  19  32  53  90 133 151 192 250 313 356
#
# _framework density 23.370685999999999
#
# number of rings (size 3 to 8) (size 9 to 14) (size 15 to 20)
#    0.000    2.000    2.500    0.750    3.500    2.000 
#    0.000    7.500    0.000    0.000    0.000    0.000 
#    0.000    0.000    0.000    0.000    0.000    0.000 
#
# Total GULP energy -89156.820867 kJ/mol
# GULP energy per Si atom -5572.301304 kJ/mol
# Density = 2.331749 g / cm^3
# Si number density = 23.370686 Si / 1000 Ang^3
#
#
#
# Elastic Constant Matrix: (Units=GPa)
#
#
# Indices 1 2 3 4 5 6 
#
# 1 63.3876 28.4159 18.9835 -18.3746 7.4481 -15.6187
# 2 28.4159 73.7401 17.8784 -35.1634 10.6619 1.1046
# 3 18.9835 17.8784 42.9599 -15.2362 11.2794 -2.6078
# 4 -18.3746 -35.1634 -15.2362 43.5097 -1.7837 10.2082
# 5 7.4481 10.6619 11.2794 -1.7837 32.6284 -13.3405
# 6 -15.6187 1.1046 -2.6078 10.2082 -13.3405 35.8397
#
#
#
# Elastic Compliance Matrix: (Units=1/GPa)
#
#
# Indices 1 2 3 4 5 6 
#
# 1 0.024575 -0.010430 -0.008796 -0.004138 0.006303 0.013916
# 2 -0.010430 0.031654 0.003603 0.026128 -0.015301 -0.018396
# 3 -0.008796 0.003603 0.033284 0.012720 -0.014253 -0.010451
# 4 -0.004138 0.026128 0.012720 0.051510 -0.018709 -0.023318
# 5 0.006303 -0.015301 -0.014253 -0.018709 0.048577 0.025592
# 6 0.013916 -0.018396 -0.010451 -0.023318 0.025592 0.049941
#
#
# Mechanical properties :
#
#
# Convention : Reuss Voigt Hill
#
# Bulk Modulus (GPa) = 17.16273 34.51593 25.83933
# Shear Modulus (GPa) = 17.22888 30.04954 23.63921
#
# Velocity S-wave (km/s) = 2.71809 3.58967 3.18384
# Velocity P-wave (km/s) = 4.14853 5.65525 4.95945
#
# Compressibility (1/GPa) = 0.05826579
#
# Stress axis : x y z
#
# Youngs Moduli (GPa) = 40.69215 31.59152 30.04418
#
# Poissons Ratio (x) = 0.32951 0.26428
# Poissons Ratio (y) = 0.42443 -0.10825
# Poissons Ratio (z) = 0.35794 -0.11382
#
# Static dielectric constant tensor:
#      x y z
#    x 1.887120 -0.038030 0.042330 
#    y -0.038030 2.107850 -0.076180 
#    z 0.042330 -0.076180 1.918120 
# 
# From -- ./inp_files/610807.got.cif
#   From: 2010.05.17/outbox.cif.g08.bks.cpg/sg2_306_cif.got.tgz:610807.got - 2010.06.03 11:33:40.
