data_PCOD9075798
_publ_section_title
;
Structure prediction by ZEFSAII (Michael W. Deem and Ramdas Pophale) SiO2 
 PCOD9075798
Probable space group: P -1
;
_chemical_formula_sum "Si O2"
_cell_formula_units_Z 16
_cell_length_a 20.942552
_cell_length_b 22.765248
_cell_length_c 14.468842
_cell_angle_alpha 26.855512
_cell_angle_beta 17.395154
_cell_angle_gamma 21.394491
_cell_volume 751.876511
_symmetry_space_group_name_H-M "P -1"
_symmetry_group_IT_number 2
_symmetry_cell_setting 'triclinic'
loop_
_space_group_symop_operation_xyz
x,y,z
-x,-y,-z
loop_
_atom_site_type_symbol
_atom_site_label
_atom_site_fract_x
_atom_site_fract_y
_atom_site_fract_z
Si Si1 0.260704 0.792988 0.693018
Si Si2 0.776218 0.304543 0.300545
Si Si3 0.095023 0.663057 0.336162
Si Si4 0.828565 0.453259 0.406826
Si Si5 0.748949 0.827752 0.428064
Si Si6 0.796598 0.662185 0.426262
Si Si7 0.158197 0.600799 0.738385
Si Si8 0.721447 0.130733 0.251545
O O1 0.216994 0.820833 0.603611
O O2 0.525076 0.610303 0.595805
O O3 0.289523 0.895416 0.587097
O O4 0.999461 0.815276 0.059255
O O5 0.468068 0.452936 0.522621
O O6 0.882998 0.275496 0.299282
O O7 0.945749 0.354494 0.943112
O O8 0.807396 0.790383 0.507894
O O9 0.113203 0.652064 0.436011
O O10 0.177049 0.495502 0.417412
O O11 0.281417 0.711265 0.976325
O O12 0.902540 0.353106 0.350357
O O13 0.993496 0.527993 0.087805
O O14 0.750471 0.695056 0.553210
O O15 0.500000 0.000000 0.500000
O O16 0.540772 0.818271 0.510748
O O17 0.000000 0.000000 0.000000
#
# Coordination Sequence:
#
# PCOD9075798 Si02
#       8
#     2   2   2   2   2   2   2   2
#     4   9  18  32  54  76 111 139 185 216 269 330
#     4   9  17  30  52  80 113 143 168 225 281 335
#     4  11  21  35  54  80 114 146 186 232 272 322
#     4  10  18  32  55  86 109 144 175 239 279 317
#     4  10  22  36  51  78 117 155 182 217 271 339
#     4  11  19  34  54  83 110 147 187 225 277 319
#     4   9  17  31  51  82 122 129 176 229 300 320
#     4  11  22  35  53  78 114 153 185 223 268 337
#
# _framework density 21.280090000000001
#
# number of rings (size 3 to 8) (size 9 to 14) (size 15 to 20)
#    0.000    2.000    2.500    2.250    1.750    0.000 
#    2.250    0.000    0.000    0.000    0.000   54.250 
#    0.000    0.000    0.000    0.000    0.000    0.000 
#
# Total GULP energy -89071.007350 kJ/mol
# GULP energy per Si atom -5566.937959 kJ/mol
# Density = 2.123166 g / cm^3
# Si number density = 21.280090 Si / 1000 Ang^3
#
#
#
# Elastic Constant Matrix: (Units=GPa)
#
#
# Indices 1 2 3 4 5 6 
#
# 1 188.0250 12.1145 4.6626 9.3628 2.1311 -10.9185
# 2 12.1145 47.8392 19.5246 19.0489 -5.6769 -6.9679
# 3 4.6626 19.5246 81.1008 25.7676 -13.4198 -10.4401
# 4 9.3628 19.0489 25.7676 19.2435 -3.9541 -5.3336
# 5 2.1311 -5.6769 -13.4198 -3.9541 29.1466 6.1815
# 6 -10.9185 -6.9679 -10.4401 -5.3336 6.1815 19.8788
#
#
#
# Elastic Compliance Matrix: (Units=1/GPa)
#
#
# Indices 1 2 3 4 5 6 
#
# 1 0.005656 -0.000252 0.000946 -0.003160 -0.001094 0.003007
# 2 -0.000252 0.036024 0.005377 -0.041170 0.003234 0.003261
# 3 0.000946 0.005377 0.023663 -0.035216 0.006374 0.003401
# 4 -0.003160 -0.041170 -0.035216 0.141636 -0.005884 0.005170
# 5 -0.001094 0.003234 0.006374 -0.005884 0.039257 -0.009905
# 6 0.003007 0.003261 0.003401 0.005170 -0.009905 0.059353
#
#
# Mechanical properties :
#
#
# Convention : Reuss Voigt Hill
#
# Bulk Modulus (GPa) = 12.90564 43.28539 28.09551
# Shear Modulus (GPa) = 15.66049 32.36464 24.01257
#
# Velocity S-wave (km/s) = 2.71573 3.90409 3.36282
# Velocity P-wave (km/s) = 3.98891 6.38024 5.32066
#
# Compressibility (1/GPa) = 0.07748550
#
# Stress axis : x y z
#
# Youngs Moduli (GPa) = 176.81691 27.75892 42.26016
#
# Poissons Ratio (x) = 0.00698 -0.03996
# Poissons Ratio (y) = 0.04449 -0.22725
# Poissons Ratio (z) = -0.16719 -0.14927
#
# Static dielectric constant tensor:
#      x y z
#    x 1.962760 0.014730 -0.015620 
#    y 0.014730 1.785940 0.010120 
#    z -0.015620 0.010120 1.758990 
# 
# From -- ./inp_files/170686.got.cif
#   From: 2010.05.17/outbox.cif.g08.bks.cpg/sg2_86_cif.got.tgz:170686.got - 2010.06.03 11:33:40.
