data_PCOD9075269
_publ_section_title
;
Structure prediction by ZEFSAII (Michael W. Deem and Ramdas Pophale) SiO2 
 PCOD9075269
Probable space group: P -1
;
_chemical_formula_sum "Si O2"
_cell_formula_units_Z 16
_cell_length_a 15.000000
_cell_length_b 15.000000
_cell_length_c 9.000000
_cell_angle_alpha 140.000000
_cell_angle_beta 80.000000
_cell_angle_gamma 130.000000
_cell_volume 759.999475
_symmetry_space_group_name_H-M "P -1"
_symmetry_group_IT_number 2
_symmetry_cell_setting 'triclinic'
loop_
_space_group_symop_operation_xyz
x,y,z
-x,-y,-z
loop_
_atom_site_type_symbol
_atom_site_label
_atom_site_fract_x
_atom_site_fract_y
_atom_site_fract_z
Si Si1 0.274623 0.595177 0.272011
Si Si2 0.861905 0.063327 0.198131
Si Si3 0.153676 0.146915 0.341106
Si Si4 0.823892 0.819992 0.137685
Si Si5 0.372751 0.951709 0.207692
Si Si6 0.825404 0.526668 0.197748
Si Si7 0.655382 0.759411 0.353605
Si Si8 0.825273 0.295280 0.347442
O O1 0.267994 0.433217 0.133971
O O2 0.178501 0.578927 0.381809
O O3 0.449106 0.861350 0.578162
O O4 0.205620 0.499808 0.003798
O O5 0.789969 0.112869 0.217763
O O6 0.003037 0.281624 0.542937
O O7 0.905541 0.019857 0.990356
O O8 0.766460 0.839743 0.040771
O O9 0.219009 0.381915 0.594296
O O10 0.287465 0.230251 0.492754
O O11 0.000131 0.994133 0.284295
O O12 0.793141 0.880691 0.362540
O O13 0.355029 0.088939 0.439004
O O14 0.274401 0.724898 0.043227
O O15 0.298167 0.845094 0.928675
O O16 0.500000 0.500000 0.000000
O O17 0.000000 0.500000 0.500000
#
# Coordination Sequence:
#
# PCOD9075269 Si02
#       8
#     2   2   2   2   2   2   2   2
#     4  12  27  45  68 104 139 180 225 279 346 405
#     4  11  25  44  71 106 132 179 230 284 335 398
#     4  11  23  46  70 100 137 176 231 280 335 402
#     4  11  24  42  71 100 134 176 227 278 339 395
#     4  12  26  47  70  98 142 184 220 282 342 407
#     4  11  24  43  72 102 136 180 226 279 341 402
#     4  12  24  45  69  99 139 179 229 276 339 402
#     4  12  26  47  69 103 138 179 229 282 339 402
#
# _framework density 21.052645999999999
#
# number of rings (size 3 to 8) (size 9 to 14) (size 15 to 20)
#    0.000    0.500    5.000    3.375    5.250    0.500 
#    0.000    1.250    0.000    0.000    0.000    0.000 
#    0.000    0.000    0.000    0.000    0.000    0.000 
#
# Total GULP energy -89345.375059 kJ/mol
# GULP energy per Si atom -5584.085941 kJ/mol
# Density = 2.100473 g / cm^3
# Si number density = 21.052646 Si / 1000 Ang^3
#
#
#
# Elastic Constant Matrix: (Units=GPa)
#
#
# Indices 1 2 3 4 5 6 
#
# 1 49.6056 26.3559 14.8777 -9.6654 -25.1314 -6.7054
# 2 26.3559 59.3575 31.0045 -10.2151 -11.4683 -27.4844
# 3 14.8777 31.0045 114.4767 -11.9320 5.2784 -10.5400
# 4 -9.6654 -10.2151 -11.9320 30.7287 -7.9519 -10.5633
# 5 -25.1314 -11.4683 5.2784 -7.9519 41.3257 -2.0230
# 6 -6.7054 -27.4844 -10.5400 -10.5633 -2.0230 30.2295
#
#
#
# Elastic Compliance Matrix: (Units=1/GPa)
#
#
# Indices 1 2 3 4 5 6 
#
# 1 0.055343 0.025663 -0.005329 0.058075 0.055460 0.057756
# 2 0.025663 0.124896 -0.013303 0.121979 0.083407 0.162815
# 3 -0.005329 -0.013303 0.011377 -0.008995 -0.010761 -0.013174
# 4 0.058075 0.121979 -0.008995 0.183869 0.115125 0.192604
# 5 0.055460 0.083407 -0.010761 0.115125 0.111062 0.132045
# 6 0.057756 0.162815 -0.013174 0.192604 0.132045 0.265468
#
#
# Mechanical properties :
#
#
# Convention : Reuss Voigt Hill
#
# Bulk Modulus (GPa) = 4.86200 40.87959 22.87080
# Shear Modulus (GPa) = 6.19952 30.53687 18.36820
#
# Velocity S-wave (km/s) = 1.71790 3.81268 2.95700
# Velocity P-wave (km/s) = 2.49987 6.23233 4.74823
#
# Compressibility (1/GPa) = 0.20567657
#
# Stress axis : x y z
#
# Youngs Moduli (GPa) = 18.06923 8.00663 87.89830
#
# Poissons Ratio (x) = -0.20547 0.46844
# Poissons Ratio (y) = -0.46371 1.16933
# Poissons Ratio (z) = 0.09630 0.10651
#
# Static dielectric constant tensor:
#      x y z
#    x 1.764880 -0.024830 0.006050 
#    y -0.024830 1.844900 -0.001690 
#    z 0.006050 -0.001690 1.735310 
# 
# From -- ./inp_files/316089.got.cif
#   From: 2010.05.17/outbox.ucp.g08.bks.cvg/sg2_159_cif.got.tgz:316089.got - 2010.06.11 11:32:03.
