data_PCOD9075663
_publ_section_title
;
Structure prediction by ZEFSAII (Michael W. Deem and Ramdas Pophale) SiO2 
 PCOD9075663
Probable space group: P -1
;
_chemical_formula_sum "Si O2"
_cell_formula_units_Z 15
_cell_length_a 21.000000
_cell_length_b 9.000000
_cell_length_c 9.000000
_cell_angle_alpha 40.000000
_cell_angle_beta 140.000000
_cell_angle_gamma 140.000000
_cell_volume 633.252849
_symmetry_space_group_name_H-M "P -1"
_symmetry_group_IT_number 2
_symmetry_cell_setting 'triclinic'
loop_
_space_group_symop_operation_xyz
x,y,z
-x,-y,-z
loop_
_atom_site_type_symbol
_atom_site_label
_atom_site_fract_x
_atom_site_fract_y
_atom_site_fract_z
Si Si1 0.907564 0.762985 0.425179
Si Si2 0.469912 0.396858 0.692257
Si Si3 0.745367 0.068890 0.424564
Si Si4 0.115746 0.187238 0.997664
Si Si5 0.387607 0.766006 0.431377
Si Si6 0.686260 0.454567 0.211951
Si Si7 0.188316 0.694764 0.933203
Si Si8 0.000000 0.500000 0.000000
O O1 0.782312 0.733335 0.216700
O O2 0.910879 0.528445 0.701621
O O3 0.922999 0.778286 0.264027
O O4 0.000000 0.000000 0.500000
O O5 0.500000 0.500000 0.500000
O O6 0.414706 0.552406 0.562116
O O7 0.377197 0.111398 0.714522
O O8 0.577961 0.435344 0.949484
O O9 0.736672 0.308304 0.305954
O O10 0.798343 0.939066 0.733725
O O11 0.814175 0.134189 0.342974
O O12 0.168266 0.434697 0.007886
O O13 0.000000 0.000000 0.000000
O O14 0.338396 0.677495 0.572828
O O15 0.304691 0.812620 0.136363
O O16 0.500000 0.000000 0.500000
O O17 0.093843 0.617439 0.945962
#
# Coordination Sequence:
#
# PCOD9075663 Si02
#       8
#     2   2   2   2   2   2   2   1
#     4  12  28  47  74 111 154 200 256 319 393 459
#     4  12  25  49  80 112 157 206 262 326 399 478
#     4  12  26  50  81 113 156 206 260 333 391 477
#     4  12  27  47  77 111 154 204 264 316 392 468
#     4  12  26  47  74 116 159 203 257 325 393 469
#     4  12  26  47  75 116 152 201 264 315 402 465
#     4  12  26  49  75 115 154 209 267 318 395 470
#     4  12  28  48  76 106 158 204 260 326 384 460
#
# _framework density 23.687221000000001
#
# number of rings (size 3 to 8) (size 9 to 14) (size 15 to 20)
#    0.000    0.000    4.000    5.600    3.733    3.200 
#    0.000    0.000    0.000    0.000    0.000    0.000 
#    0.000    0.000    0.000    0.000    0.000    0.000 
#
# Total GULP energy -83529.518787 kJ/mol
# GULP energy per Si atom -5568.634586 kJ/mol
# Density = 2.363331 g / cm^3
# Si number density = 23.687221 Si / 1000 Ang^3
#
#
#
# Elastic Constant Matrix: (Units=GPa)
#
#
# Indices 1 2 3 4 5 6 
#
# 1 139.5469 40.7515 51.9590 9.8147 -40.8830 11.0828
# 2 40.7515 142.5434 27.9617 42.4044 -1.0436 -2.7780
# 3 51.9590 27.9617 153.4385 46.5199 -20.3179 -4.3746
# 4 9.8147 42.4044 46.5199 43.8544 3.0809 -3.2872
# 5 -40.8830 -1.0436 -20.3179 3.0809 61.9017 4.6017
# 6 11.0828 -2.7780 -4.3746 -3.2872 4.6017 32.8004
#
#
#
# Elastic Compliance Matrix: (Units=1/GPa)
#
#
# Indices 1 2 3 4 5 6 
#
# 1 0.011857 -0.004025 -0.003931 0.004540 0.006645 -0.005349
# 2 -0.004025 0.011609 0.003337 -0.013693 -0.000800 0.001528
# 3 -0.003931 0.003337 0.012216 -0.015350 0.002129 0.001403
# 4 0.004540 -0.013693 -0.015350 0.051741 -0.004930 0.001136
# 5 0.006645 -0.000800 0.002129 -0.004930 0.021890 -0.005594
# 6 -0.005349 0.001528 0.001403 0.001136 -0.005594 0.033510
#
#
# Mechanical properties :
#
#
# Convention : Reuss Voigt Hill
#
# Bulk Modulus (GPa) = 37.81616 75.20812 56.51214
# Shear Modulus (GPa) = 31.07980 48.70174 39.89077
#
# Velocity S-wave (km/s) = 3.62621 4.53927 4.10819
# Velocity P-wave (km/s) = 5.79068 7.70018 6.81266
#
# Compressibility (1/GPa) = 0.02644372
#
# Stress axis : x y z
#
# Youngs Moduli (GPa) = 84.33652 86.13993 81.85948
#
# Poissons Ratio (x) = 0.34672 0.32178
# Poissons Ratio (y) = 0.33946 -0.27314
# Poissons Ratio (z) = 0.33152 -0.28742
#
# Static dielectric constant tensor:
#      x y z
#    x 1.932630 0.082490 0.013320 
#    y 0.082490 2.020470 -0.127480 
#    z 0.013320 -0.127480 1.903890 
# 
# From -- ./inp_files/343282.got.cif
#   From: 2010.05.17/outbox.ucp.g08.bks.cvg/sg2_172_cif.got.tgz:343282.got - 2010.06.11 11:32:03.
