data_PCOD9075921
_publ_section_title
;
Structure prediction by ZEFSAII (Michael W. Deem and Ramdas Pophale) SiO2 
 PCOD9075921
Probable space group: P -1
;
_chemical_formula_sum "Si O2"
_cell_formula_units_Z 14
_cell_length_a 13.933188
_cell_length_b 18.549196
_cell_length_c 7.902232
_cell_angle_alpha 144.500606
_cell_angle_beta 137.985087
_cell_angle_gamma 34.966843
_cell_volume 661.810815
_symmetry_space_group_name_H-M "P -1"
_symmetry_group_IT_number 2
_symmetry_cell_setting 'triclinic'
loop_
_space_group_symop_operation_xyz
x,y,z
-x,-y,-z
loop_
_atom_site_type_symbol
_atom_site_label
_atom_site_fract_x
_atom_site_fract_y
_atom_site_fract_z
Si Si1 0.178059 0.959629 0.574669
Si Si2 0.452274 0.305184 0.349210
Si Si3 0.439933 0.574281 0.748174
Si Si4 0.447200 0.232589 0.829191
Si Si5 0.687664 0.865138 0.051546
Si Si6 0.250544 0.099280 0.403068
Si Si7 0.100433 0.844731 0.931898
O O1 0.353252 0.840381 0.671292
O O2 0.182653 0.104943 0.819142
O O3 0.193858 0.871964 0.256667
O O4 0.000000 0.000000 0.500000
O O5 0.459820 0.448801 0.659929
O O6 0.390159 0.313343 0.090465
O O7 0.331625 0.275013 0.248825
O O8 0.500000 0.500000 0.500000
O O9 0.239706 0.706892 0.740175
O O10 0.538824 0.657319 0.066560
O O11 0.328358 0.170151 0.522137
O O12 0.634638 0.079469 0.804044
O O13 0.721451 0.878180 0.319572
O O14 0.500000 0.000000 0.000000
O O15 0.052789 0.171433 0.240842
O O16 0.000000 0.000000 0.000000
#
# Coordination Sequence:
#
# PCOD9075921 Si02
#       7
#     2   2   2   2   2   2   2
#     4  11  22  35  60  88 115 150 192 245 285 338
#     4   9  20  36  55  80 115 151 192 228 292 345
#     4  10  21  37  59  85 118 155 191 240 290 347
#     4   9  17  33  57  85 110 151 189 240 281 340
#     4   9  18  34  52  79 110 150 189 233 281 341
#     4  10  18  32  57  82 114 144 198 240 278 337
#     4  12  22  37  60  87 117 152 197 240 286 340
#
# _framework density 21.15408
#
# number of rings (size 3 to 8) (size 9 to 14) (size 15 to 20)
#    0.000    2.000    2.857    0.857    2.000    1.714 
#    0.000    7.857    0.000    1.714    0.000    0.000 
#    0.000    0.000    0.000    0.000    0.000    0.000 
#
# Total GULP energy -78004.476499 kJ/mol
# GULP energy per Si atom -5571.748321 kJ/mol
# Density = 2.110593 g / cm^3
# Si number density = 21.154080 Si / 1000 Ang^3
#
#
#
# Elastic Constant Matrix: (Units=GPa)
#
#
# Indices 1 2 3 4 5 6 
#
# 1 130.3934 39.2671 57.1396 20.6681 61.4856 -12.1178
# 2 39.2671 38.1311 22.9135 13.5642 14.9367 -2.2143
# 3 57.1396 22.9135 85.7038 10.3689 29.9966 10.3563
# 4 20.6681 13.5642 10.3689 38.0949 11.5596 3.8598
# 5 61.4856 14.9367 29.9966 11.5596 62.6457 8.0082
# 6 -12.1178 -2.2143 10.3563 3.8598 8.0082 35.6347
#
#
#
# Elastic Compliance Matrix: (Units=1/GPa)
#
#
# Indices 1 2 3 4 5 6 
#
# 1 0.027259 -0.012302 -0.009130 -0.003216 -0.020929 0.016210
# 2 -0.012302 0.042142 -0.003863 -0.008908 0.005614 -0.000739
# 3 -0.009130 -0.003863 0.019173 0.001577 0.001619 -0.009451
# 4 -0.003216 -0.008908 0.001577 0.031463 -0.000592 -0.005380
# 5 -0.020929 0.005614 0.001619 -0.000592 0.036464 -0.015369
# 6 0.016210 -0.000739 -0.009451 -0.005380 -0.015369 0.040312
#
#
# Mechanical properties :
#
#
# Convention : Reuss Voigt Hill
#
# Bulk Modulus (GPa) = 26.32647 54.76318 40.54482
# Shear Modulus (GPa) = 19.22608 36.26892 27.74750
#
# Velocity S-wave (km/s) = 3.01800 4.14516 3.62565
# Velocity P-wave (km/s) = 4.96151 6.98955 6.06095
#
# Compressibility (1/GPa) = 0.03798458
#
# Stress axis : x y z
#
# Youngs Moduli (GPa) = 36.68484 23.72940 52.15776
#
# Poissons Ratio (x) = 0.29191 0.47619
# Poissons Ratio (y) = 0.45129 0.20149
# Poissons Ratio (z) = 0.33492 0.09167
#
# Static dielectric constant tensor:
#      x y z
#    x 2.228500 -0.656950 -0.008970 
#    y -0.656950 2.958000 0.048600 
#    z -0.008970 0.048600 1.851770 
# 
# From -- ./inp_files/253216.got.cif
#   From: 2010.05.17/outbox.cif.g08.bks.cpg/sg2_127_cif.got.tgz:253216.got - 2010.06.03 11:33:40.
