data_PCOD9075406
_publ_section_title
;
Structure prediction by ZEFSAII (Michael W. Deem and Ramdas Pophale) SiO2 
 PCOD9075406
Probable space group: P -1
;
_chemical_formula_sum "Si O2"
_cell_formula_units_Z 16
_cell_length_a 11.753478
_cell_length_b 8.226798
_cell_length_c 7.614101
_cell_angle_alpha 116.964350
_cell_angle_beta 63.195324
_cell_angle_gamma 96.975636
_cell_volume 582.489274
_symmetry_space_group_name_H-M "P -1"
_symmetry_group_IT_number 2
_symmetry_cell_setting 'triclinic'
loop_
_space_group_symop_operation_xyz
x,y,z
-x,-y,-z
loop_
_atom_site_type_symbol
_atom_site_label
_atom_site_fract_x
_atom_site_fract_y
_atom_site_fract_z
Si Si1 0.087709 0.199130 0.842148
Si Si2 0.453197 0.610141 0.757825
Si Si3 0.061382 0.684630 0.485934
Si Si4 0.819787 0.867786 0.629561
Si Si5 0.567312 0.946599 0.704134
Si Si6 0.334914 0.191532 0.812068
Si Si7 0.847886 0.384278 0.009801
Si Si8 0.698690 0.528983 0.722898
O O1 0.116630 0.104823 0.589906
O O2 0.194687 0.115123 0.863203
O O3 0.128748 0.404784 0.876144
O O4 0.938234 0.250623 0.011274
O O5 0.500000 0.500000 0.500000
O O6 0.498945 0.809225 0.804624
O O7 0.301531 0.627128 0.877458
O O8 0.551076 0.507061 0.778790
O O9 0.204262 0.655513 0.453408
O O10 0.000000 0.500000 0.500000
O O11 0.942648 0.843122 0.662443
O O12 0.095724 0.669805 0.248159
O O13 0.690154 0.002830 0.754195
O O14 0.755290 0.678366 0.626178
O O15 0.620896 0.833682 0.435003
O O16 0.455072 0.092465 0.784486
O O17 0.300021 0.377391 0.039822
#
# Coordination Sequence:
#
# PCOD9075406 Si02
#       8
#     2   2   2   2   2   2   2   2
#     4   9  17  32  55  77 101 140 186 221 267 317
#     4  11  23  37  50  78 118 152 175 216 286 338
#     4   9  17  30  49  81 109 129 180 229 268 308
#     4   8  16  30  47  76 107 135 170 221 265 319
#     4   9  20  36  55  79 112 147 182 224 277 320
#     4  10  18  35  58  84 105 140 190 238 257 314
#     4  10  18  32  54  74 110 147 177 215 277 331
#     4  10  19  31  55  82 109 138 180 229 273 320
#
# _framework density 27.468318
#
# number of rings (size 3 to 8) (size 9 to 14) (size 15 to 20)
#    0.000    2.500    1.250    2.250    0.000    3.500 
#    0.000    0.625    0.000    0.000    3.250    7.875 
#    0.000    0.000    0.000    0.000    0.000    0.000 
#
# Total GULP energy -89230.542551 kJ/mol
# GULP energy per Si atom -5576.908909 kJ/mol
# Density = 2.740580 g / cm^3
# Si number density = 27.468318 Si / 1000 Ang^3
#
#
#
# Elastic Constant Matrix: (Units=GPa)
#
#
# Indices 1 2 3 4 5 6 
#
# 1 181.4507 58.2935 77.6590 13.3931 -76.1181 -46.6586
# 2 58.2935 60.1392 25.1293 13.3239 -28.8164 -12.4907
# 3 77.6590 25.1293 161.0795 2.4834 -31.4056 -15.7326
# 4 13.3931 13.3239 2.4834 34.2203 -7.0650 -15.6512
# 5 -76.1181 -28.8164 -31.4056 -7.0650 68.8580 18.3875
# 6 -46.6586 -12.4907 -15.7326 -15.6512 18.3875 54.4167
#
#
#
# Elastic Compliance Matrix: (Units=1/GPa)
#
#
# Indices 1 2 3 4 5 6 
#
# 1 0.015979 -0.007716 -0.003629 0.002946 0.010937 0.008032
# 2 -0.007716 0.026529 -0.000149 -0.008544 0.002678 -0.003932
# 3 -0.003629 -0.000149 0.007860 0.000570 -0.000265 -0.000620
# 4 0.002946 -0.008544 0.000570 0.036533 0.000756 0.010981
# 5 0.010937 0.002678 -0.000265 0.000756 0.027462 0.000854
# 6 0.008032 -0.003932 -0.000620 0.010981 0.000854 0.027052
#
#
# Mechanical properties :
#
#
# Convention : Reuss Voigt Hill
#
# Bulk Modulus (GPa) = 36.52167 80.53698 58.52933
# Shear Modulus (GPa) = 28.81345 47.60486 38.20915
#
# Velocity S-wave (km/s) = 3.24229 4.16755 3.73369
# Velocity P-wave (km/s) = 5.22890 7.24855 6.31993
#
# Compressibility (1/GPa) = 0.02738100
#
# Stress axis : x y z
#
# Youngs Moduli (GPa) = 62.58127 37.69449 127.22982
#
# Poissons Ratio (x) = 0.29086 0.46166
# Poissons Ratio (y) = 0.48289 0.01893
# Poissons Ratio (z) = 0.22708 0.00561
#
# Static dielectric constant tensor:
#      x y z
#    x 2.302490 -0.106610 0.045170 
#    y -0.106610 2.269300 -0.008500 
#    z 0.045170 -0.008500 2.159460 
# 
# From -- ./inp_files/259405.got.cif
#   From: 2010.05.17/outbox.cif.g08.bks.cpg/sg2_130_cif.got.tgz:259405.got - 2010.06.03 11:33:40.
