data_PCOD9075257
_publ_section_title
;
Structure prediction by ZEFSAII (Michael W. Deem and Ramdas Pophale) SiO2 
 PCOD9075257
Probable space group: P -1
;
_chemical_formula_sum "Si O2"
_cell_formula_units_Z 16
_cell_length_a 15.000000
_cell_length_b 15.000000
_cell_length_c 9.000000
_cell_angle_alpha 140.000000
_cell_angle_beta 100.000000
_cell_angle_gamma 50.000000
_cell_volume 759.999475
_symmetry_space_group_name_H-M "P -1"
_symmetry_group_IT_number 2
_symmetry_cell_setting 'triclinic'
loop_
_space_group_symop_operation_xyz
x,y,z
-x,-y,-z
loop_
_atom_site_type_symbol
_atom_site_label
_atom_site_fract_x
_atom_site_fract_y
_atom_site_fract_z
Si Si1 0.556508 0.500057 0.367669
Si Si2 0.616830 0.424960 0.821568
Si Si3 0.900082 0.021135 0.219774
Si Si4 0.587462 0.771597 0.146512
Si Si5 0.535698 0.101882 0.065523
Si Si6 0.874858 0.014963 0.848027
Si Si7 0.865143 0.744795 0.857984
Si Si8 0.081876 0.498957 0.148503
O O1 0.500000 0.500000 0.500000
O O2 0.415891 0.643573 0.406154
O O3 0.574528 0.640824 0.574916
O O4 0.704249 0.236405 0.017391
O O5 0.799328 0.199187 0.559460
O O6 0.500000 0.500000 0.000000
O O7 0.572265 0.639239 0.050013
O O8 0.852397 0.073389 0.093908
O O9 0.922128 0.831122 0.012269
O O10 0.034514 0.967807 0.174627
O O11 0.500000 0.000000 0.500000
O O12 0.508771 0.853296 0.064470
O O13 0.766106 0.599303 0.976352
O O14 0.500000 0.000000 0.000000
O O15 0.709087 0.927639 0.946120
O O16 0.961301 0.763657 0.515886
O O17 0.854495 0.678636 0.927977
O O18 0.000000 0.500000 0.500000
O O19 0.000000 0.500000 0.000000
#
# Coordination Sequence:
#
# PCOD9075257 Si02
#       8
#     2   2   2   2   2   2   2   2
#     4  12  24  45  77 107 141 193 254 315 370 443
#     4  12  27  47  73 107 151 195 252 312 380 450
#     4  11  23  45  73 106 142 185 256 307 371 441
#     4  12  29  49  74 107 155 202 247 311 384 455
#     4  12  26  46  76 109 144 188 258 305 370 450
#     4  11  24  46  76 105 143 196 251 314 373 449
#     4  12  26  44  75 110 145 190 244 312 374 452
#     4  12  29  50  72 107 156 198 245 309 388 450
#
# _framework density 21.052645999999999
#
# number of rings (size 3 to 8) (size 9 to 14) (size 15 to 20)
#    0.000    0.250    7.500    0.000   10.500    0.000 
#    2.250    1.250    0.000    0.000    0.000    0.000 
#    0.000    0.000    0.000    0.000    0.000    0.000 
#
# Total GULP energy -89140.312876 kJ/mol
# GULP energy per Si atom -5571.269555 kJ/mol
# Density = 2.100473 g / cm^3
# Si number density = 21.052646 Si / 1000 Ang^3
#
#
#
# Elastic Constant Matrix: (Units=GPa)
#
#
# Indices 1 2 3 4 5 6 
#
# 1 167.1494 38.2882 51.2845 4.3052 8.4207 30.7762
# 2 38.2882 66.5140 18.3048 1.1741 -2.2986 -5.1618
# 3 51.2845 18.3048 136.1592 16.4076 7.5146 10.0389
# 4 4.3052 1.1741 16.4076 32.7354 2.8447 2.0462
# 5 8.4207 -2.2986 7.5146 2.8447 50.9544 3.6593
# 6 30.7762 -5.1618 10.0389 2.0462 3.6593 49.1778
#
#
#
# Elastic Compliance Matrix: (Units=1/GPa)
#
#
# Indices 1 2 3 4 5 6 
#
# 1 0.008877 -0.004958 -0.002284 0.000588 -0.000987 -0.005561
# 2 -0.004958 0.018644 -0.001112 0.000091 0.001448 0.005175
# 3 -0.002284 -0.001112 0.008902 -0.004040 -0.000740 -0.000282
# 4 0.000588 0.000091 -0.004040 0.032652 -0.001263 -0.000798
# 5 -0.000987 0.001448 -0.000740 -0.001263 0.020071 -0.000520
# 6 -0.005561 0.005175 -0.000282 -0.000798 -0.000520 0.024487
#
#
# Mechanical properties :
#
#
# Convention : Reuss Voigt Hill
#
# Bulk Modulus (GPa) = 50.71470 65.06417 57.88944
# Shear Modulus (GPa) = 36.51967 44.03652 40.27810
#
# Velocity S-wave (km/s) = 4.16947 4.57851 4.37877
# Velocity P-wave (km/s) = 6.87903 7.67612 7.28848
#
# Compressibility (1/GPa) = 0.01971815
#
# Stress axis : x y z
#
# Youngs Moduli (GPa) = 112.64465 53.63570 112.33034
#
# Poissons Ratio (x) = 0.26592 0.25652
# Poissons Ratio (y) = 0.55848 0.12486
# Poissons Ratio (z) = 0.25723 0.05962
#
# Static dielectric constant tensor:
#      x y z
#    x 1.731290 -0.006820 -0.027540 
#    y -0.006820 1.828670 0.005290 
#    z -0.027540 0.005290 1.777100 
# 
# From -- ./inp_files/316098.got.cif
#   From: 2010.05.17/outbox.ucp.g08.bks.cvg/sg2_159_cif.got.tgz:316098.got - 2010.06.11 11:32:03.
