data_PCOD9075512
_publ_section_title
;
Structure prediction by ZEFSAII (Michael W. Deem and Ramdas Pophale) SiO2 
 PCOD9075512
Probable space group: P -1
;
_chemical_formula_sum "Si O2"
_cell_formula_units_Z 10
_cell_length_a 12.000000
_cell_length_b 9.000000
_cell_length_c 18.000000
_cell_angle_alpha 30.000000
_cell_angle_beta 30.000000
_cell_angle_gamma 50.000000
_cell_volume 439.040697
_symmetry_space_group_name_H-M "P -1"
_symmetry_group_IT_number 2
_symmetry_cell_setting 'triclinic'
loop_
_space_group_symop_operation_xyz
x,y,z
-x,-y,-z
loop_
_atom_site_type_symbol
_atom_site_label
_atom_site_fract_x
_atom_site_fract_y
_atom_site_fract_z
Si Si1 0.563633 0.857413 0.449908
Si Si2 0.107435 0.863451 0.314431
Si Si3 0.529743 0.889226 0.880038
Si Si4 0.660955 0.866519 0.661604
Si Si5 0.147079 0.117271 0.023480
O O1 0.358974 0.478112 0.725201
O O2 0.500000 0.000000 0.500000
O O3 0.500127 0.021739 0.345805
O O4 0.859067 0.970846 0.231585
O O5 0.000000 0.500000 0.500000
O O6 0.914210 0.917567 0.455291
O O7 0.342881 0.914584 0.205032
O O8 0.153779 0.104648 0.114413
O O9 0.692450 0.032510 0.651575
O O10 0.262216 0.878828 0.029249
O O11 0.494739 0.522451 0.071017
#
# Coordination Sequence:
#
# PCOD9075512 Si02
#       5
#     2   2   2   2   2
#     4  12  26  46  71 109 140 189 235 300 352 429
#     4  12  23  44  75 106 136 189 242 299 342 427
#     4  11  26  46  70 106 141 191 235 297 352 428
#     4  11  26  45  72 103 146 185 239 293 360 415
#     4  12  26  45  75 102 145 184 244 287 360 420
#
# _framework density 22.776931999999999
#
# number of rings (size 3 to 8) (size 9 to 14) (size 15 to 20)
#    0.000    0.400    4.000    4.200    2.800    1.600 
#    0.000    0.000    0.000    0.000    0.000    0.000 
#    0.000    0.000    0.000    0.000    0.000    0.000 
#
# Total GULP energy -55889.786374 kJ/mol
# GULP energy per Si atom -5588.978637 kJ/mol
# Density = 2.272509 g / cm^3
# Si number density = 22.776932 Si / 1000 Ang^3
#
#
#
# Elastic Constant Matrix: (Units=GPa)
#
#
# Indices 1 2 3 4 5 6 
#
# 1 93.7235 78.0097 70.7543 0.4622 4.2392 -37.3768
# 2 78.0097 48.1265 64.4273 24.7426 13.0875 -19.4448
# 3 70.7543 64.4273 127.1452 8.4962 -7.0875 -25.6477
# 4 0.4622 24.7426 8.4962 48.2328 1.0150 -8.8266
# 5 4.2392 13.0875 -7.0875 1.0150 39.9392 11.2347
# 6 -37.3768 -19.4448 -25.6477 -8.8266 11.2347 32.3413
#
#
#
# Elastic Compliance Matrix: (Units=1/GPa)
#
#
# Indices 1 2 3 4 5 6 
#
# 1 0.001966 0.029407 -0.013846 -0.010243 -0.015272 0.011482
# 2 0.029407 -0.021640 -0.001546 0.015822 -0.003853 0.025405
# 3 -0.013846 -0.001546 0.015329 -0.003418 0.007081 -0.008168
# 4 -0.010243 0.015822 -0.003418 0.013508 -0.005173 0.000448
# 5 -0.015272 -0.003853 0.007081 -0.005173 0.037398 -0.028754
# 6 0.011482 0.025405 -0.008168 0.000448 -0.028754 0.063098
#
#
# Mechanical properties :
#
#
# Convention : Reuss Voigt Hill
#
# Bulk Modulus (GPa) = 42.22153 77.26421 59.74287
# Shear Modulus (GPa) = 55.85119 27.82292 41.83706
#
# Velocity S-wave (km/s) = 4.95723 3.49884 4.29046
# Velocity P-wave (km/s) = 7.16539 7.09354 7.12955
#
# Compressibility (1/GPa) = 0.02368460
#
# Stress axis : x y z
#
# Youngs Moduli (GPa) = 508.68504 -46.21035 65.23493
#
# Poissons Ratio (x) = 1.35892 0.90324
# Poissons Ratio (y) = -14.95899 0.10088
# Poissons Ratio (z) = 7.04323 -0.07146
#
# Static dielectric constant tensor:
#      x y z
#    x 1.826160 -0.012690 0.012110 
#    y -0.012690 1.874620 -0.019950 
#    z 0.012110 -0.019950 1.941740 
# 
# From -- ./inp_files/15179.got.cif
#   From: 2010.05.17/outbox.ucp.g08.bks.cvg/sg2_8_cif.got.tgz:15179.got - 2010.06.11 11:32:03.
