data_PCOD9075560
_publ_section_title
;
Structure prediction by ZEFSAII (Michael W. Deem and Ramdas Pophale) SiO2 
 PCOD9075560
Probable space group: P -1
;
_chemical_formula_sum "Si O2"
_cell_formula_units_Z 16
_cell_length_a 12.000000
_cell_length_b 9.000000
_cell_length_c 9.000000
_cell_angle_alpha 100.000000
_cell_angle_beta 80.000000
_cell_angle_gamma 130.000000
_cell_volume 730.800219
_symmetry_space_group_name_H-M "P -1"
_symmetry_group_IT_number 2
_symmetry_cell_setting 'triclinic'
loop_
_space_group_symop_operation_xyz
x,y,z
-x,-y,-z
loop_
_atom_site_type_symbol
_atom_site_label
_atom_site_fract_x
_atom_site_fract_y
_atom_site_fract_z
Si Si1 0.076888 0.664885 0.889452
Si Si2 0.920990 0.803084 0.072047
Si Si3 0.526656 0.359382 0.394612
Si Si4 0.595827 0.476753 0.079584
Si Si5 0.983983 0.149969 0.597025
Si Si6 0.304093 0.919972 0.394152
Si Si7 0.658555 0.184735 0.954811
Si Si8 0.812999 0.430495 0.420389
O O1 0.096405 0.592565 0.721422
O O2 0.236946 0.811378 0.950346
O O3 0.000000 0.500000 0.000000
O O4 0.969717 0.713548 0.930356
O O5 0.749363 0.689035 0.110905
O O6 0.977500 0.815948 0.229272
O O7 0.000000 0.000000 0.000000
O O8 0.500000 0.500000 0.500000
O O9 0.499407 0.362573 0.227631
O O10 0.691040 0.434690 0.375567
O O11 0.438364 0.142196 0.441362
O O12 0.500000 0.500000 0.000000
O O13 0.653335 0.361464 0.993931
O O14 0.075269 0.348574 0.513569
O O15 0.821142 0.064286 0.596974
O O16 0.000000 0.000000 0.500000
O O17 0.314487 0.846156 0.222120
O O18 0.262077 0.753608 0.488742
O O19 0.500000 0.000000 0.000000
#
# Coordination Sequence:
#
# PCOD9075560 Si02
#       8
#     2   2   2   2   2   2   2   2
#     4  12  21  47  75  95 140 188 238 296 354 409
#     4  12  28  46  74 106 142 190 239 295 363 425
#     4  12  26  49  69 100 151 191 233 296 360 428
#     4  12  28  48  72 106 142 190 239 297 361 425
#     4  12  26  47  69 107 150 186 233 297 360 426
#     4  12  27  43  74 108 136 191 242 290 358 426
#     4  12  23  45  72 101 139 184 241 298 344 417
#     4  12  25  48  71 106 143 190 242 293 355 426
#
# _framework density 21.893808
#
# number of rings (size 3 to 8) (size 9 to 14) (size 15 to 20)
#    0.000    0.000    7.500    1.500    7.000    1.000 
#    0.000    0.000    0.000    0.000    0.000    0.000 
#    0.000    0.000    0.000    0.000    0.000    0.000 
#
# Total GULP energy -89202.603529 kJ/mol
# GULP energy per Si atom -5575.162721 kJ/mol
# Density = 2.184398 g / cm^3
# Si number density = 21.893808 Si / 1000 Ang^3
#
#
#
# Elastic Constant Matrix: (Units=GPa)
#
#
# Indices 1 2 3 4 5 6 
#
# 1 88.9573 3.1112 37.8801 -0.3344 -15.8511 1.1007
# 2 3.1112 91.9167 48.2118 -10.9384 -37.3603 -5.0377
# 3 37.8801 48.2118 49.2437 0.5988 -10.5058 -41.8736
# 4 -0.3344 -10.9384 0.5988 27.9868 -3.9278 -0.3235
# 5 -15.8511 -37.3603 -10.5058 -3.9278 12.2019 19.4817
# 6 1.1007 -5.0377 -41.8736 -0.3235 19.4817 42.3094
#
#
#
# Elastic Compliance Matrix: (Units=1/GPa)
#
#
# Indices 1 2 3 4 5 6 
#
# 1 0.009408 -0.005500 -0.001089 -0.003873 -0.013594 0.004253
# 2 -0.005500 0.004384 0.009738 0.000769 -0.005850 0.013002
# 3 -0.001089 0.009738 0.022832 0.010358 0.050197 0.000750
# 4 -0.003873 0.000769 0.010358 0.036299 0.003051 0.009316
# 5 -0.013594 -0.005850 0.050197 0.003051 0.044463 0.028887
# 6 0.004253 0.013002 0.000750 0.009316 0.028887 0.012585
#
#
# Mechanical properties :
#
#
# Convention : Reuss Voigt Hill
#
# Bulk Modulus (GPa) = 23.29847 45.39156 34.34502
# Shear Modulus (GPa) = 36.23700 25.89393 31.06547
#
# Velocity S-wave (km/s) = 4.07274 3.44278 3.77094
# Velocity P-wave (km/s) = 5.72546 6.04824 5.88907
#
# Compressibility (1/GPa) = 0.04292126
#
# Stress axis : x y z
#
# Youngs Moduli (GPa) = 106.29348 228.10049 43.79885
#
# Poissons Ratio (x) = 1.25465 0.04768
# Poissons Ratio (y) = 0.58466 -0.42651
# Poissons Ratio (z) = 0.11572 -2.22124
#
# Static dielectric constant tensor:
#      x y z
#    x 1.797440 0.076730 0.030000 
#    y 0.076730 1.796550 -0.011100 
#    z 0.030000 -0.011100 1.757980 
# 
# From -- ./inp_files/226650.got.cif
#   From: 2010.05.17/outbox.ucp.g08.bks.cvg/sg2_114_cif.got.tgz:226650.got - 2010.06.11 11:32:03.
