data_PCOD9075988
_publ_section_title
;
Structure prediction by ZEFSAII (Michael W. Deem and Ramdas Pophale) SiO2 
 PCOD9075988
Probable space group: P -1
;
_chemical_formula_sum "Si O2"
_cell_formula_units_Z 10
_cell_length_a 8.142059
_cell_length_b 8.196839
_cell_length_c 10.866841
_cell_angle_alpha 101.188889
_cell_angle_beta 42.272282
_cell_angle_gamma 73.859292
_cell_volume 368.161482
_symmetry_space_group_name_H-M "P -1"
_symmetry_group_IT_number 2
_symmetry_cell_setting 'triclinic'
loop_
_space_group_symop_operation_xyz
x,y,z
-x,-y,-z
loop_
_atom_site_type_symbol
_atom_site_label
_atom_site_fract_x
_atom_site_fract_y
_atom_site_fract_z
Si Si1 0.725129 0.572974 0.568197
Si Si2 0.679456 0.988914 0.253564
Si Si3 0.958488 0.864041 0.809409
Si Si4 0.800347 0.393413 0.969556
Si Si5 0.720473 0.167645 0.772574
O O1 0.421712 0.623066 0.816180
O O2 0.000000 0.500000 0.500000
O O3 0.851096 0.377196 0.378306
O O4 0.641179 0.779275 0.574615
O O5 0.813103 0.905757 0.029878
O O6 0.818293 0.074001 0.277914
O O7 0.839277 0.762846 0.202261
O O8 0.724585 0.024625 0.853356
O O9 0.601594 0.647238 0.093227
O O10 0.795047 0.298872 0.829446
O O11 0.000000 0.000000 0.500000
#
# Coordination Sequence:
#
# PCOD9075988 Si02
#       5
#     2   2   2   2   2
#     4  12  22  33  55  87 119 144 174 227 287 331
#     4  10  20  38  56  84 109 140 198 230 260 321
#     4  10  19  35  60  81 108 142 191 226 272 311
#     4  10  20  35  56  86 107 140 190 229 269 322
#     4  10  18  32  58  84 106 138 189 238 261 312
#
# _framework density 27.161994
#
# number of rings (size 3 to 8) (size 9 to 14) (size 15 to 20)
#    0.000    1.600    8.000    0.600    0.000    0.800 
#    0.000    0.000    0.000   12.000    0.000    4.200 
#    0.000    0.000    0.000    0.000    0.000    0.000 
#
# Total GULP energy -55891.227167 kJ/mol
# GULP energy per Si atom -5589.122717 kJ/mol
# Density = 2.710017 g / cm^3
# Si number density = 27.161994 Si / 1000 Ang^3
#
#
#
# Elastic Constant Matrix: (Units=GPa)
#
#
# Indices 1 2 3 4 5 6 
#
# 1 116.1283 58.7610 79.8626 8.8988 7.7741 -25.2433
# 2 58.7610 60.1104 125.2175 7.7297 -84.5560 -117.3406
# 3 79.8626 125.2175 154.8220 44.6962 51.9565 16.8989
# 4 8.8988 7.7297 44.6962 63.7193 -20.4893 -33.8399
# 5 7.7741 -84.5560 51.9565 -20.4893 23.9547 -23.7093
# 6 -25.2433 -117.3406 16.8989 -33.8399 -23.7093 19.7681
#
#
#
# Elastic Compliance Matrix: (Units=1/GPa)
#
#
# Indices 1 2 3 4 5 6 
#
# 1 0.013922 -0.003351 -0.004505 0.002083 -0.002459 0.002357
# 2 -0.003351 0.002576 0.002653 -0.004873 -0.003529 -0.003827
# 3 -0.004505 0.002653 0.006024 -0.001098 0.001299 0.004524
# 4 0.002083 -0.004873 -0.001098 0.016050 -0.001936 -0.000172
# 5 -0.002459 -0.003529 0.001299 -0.001936 0.013922 -0.011813
# 6 0.002357 -0.003827 0.004524 -0.000172 -0.011813 0.012549
#
#
# Mechanical properties :
#
#
# Convention : Reuss Voigt Hill
#
# Bulk Modulus (GPa) = 82.52037 95.41589 88.96813
# Shear Modulus (GPa) = 62.90195 25.96972 44.43583
#
# Velocity S-wave (km/s) = 4.81750 3.09545 4.04908
# Velocity P-wave (km/s) = 7.83526 6.92679 7.39499
#
# Compressibility (1/GPa) = 0.01211822
#
# Stress axis : x y z
#
# Youngs Moduli (GPa) = 71.82788 388.12460 165.98965
#
# Poissons Ratio (x) = 1.30048 0.74779
# Poissons Ratio (y) = 0.24067 -0.44042
# Poissons Ratio (z) = 0.32359 -1.02980
#
# Static dielectric constant tensor:
#      x y z
#    x 2.120810 0.035340 -0.126300 
#    y 0.035340 2.186470 -0.004340 
#    z -0.126300 -0.004340 2.168940 
# 
# From -- ./inp_files/265178.got.cif
#   From: 2010.05.17/outbox.cif.g08.bks.cpg/sg2_133_cif.got.tgz:265178.got - 2010.06.03 11:33:40.
