data_PCOD9075979
_publ_section_title
;
Structure prediction by ZEFSAII (Michael W. Deem and Ramdas Pophale) SiO2 
 PCOD9075979
Probable space group: P -1
;
_chemical_formula_sum "Si O2"
_cell_formula_units_Z 14
_cell_length_a 13.222030
_cell_length_b 15.557296
_cell_length_c 11.695087
_cell_angle_alpha 24.241317
_cell_angle_beta 43.164612
_cell_angle_gamma 37.212956
_cell_volume 597.302780
_symmetry_space_group_name_H-M "P -1"
_symmetry_group_IT_number 2
_symmetry_cell_setting 'triclinic'
loop_
_space_group_symop_operation_xyz
x,y,z
-x,-y,-z
loop_
_atom_site_type_symbol
_atom_site_label
_atom_site_fract_x
_atom_site_fract_y
_atom_site_fract_z
Si Si1 0.826634 0.543916 0.141609
Si Si2 0.183706 0.103705 0.847903
Si Si3 0.334104 0.177988 0.280736
Si Si4 0.008756 0.842016 0.363233
Si Si5 0.282213 0.630801 0.222396
Si Si6 0.645289 0.661578 0.690200
Si Si7 0.654862 0.812624 0.167744
O O1 0.793603 0.700831 0.091230
O O2 0.863558 0.294468 0.471895
O O3 0.691176 0.682750 0.987180
O O4 0.000000 0.500000 0.000000
O O5 0.982697 0.914495 0.958931
O O6 0.193502 0.312907 0.518543
O O7 0.280649 0.089956 0.900895
O O8 0.286830 0.866574 0.973533
O O9 0.166324 0.150352 0.476795
O O10 0.349656 0.333367 0.183626
O O11 0.486587 0.911809 0.481353
O O12 0.096309 0.701127 0.344322
O O13 0.340471 0.554352 0.137484
O O14 0.385703 0.390286 0.500606
O O15 0.500000 0.000000 0.000000
#
# Coordination Sequence:
#
# PCOD9075979 Si02
#       7
#     2   2   2   2   2   2   2
#     4   9  17  34  56  77 113 145 177 219 277 337
#     4   9  19  37  59  81 107 141 193 235 262 325
#     4  10  20  35  55  82 116 151 177 224 283 333
#     4   8  18  36  60  78 111 141 188 234 268 321
#     4   8  18  36  56  80 108 140 190 232 263 326
#     4  10  20  36  61  78 113 150 181 227 281 324
#     4  10  18  32  58  82 108 145 179 230 283 318
#
# _framework density 23.438700999999998
#
# number of rings (size 3 to 8) (size 9 to 14) (size 15 to 20)
#    0.857    2.000    0.000    1.714    0.000    1.714 
#    2.571    5.714   18.857    0.000    0.000    0.000 
#    0.000    0.000    0.000    0.000    0.000    0.000 
#
# Total GULP energy -78020.278800 kJ/mol
# GULP energy per Si atom -5572.877057 kJ/mol
# Density = 2.338535 g / cm^3
# Si number density = 23.438701 Si / 1000 Ang^3
#
#
#
# Elastic Constant Matrix: (Units=GPa)
#
#
# Indices 1 2 3 4 5 6 
#
# 1 84.1222 31.7468 27.0163 1.4697 20.5568 35.0449
# 2 31.7468 114.1929 11.0985 8.7525 -3.4901 30.4584
# 3 27.0163 11.0985 82.5195 1.7781 13.7925 12.0117
# 4 1.4697 8.7525 1.7781 31.3606 7.3131 -0.8374
# 5 20.5568 -3.4901 13.7925 7.3131 38.4204 -0.2646
# 6 35.0449 30.4584 12.0117 -0.8374 -0.2646 52.2233
#
#
#
# Elastic Compliance Matrix: (Units=1/GPa)
#
#
# Indices 1 2 3 4 5 6 
#
# 1 0.021860 -0.003048 -0.003120 0.002331 -0.011381 -0.012195
# 2 -0.003048 0.011239 -0.000363 -0.003908 0.003495 -0.004471
# 3 -0.003120 -0.000363 0.013883 0.000228 -0.003397 -0.000901
# 4 0.002331 -0.003908 0.000228 0.034824 -0.008305 0.001178
# 5 -0.011381 0.003495 -0.003397 -0.008305 0.035279 0.006426
# 6 -0.012195 -0.004471 -0.000901 0.001178 0.006426 0.030198
#
#
# Mechanical properties :
#
#
# Convention : Reuss Voigt Hill
#
# Bulk Modulus (GPa) = 29.48117 46.72865 38.10491
# Shear Modulus (GPa) = 29.12891 38.46572 33.79731
#
# Velocity S-wave (km/s) = 3.52912 4.05547 3.80141
# Velocity P-wave (km/s) = 5.40477 6.47371 5.96324
#
# Compressibility (1/GPa) = 0.03391996
#
# Stress axis : x y z
#
# Youngs Moduli (GPa) = 45.74491 88.97930 72.03229
#
# Poissons Ratio (x) = 0.27122 0.22473
# Poissons Ratio (y) = 0.13944 0.02613
# Poissons Ratio (z) = 0.14272 0.03228
#
# Static dielectric constant tensor:
#      x y z
#    x 3.789460 -1.619960 0.087740 
#    y -1.619960 3.298970 -0.082120 
#    z 0.087740 -0.082120 1.937400 
# 
# From -- ./inp_files/432261.got.cif
#   From: 2010.05.17/outbox.cif.g08.bks.cpg/sg2_217_cif.got.tgz:432261.got - 2010.06.03 11:33:40.
