data_PCOD9075537
_publ_section_title
;
Structure prediction by ZEFSAII (Michael W. Deem and Ramdas Pophale) SiO2 
 PCOD9075537
Probable space group: P -1
;
_chemical_formula_sum "Si O2"
_cell_formula_units_Z 12
_cell_length_a 6.000000
_cell_length_b 15.000000
_cell_length_c 15.000000
_cell_angle_alpha 160.000000
_cell_angle_beta 80.000000
_cell_angle_gamma 100.000000
_cell_volume 454.492690
_symmetry_space_group_name_H-M "P -1"
_symmetry_group_IT_number 2
_symmetry_cell_setting 'triclinic'
loop_
_space_group_symop_operation_xyz
x,y,z
-x,-y,-z
loop_
_atom_site_type_symbol
_atom_site_label
_atom_site_fract_x
_atom_site_fract_y
_atom_site_fract_z
Si Si1 0.745788 0.082187 0.813877
Si Si2 0.995595 0.594060 0.317078
Si Si3 0.557449 0.921403 0.020378
Si Si4 0.574687 0.583655 0.949188
Si Si5 0.161804 0.256212 0.751763
Si Si6 0.846520 0.419663 0.517494
O O1 0.679400 0.031956 0.871478
O O2 0.515520 0.195247 0.900352
O O3 0.849831 0.836902 0.531082
O O4 0.915954 0.324524 0.027141
O O5 0.253017 0.614280 0.290534
O O6 0.992563 0.565936 0.395493
O O7 0.740273 0.130687 0.242772
O O8 0.650377 0.629835 0.742251
O O9 0.500000 0.000000 0.000000
O O10 0.367651 0.392303 0.809839
O O11 0.694939 0.756263 0.179430
O O12 0.000000 0.000000 0.500000
O O13 0.000000 0.500000 0.000000
O O14 0.000000 0.500000 0.500000
#
# Coordination Sequence:
#
# PCOD9075537 Si02
#       6
#     2   2   2   2   2   2
#     4  12  27  47  75 115 155 204 261 318 387 456
#     4  12  27  47  75 115 155 204 261 318 387 456
#     4  12  24  45  71 106 156 204 260 321 376 448
#     4  11  28  52  82 116 162 198 262 328 390 479
#     4  11  28  55  83 116 153 205 254 319 405 480
#     4  12  24  45  71 106 156 204 260 321 376 448
#
# _framework density 26.403065000000002
#
# number of rings (size 3 to 8) (size 9 to 14) (size 15 to 20)
#    0.000    0.333    1.667    6.000    0.000   10.667 
#    0.000    2.500    0.000    0.000    0.000    0.000 
#    0.000    0.000    0.000    0.000    0.000    0.000 
#
# Total GULP energy -67015.153754 kJ/mol
# GULP energy per Si atom -5584.596146 kJ/mol
# Density = 2.634297 g / cm^3
# Si number density = 26.403065 Si / 1000 Ang^3
#
#
#
# Elastic Constant Matrix: (Units=GPa)
#
#
# Indices 1 2 3 4 5 6 
#
# 1 91.1185 54.0210 64.4760 -20.9073 -4.7644 32.8605
# 2 54.0210 116.9296 27.6116 -1.4404 16.2600 21.9356
# 3 64.4760 27.6116 152.8667 9.8389 19.6114 13.6640
# 4 -20.9073 -1.4404 9.8389 -1.8947 -0.7030 7.3960
# 5 -4.7644 16.2600 19.6114 -0.7030 50.7227 -9.8333
# 6 32.8605 21.9356 13.6640 7.3960 -9.8333 57.9815
#
#
#
# Elastic Compliance Matrix: (Units=1/GPa)
#
#
# Indices 1 2 3 4 5 6 
#
# 1 0.004303 -0.003232 0.000368 -0.031893 0.001440 0.003010
# 2 -0.003232 0.011732 -0.000345 0.009172 -0.004674 -0.004488
# 3 0.000368 -0.000345 0.006224 0.014468 -0.002810 -0.003867
# 4 -0.031893 0.009172 0.014468 -0.044512 -0.009178 0.015317
# 5 0.001440 -0.004674 -0.002810 -0.009178 0.023625 0.006792
# 6 0.003010 -0.004488 -0.003867 0.015317 0.006792 0.017348
#
#
# Mechanical properties :
#
#
# Convention : Reuss Voigt Hill
#
# Bulk Modulus (GPa) = 63.13574 72.57022 67.85298
# Shear Modulus (GPa) = 164.37794 35.68229 100.03012
#
# Velocity S-wave (km/s) = 7.89888 3.68019 6.16182
# Velocity P-wave (km/s) = 10.35152 6.75304 8.73949
#
# Compressibility (1/GPa) = 0.01583889
#
# Stress axis : x y z
#
# Youngs Moduli (GPa) = 232.41937 85.23796 160.67558
#
# Poissons Ratio (x) = 0.27552 -0.05914
# Poissons Ratio (y) = 0.75127 0.05549
# Poissons Ratio (z) = -0.08555 0.02943
#
# Static dielectric constant tensor:
#      x y z
#    x 2.539880 0.561900 -0.244840 
#    y 0.561900 5.360910 -0.997110 
#    z -0.244840 -0.997110 2.252670 
# 
# From -- ./inp_files/484037.got.cif
#   From: 2010.05.17/outbox.ucp.g08.bks.cvg/sg2_243_cif.got.tgz:484037.got - 2010.06.11 11:32:03.
