data_PCOD9075131
_publ_section_title
;
Structure prediction by ZEFSAII (Michael W. Deem and Ramdas Pophale) SiO2 
 PCOD9075131
Probable space group: P -1
;
_chemical_formula_sum "Si O2"
_cell_formula_units_Z 16
_cell_length_a 9.000000
_cell_length_b 15.000000
_cell_length_c 21.000000
_cell_angle_alpha 160.000000
_cell_angle_beta 70.000000
_cell_angle_gamma 120.000000
_cell_volume 757.501203
_symmetry_space_group_name_H-M "P -1"
_symmetry_group_IT_number 2
_symmetry_cell_setting 'triclinic'
loop_
_space_group_symop_operation_xyz
x,y,z
-x,-y,-z
loop_
_atom_site_type_symbol
_atom_site_label
_atom_site_fract_x
_atom_site_fract_y
_atom_site_fract_z
Si Si1 0.602001 0.314000 0.352579
Si Si2 0.670271 0.043978 0.287112
Si Si3 0.991953 0.795188 0.922262
Si Si4 0.991633 0.258343 0.486948
Si Si5 0.889255 0.881530 0.502338
Si Si6 0.664608 0.139872 0.018474
Si Si7 0.444635 0.085430 0.464836
Si Si8 0.603871 0.498446 0.844532
O O1 0.500000 0.500000 0.500000
O O2 0.675215 0.246747 0.362015
O O3 0.790857 0.515805 0.417199
O O4 0.440960 0.000317 0.127414
O O5 0.575605 0.125961 0.413047
O O6 0.856842 0.113838 0.347016
O O7 0.566355 0.699406 0.035801
O O8 0.823728 0.732140 0.950195
O O9 0.942697 0.473417 0.679643
O O10 0.182764 0.935720 0.030489
O O11 0.000000 0.000000 0.000000
O O12 0.993481 0.039123 0.395418
O O13 0.772707 0.508978 0.259373
O O14 0.744377 0.986820 0.590639
O O15 0.000000 0.000000 0.500000
O O16 0.500000 0.000000 0.000000
O O17 0.505069 0.353573 0.691476
O O18 0.420808 0.794947 0.311706
#
# Coordination Sequence:
#
# PCOD9075131 Si02
#       8
#     2   2   2   2   2   2   2   2
#     4  12  26  43  67 103 140 186 233 290 355 416
#     4  12  26  44  69 104 143 179 234 291 350 421
#     4  11  23  39  70  97 131 177 229 281 348 410
#     4  11  24  45  64 102 143 180 229 293 350 412
#     4  11  24  45  75 103 140 187 234 291 353 418
#     4  11  24  43  69  99 136 179 237 286 345 418
#     4  11  24  46  74  95 139 182 236 287 345 421
#     4  11  25  44  71 102 134 186 233 285 355 413
#
# _framework density 21.122078999999999
#
# number of rings (size 3 to 8) (size 9 to 14) (size 15 to 20)
#    0.000    0.750    3.750    4.500    7.000    0.000 
#    2.250    0.625    0.000    0.000    0.000    0.000 
#    0.000    0.000    0.000    0.000    0.000    0.000 
#
# Total GULP energy -89240.452931 kJ/mol
# GULP energy per Si atom -5577.528308 kJ/mol
# Density = 2.107400 g / cm^3
# Si number density = 21.122079 Si / 1000 Ang^3
#
#
#
# Elastic Constant Matrix: (Units=GPa)
#
#
# Indices 1 2 3 4 5 6 
#
# 1 93.0370 33.4575 -9.8452 -11.1189 9.2695 -31.7856
# 2 33.4575 119.6566 8.5005 -3.4179 11.3771 -29.2541
# 3 -9.8452 8.5005 60.5497 -22.9319 4.9542 -13.5511
# 4 -11.1189 -3.4179 -22.9319 37.6175 -5.7752 5.5963
# 5 9.2695 11.3771 4.9542 -5.7752 33.1743 -8.0965
# 6 -31.7856 -29.2541 -13.5511 5.5963 -8.0965 45.5859
#
#
#
# Elastic Compliance Matrix: (Units=1/GPa)
#
#
# Indices 1 2 3 4 5 6 
#
# 1 0.018098 -0.002275 0.009576 0.008927 -0.001047 0.012724
# 2 -0.002275 0.010322 -0.001192 -0.001421 -0.001869 0.004525
# 3 0.009576 -0.001192 0.027655 0.017751 -0.000407 0.011882
# 4 0.008927 -0.001421 0.017751 0.039542 0.003790 0.006408
# 5 -0.001047 -0.001869 -0.000407 0.003790 0.032597 0.003274
# 6 0.012724 0.004525 0.011882 0.006408 0.003274 0.037040
#
#
# Mechanical properties :
#
#
# Convention : Reuss Voigt Hill
#
# Bulk Modulus (GPa) = 14.64270 37.49654 26.06962
# Shear Modulus (GPa) = 28.44142 39.35091 33.89617
#
# Velocity S-wave (km/s) = 3.67348 4.32096 4.01031
# Velocity P-wave (km/s) = 4.99401 6.53338 5.81486
#
# Compressibility (1/GPa) = 0.06829341
#
# Stress axis : x y z
#
# Youngs Moduli (GPa) = 55.25372 96.88357 36.15990
#
# Poissons Ratio (x) = 0.22046 -0.34628
# Poissons Ratio (y) = 0.12573 0.04309
# Poissons Ratio (z) = -0.52913 0.11545
#
# Static dielectric constant tensor:
#      x y z
#    x 1.596060 -0.010790 -0.119740 
#    y -0.010790 1.823600 -0.000160 
#    z -0.119740 -0.000160 1.729700 
# 
# From -- ./inp_files/347539.got.cif
#   From: 2010.05.17/outbox.ucp.g08.bks.cvg/sg2_174_cif.got.tgz:347539.got - 2010.06.11 11:32:03.
