data_PCOD9075216
_publ_section_title
;
Structure prediction by ZEFSAII (Michael W. Deem and Ramdas Pophale) SiO2 
 PCOD9075216
Probable space group: P -1
;
_chemical_formula_sum "Si O2"
_cell_formula_units_Z 15
_cell_length_a 12.000000
_cell_length_b 15.000000
_cell_length_c 15.000000
_cell_angle_alpha 160.000000
_cell_angle_beta 130.000000
_cell_angle_gamma 50.000000
_cell_volume 699.621350
_symmetry_space_group_name_H-M "P -1"
_symmetry_group_IT_number 2
_symmetry_cell_setting 'triclinic'
loop_
_space_group_symop_operation_xyz
x,y,z
-x,-y,-z
loop_
_atom_site_type_symbol
_atom_site_label
_atom_site_fract_x
_atom_site_fract_y
_atom_site_fract_z
Si Si1 0.744525 0.776427 0.964989
Si Si2 0.057265 0.467257 0.636525
Si Si3 0.402246 0.719393 0.522778
Si Si4 0.068149 0.480402 0.867473
Si Si5 0.758527 0.052528 0.836032
Si Si6 0.500000 0.000000 0.500000
Si Si7 0.254182 0.920621 0.448381
Si Si8 0.738672 0.780198 0.755580
O O1 0.643249 0.549974 0.715657
O O2 0.756643 0.853116 0.938345
O O3 0.903191 0.628013 0.943044
O O4 0.673392 0.037155 0.226039
O O5 0.061404 0.435619 0.715690
O O6 0.121364 0.190929 0.364984
O O7 0.889435 0.576761 0.624906
O O8 0.167175 0.681642 0.877038
O O9 0.338470 0.796086 0.462999
O O10 0.579320 0.685690 0.581317
O O11 0.139743 0.188173 0.664173
O O12 0.171577 0.693003 0.149406
O O13 0.727235 0.989455 0.864559
O O14 0.620855 0.058091 0.700906
O O15 0.629432 0.008888 0.499863
#
# Coordination Sequence:
#
# PCOD9075216 Si02
#       8
#     2   2   2   2   2   1   2   2
#     4  11  27  46  71  95 137 173 234 287 322 395
#     4  11  24  43  68 100 141 175 225 269 331 407
#     4  12  26  46  68 103 129 182 226 281 339 381
#     4  11  23  44  68 100 134 184 218 274 342 390
#     4  12  25  44  70 104 135 182 215 274 337 408
#     4  12  24  46  70 106 142 170 214 282 330 414
#     4  12  25  43  72  99 141 174 221 272 340 411
#     4  11  26  46  70 100 134 182 225 278 335 396
#
# _framework density 21.440169000000001
#
# number of rings (size 3 to 8) (size 9 to 14) (size 15 to 20)
#    0.000    0.533    4.000    3.200    0.000   11.733 
#    0.000    0.000    0.000    0.000    0.000    0.000 
#    0.000    0.000    0.000    0.000    0.000    0.000 
#
# Total GULP energy -83660.892027 kJ/mol
# GULP energy per Si atom -5577.392802 kJ/mol
# Density = 2.139137 g / cm^3
# Si number density = 21.440169 Si / 1000 Ang^3
#
#
#
# Elastic Constant Matrix: (Units=GPa)
#
#
# Indices 1 2 3 4 5 6 
#
# 1 70.8969 4.8409 -1.5103 -10.6550 1.9537 -1.4405
# 2 4.8409 110.3167 -11.2522 -20.8395 0.6290 -0.2825
# 3 -1.5103 -11.2522 69.6890 7.0527 -8.5982 -1.7253
# 4 -10.6550 -20.8395 7.0527 25.4452 2.4710 8.2081
# 5 1.9537 0.6290 -8.5982 2.4710 18.3991 -10.9042
# 6 -1.4405 -0.2825 -1.7253 8.2081 -10.9042 44.0206
#
#
#
# Elastic Compliance Matrix: (Units=1/GPa)
#
#
# Indices 1 2 3 4 5 6 
#
# 1 0.015405 0.000873 -0.001034 0.008649 -0.004674 -0.002301
# 2 0.000873 0.011057 0.000256 0.010544 -0.003361 -0.002689
# 3 -0.001034 0.000256 0.016733 -0.007629 0.011906 0.004995
# 4 0.008649 0.010544 -0.007629 0.061473 -0.023280 -0.017177
# 5 -0.004674 -0.003361 0.011906 -0.023280 0.077822 0.023910
# 6 -0.002301 -0.002689 0.004995 -0.017177 0.023910 0.031945
#
#
# Mechanical properties :
#
#
# Convention : Reuss Voigt Hill
#
# Bulk Modulus (GPa) = 23.04969 26.11772 24.58371
# Shear Modulus (GPa) = 21.86196 34.82792 28.34494
#
# Velocity S-wave (km/s) = 3.19670 4.03479 3.63994
# Velocity P-wave (km/s) = 4.93955 5.82358 5.39969
#
# Compressibility (1/GPa) = 0.04338453
#
# Stress axis : x y z
#
# Youngs Moduli (GPa) = 64.91305 90.44324 59.76211
#
# Poissons Ratio (x) = -0.07896 0.06180
# Poissons Ratio (y) = -0.05667 -0.01529
# Poissons Ratio (z) = 0.06713 -0.02314
#
# Static dielectric constant tensor:
#      x y z
#    x 1.786120 0.004920 0.010060 
#    y 0.004920 1.800560 -0.014860 
#    z 0.010060 -0.014860 1.744650 
# 
# From -- ./inp_files/74497.got.cif
#   From: 2010.05.17/outbox.ucp.g08.bks.cvg/sg2_38_cif.got.tgz:74497.got - 2010.06.11 11:32:03.
