data_PCOD9075703
_publ_section_title
;
Structure prediction by ZEFSAII (Michael W. Deem and Ramdas Pophale) SiO2 
 PCOD9075703
Probable space group: P -1
;
_chemical_formula_sum "Si O2"
_cell_formula_units_Z 16
_cell_length_a 11.823202
_cell_length_b 9.289160
_cell_length_c 10.798865
_cell_angle_alpha 100.886485
_cell_angle_beta 126.858319
_cell_angle_gamma 117.673978
_cell_volume 631.589097
_symmetry_space_group_name_H-M "P -1"
_symmetry_group_IT_number 2
_symmetry_cell_setting 'triclinic'
loop_
_space_group_symop_operation_xyz
x,y,z
-x,-y,-z
loop_
_atom_site_type_symbol
_atom_site_label
_atom_site_fract_x
_atom_site_fract_y
_atom_site_fract_z
Si Si1 0.671257 0.207932 0.894320
Si Si2 0.169166 0.802235 0.463889
Si Si3 0.410931 0.473245 0.275646
Si Si4 0.091773 0.937919 0.636195
Si Si5 0.287060 0.654035 0.335928
Si Si6 0.130850 0.064067 0.311760
Si Si7 0.544728 0.376009 0.949230
Si Si8 0.714592 0.939562 0.811372
O O1 0.736148 0.298598 0.810203
O O2 0.707312 0.362528 0.046045
O O3 0.418375 0.998169 0.687793
O O4 0.757684 0.110983 0.953514
O O5 0.048390 0.752575 0.504472
O O6 0.149836 0.641111 0.341234
O O7 0.130446 0.917731 0.373228
O O8 0.266783 0.465682 0.266166
O O9 0.645477 0.686349 0.508206
O O10 0.421535 0.548526 0.158103
O O11 0.365197 0.267412 0.208142
O O12 0.010134 0.921622 0.713726
O O13 0.337344 0.141555 0.824833
O O14 0.000000 0.000000 0.500000
O O15 0.524963 0.846112 0.577735
O O16 0.100417 0.971412 0.142552
O O17 0.500000 0.500000 0.000000
#
# Coordination Sequence:
#
# PCOD9075703 Si02
#       8
#     2   2   2   2   2   2   2   2
#     4   9  14  26  43  64  90 119 154 184 216 272
#     4   9  12  21  40  63  88 115 145 179 216 261
#     4  10  18  26  42  71  96 113 150 196 226 263
#     4   9  16  27  46  71  93 117 150 188 220 274
#     4   9  13  23  40  64  94 118 145 187 224 263
#     4  10  14  25  43  71  96 117 142 186 235 268
#     4  10  19  33  50  67  87 121 158 190 219 264
#     4  10  16  24  43  70  95 118 145 190 235 262
#
# _framework density 25.332927000000002
#
# number of rings (size 3 to 8) (size 9 to 14) (size 15 to 20)
#    0.000    2.500    7.500    2.250    0.000    0.000 
#    0.000    0.625    0.000   13.500    0.000    0.000 
#    0.000    0.000    0.000    0.000    0.000    0.000 
#
# Total GULP energy -89073.551819 kJ/mol
# GULP energy per Si atom -5567.096989 kJ/mol
# Density = 2.527527 g / cm^3
# Si number density = 25.332927 Si / 1000 Ang^3
#
#
#
# Elastic Constant Matrix: (Units=GPa)
#
#
# Indices 1 2 3 4 5 6 
#
# 1 270.7659 52.0950 55.3471 25.6462 -59.5012 -40.9978
# 2 52.0950 87.6635 18.4313 21.7704 -12.0215 -36.3490
# 3 55.3471 18.4313 56.7475 27.5364 -16.0757 -21.8947
# 4 25.6462 21.7704 27.5364 23.4581 -33.7188 -9.5558
# 5 -59.5012 -12.0215 -16.0757 -33.7188 26.0624 22.9593
# 6 -40.9978 -36.3490 -21.8947 -9.5558 22.9593 34.1365
#
#
#
# Elastic Compliance Matrix: (Units=1/GPa)
#
#
# Indices 1 2 3 4 5 6 
#
# 1 0.004629 0.000941 -0.000270 -0.005635 -0.001700 0.005954
# 2 0.000941 0.014556 -0.003721 0.010191 0.011515 0.009351
# 3 -0.000270 -0.003721 0.021337 0.004846 0.018706 -0.001826
# 4 -0.005635 0.010191 0.004846 -0.001763 -0.032778 0.028744
# 5 -0.001700 0.011515 0.018706 -0.032778 -0.006278 0.017265
# 6 0.005954 0.009351 -0.001826 0.028744 0.017265 0.041666
#
#
# Mechanical properties :
#
#
# Convention : Reuss Voigt Hill
#
# Bulk Modulus (GPa) = 29.05147 74.10264 51.57705
# Shear Modulus (GPa) = 54.51297 36.01829 45.26563
#
# Velocity S-wave (km/s) = 4.64385 3.77476 4.23168
# Velocity P-wave (km/s) = 6.34402 6.95079 6.65432
#
# Compressibility (1/GPa) = 0.03442167
#
# Stress axis : x y z
#
# Youngs Moduli (GPa) = 216.02282 68.70086 46.86656
#
# Poissons Ratio (x) = -0.06465 0.01268
# Poissons Ratio (y) = -0.20330 0.17438
# Poissons Ratio (z) = 0.05843 0.25563
#
# Static dielectric constant tensor:
#      x y z
#    x 2.086010 -0.081620 -0.079400 
#    y -0.081620 2.005040 0.103460 
#    z -0.079400 0.103460 2.272400 
# 
# From -- ./inp_files/252555.got.cif
#   From: 2010.05.17/outbox.cif.g08.bks.cpg/sg2_127_cif.got.tgz:252555.got - 2010.06.03 11:33:40.
