data_PCOD9075407
_publ_section_title
;
Structure prediction by ZEFSAII (Michael W. Deem and Ramdas Pophale) SiO2 
 PCOD9075407
Probable space group: P -1
;
_chemical_formula_sum "Si O2"
_cell_formula_units_Z 16
_cell_length_a 15.000000
_cell_length_b 9.000000
_cell_length_c 9.000000
_cell_angle_alpha 110.000000
_cell_angle_beta 140.000000
_cell_angle_gamma 80.000000
_cell_volume 725.993766
_symmetry_space_group_name_H-M "P -1"
_symmetry_group_IT_number 2
_symmetry_cell_setting 'triclinic'
loop_
_space_group_symop_operation_xyz
x,y,z
-x,-y,-z
loop_
_atom_site_type_symbol
_atom_site_label
_atom_site_fract_x
_atom_site_fract_y
_atom_site_fract_z
Si Si1 0.197108 0.490137 0.358252
Si Si2 0.341326 0.947045 0.332773
Si Si3 0.602666 0.881645 0.028991
Si Si4 0.046969 0.304490 0.827351
Si Si5 0.571623 0.342796 0.497055
Si Si6 0.054339 0.333767 0.542176
Si Si7 0.847905 0.020426 0.184543
Si Si8 0.726968 0.774630 0.433369
O O1 0.310358 0.607234 0.455589
O O2 0.284865 0.380925 0.532052
O O3 0.087649 0.599717 0.322979
O O4 0.115167 0.369412 0.091631
O O5 0.349266 0.762160 0.322902
O O6 0.500000 0.000000 0.500000
O O7 0.293704 0.065695 0.442630
O O8 0.243360 0.966945 0.074937
O O9 0.749917 0.972465 0.186176
O O10 0.624954 0.772972 0.161955
O O11 0.541880 0.783976 0.774581
O O12 0.500000 0.000000 0.000000
O O13 0.138685 0.358760 0.814657
O O14 0.051474 0.113585 0.766442
O O15 0.500000 0.500000 0.500000
O O16 0.128050 0.252901 0.473799
O O17 0.000000 0.500000 0.500000
O O18 0.929123 0.195400 0.375111
#
# Coordination Sequence:
#
# PCOD9075407 Si02
#       8
#     2   2   2   2   2   2   2   2
#     4  11  26  45  75 104 145 188 237 299 357 428
#     4  12  25  48  73 104 141 188 248 290 356 441
#     4  12  26  45  73 107 143 191 243 296 360 437
#     4  11  24  47  70 102 148 185 236 292 361 428
#     4  12  27  45  75 106 145 191 242 302 367 421
#     4  12  28  44  71 109 142 185 241 303 361 427
#     4  12  26  45  76  99 147 190 233 296 363 426
#     4  12  25  46  73 103 146 186 246 295 357 434
#
# _framework density 22.038757
#
# number of rings (size 3 to 8) (size 9 to 14) (size 15 to 20)
#    0.000    0.250    6.250    1.875    5.250    1.000 
#    0.000    0.000    0.000    0.000    0.000    0.000 
#    0.000    0.000    0.000    0.000    0.000    0.000 
#
# Total GULP energy -89220.342284 kJ/mol
# GULP energy per Si atom -5576.271393 kJ/mol
# Density = 2.198860 g / cm^3
# Si number density = 22.038757 Si / 1000 Ang^3
#
#
#
# Elastic Constant Matrix: (Units=GPa)
#
#
# Indices 1 2 3 4 5 6 
#
# 1 114.3212 47.9276 16.4149 7.7268 -5.5744 -17.2652
# 2 47.9276 187.1233 49.3922 -20.8464 -1.1600 -9.4915
# 3 16.4149 49.3922 57.1763 -17.3710 -13.7920 -12.6945
# 4 7.7268 -20.8464 -17.3710 48.9394 5.5602 -9.6644
# 5 -5.5744 -1.1600 -13.7920 5.5602 33.5531 -2.4769
# 6 -17.2652 -9.4915 -12.6945 -9.6644 -2.4769 45.1835
#
#
#
# Elastic Compliance Matrix: (Units=1/GPa)
#
#
# Indices 1 2 3 4 5 6 
#
# 1 0.010696 -0.002802 -0.000248 -0.002634 0.002235 0.002988
# 2 -0.002802 0.007895 -0.006535 0.001641 -0.003230 -0.001074
# 3 -0.000248 -0.006535 0.030855 0.008801 0.011675 0.009724
# 4 -0.002634 0.001641 0.008801 0.026194 -0.000559 0.007383
# 5 0.002235 -0.003230 0.011675 -0.000559 0.035344 0.005274
# 6 0.002988 -0.001074 0.009724 0.007383 0.005274 0.027648
#
#
# Mechanical properties :
#
#
# Convention : Reuss Voigt Hill
#
# Bulk Modulus (GPa) = 33.02867 65.12113 49.07490
# Shear Modulus (GPa) = 29.78062 41.86094 35.82078
#
# Velocity S-wave (km/s) = 3.67997 4.36297 4.03594
# Velocity P-wave (km/s) = 5.75112 7.41574 6.63584
#
# Compressibility (1/GPa) = 0.03027673
#
# Stress axis : x y z
#
# Youngs Moduli (GPa) = 93.49354 126.66311 32.40919
#
# Poissons Ratio (x) = 0.35493 0.00803
# Poissons Ratio (y) = 0.26199 0.21179
# Poissons Ratio (z) = 0.02316 0.82773
#
# Static dielectric constant tensor:
#      x y z
#    x 1.868720 0.018420 -0.083220 
#    y 0.018420 1.735290 -0.172200 
#    z -0.083220 -0.172200 1.746030 
# 
# From -- ./inp_files/299298.got.cif
#   From: 2010.05.17/outbox.ucp.g08.bks.cvg/sg2_150_cif.got.tgz:299298.got - 2010.06.11 11:32:03.
