data_PCOD9075174
_publ_section_title
;
Structure prediction by ZEFSAII (Michael W. Deem and Ramdas Pophale) SiO2 
 PCOD9075174
Probable space group: P -1
;
_chemical_formula_sum "Si O2"
_cell_formula_units_Z 12
_cell_length_a 18.000000
_cell_length_b 21.000000
_cell_length_c 12.000000
_cell_angle_alpha 20.000000
_cell_angle_beta 30.000000
_cell_angle_gamma 20.000000
_cell_volume 524.980204
_symmetry_space_group_name_H-M "P -1"
_symmetry_group_IT_number 2
_symmetry_cell_setting 'triclinic'
loop_
_space_group_symop_operation_xyz
x,y,z
-x,-y,-z
loop_
_atom_site_type_symbol
_atom_site_label
_atom_site_fract_x
_atom_site_fract_y
_atom_site_fract_z
Si Si1 0.905826 0.526184 0.356203
Si Si2 0.033408 0.800341 0.642480
Si Si3 0.350854 0.906218 0.848843
Si Si4 0.453566 0.057408 0.671462
Si Si5 0.637373 0.302276 0.453172
Si Si6 0.739760 0.605291 0.189054
O O1 0.736165 0.694370 0.405305
O O2 0.808418 0.568046 0.289726
O O3 0.103162 0.202267 0.661333
O O4 0.006263 0.639938 0.018009
O O5 0.216814 0.755395 0.539696
O O6 0.107417 0.661646 0.652016
O O7 0.803532 0.123158 0.427678
O O8 0.504586 0.852905 0.639809
O O9 0.405390 0.916777 0.888314
O O10 0.420800 0.630051 0.192186
O O11 0.686544 0.835020 0.802611
O O12 0.516699 0.219122 0.763826
#
# Coordination Sequence:
#
# PCOD9075174 Si02
#       6
#     2   2   2   2   2   2
#     4  12  25  42  72 100 129 178 223 268 326 397
#     4  11  23  42  70  97 127 178 223 263 324 395
#     4  11  24  43  66  99 138 170 214 280 330 385
#     4  11  23  43  69  96 133 178 224 263 324 401
#     4  11  25  42  67 101 132 173 219 277 327 384
#     4  12  24  43  72  98 133 171 228 271 320 393
#
# _framework density 22.858004999999999
#
# number of rings (size 3 to 8) (size 9 to 14) (size 15 to 20)
#    0.000    0.667    5.000    3.000    0.000    2.000 
#    0.000    1.667    0.000    0.000    0.000    0.000 
#    0.000    0.000    0.000    0.000    0.000    0.000 
#
# Total GULP energy -66922.440876 kJ/mol
# GULP energy per Si atom -5576.870073 kJ/mol
# Density = 2.280598 g / cm^3
# Si number density = 22.858005 Si / 1000 Ang^3
#
#
#
# Elastic Constant Matrix: (Units=GPa)
#
#
# Indices 1 2 3 4 5 6 
#
# 1 141.5807 61.7719 5.3923 5.4288 18.8462 21.2138
# 2 61.7719 182.9917 42.1063 -15.9308 -2.6675 39.8683
# 3 5.3923 42.1063 47.2439 -24.4069 1.6158 6.2131
# 4 5.4288 -15.9308 -24.4069 49.5027 0.8520 0.2357
# 5 18.8462 -2.6675 1.6158 0.8520 28.9904 1.1656
# 6 21.2138 39.8683 6.2131 0.2357 1.1656 50.4016
#
#
#
# Elastic Compliance Matrix: (Units=1/GPa)
#
#
# Indices 1 2 3 4 5 6 
#
# 1 0.009700 -0.003637 0.001931 -0.001161 -0.006663 -0.001284
# 2 -0.003637 0.009660 -0.007850 -0.000405 0.003913 -0.005231
# 3 0.001931 -0.007850 0.035666 0.014918 -0.004446 0.001033
# 4 -0.001161 -0.000405 0.014918 0.027574 -0.000878 -0.001139
# 5 -0.006663 0.003913 -0.004446 -0.000878 0.039485 -0.000652
# 6 -0.001284 -0.005231 0.001033 -0.001139 -0.000652 0.024412
#
#
# Mechanical properties :
#
#
# Convention : Reuss Voigt Hill
#
# Bulk Modulus (GPa) = 27.84344 65.59527 46.71935
# Shear Modulus (GPa) = 28.15618 43.28200 35.71909
#
# Velocity S-wave (km/s) = 3.51349 4.35618 3.95733
# Velocity P-wave (km/s) = 5.35415 7.35261 6.43148
#
# Compressibility (1/GPa) = 0.03591510
#
# Stress axis : x y z
#
# Youngs Moduli (GPa) = 103.08877 103.51552 28.03822
#
# Poissons Ratio (x) = 0.37653 -0.05416
# Poissons Ratio (y) = 0.37497 0.22009
# Poissons Ratio (z) = -0.19911 0.81257
#
# Static dielectric constant tensor:
#      x y z
#    x 1.843510 -0.041340 -0.042230 
#    y -0.041340 1.878520 0.074860 
#    z -0.042230 0.074860 2.034090 
# 
# From -- ./inp_files/151800.got.cif
#   From: 2010.05.17/outbox.ucp.g08.bks.cvg/sg2_76_cif.got.tgz:151800.got - 2010.06.11 11:32:03.
