data_PCOD9075785
_publ_section_title
;
Structure prediction by ZEFSAII (Michael W. Deem and Ramdas Pophale) SiO2 
 PCOD9075785
Probable space group: P -1
;
_chemical_formula_sum "Si O2"
_cell_formula_units_Z 14
_cell_length_a 7.910907
_cell_length_b 5.149769
_cell_length_c 21.083126
_cell_angle_alpha 91.169386
_cell_angle_beta 48.565105
_cell_angle_gamma 91.670176
_cell_volume 643.659596
_symmetry_space_group_name_H-M "P -1"
_symmetry_group_IT_number 2
_symmetry_cell_setting 'triclinic'
loop_
_space_group_symop_operation_xyz
x,y,z
-x,-y,-z
loop_
_atom_site_type_symbol
_atom_site_label
_atom_site_fract_x
_atom_site_fract_y
_atom_site_fract_z
Si Si1 0.815239 0.949088 0.489149
Si Si2 0.731050 0.450561 0.557699
Si Si3 0.897582 0.156081 0.219703
Si Si4 0.363181 0.357866 0.747014
Si Si5 0.388508 0.395245 0.206134
Si Si6 0.900621 0.091010 0.705120
Si Si7 0.397115 0.250274 0.059164
O O1 0.649431 0.725239 0.554588
O O2 0.937867 0.867866 0.394619
O O3 0.697880 0.223572 0.513959
O O4 0.000000 0.000000 0.500000
O O5 0.605517 0.360635 0.651838
O O6 0.000000 0.500000 0.500000
O O7 0.743251 0.928637 0.226205
O O8 0.969228 0.030633 0.268231
O O9 0.781926 0.434039 0.254592
O O10 0.126992 0.212951 0.124205
O O11 0.403060 0.486224 0.806033
O O12 0.218896 0.639913 0.245608
O O13 0.447065 0.290609 0.121663
O O14 0.276424 0.145763 0.268526
O O15 0.500000 0.500000 0.000000
O O16 0.500000 0.000000 0.000000
#
# Coordination Sequence:
#
# PCOD9075785 Si02
#       7
#     2   2   2   2   2   2   2
#     4  10  18  32  55  84 113 157 216 267 290 333
#     4  10  20  34  56  85 121 167 211 259 303 348
#     4  11  25  42  64  94 132 166 200 268 332 371
#     4  12  23  42  63  96 132 166 214 266 315 369
#     4  11  22  39  68  95 121 170 215 248 307 394
#     4  11  21  40  63  91 125 173 221 254 308 392
#     4  11  23  45  70  95 124 163 207 252 314 399
#
# _framework density 21.750629
#
# number of rings (size 3 to 8) (size 9 to 14) (size 15 to 20)
#    0.000    1.143    0.000   10.286    0.000    0.000 
#    0.000    8.571    0.000    0.000    0.000    0.000 
#    0.000    0.000    0.000    0.000    0.000    0.000 
#
# Total GULP energy -78216.665060 kJ/mol
# GULP energy per Si atom -5586.904647 kJ/mol
# Density = 2.170112 g / cm^3
# Si number density = 21.750629 Si / 1000 Ang^3
#
#
#
# Elastic Constant Matrix: (Units=GPa)
#
#
# Indices 1 2 3 4 5 6 
#
# 1 49.9344 7.7404 12.6478 -0.0499 -1.6946 5.6818
# 2 7.7404 155.7909 31.8036 -4.7245 -4.5436 7.1230
# 3 12.6478 31.8036 114.9944 -7.6059 -2.2548 8.4103
# 4 -0.0499 -4.7245 -7.6059 47.4018 4.7054 -9.4318
# 5 -1.6946 -4.5436 -2.2548 4.7054 26.8093 1.0188
# 6 5.6818 7.1230 8.4103 -9.4318 1.0188 34.9526
#
#
#
# Elastic Compliance Matrix: (Units=1/GPa)
#
#
# Indices 1 2 3 4 5 6 
#
# 1 0.021014 -0.000485 -0.001991 -0.001117 0.001395 -0.003180
# 2 -0.000485 0.006875 -0.001755 0.000126 0.000999 -0.000895
# 3 -0.001991 -0.001755 0.009574 0.001068 0.000246 -0.001341
# 4 -0.001117 0.000126 0.001068 0.022934 -0.004221 0.006211
# 5 0.001395 0.000999 0.000246 -0.004221 0.038424 -0.002748
# 6 -0.003180 -0.000895 -0.001341 0.006211 -0.002748 0.031388
#
#
# Mechanical properties :
#
#
# Convention : Reuss Voigt Hill
#
# Bulk Modulus (GPa) = 34.48175 47.23370 40.85773
# Shear Modulus (GPa) = 33.70692 39.73460 36.72076
#
# Velocity S-wave (km/s) = 3.94089 4.27877 4.11330
# Velocity P-wave (km/s) = 6.04939 6.79512 6.43307
#
# Compressibility (1/GPa) = 0.02900085
#
# Stress axis : x y z
#
# Youngs Moduli (GPa) = 47.58764 145.45345 104.45086
#
# Poissons Ratio (x) = 0.07061 0.20795
# Poissons Ratio (y) = 0.02310 0.18327
# Poissons Ratio (z) = 0.09474 0.25522
#
# Static dielectric constant tensor:
#      x y z
#    x 0.822850 0.621200 0.186190 
#    y 0.621200 1.451670 -0.116960 
#    z 0.186190 -0.116960 1.742150 
# 
# From -- ./inp_files/581967.got.cif
#   From: 2010.05.17/outbox.cif.g08.bks.cpg/sg2_291_cif.got.tgz:581967.got - 2010.06.03 11:33:40.
