data_PCOD9075401
_publ_section_title
;
Structure prediction by ZEFSAII (Michael W. Deem and Ramdas Pophale) SiO2 
 PCOD9075401
Probable space group: P -1
;
_chemical_formula_sum "Si O2"
_cell_formula_units_Z 14
_cell_length_a 16.196462
_cell_length_b 17.882703
_cell_length_c 7.799856
_cell_angle_alpha 39.015893
_cell_angle_beta 129.178906
_cell_angle_gamma 156.307269
_cell_volume 542.350358
_symmetry_space_group_name_H-M "P -1"
_symmetry_group_IT_number 2
_symmetry_cell_setting 'triclinic'
loop_
_space_group_symop_operation_xyz
x,y,z
-x,-y,-z
loop_
_atom_site_type_symbol
_atom_site_label
_atom_site_fract_x
_atom_site_fract_y
_atom_site_fract_z
Si Si1 0.748918 0.227220 0.359887
Si Si2 0.727514 0.502946 0.224456
Si Si3 0.563175 0.375699 0.729906
Si Si4 0.425438 0.377057 0.888998
Si Si5 0.744216 0.004406 0.565189
Si Si6 0.028236 0.333584 0.046427
Si Si7 0.604469 0.208562 0.873942
O O1 0.818876 0.160664 0.537276
O O2 0.500000 0.000000 0.500000
O O3 0.906527 0.465226 0.248319
O O4 0.752496 0.285333 0.069001
O O5 0.728137 0.427312 0.532729
O O6 0.516668 0.232296 0.345630
O O7 0.629164 0.540004 0.991279
O O8 0.937918 0.693474 0.044635
O O9 0.450471 0.334148 0.813352
O O10 0.590011 0.501377 0.394349
O O11 0.787622 0.549441 0.799443
O O12 0.462672 0.159146 0.899636
O O13 0.224202 0.106357 0.181090
O O14 0.820573 0.115702 0.279473
O O15 0.500000 0.000000 0.000000
#
# Coordination Sequence:
#
# PCOD9075401 Si02
#       7
#     2   2   2   2   2   2   2
#     4  11  18  34  54  77 103 137 178 217 261 307
#     4   9  19  34  50  75 106 136 171 212 261 311
#     4   9  18  32  56  79 102 139 177 217 261 305
#     4   8  17  35  52  80 101 133 185 214 257 309
#     4  10  18  32  54  74 103 136 178 215 262 307
#     4  10  19  32  54  74 103 140 174 222 254 303
#     4  11  18  31  55  76 108 141 169 211 268 313
#
# _framework density 25.813573999999999
#
# number of rings (size 3 to 8) (size 9 to 14) (size 15 to 20)
#    0.857    1.429    2.857    1.286    0.000    1.143 
#    0.000    0.714   12.571    0.857    0.000    0.000 
#    0.000    0.000    0.000    0.000    0.000    0.000 
#
# Total GULP energy -77984.549153 kJ/mol
# GULP energy per Si atom -5570.324940 kJ/mol
# Density = 2.575482 g / cm^3
# Si number density = 25.813574 Si / 1000 Ang^3
#
#
#
# Elastic Constant Matrix: (Units=GPa)
#
#
# Indices 1 2 3 4 5 6 
#
# 1 118.0725 22.4437 47.7399 -8.8980 17.5381 -8.7808
# 2 22.4437 50.1185 17.4124 19.5096 4.3930 2.0164
# 3 47.7399 17.4124 149.1955 16.1662 -0.0725 7.6722
# 4 -8.8980 19.5096 16.1662 33.2454 -5.0584 -4.8177
# 5 17.5381 4.3930 -0.0725 -5.0584 47.9859 -5.3667
# 6 -8.7808 2.0164 7.6722 -4.8177 -5.3667 16.4300
#
#
#
# Elastic Compliance Matrix: (Units=1/GPa)
#
#
# Indices 1 2 3 4 5 6 
#
# 1 0.016249 -0.012348 -0.006552 0.017238 -0.000989 0.017991
# 2 -0.012348 0.037807 0.004226 -0.031810 -0.004999 -0.024172
# 3 -0.006552 0.004226 0.010120 -0.010987 -0.000492 -0.012128
# 4 0.017238 -0.031810 -0.010987 0.065739 0.008015 0.040141
# 5 -0.000989 -0.004999 -0.000492 0.008015 0.023665 0.010394
# 6 0.017991 -0.024172 -0.012128 0.040141 0.010394 0.094274
#
#
# Mechanical properties :
#
#
# Convention : Reuss Voigt Hill
#
# Bulk Modulus (GPa) = 28.71143 54.73094 41.72118
# Shear Modulus (GPa) = 17.31232 34.85164 26.08198
#
# Velocity S-wave (km/s) = 2.59253 3.67840 3.18212
# Velocity P-wave (km/s) = 4.48424 6.26811 5.44966
#
# Compressibility (1/GPa) = 0.03482934
#
# Stress axis : x y z
#
# Youngs Moduli (GPa) = 61.54050 26.45008 98.81612
#
# Poissons Ratio (x) = 0.32659 0.64743
# Poissons Ratio (y) = 0.75988 -0.41759
# Poissons Ratio (z) = 0.40321 -0.11178
#
# Static dielectric constant tensor:
#      x y z
#    x 2.091390 0.004770 0.003440 
#    y 0.004770 2.081430 0.025570 
#    z 0.003440 0.025570 2.112870 
# 
# From -- ./inp_files/316446.got.cif
#   From: 2010.05.17/outbox.cif.g08.bks.cpg/sg2_159_cif.got.tgz:316446.got - 2010.06.03 11:33:40.
