data_PCOD9075528
_publ_section_title
;
Structure prediction by ZEFSAII (Michael W. Deem and Ramdas Pophale) SiO2 
 PCOD9075528
Probable space group: P -1
;
_chemical_formula_sum "Si O2"
_cell_formula_units_Z 13
_cell_length_a 9.000000
_cell_length_b 9.000000
_cell_length_c 12.000000
_cell_angle_alpha 40.000000
_cell_angle_beta 70.000000
_cell_angle_gamma 90.000000
_cell_volume 529.002133
_symmetry_space_group_name_H-M "P -1"
_symmetry_group_IT_number 2
_symmetry_cell_setting 'triclinic'
loop_
_space_group_symop_operation_xyz
x,y,z
-x,-y,-z
loop_
_atom_site_type_symbol
_atom_site_label
_atom_site_fract_x
_atom_site_fract_y
_atom_site_fract_z
Si Si1 0.000000 0.000000 0.000000
Si Si2 0.642666 0.557356 0.301020
Si Si3 0.092839 0.802587 0.302019
Si Si4 0.122643 0.078220 0.529338
Si Si5 0.682469 0.250391 0.275237
Si Si6 0.460163 0.862640 0.250272
Si Si7 0.356191 0.574915 0.052100
O O1 0.818582 0.730450 0.224520
O O2 0.891913 0.078766 0.890799
O O3 0.692957 0.486515 0.210552
O O4 0.515411 0.695915 0.248130
O O5 0.546899 0.286974 0.546595
O O6 0.277249 0.869102 0.272812
O O7 0.000000 0.500000 0.500000
O O8 0.977246 0.900740 0.348808
O O9 0.266738 0.352916 0.293179
O O10 0.182343 0.857095 0.660722
O O11 0.000000 0.000000 0.500000
O O12 0.500000 0.000000 0.500000
O O13 0.725316 0.359672 0.076270
O O14 0.589277 0.158115 0.052846
O O15 0.500000 0.500000 0.000000
#
# Coordination Sequence:
#
# PCOD9075528 Si02
#       7
#     1   2   2   2   2   2   2
#     4  12  30  48  80 112 160 206 258 310 404 452
#     4  11  26  49  78 117 153 205 258 319 386 463
#     4  12  29  50  74 112 157 201 255 321 377 467
#     4  12  30  50  76 115 156 201 256 322 388 460
#     4  12  26  48  80 112 157 194 259 327 377 465
#     4  11  26  49  79 110 158 201 262 319 381 469
#     4  12  26  48  81 114 149 208 256 318 400 454
#
# _framework density 24.574570000000001
#
# number of rings (size 3 to 8) (size 9 to 14) (size 15 to 20)
#    0.000    0.308    4.615    1.846   10.769    1.231 
#    0.000    0.000    0.000    0.000    0.000    0.000 
#    0.000    0.000    0.000    0.000    0.000    0.000 
#
# Total GULP energy -72474.725884 kJ/mol
# GULP energy per Si atom -5574.978914 kJ/mol
# Density = 2.451864 g / cm^3
# Si number density = 24.574570 Si / 1000 Ang^3
#
#
#
# Elastic Constant Matrix: (Units=GPa)
#
#
# Indices 1 2 3 4 5 6 
#
# 1 50.3757 36.4504 10.4772 17.6171 19.4127 -18.2006
# 2 36.4504 96.4251 16.6226 -9.4681 3.1485 -21.5653
# 3 10.4772 16.6226 98.6217 -4.9872 24.9178 -5.8018
# 4 17.6171 -9.4681 -4.9872 20.9789 0.5599 5.5109
# 5 19.4127 3.1485 24.9178 0.5599 48.4897 2.4328
# 6 -18.2006 -21.5653 -5.8018 5.5109 2.4328 25.5318
#
#
#
# Elastic Compliance Matrix: (Units=1/GPa)
#
#
# Indices 1 2 3 4 5 6 
#
# 1 -0.336024 0.107026 -0.013354 0.389107 0.142477 -0.249738
# 2 0.107026 -0.020878 0.002973 -0.120961 -0.046130 0.089841
# 3 -0.013354 0.002973 0.011620 0.017457 -0.000614 -0.008078
# 4 0.389107 -0.120961 0.017457 -0.398942 -0.166394 0.281143
# 5 0.142477 -0.046130 -0.000614 -0.166394 -0.036294 0.101837
# 6 -0.249738 0.089841 -0.008078 0.281143 0.101837 -0.135202
#
#
# Mechanical properties :
#
#
# Convention : Reuss Voigt Hill
#
# Bulk Modulus (GPa) = -6.57925 41.39142 17.40609
# Shear Modulus (GPa) = -4.31156 31.12489 13.40666
#
# Velocity S-wave (km/s) = -1.32600 3.56272 2.33824
# Velocity P-wave (km/s) = 2.24220 5.81410 3.79317
#
# Compressibility (1/GPa) = -0.15199309
#
# Stress axis : x y z
#
# Youngs Moduli (GPa) = -2.97597 -47.89780 86.05700
#
# Poissons Ratio (x) = 5.12633 1.14924
# Poissons Ratio (y) = 0.31851 -0.25581
# Poissons Ratio (z) = -0.03974 0.14238
#
# Static dielectric constant tensor:
#      x y z
#    x 1.958930 0.048100 -0.121310 
#    y 0.048100 1.956430 0.003570 
#    z -0.121310 0.003570 1.835720 
# 
# From -- ./inp_files/173961.got.cif
#   From: 2010.05.17/outbox.ucp.g08.bks.cvg/sg2_87_cif.got.tgz:173961.got - 2010.06.11 11:32:03.
