data_PCOD9075026
_publ_section_title
;
Structure prediction by ZEFSAII (Michael W. Deem and Ramdas Pophale) SiO2 
 PCOD9075026
Probable space group: P -1
;
_chemical_formula_sum "Si O2"
_cell_formula_units_Z 16
_cell_length_a 15.000000
_cell_length_b 12.000000
_cell_length_c 9.000000
_cell_angle_alpha 80.000000
_cell_angle_beta 110.000000
_cell_angle_gamma 150.000000
_cell_volume 734.803614
_symmetry_space_group_name_H-M "P -1"
_symmetry_group_IT_number 2
_symmetry_cell_setting 'triclinic'
loop_
_space_group_symop_operation_xyz
x,y,z
-x,-y,-z
loop_
_atom_site_type_symbol
_atom_site_label
_atom_site_fract_x
_atom_site_fract_y
_atom_site_fract_z
Si Si1 0.062047 0.789948 0.351778
Si Si2 0.702199 0.456305 0.402940
Si Si3 0.360926 0.938010 0.333356
Si Si4 0.609259 0.196665 0.894283
Si Si5 0.433729 0.437831 0.652800
Si Si6 0.736091 0.981247 0.269935
Si Si7 0.856372 0.872405 0.814750
Si Si8 0.891383 0.648758 0.784988
O O1 0.162998 0.790102 0.320133
O O2 0.835125 0.549800 0.321667
O O3 0.154758 0.877810 0.547544
O O4 0.100122 0.959162 0.275560
O O5 0.689108 0.578655 0.376164
O O6 0.777419 0.499633 0.600917
O O7 0.492372 0.185202 0.325840
O O8 0.341009 0.842628 0.196959
O O9 0.500000 0.000000 0.500000
O O10 0.444532 0.122232 0.807718
O O11 0.800711 0.481581 0.909797
O O12 0.500000 0.000000 0.000000
O O13 0.500000 0.500000 0.500000
O O14 0.329714 0.216601 0.697729
O O15 0.638909 0.658292 0.799258
O O16 0.884877 0.144593 0.178504
O O17 0.866925 0.760613 0.761856
O O18 0.000000 0.000000 0.000000
#
# Coordination Sequence:
#
# PCOD9075026 Si02
#       8
#     2   2   2   2   2   2   2   2
#     4  11  23  42  71 107 139 181 240 298 353 421
#     4  11  22  40  75 107 132 183 243 302 348 416
#     4  12  23  43  70 101 139 187 253 297 337 423
#     4  12  27  45  68 100 142 192 242 299 366 423
#     4  12  19  41  75 102 142 185 234 293 359 434
#     4  11  22  42  74 101 133 188 241 295 356 427
#     4  12  25  41  69 108 149 182 226 295 370 431
#     4  11  23  44  70 101 142 181 239 296 359 433
#
# _framework density 21.774525000000001
#
# number of rings (size 3 to 8) (size 9 to 14) (size 15 to 20)
#    0.000    0.500    7.500    0.750    0.000    6.000 
#    0.000    1.250    0.000    0.000    0.000    0.000 
#    0.000    0.000    0.000    0.000    0.000    0.000 
#
# Total GULP energy -89166.579247 kJ/mol
# GULP energy per Si atom -5572.911203 kJ/mol
# Density = 2.172497 g / cm^3
# Si number density = 21.774525 Si / 1000 Ang^3
#
#
#
# Elastic Constant Matrix: (Units=GPa)
#
#
# Indices 1 2 3 4 5 6 
#
# 1 163.7863 30.3584 29.3626 -20.2015 0.1080 10.4989
# 2 30.3584 88.6293 26.2436 -23.0662 2.5625 14.2001
# 3 29.3626 26.2436 32.8786 -12.7006 5.8723 7.3507
# 4 -20.2015 -23.0662 -12.7006 33.1676 0.1295 3.0252
# 5 0.1080 2.5625 5.8723 0.1295 24.6699 -1.8353
# 6 10.4989 14.2001 7.3507 3.0252 -1.8353 51.9387
#
#
#
# Elastic Compliance Matrix: (Units=1/GPa)
#
#
# Indices 1 2 3 4 5 6 
#
# 1 0.007497 -0.000194 -0.005711 0.002307 0.001279 -0.000743
# 2 -0.000194 0.016870 -0.009219 0.008426 0.000120 -0.003755
# 3 -0.005711 -0.009219 0.049493 0.009496 -0.011167 -0.004277
# 4 0.002307 0.008426 0.009496 0.041675 -0.003861 -0.006678
# 5 0.001279 0.000120 -0.011167 -0.003861 0.043422 0.003048
# 6 -0.000743 -0.003755 -0.004277 -0.006678 0.003048 0.021532
#
#
# Mechanical properties :
#
#
# Convention : Reuss Voigt Hill
#
# Bulk Modulus (GPa) = 22.93047 50.80263 36.86655
# Shear Modulus (GPa) = 22.19497 35.24389 28.71943
#
# Velocity S-wave (km/s) = 3.19613 4.02753 3.63567
# Velocity P-wave (km/s) = 4.91671 6.70894 5.88149
#
# Compressibility (1/GPa) = 0.04361010
#
# Stress axis : x y z
#
# Youngs Moduli (GPa) = 133.39175 59.27527 20.20484
#
# Poissons Ratio (x) = 0.01152 0.11539
# Poissons Ratio (y) = 0.02592 0.18628
# Poissons Ratio (z) = 0.76183 0.54649
#
# Static dielectric constant tensor:
#      x y z
#    x 1.799850 -0.015900 -0.008110 
#    y -0.015900 1.874850 0.050470 
#    z -0.008110 0.050470 1.889680 
# 
# From -- ./inp_files/307402.got.cif
#   From: 2010.05.17/outbox.ucp.g08.bks.cvg/sg2_154_cif.got.tgz:307402.got - 2010.06.11 11:32:03.
