data_PCOD9075859
_publ_section_title
;
Structure prediction by ZEFSAII (Michael W. Deem and Ramdas Pophale) SiO2 
 PCOD9075859
Probable space group: P -1
;
_chemical_formula_sum "Si O2"
_cell_formula_units_Z 16
_cell_length_a 10.918047
_cell_length_b 11.596636
_cell_length_c 12.797843
_cell_angle_alpha 129.655286
_cell_angle_beta 108.013191
_cell_angle_gamma 111.225145
_cell_volume 765.453628
_symmetry_space_group_name_H-M "P -1"
_symmetry_group_IT_number 2
_symmetry_cell_setting 'triclinic'
loop_
_space_group_symop_operation_xyz
x,y,z
-x,-y,-z
loop_
_atom_site_type_symbol
_atom_site_label
_atom_site_fract_x
_atom_site_fract_y
_atom_site_fract_z
Si Si1 0.881995 0.281636 0.939156
Si Si2 0.990296 0.150756 0.709507
Si Si3 0.320424 0.720508 0.284440
Si Si4 0.042217 0.218711 0.521092
Si Si5 0.789544 0.366567 0.323697
Si Si6 0.559173 0.462875 0.864559
Si Si7 0.584151 0.029530 0.891223
Si Si8 0.593255 0.807541 0.120497
O O1 0.894833 0.172853 0.784760
O O2 0.775642 0.330079 0.884608
O O3 0.736711 0.101259 0.888067
O O4 0.107544 0.525203 0.176910
O O5 0.004977 0.223031 0.636410
O O6 0.893772 0.899193 0.534215
O O7 0.216315 0.327219 0.908866
O O8 0.421051 0.647409 0.280523
O O9 0.500000 0.000000 0.500000
O O10 0.176506 0.457314 0.635742
O O11 0.827997 0.039423 0.303322
O O12 0.000000 0.500000 0.500000
O O13 0.619597 0.238517 0.292410
O O14 0.702820 0.160650 0.105802
O O15 0.433748 0.275341 0.815679
O O16 0.510348 0.592519 0.908249
O O17 0.514778 0.132978 0.894404
#
# Coordination Sequence:
#
# PCOD9075859 Si02
#       8
#     2   2   2   2   2   2   2   2
#     4  10  22  37  58  88 129 157 196 248 315 366
#     4   9  20  37  58  93 125 159 190 256 312 362
#     4  10  21  34  54  84 124 163 192 234 304 371
#     4  10  20  36  63  89 123 159 209 247 301 361
#     4  11  24  41  63  87 116 162 213 254 295 357
#     4   9  18  32  50  84 120 158 190 235 306 360
#     4  11  23  40  60  88 119 162 203 257 305 355
#     4  10  18  32  56  83 121 155 196 248 296 355
#
# _framework density 20.902636999999999
#
# number of rings (size 3 to 8) (size 9 to 14) (size 15 to 20)
#    0.000    2.000    2.500    0.750    5.250    2.000 
#    0.000    0.625    0.000    1.500    0.000    0.000 
#    0.000    0.000    0.000    0.000    0.000    0.000 
#
# Total GULP energy -89233.399261 kJ/mol
# GULP energy per Si atom -5577.087454 kJ/mol
# Density = 2.085506 g / cm^3
# Si number density = 20.902637 Si / 1000 Ang^3
#
#
#
# Elastic Constant Matrix: (Units=GPa)
#
#
# Indices 1 2 3 4 5 6 
#
# 1 113.7924 53.1775 39.7886 13.3248 -3.0822 12.7764
# 2 53.1775 99.1154 41.9219 26.9132 9.1592 16.1294
# 3 39.7886 41.9219 110.7179 26.6240 13.7124 6.6001
# 4 13.3248 26.9132 26.6240 37.0850 0.8268 11.5113
# 5 -3.0822 9.1592 13.7124 0.8268 31.2515 4.4636
# 6 12.7764 16.1294 6.6001 11.5113 4.4636 37.4152
#
#
#
# Elastic Compliance Matrix: (Units=1/GPa)
#
#
# Indices 1 2 3 4 5 6 
#
# 1 0.013076 -0.006436 -0.003491 0.003191 0.005002 -0.002653
# 2 -0.006436 0.017173 -0.001498 -0.008411 -0.004529 -0.001813
# 3 -0.003491 -0.001498 0.013334 -0.007915 -0.005922 0.002627
# 4 0.003191 -0.008411 -0.007915 0.040332 0.006507 -0.009252
# 5 0.005002 -0.004529 -0.005922 0.006507 0.036977 -0.005124
# 6 -0.002653 -0.001813 0.002627 -0.009252 -0.005124 0.031409
#
#
# Mechanical properties :
#
#
# Convention : Reuss Voigt Hill
#
# Bulk Modulus (GPa) = 48.23064 65.93352 57.08208
# Shear Modulus (GPa) = 27.46325 33.73286 30.59805
#
# Velocity S-wave (km/s) = 3.62866 4.02158 3.83016
# Velocity P-wave (km/s) = 6.37811 7.29217 6.85040
#
# Compressibility (1/GPa) = 0.02073371
#
# Stress axis : x y z
#
# Youngs Moduli (GPa) = 76.47653 58.22975 74.99851
#
# Poissons Ratio (x) = 0.37476 0.26181
# Poissons Ratio (y) = 0.49219 0.11234
# Poissons Ratio (z) = 0.26696 0.08722
#
# Static dielectric constant tensor:
#      x y z
#    x 1.852880 0.009610 -0.004920 
#    y 0.009610 1.757440 0.025600 
#    z -0.004920 0.025600 1.842610 
# 
# From -- ./inp_files/518208.got.cif
#   From: 2010.05.17/outbox.cif.g08.bks.cpg/sg2_260_cif.got.tgz:518208.got - 2010.06.03 11:33:40.
