data_PCOD9075592
_publ_section_title
;
Structure prediction by ZEFSAII (Michael W. Deem and Ramdas Pophale) SiO2 
 PCOD9075592
Probable space group: P -1
;
_chemical_formula_sum "Si O2"
_cell_formula_units_Z 14
_cell_length_a 18.000000
_cell_length_b 6.000000
_cell_length_c 9.000000
_cell_angle_alpha 60.000000
_cell_angle_beta 70.000000
_cell_angle_gamma 110.000000
_cell_volume 614.029152
_symmetry_space_group_name_H-M "P -1"
_symmetry_group_IT_number 2
_symmetry_cell_setting 'triclinic'
loop_
_space_group_symop_operation_xyz
x,y,z
-x,-y,-z
loop_
_atom_site_type_symbol
_atom_site_label
_atom_site_fract_x
_atom_site_fract_y
_atom_site_fract_z
Si Si1 0.605884 0.870508 0.329498
Si Si2 0.102967 0.234036 0.452526
Si Si3 0.895362 0.908614 0.157258
Si Si4 0.511509 0.121505 0.120484
Si Si5 0.278115 0.250452 0.193718
Si Si6 0.699044 0.170304 0.489332
Si Si7 0.801389 0.073711 0.948669
O O1 0.500000 0.500000 0.500000
O O2 0.571068 0.063987 0.215603
O O3 0.648338 0.976224 0.433134
O O4 0.700977 0.966345 0.137822
O O5 0.097252 0.100958 0.666073
O O6 0.206887 0.325799 0.283608
O O7 0.132002 0.592852 0.306815
O O8 0.000000 0.000000 0.500000
O O9 0.791085 0.560990 0.283678
O O10 0.878220 0.140647 0.004495
O O11 0.000000 0.000000 0.000000
O O12 0.397472 0.917925 0.324997
O O13 0.599768 0.518074 0.930676
O O14 0.500000 0.000000 0.000000
O O15 0.246641 0.936385 0.414264
O O16 0.250022 0.199482 0.056667
#
# Coordination Sequence:
#
# PCOD9075592 Si02
#       7
#     2   2   2   2   2   2   2
#     4  12  24  43  68 106 147 187 241 297 359 432
#     4  12  28  49  76 108 142 193 247 298 362 431
#     4  12  28  48  75 108 145 191 245 298 363 430
#     4  12  23  42  71 105 144 188 242 292 364 435
#     4  12  24  47  74 105 145 188 239 300 362 430
#     4  12  25  44  71 107 146 191 240 298 362 431
#     4  12  26  49  76 105 148 189 243 299 362 431
#
# _framework density 22.800219999999999
#
# number of rings (size 3 to 8) (size 9 to 14) (size 15 to 20)
#    0.000    0.000    2.857    7.714    4.000    1.714 
#    0.000    0.000    0.000    0.000    0.000    0.000 
#    0.000    0.000    0.000    0.000    0.000    0.000 
#
# Total GULP energy -78064.186659 kJ/mol
# GULP energy per Si atom -5576.013333 kJ/mol
# Density = 2.274833 g / cm^3
# Si number density = 22.800220 Si / 1000 Ang^3
#
#
#
# Elastic Constant Matrix: (Units=GPa)
#
#
# Indices 1 2 3 4 5 6 
#
# 1 135.4875 25.8008 32.1426 6.7479 2.4700 33.7360
# 2 25.8008 89.2166 48.3656 26.5187 -4.0126 45.0967
# 3 32.1426 48.3656 85.8749 31.5309 -5.6173 11.9592
# 4 6.7479 26.5187 31.5309 33.6544 13.1110 5.2102
# 5 2.4700 -4.0126 -5.6173 13.1110 67.2750 5.8635
# 6 33.7360 45.0967 11.9592 5.2102 5.8635 45.1191
#
#
#
# Elastic Compliance Matrix: (Units=1/GPa)
#
#
# Indices 1 2 3 4 5 6 
#
# 1 0.010899 0.007375 -0.006050 -0.000497 0.000849 -0.013971
# 2 0.007375 0.049418 -0.014487 -0.023166 0.010317 -0.049734
# 3 -0.006050 -0.014487 0.025926 -0.015020 0.003279 0.013440
# 4 -0.000497 -0.023166 -0.015020 0.065445 -0.017307 0.022199
# 5 0.000849 0.010317 0.003279 -0.017307 0.020179 -0.012439
# 6 -0.013971 -0.049734 0.013440 0.022199 -0.012439 0.077810
#
#
# Mechanical properties :
#
#
# Convention : Reuss Voigt Hill
#
# Bulk Modulus (GPa) = 16.68849 58.13299 37.41074
# Shear Modulus (GPa) = 16.89330 42.82773 29.86052
#
# Velocity S-wave (km/s) = 2.72495 4.33874 3.62285
# Velocity P-wave (km/s) = 4.15160 7.11699 5.82612
#
# Compressibility (1/GPa) = 0.05992154
#
# Stress axis : x y z
#
# Youngs Moduli (GPa) = 91.74745 20.23536 38.57108
#
# Poissons Ratio (x) = -0.14924 0.23336
# Poissons Ratio (y) = -0.67668 0.55877
# Poissons Ratio (z) = 0.55508 0.29314
#
# Static dielectric constant tensor:
#      x y z
#    x 1.950150 -0.174150 0.240810 
#    y -0.174150 2.106370 -0.330550 
#    z 0.240810 -0.330550 2.335330 
# 
# From -- ./inp_files/37652.got.cif
#   From: 2010.05.17/outbox.ucp.g08.bks.cvg/sg2_19_cif.got.tgz:37652.got - 2010.06.11 11:32:03.
