data_PCOD9075290
_publ_section_title
;
Structure prediction by ZEFSAII (Michael W. Deem and Ramdas Pophale) SiO2 
 PCOD9075290
Probable space group: P -1
;
_chemical_formula_sum "Si O2"
_cell_formula_units_Z 14
_cell_length_a 9.000000
_cell_length_b 12.000000
_cell_length_c 15.000000
_cell_angle_alpha 50.000000
_cell_angle_beta 150.000000
_cell_angle_gamma 120.000000
_cell_volume 613.666794
_symmetry_space_group_name_H-M "P -1"
_symmetry_group_IT_number 2
_symmetry_cell_setting 'triclinic'
loop_
_space_group_symop_operation_xyz
x,y,z
-x,-y,-z
loop_
_atom_site_type_symbol
_atom_site_label
_atom_site_fract_x
_atom_site_fract_y
_atom_site_fract_z
Si Si1 0.802019 0.387818 0.240292
Si Si2 0.238891 0.573574 0.478993
Si Si3 0.786949 0.831499 0.160413
Si Si4 0.189839 0.081018 0.252317
Si Si5 0.410839 0.244168 0.571241
Si Si6 0.347902 0.708635 0.126894
Si Si7 0.488724 0.104190 0.213100
O O1 0.693058 0.228675 0.284642
O O2 0.991592 0.476178 0.361924
O O3 0.077004 0.337091 0.340672
O O4 0.500000 0.500000 0.000000
O O5 0.376660 0.676210 0.424493
O O6 0.509408 0.462363 0.719870
O O7 0.046013 0.692324 0.379310
O O8 0.526162 0.801424 0.105587
O O9 0.658146 0.847686 0.983864
O O10 0.948628 0.970358 0.193855
O O11 0.248637 0.103626 0.167067
O O12 0.500000 0.000000 0.500000
O O13 0.004708 0.238737 0.103515
O O14 0.553636 0.256521 0.738091
O O15 0.381023 0.071065 0.632224
#
# Coordination Sequence:
#
# PCOD9075290 Si02
#       7
#     2   2   2   2   2   2   2
#     4  11  24  39  70 112 141 175 246 299 342 414
#     4  11  24  48  74 102 145 198 236 286 363 436
#     4  12  24  48  75 104 144 194 237 288 368 432
#     4  12  28  46  72 107 146 186 244 302 352 423
#     4  11  24  46  76 102 144 197 240 283 365 433
#     4  11  25  43  73 104 145 186 240 297 357 420
#     4  12  25  46  77 102 146 188 241 288 361 428
#
# _framework density 22.813683000000001
#
# number of rings (size 3 to 8) (size 9 to 14) (size 15 to 20)
#    0.000    0.571    4.286    4.286    6.000    1.143 
#    0.000    0.714    0.000    0.000    0.000    0.000 
#    0.000    0.000    0.000    0.000    0.000    0.000 
#
# Total GULP energy -78204.252090 kJ/mol
# GULP energy per Si atom -5586.018006 kJ/mol
# Density = 2.276176 g / cm^3
# Si number density = 22.813683 Si / 1000 Ang^3
#
#
#
# Elastic Constant Matrix: (Units=GPa)
#
#
# Indices 1 2 3 4 5 6 
#
# 1 120.9242 4.4811 49.5340 -11.6494 5.2100 20.9603
# 2 4.4811 102.4249 24.7013 -32.1945 2.8887 11.1097
# 3 49.5340 24.7013 160.9158 -20.2175 30.1410 1.6972
# 4 -11.6494 -32.1945 -20.2175 12.6433 -12.4836 1.2311
# 5 5.2100 2.8887 30.1410 -12.4836 42.9383 -15.0193
# 6 20.9603 11.1097 1.6972 1.2311 -15.0193 27.1394
#
#
#
# Elastic Compliance Matrix: (Units=1/GPa)
#
#
# Indices 1 2 3 4 5 6 
#
# 1 0.005811 -0.017549 -0.003749 -0.060272 -0.015420 -0.002869
# 2 -0.017549 -0.052688 -0.003979 -0.200787 -0.042597 0.020905
# 3 -0.003749 -0.003979 0.008405 -0.007247 -0.007156 0.000367
# 4 -0.060272 -0.200787 -0.007247 -0.634158 -0.127984 0.087134
# 5 -0.015420 -0.042597 -0.007156 -0.127984 0.010282 0.041289
# 6 -0.002869 0.020905 0.000367 0.087134 0.041289 0.049380
#
#
# Mechanical properties :
#
#
# Convention : Reuss Voigt Hill
#
# Bulk Modulus (GPa) = -11.23274 60.18862 24.47794
# Shear Modulus (GPa) = -8.44468 36.91411 14.23471
#
# Velocity S-wave (km/s) = -1.92604 4.02689 2.50062
# Velocity P-wave (km/s) = 3.14333 6.93261 4.36924
#
# Compressibility (1/GPa) = -0.08902547
#
# Stress axis : x y z
#
# Youngs Moduli (GPa) = 172.09019 -18.97980 118.97265
#
# Poissons Ratio (x) = -0.33308 0.44604
# Poissons Ratio (y) = 3.02001 0.47339
# Poissons Ratio (z) = 0.64518 -0.07552
#
# Static dielectric constant tensor:
#      x y z
#    x 1.877570 -0.044950 0.042700 
#    y -0.044950 1.872080 -0.036520 
#    z 0.042700 -0.036520 1.867760 
# 
# From -- ./inp_files/222819.got.cif
#   From: 2010.05.17/outbox.ucp.g08.bks.cvg/sg2_112_cif.got.tgz:222819.got - 2010.06.11 11:32:03.
