data_PCOD9075415
_publ_section_title
;
Structure prediction by ZEFSAII (Michael W. Deem and Ramdas Pophale) SiO2 
 PCOD9075415
Probable space group: P -1
;
_chemical_formula_sum "Si O2"
_cell_formula_units_Z 16
_cell_length_a 7.781336
_cell_length_b 9.085110
_cell_length_c 11.518945
_cell_angle_alpha 99.301182
_cell_angle_beta 116.205197
_cell_angle_gamma 109.145068
_cell_volume 643.524887
_symmetry_space_group_name_H-M "P -1"
_symmetry_group_IT_number 2
_symmetry_cell_setting 'triclinic'
loop_
_space_group_symop_operation_xyz
x,y,z
-x,-y,-z
loop_
_atom_site_type_symbol
_atom_site_label
_atom_site_fract_x
_atom_site_fract_y
_atom_site_fract_z
Si Si1 0.095512 0.265208 0.774654
Si Si2 0.185829 0.393014 0.581560
Si Si3 0.308417 0.745141 0.626929
Si Si4 0.624257 0.253477 0.607202
Si Si5 0.893653 0.978841 0.842619
Si Si6 0.521413 0.089895 0.784096
Si Si7 0.170520 0.585392 0.954621
Si Si8 0.171886 0.370124 0.299773
O O1 0.198917 0.287387 0.681213
O O2 0.219733 0.437375 0.903990
O O3 0.854715 0.253352 0.694033
O O4 0.058412 0.099536 0.810780
O O5 0.327011 0.590930 0.672653
O O6 0.200875 0.361436 0.446010
O O7 0.933165 0.345131 0.504420
O O8 0.439126 0.797452 0.550826
O O9 0.337867 0.903744 0.732316
O O10 0.474172 0.139576 0.648555
O O11 0.658488 0.441840 0.659162
O O12 0.807538 0.785909 0.763635
O O13 0.717368 0.042914 0.820155
O O14 0.000000 0.000000 0.000000
O O15 0.621827 0.251374 0.917056
O O16 0.046698 0.635124 0.822151
O O17 0.000000 0.500000 0.000000
#
# Coordination Sequence:
#
# PCOD9075415 Si02
#       8
#     2   2   2   2   2   2   2   2
#     4   9  18  32  54  75  99 141 174 208 253 306
#     4   9  19  37  53  72 103 141 174 209 259 300
#     4   9  17  32  54  78 103 132 174 218 250 299
#     4   8  16  30  50  75 106 130 163 219 261 296
#     4  11  20  32  52  81 107 135 167 210 261 313
#     4  11  19  29  52  84 108 127 171 216 259 303
#     4  11  16  30  50  79 107 132 171 211 265 302
#     4  10  18  32  54  75 104 144 171 202 252 318
#
# _framework density 24.863063
#
# number of rings (size 3 to 8) (size 9 to 14) (size 15 to 20)
#    0.000    2.250    5.000    2.625    0.000    0.500 
#    0.000    5.000    0.000    2.250    0.000    0.000 
#    0.000    0.000    0.000    0.000    0.000    0.000 
#
# Total GULP energy -89291.438038 kJ/mol
# GULP energy per Si atom -5580.714877 kJ/mol
# Density = 2.480647 g / cm^3
# Si number density = 24.863063 Si / 1000 Ang^3
#
#
#
# Elastic Constant Matrix: (Units=GPa)
#
#
# Indices 1 2 3 4 5 6 
#
# 1 38.4545 28.0192 16.2819 -3.7778 -5.3037 -9.2296
# 2 28.0192 140.0641 60.6014 -3.3557 -0.6908 10.2381
# 3 16.2819 60.6014 98.6062 4.9551 2.8465 10.1749
# 4 -3.7778 -3.3557 4.9551 49.3074 4.4416 -5.8064
# 5 -5.3037 -0.6908 2.8465 4.4416 21.6239 4.9818
# 6 -9.2296 10.2381 10.1749 -5.8064 4.9818 22.9907
#
#
#
# Elastic Compliance Matrix: (Units=1/GPa)
#
#
# Indices 1 2 3 4 5 6 
#
# 1 0.039584 -0.007355 -0.004627 0.005184 0.004030 0.021650
# 2 -0.007355 0.011253 -0.005115 -0.000022 0.000577 -0.005831
# 3 -0.004627 -0.005115 0.014914 -0.002884 -0.001134 -0.006663
# 4 0.005184 -0.000022 -0.002884 0.022657 -0.005365 0.010252
# 5 0.004030 0.000577 -0.001134 -0.005365 0.050929 -0.010528
# 6 0.021650 -0.005831 -0.006663 0.010252 -0.010528 0.062603
#
#
# Mechanical properties :
#
#
# Convention : Reuss Voigt Hill
#
# Bulk Modulus (GPa) = 31.68850 54.10332 42.89591
# Shear Modulus (GPa) = 20.27143 30.26589 25.26866
#
# Velocity S-wave (km/s) = 2.85848 3.49277 3.19143
# Velocity P-wave (km/s) = 4.86492 6.17039 5.55613
#
# Compressibility (1/GPa) = 0.03155719
#
# Stress axis : x y z
#
# Youngs Moduli (GPa) = 25.26245 88.86845 67.05107
#
# Poissons Ratio (x) = 0.65366 0.31022
# Poissons Ratio (y) = 0.18581 0.34297
# Poissons Ratio (z) = 0.11688 0.45456
#
# Static dielectric constant tensor:
#      x y z
#    x 2.091140 0.038960 0.019540 
#    y 0.038960 2.042820 -0.005110 
#    z 0.019540 -0.005110 1.965840 
# 
# From -- ./inp_files/415254.got.cif
#   From: 2010.05.17/outbox.cif.g08.bks.cpg/sg2_208_cif.got.tgz:415254.got - 2010.06.03 11:33:40.
