data_PCOD9075602
_publ_section_title
;
Structure prediction by ZEFSAII (Michael W. Deem and Ramdas Pophale) SiO2 
 PCOD9075602
Probable space group: P -1
;
_chemical_formula_sum "Si O2"
_cell_formula_units_Z 16
_cell_length_a 9.000000
_cell_length_b 12.000000
_cell_length_c 27.000000
_cell_angle_alpha 150.000000
_cell_angle_beta 30.000000
_cell_angle_gamma 140.000000
_cell_volume 727.497153
_symmetry_space_group_name_H-M "P -1"
_symmetry_group_IT_number 2
_symmetry_cell_setting 'triclinic'
loop_
_space_group_symop_operation_xyz
x,y,z
-x,-y,-z
loop_
_atom_site_type_symbol
_atom_site_label
_atom_site_fract_x
_atom_site_fract_y
_atom_site_fract_z
Si Si1 0.800186 0.988430 0.441703
Si Si2 0.053356 0.848559 0.162180
Si Si3 0.507495 0.477892 0.893667
Si Si4 0.368243 0.104795 0.256925
Si Si5 0.588155 0.346752 0.715589
Si Si6 0.843666 0.456540 0.227998
Si Si7 0.200052 0.130878 0.139683
Si Si8 0.884827 0.832502 0.038462
O O1 0.749713 0.156282 0.566527
O O2 0.115862 0.075046 0.360025
O O3 0.500000 0.000000 0.500000
O O4 0.819896 0.721737 0.338244
O O5 0.765910 0.707715 0.212937
O O6 0.186992 0.029874 0.231872
O O7 0.998235 0.999909 0.188928
O O8 0.300066 0.672430 0.010753
O O9 0.594537 0.323361 0.763812
O O10 0.303189 0.337380 0.936969
O O11 0.822569 0.569896 0.858937
O O12 0.552560 0.342106 0.294252
O O13 0.626398 0.931080 0.118365
O O14 0.720274 0.606049 0.770625
O O15 0.869029 0.311082 0.114116
O O16 0.032450 0.051624 0.107380
O O17 0.500000 0.000000 0.000000
#
# Coordination Sequence:
#
# PCOD9075602 Si02
#       8
#     2   2   2   2   2   2   2   2
#     4  12  29  49  70  99 144 200 243 284 350 437
#     4  12  24  43  73 109 144 180 236 301 363 418
#     4  12  23  45  74 108 146 185 229 302 369 419
#     4  12  26  47  75 110 140 187 243 298 358 422
#     4  12  27  47  70 104 149 192 238 290 356 428
#     4  12  27  46  75 105 145 185 235 303 358 424
#     4  12  25  42  72 111 146 182 229 298 360 423
#     4  12  24  47  78 113 144 180 241 302 365 420
#
# _framework density 21.993213000000001
#
# number of rings (size 3 to 8) (size 9 to 14) (size 15 to 20)
#    0.000    0.000    6.250    4.125    3.500    2.000 
#    0.000    1.250    0.000    0.000    0.000    0.000 
#    0.000    0.000    0.000    0.000    0.000    0.000 
#
# Total GULP energy -89312.839120 kJ/mol
# GULP energy per Si atom -5582.052445 kJ/mol
# Density = 2.194316 g / cm^3
# Si number density = 21.993213 Si / 1000 Ang^3
#
#
#
# Elastic Constant Matrix: (Units=GPa)
#
#
# Indices 1 2 3 4 5 6 
#
# 1 32.5663 36.6710 33.6962 9.9432 -2.8018 12.7659
# 2 36.6710 220.9172 74.2021 8.0672 1.5291 13.0222
# 3 33.6962 74.2021 159.2730 11.9012 23.2762 5.3543
# 4 9.9432 8.0672 11.9012 27.1802 9.0765 -5.5134
# 5 -2.8018 1.5291 23.2762 9.0765 30.1477 -2.3019
# 6 12.7659 13.0222 5.3543 -5.5134 -2.3019 35.6009
#
#
#
# Elastic Compliance Matrix: (Units=1/GPa)
#
#
# Indices 1 2 3 4 5 6 
#
# 1 0.072298 -0.004993 -0.013346 -0.032708 0.025175 -0.025529
# 2 -0.004993 0.005938 -0.001828 0.000728 0.000430 0.000034
# 3 -0.013346 -0.001828 0.011040 0.005010 -0.010885 0.003866
# 4 -0.032708 0.000728 0.005010 0.057686 -0.022926 0.018160
# 5 0.025175 0.000430 -0.010885 -0.022926 0.050194 -0.007852
# 6 -0.025529 0.000034 0.003866 0.018160 -0.007852 0.038954
#
#
# Mechanical properties :
#
#
# Convention : Reuss Voigt Hill
#
# Bulk Modulus (GPa) = 20.43295 77.98832 49.21064
# Shear Modulus (GPa) = 17.07886 36.46491 26.77188
#
# Velocity S-wave (km/s) = 2.78969 4.07628 3.49274
# Velocity P-wave (km/s) = 4.43703 7.59552 6.22009
#
# Compressibility (1/GPa) = 0.04894055
#
# Stress axis : x y z
#
# Youngs Moduli (GPa) = 13.83167 168.40733 90.57833
#
# Poissons Ratio (x) = 0.84092 1.20886
# Poissons Ratio (y) = 0.06907 0.16561
# Poissons Ratio (z) = 0.18460 0.30790
#
# Static dielectric constant tensor:
#      x y z
#    x 2.032770 -0.037320 0.038770 
#    y -0.037320 1.842390 0.007850 
#    z 0.038770 0.007850 1.776110 
# 
# From -- ./inp_files/560006.got.cif
#   From: 2010.05.17/outbox.ucp.g08.bks.cvg/sg2_281_cif.got.tgz:560006.got - 2010.06.11 11:32:03.
