data_PCOD9075498
_publ_section_title
;
Structure prediction by ZEFSAII (Michael W. Deem and Ramdas Pophale) SiO2 
 PCOD9075498
Probable space group: P -1
;
_chemical_formula_sum "Si O2"
_cell_formula_units_Z 12
_cell_length_a 12.000000
_cell_length_b 12.000000
_cell_length_c 9.000000
_cell_angle_alpha 40.000000
_cell_angle_beta 60.000000
_cell_angle_gamma 40.000000
_cell_volume 523.519695
_symmetry_space_group_name_H-M "P -1"
_symmetry_group_IT_number 2
_symmetry_cell_setting 'triclinic'
loop_
_space_group_symop_operation_xyz
x,y,z
-x,-y,-z
loop_
_atom_site_type_symbol
_atom_site_label
_atom_site_fract_x
_atom_site_fract_y
_atom_site_fract_z
Si Si1 0.125795 0.941268 0.115000
Si Si2 0.955941 0.591368 0.269066
Si Si3 0.564371 0.787172 0.325831
Si Si4 0.297633 0.576944 0.643521
Si Si5 0.196036 0.326992 0.118798
Si Si6 0.535342 0.497908 0.806744
O O1 0.163623 0.783233 0.397716
O O2 0.319048 0.769078 0.083381
O O3 0.056032 0.190133 0.962871
O O4 0.000000 0.000000 0.000000
O O5 0.751210 0.717394 0.243853
O O6 0.000000 0.500000 0.500000
O O7 0.125392 0.360307 0.298964
O O8 0.561734 0.660787 0.311869
O O9 0.607992 0.623861 0.603725
O O10 0.374834 0.057442 0.216806
O O11 0.373963 0.638964 0.651873
O O12 0.235065 0.488437 0.888654
O O13 0.000000 0.500000 0.000000
O O14 0.500000 0.500000 0.000000
#
# Coordination Sequence:
#
# PCOD9075498 Si02
#       6
#     2   2   2   2   2   2
#     4  11  26  48  73 106 154 192 247 314 367 445
#     4  12  28  48  75 112 152 195 247 310 379 445
#     4  11  25  50  73 106 155 191 251 314 367 448
#     4  11  25  49  77 105 151 202 247 312 376 435
#     4  12  28  44  78 111 144 200 252 301 383 449
#     4  11  27  46  76 107 145 205 248 302 384 440
#
# _framework density 22.921773999999999
#
# number of rings (size 3 to 8) (size 9 to 14) (size 15 to 20)
#    0.000    0.667    1.667    5.500   11.667    1.333 
#    0.000    0.000    0.000    0.000    0.000    0.000 
#    0.000    0.000    0.000    0.000    0.000    0.000 
#
# Total GULP energy -66819.602150 kJ/mol
# GULP energy per Si atom -5568.300179 kJ/mol
# Density = 2.286960 g / cm^3
# Si number density = 22.921774 Si / 1000 Ang^3
#
#
#
# Elastic Constant Matrix: (Units=GPa)
#
#
# Indices 1 2 3 4 5 6 
#
# 1 83.3792 10.5210 33.5856 7.1541 13.5281 5.0063
# 2 10.5210 130.7666 48.4154 2.0014 6.2057 -1.2105
# 3 33.5856 48.4154 117.1849 15.6097 15.9996 7.1369
# 4 7.1541 2.0014 15.6097 61.7692 3.4317 5.0463
# 5 13.5281 6.2057 15.9996 3.4317 46.7111 5.5930
# 6 5.0063 -1.2105 7.1369 5.0463 5.5930 30.0852
#
#
#
# Elastic Compliance Matrix: (Units=1/GPa)
#
#
# Indices 1 2 3 4 5 6 
#
# 1 0.013954 0.000361 -0.003664 -0.000482 -0.002696 -0.000856
# 2 0.000361 0.009107 -0.003998 0.000584 -0.000129 0.001181
# 3 -0.003664 -0.003998 0.011919 -0.002208 -0.002135 -0.001611
# 4 -0.000482 0.000584 -0.002208 0.016972 -0.000167 -0.002188
# 5 -0.002696 -0.000129 -0.002135 -0.000167 0.023353 -0.003363
# 6 -0.000856 0.001181 -0.001611 -0.002188 -0.003363 0.034803
#
#
# Mechanical properties :
#
#
# Convention : Reuss Voigt Hill
#
# Bulk Modulus (GPa) = 49.07205 57.37496 53.22350
# Shear Modulus (GPa) = 38.02222 43.63368 40.82795
#
# Velocity S-wave (km/s) = 4.07723 4.36775 4.22499
# Velocity P-wave (km/s) = 6.60455 7.10784 6.86081
#
# Compressibility (1/GPa) = 0.02037820
#
# Stress axis : x y z
#
# Youngs Moduli (GPa) = 71.66439 109.81159 83.89825
#
# Poissons Ratio (x) = -0.03968 0.30740
# Poissons Ratio (y) = -0.02589 0.33543
# Poissons Ratio (z) = 0.26258 0.43903
#
# Static dielectric constant tensor:
#      x y z
#    x 1.985670 0.125510 0.143890 
#    y 0.125510 1.814230 -0.048870 
#    z 0.143890 -0.048870 1.764530 
# 
# From -- ./inp_files/261264.got.cif
#   From: 2010.05.17/outbox.ucp.g08.bks.cvg/sg2_131_cif.got.tgz:261264.got - 2010.06.11 11:32:03.
