data_PCOD9075618
_publ_section_title
;
Structure prediction by ZEFSAII (Michael W. Deem and Ramdas Pophale) SiO2 
 PCOD9075618
Probable space group: P -1
;
_chemical_formula_sum "Si O2"
_cell_formula_units_Z 16
_cell_length_a 12.000000
_cell_length_b 15.000000
_cell_length_c 15.000000
_cell_angle_alpha 40.000000
_cell_angle_beta 60.000000
_cell_angle_gamma 30.000000
_cell_volume 747.221570
_symmetry_space_group_name_H-M "P -1"
_symmetry_group_IT_number 2
_symmetry_cell_setting 'triclinic'
loop_
_space_group_symop_operation_xyz
x,y,z
-x,-y,-z
loop_
_atom_site_type_symbol
_atom_site_label
_atom_site_fract_x
_atom_site_fract_y
_atom_site_fract_z
Si Si1 0.423916 0.785157 0.415923
Si Si2 0.523582 0.247116 0.076646
Si Si3 0.072058 0.860093 0.224231
Si Si4 0.930476 0.788941 0.621446
Si Si5 0.712319 0.715201 0.692357
Si Si6 0.080994 0.897931 0.705199
Si Si7 0.141041 0.097675 0.953638
Si Si8 0.481842 0.179628 0.842592
O O1 0.665743 0.478811 0.603314
O O2 0.521154 0.773581 0.296540
O O3 0.277699 0.024608 0.358660
O O4 0.175714 0.921368 0.381203
O O5 0.400891 0.260556 0.192500
O O6 0.635284 0.069772 0.078234
O O7 0.316554 0.563040 0.884596
O O8 0.801311 0.041431 0.163132
O O9 0.008290 0.977409 0.256900
O O10 0.110377 0.959341 0.069962
O O11 0.897764 0.672023 0.673921
O O12 0.238877 0.491020 0.745094
O O13 0.862363 0.002875 0.439329
O O14 0.883142 0.434290 0.789947
O O15 0.500000 0.000000 0.500000
O O16 0.252467 0.016673 0.069806
O O17 0.500000 0.000000 0.000000
#
# Coordination Sequence:
#
# PCOD9075618 Si02
#       8
#     2   2   2   2   2   2   2   2
#     4  12  26  46  76 107 141 187 240 295 354 421
#     4  12  28  47  77 105 141 191 240 293 353 425
#     4  12  24  46  78 105 142 185 239 301 354 413
#     4  12  27  44  74 106 143 185 240 289 355 423
#     4  12  29  47  69 104 150 191 229 292 354 428
#     4  12  23  49  76 105 145 184 238 298 354 415
#     4  12  26  48  74 105 143 185 242 291 355 422
#     4  12  25  45  70 104 143 186 231 291 355 417
#
# _framework density 21.412658
#
# number of rings (size 3 to 8) (size 9 to 14) (size 15 to 20)
#    0.000    0.000    5.000    4.500    5.250    1.000 
#    0.000    0.000    0.000    0.000    0.000    0.000 
#    0.000    0.000    0.000    0.000    0.000    0.000 
#
# Total GULP energy -89222.555902 kJ/mol
# GULP energy per Si atom -5576.409744 kJ/mol
# Density = 2.136392 g / cm^3
# Si number density = 21.412658 Si / 1000 Ang^3
#
#
#
# Elastic Constant Matrix: (Units=GPa)
#
#
# Indices 1 2 3 4 5 6 
#
# 1 61.6275 -11.5502 30.6023 3.2063 -1.2118 -21.1273
# 2 -11.5502 132.8692 60.1963 -12.5349 -17.1411 7.0769
# 3 30.6023 60.1963 208.2273 -24.5094 -18.7133 -8.4995
# 4 3.2063 -12.5349 -24.5094 55.9180 -11.9665 -6.5634
# 5 -1.2118 -17.1411 -18.7133 -11.9665 38.7841 -1.1643
# 6 -21.1273 7.0769 -8.4995 -6.5634 -1.1643 40.4007
#
#
#
# Elastic Compliance Matrix: (Units=1/GPa)
#
#
# Indices 1 2 3 4 5 6 
#
# 1 0.022238 0.003060 -0.003849 -0.001052 0.000170 0.010117
# 2 0.003060 0.009651 -0.002767 0.001479 0.003472 -0.000332
# 3 -0.003849 -0.002767 0.006848 0.003307 0.002997 0.000536
# 4 -0.001052 0.001479 0.003307 0.022123 0.009155 0.003744
# 5 0.000170 0.003472 0.002997 0.009155 0.031670 0.002511
# 6 0.010117 -0.000332 0.000536 0.003744 0.002511 0.030894
#
#
# Mechanical properties :
#
#
# Convention : Reuss Voigt Hill
#
# Bulk Modulus (GPa) = 31.61887 62.35787 46.98837
# Shear Modulus (GPa) = 35.44150 48.58561 42.01355
#
# Velocity S-wave (km/s) = 4.07279 4.76858 4.43435
# Velocity P-wave (km/s) = 6.07579 7.71391 6.94333
#
# Compressibility (1/GPa) = 0.03162668
#
# Stress axis : x y z
#
# Youngs Moduli (GPa) = 44.96869 103.61519 146.01768
#
# Poissons Ratio (x) = -0.31711 0.56195
# Poissons Ratio (y) = -0.13762 0.40406
# Poissons Ratio (z) = 0.17306 0.28672
#
# Static dielectric constant tensor:
#      x y z
#    x 1.935980 -0.003080 0.030920 
#    y -0.003080 1.821370 0.023920 
#    z 0.030920 0.023920 1.786520 
# 
# From -- ./inp_files/522276.got.cif
#   From: 2010.05.17/outbox.ucp.g08.bks.cvg/sg2_262_cif.got.tgz:522276.got - 2010.06.11 11:32:03.
