data_PCOD9075337
_publ_section_title
;
Structure prediction by ZEFSAII (Michael W. Deem and Ramdas Pophale) SiO2 
 PCOD9075337
Probable space group: P -1
;
_chemical_formula_sum "Si O2"
_cell_formula_units_Z 12
_cell_length_a 9.000000
_cell_length_b 9.000000
_cell_length_c 12.000000
_cell_angle_alpha 110.000000
_cell_angle_beta 70.000000
_cell_angle_gamma 150.000000
_cell_volume 454.513580
_symmetry_space_group_name_H-M "P -1"
_symmetry_group_IT_number 2
_symmetry_cell_setting 'triclinic'
loop_
_space_group_symop_operation_xyz
x,y,z
-x,-y,-z
loop_
_atom_site_type_symbol
_atom_site_label
_atom_site_fract_x
_atom_site_fract_y
_atom_site_fract_z
Si Si1 0.594776 0.525052 0.607323
Si Si2 0.915386 0.192418 0.943091
Si Si3 0.474948 0.405224 0.107323
Si Si4 0.502820 0.002487 0.821125
Si Si5 0.192418 0.915386 0.556909
Si Si6 0.002487 0.502820 0.678875
O O1 0.500000 0.500000 0.500000
O O2 0.488397 0.488397 0.750000
O O3 0.950691 0.849843 0.601184
O O4 0.512433 0.267528 0.562667
O O5 0.267528 0.512433 0.937333
O O6 0.849843 0.950691 0.898816
O O7 0.750672 0.123645 0.861006
O O8 0.745097 0.121205 0.073315
O O9 0.500000 0.500000 0.000000
O O10 0.296504 0.708867 0.727260
O O11 0.708867 0.296504 0.772740
O O12 0.121205 0.745097 0.426685
O O13 0.123645 0.750672 0.638994
#
# Coordination Sequence:
#
# PCOD9075337 Si02
#       6
#     2   2   2   2   2   2
#     4  12  28  47  74 105 145 197 239 296 358 431
#     4  11  26  46  70 107 142 185 247 297 365 429
#     4  12  28  47  74 105 145 197 239 296 358 431
#     4  11  24  43  76 104 141 187 234 312 364 425
#     4  11  26  46  70 107 142 185 247 297 365 429
#     4  11  24  43  76 104 141 187 234 312 364 425
#
# _framework density 26.401851000000001
#
# number of rings (size 3 to 8) (size 9 to 14) (size 15 to 20)
#    0.000    0.667    0.000    6.000   14.000    5.333 
#    0.000    0.000    0.000    0.000    0.000    0.000 
#    0.000    0.000    0.000    0.000    0.000    0.000 
#
# Total GULP energy -67102.990008 kJ/mol
# GULP energy per Si atom -5591.915834 kJ/mol
# Density = 2.634176 g / cm^3
# Si number density = 26.401851 Si / 1000 Ang^3
#
#
#
# Elastic Constant Matrix: (Units=GPa)
#
#
# Indices 1 2 3 4 5 6 
#
# 1 62.2646 11.5867 55.2875 -7.7757 11.5012 19.4506
# 2 11.5867 125.9343 35.5161 0.6860 14.9583 -1.0707
# 3 55.2875 35.5161 145.6468 -9.5866 35.7778 -5.7075
# 4 -7.7757 0.6860 -9.5866 31.6644 3.0684 -7.6715
# 5 11.5012 14.9583 35.7778 3.0684 21.0351 -1.7121
# 6 19.4506 -1.0707 -5.7075 -7.6715 -1.7121 53.1043
#
#
#
# Elastic Compliance Matrix: (Units=1/GPa)
#
#
# Indices 1 2 3 4 5 6 
#
# 1 0.031134 0.000282 -0.013572 -0.000015 0.004830 -0.012703
# 2 0.000282 0.008767 -0.001186 -0.000107 -0.004373 -0.000210
# 3 -0.013572 -0.001186 0.019034 0.006561 -0.024485 0.007151
# 4 -0.000015 -0.000107 0.006561 0.036433 -0.015945 0.005458
# 5 0.004830 -0.004373 -0.024485 -0.015945 0.091667 -0.003837
# 6 -0.012703 -0.000210 0.007151 0.005458 -0.003837 0.024913
#
#
# Mechanical properties :
#
#
# Convention : Reuss Voigt Hill
#
# Bulk Modulus (GPa) = 33.35372 59.84739 46.60056
# Shear Modulus (GPa) = 19.92864 36.59112 28.25988
#
# Velocity S-wave (km/s) = 2.75038 3.72685 3.27521
# Velocity P-wave (km/s) = 4.76934 6.42155 5.65610
#
# Compressibility (1/GPa) = 0.02998166
#
# Stress axis : x y z
#
# Youngs Moduli (GPa) = 32.11955 114.05891 52.53797
#
# Poissons Ratio (x) = -0.03211 0.71306
# Poissons Ratio (y) = -0.00904 0.06230
# Poissons Ratio (z) = 0.43594 0.13526
#
# Static dielectric constant tensor:
#      x y z
#    x 2.085760 -0.040750 0.007060 
#    y -0.040750 1.944600 -0.001890 
#    z 0.007060 -0.001890 2.143700 
# 
# From -- ./inp_files/214031.got.cif
#   From: 2010.05.17/outbox.ucp.g08.bks.cvg/sg2_108_cif.got.tgz:214031.got - 2010.06.11 11:32:03.
