data_PCOD9075752
_publ_section_title
;
Structure prediction by ZEFSAII (Michael W. Deem and Ramdas Pophale) SiO2 
 PCOD9075752
Probable space group: P -1
;
_chemical_formula_sum "Si O2"
_cell_formula_units_Z 16
_cell_length_a 14.400707
_cell_length_b 19.232081
_cell_length_c 9.811162
_cell_angle_alpha 42.087818
_cell_angle_beta 39.245797
_cell_angle_gamma 18.641593
_cell_volume 549.031290
_symmetry_space_group_name_H-M "P -1"
_symmetry_group_IT_number 2
_symmetry_cell_setting 'triclinic'
loop_
_space_group_symop_operation_xyz
x,y,z
-x,-y,-z
loop_
_atom_site_type_symbol
_atom_site_label
_atom_site_fract_x
_atom_site_fract_y
_atom_site_fract_z
Si Si1 0.535143 0.669095 0.422509
Si Si2 0.130722 0.503530 0.452519
Si Si3 0.371565 0.570059 0.889960
Si Si4 0.781638 0.935898 0.162786
Si Si5 0.250945 0.952390 0.671471
Si Si6 0.862869 0.154330 0.595601
Si Si7 0.381063 0.096837 0.182857
Si Si8 0.036961 0.685109 0.877698
O O1 0.792356 0.567016 0.371475
O O2 0.571411 0.528091 0.638922
O O3 0.436662 0.720330 0.300818
O O4 0.199843 0.915180 0.499465
O O5 0.481655 0.295299 0.302964
O O6 0.000000 0.500000 0.500000
O O7 0.923205 0.734216 0.332995
O O8 0.272245 0.533932 0.958274
O O9 0.500000 0.500000 0.000000
O O10 0.026455 0.830004 0.932762
O O11 0.766120 0.009760 0.208308
O O12 0.456595 0.119693 0.193888
O O13 0.342188 0.003168 0.416429
O O14 0.931314 0.114091 0.736062
O O15 0.842921 0.284123 0.373600
O O16 0.082425 0.309010 0.124083
O O17 0.698981 0.906957 0.011931
#
# Coordination Sequence:
#
# PCOD9075752 Si02
#       8
#     2   2   2   2   2   2   2   2
#     4   9  17  33  55  80 107 145 183 231 270 323
#     4  11  21  33  53  80 111 146 181 222 276 323
#     4  10  18  32  55  79 112 141 186 230 275 327
#     4  11  21  34  55  83 114 147 182 229 274 329
#     4  10  20  34  54  84 113 144 187 224 276 332
#     4   8  16  32  54  78 109 139 190 228 268 331
#     4   9  16  30  50  77 108 141 184 221 263 329
#     4   8  16  28  50  80 101 146 186 219 271 322
#
# _framework density 29.142236
#
# number of rings (size 3 to 8) (size 9 to 14) (size 15 to 20)
#    0.000    2.500    2.500    0.375    0.000    0.000 
#    0.000    3.125    0.000    0.000    0.000   79.625 
#    0.000    0.000    0.000    0.000    0.000    0.000 
#
# Total GULP energy -89357.419101 kJ/mol
# GULP energy per Si atom -5584.838694 kJ/mol
# Density = 2.907591 g / cm^3
# Si number density = 29.142236 Si / 1000 Ang^3
#
#
#
# Elastic Constant Matrix: (Units=GPa)
#
#
# Indices 1 2 3 4 5 6 
#
# 1 298.9935 60.5656 41.6387 -21.4474 39.9126 -80.4004
# 2 60.5656 143.3416 27.1011 12.5125 6.4868 -32.8792
# 3 41.6387 27.1011 100.9070 -15.5823 -12.9309 -11.0419
# 4 -21.4474 12.5125 -15.5823 36.3032 -9.4539 6.1690
# 5 39.9126 6.4868 -12.9309 -9.4539 32.1402 -12.6311
# 6 -80.4004 -32.8792 -11.0419 6.1690 -12.6311 74.1693
#
#
#
# Elastic Compliance Matrix: (Units=1/GPa)
#
#
# Indices 1 2 3 4 5 6 
#
# 1 0.005966 -0.000696 -0.002551 0.000210 -0.006397 0.004672
# 2 -0.000696 0.009216 -0.003224 -0.006240 -0.003005 0.002859
# 3 -0.002551 -0.003224 0.014739 0.009223 0.012190 -0.000692
# 4 0.000210 -0.006240 0.009223 0.038036 0.015215 -0.001739
# 5 -0.006397 -0.003005 0.012190 0.015215 0.049311 0.000680
# 6 0.004672 0.002859 -0.000692 -0.001739 0.000680 0.019972
#
#
# Mechanical properties :
#
#
# Convention : Reuss Voigt Hill
#
# Bulk Modulus (GPa) = 58.89297 89.09477 73.99387
# Shear Modulus (GPa) = 32.08350 56.11830 44.10090
#
# Velocity S-wave (km/s) = 3.32162 4.39301 3.89433
# Velocity P-wave (km/s) = 5.91300 7.50800 6.75772
#
# Compressibility (1/GPa) = 0.01697995
#
# Stress axis : x y z
#
# Youngs Moduli (GPa) = 167.61313 108.50439 67.84557
#
# Poissons Ratio (x) = 0.07547 0.17309
# Poissons Ratio (y) = 0.11659 0.21874
# Poissons Ratio (z) = 0.42761 0.34983
#
# Static dielectric constant tensor:
#      x y z
#    x 2.435790 0.059280 0.068450 
#    y 0.059280 2.256350 0.016740 
#    z 0.068450 0.016740 2.375650 
# 
# From -- ./inp_files/344727.got.cif
#   From: 2010.05.17/outbox.cif.g08.bks.cpg/sg2_173_cif.got.tgz:344727.got - 2010.06.03 11:33:40.
