data_PCOD9075612
_publ_section_title
;
Structure prediction by ZEFSAII (Michael W. Deem and Ramdas Pophale) SiO2 
 PCOD9075612
Probable space group: P -1
;
_chemical_formula_sum "Si O2"
_cell_formula_units_Z 16
_cell_length_a 9.000000
_cell_length_b 15.000000
_cell_length_c 15.000000
_cell_angle_alpha 30.000000
_cell_angle_beta 90.000000
_cell_angle_gamma 110.000000
_cell_volume 738.562284
_symmetry_space_group_name_H-M "P -1"
_symmetry_group_IT_number 2
_symmetry_cell_setting 'triclinic'
loop_
_space_group_symop_operation_xyz
x,y,z
-x,-y,-z
loop_
_atom_site_type_symbol
_atom_site_label
_atom_site_fract_x
_atom_site_fract_y
_atom_site_fract_z
Si Si1 0.904838 0.038749 0.710612
Si Si2 0.998634 0.463058 0.425123
Si Si3 0.797992 0.813342 0.100709
Si Si4 0.612089 0.071279 0.343484
Si Si5 0.410622 0.735935 0.460965
Si Si6 0.468119 0.605869 0.993616
Si Si7 0.858067 0.929078 0.476176
Si Si8 0.643773 0.984844 0.069724
O O1 0.683547 0.853170 0.820013
O O2 0.853657 0.933234 0.900765
O O3 0.052259 0.329001 0.485406
O O4 0.032643 0.017244 0.663885
O O5 0.000000 0.500000 0.500000
O O6 0.764192 0.273085 0.562161
O O7 0.140364 0.740815 0.155277
O O8 0.698087 0.542373 0.313542
O O9 0.646372 0.812477 0.157661
O O10 0.000000 0.000000 0.000000
O O11 0.647275 0.303513 0.109494
O O12 0.500000 0.000000 0.500000
O O13 0.484362 0.858427 0.451777
O O14 0.796262 0.085398 0.347304
O O15 0.578036 0.886575 0.254369
O O16 0.500000 0.500000 0.000000
O O17 0.333499 0.365678 0.263995
O O18 0.000000 0.000000 0.500000
O O19 0.500000 0.000000 0.000000
#
# Coordination Sequence:
#
# PCOD9075612 Si02
#       8
#     2   2   2   2   2   2   2   2
#     4  12  26  48  76 105 154 198 246 314 380 442
#     4  12  23  47  71 104 150 194 242 306 369 437
#     4  12  26  47  71 104 152 195 241 312 370 442
#     4  12  27  49  79 109 150 200 253 311 382 451
#     4  12  26  46  74 108 145 194 253 303 376 447
#     4  12  25  52  78 109 152 196 251 317 382 451
#     4  12  28  50  77 116 150 198 255 316 384 459
#     4  12  26  45  74 107 145 196 249 301 372 449
#
# _framework density 21.663710999999999
#
# number of rings (size 3 to 8) (size 9 to 14) (size 15 to 20)
#    0.000    0.000    7.500    1.125    3.500    1.500 
#    0.000    0.000    0.000    0.000    0.000    0.000 
#    0.000    0.000    0.000    0.000    0.000    0.000 
#
# Total GULP energy -89228.496660 kJ/mol
# GULP energy per Si atom -5576.781041 kJ/mol
# Density = 2.161440 g / cm^3
# Si number density = 21.663711 Si / 1000 Ang^3
#
#
#
# Elastic Constant Matrix: (Units=GPa)
#
#
# Indices 1 2 3 4 5 6 
#
# 1 104.0508 45.9692 6.0095 0.4842 17.2467 -14.9729
# 2 45.9692 189.4309 19.6163 -6.4315 2.1840 -17.1209
# 3 6.0095 19.6163 85.4769 -11.3939 4.9625 -11.4609
# 4 0.4842 -6.4315 -11.3939 43.2698 -11.2205 0.4489
# 5 17.2467 2.1840 4.9625 -11.2205 33.5164 -3.4896
# 6 -14.9729 -17.1209 -11.4609 0.4489 -3.4896 44.0614
#
#
#
# Elastic Compliance Matrix: (Units=1/GPa)
#
#
# Indices 1 2 3 4 5 6 
#
# 1 0.012321 -0.002771 0.000214 -0.002250 -0.006667 0.002661
# 2 -0.002771 0.006193 -0.000998 0.001111 0.001680 0.001327
# 3 0.000214 -0.000998 0.012742 0.003014 -0.000619 0.002919
# 4 -0.002250 0.001111 0.003014 0.026584 0.009637 0.000943
# 5 -0.006667 0.001680 -0.000619 0.009637 0.036582 0.001025
# 6 0.002661 0.001327 0.002919 0.000943 0.001025 0.024946
#
#
# Mechanical properties :
#
#
# Convention : Reuss Voigt Hill
#
# Bulk Modulus (GPa) = 41.41601 58.01650 49.71625
# Shear Modulus (GPa) = 37.16689 44.66042 40.91366
#
# Velocity S-wave (km/s) = 4.14651 4.54533 4.35049
# Velocity P-wave (km/s) = 6.48721 7.37465 6.94512
#
# Compressibility (1/GPa) = 0.02414525
#
# Stress axis : x y z
#
# Youngs Moduli (GPa) = 81.16153 161.47119 78.47941
#
# Poissons Ratio (x) = 0.44746 -0.01676
# Poissons Ratio (y) = 0.22491 0.07832
# Poissons Ratio (z) = -0.01734 0.16115
#
# Static dielectric constant tensor:
#      x y z
#    x 3.836580 -2.185080 4.734150 
#    y -2.185080 4.290640 -5.420710 
#    z 4.734150 -5.420710 13.294660 
# 
# From -- ./inp_files/505031.got.cif
#   From: 2010.05.17/outbox.ucp.g08.bks.cvg/sg2_253_cif.got.tgz:505031.got - 2010.06.11 11:32:03.
