data_PCOD9075828
_publ_section_title
;
Structure prediction by ZEFSAII (Michael W. Deem and Ramdas Pophale) SiO2 
 PCOD9075828
Probable space group: P -1
;
_chemical_formula_sum "Si O2"
_cell_formula_units_Z 13
_cell_length_a 10.051623
_cell_length_b 8.788530
_cell_length_c 22.383449
_cell_angle_alpha 139.895472
_cell_angle_beta 33.541802
_cell_angle_gamma 140.123523
_cell_volume 655.252407
_symmetry_space_group_name_H-M "P -1"
_symmetry_group_IT_number 2
_symmetry_cell_setting 'triclinic'
loop_
_space_group_symop_operation_xyz
x,y,z
-x,-y,-z
loop_
_atom_site_type_symbol
_atom_site_label
_atom_site_fract_x
_atom_site_fract_y
_atom_site_fract_z
Si Si1 0.910327 0.347081 0.643676
Si Si2 0.910987 0.408308 0.219410
Si Si3 0.000000 0.500000 0.000000
Si Si4 0.732010 0.077440 0.805913
Si Si5 0.379176 0.290630 0.155784
Si Si6 0.180228 0.027898 0.024510
Si Si7 0.305543 0.189324 0.378579
O O1 0.741238 0.495418 0.723909
O O2 0.017412 0.481426 0.707142
O O3 0.144665 0.344990 0.513876
O O4 0.741257 0.054683 0.634435
O O5 0.608513 0.342265 0.304937
O O6 0.078349 0.632807 0.180464
O O7 0.001479 0.170266 0.107586
O O8 0.683815 0.397511 0.083844
O O9 0.025836 0.742185 0.017149
O O10 0.800949 0.925973 0.680760
O O11 0.742605 0.944767 0.824345
O O12 0.436250 0.055322 0.899238
O O13 0.305131 0.184336 0.085171
#
# Coordination Sequence:
#
# PCOD9075828 Si02
#       7
#     2   2   1   2   2   2   2
#     4   9  20  38  56  76 104 139 179 218 256 305
#     4  10  20  36  56  77 105 142 175 212 263 313
#     4  10  18  32  56  80 100 134 174 210 258 308
#     4  10  21  33  51  81 110 136 170 220 264 303
#     4  10  21  37  55  78 108 140 174 214 261 312
#     4  10  21  36  55  78 108 140 174 215 259 313
#     4  10  20  35  56  79 104 137 179 219 256 308
#
# _framework density 19.839683999999998
#
# number of rings (size 3 to 8) (size 9 to 14) (size 15 to 20)
#    0.000    2.154    0.000    3.692    0.000    6.154 
#    0.000    0.769    0.000    0.000    0.000    0.000 
#    0.000    0.000    0.000    0.000    0.000    0.000 
#
# Total GULP energy -72393.587660 kJ/mol
# GULP energy per Si atom -5568.737512 kJ/mol
# Density = 1.979453 g / cm^3
# Si number density = 19.839684 Si / 1000 Ang^3
#
#
#
# Elastic Constant Matrix: (Units=GPa)
#
#
# Indices 1 2 3 4 5 6 
#
# 1 55.2284 24.0241 25.9773 1.7069 -15.1238 -5.4591
# 2 24.0241 127.4363 44.7808 -14.8634 -18.9563 -2.4093
# 3 25.9773 44.7808 113.7396 5.7692 -4.1928 -8.8587
# 4 1.7069 -14.8634 5.7692 29.9697 1.0189 -3.9423
# 5 -15.1238 -18.9563 -4.1928 1.0189 19.0619 4.6312
# 6 -5.4591 -2.4093 -8.8587 -3.9423 4.6312 10.7890
#
#
#
# Elastic Compliance Matrix: (Units=1/GPa)
#
#
# Indices 1 2 3 4 5 6 
#
# 1 0.025911 -0.000478 -0.004937 -0.001369 0.018998 0.000295
# 2 -0.000478 0.011874 -0.004777 0.005921 0.011056 -0.004096
# 3 -0.004937 -0.004777 0.012353 -0.003027 -0.007947 0.008883
# 4 -0.001369 0.005921 -0.003027 0.038671 -0.001020 0.012712
# 5 0.018998 0.011056 -0.007947 -0.001020 0.084376 -0.031034
# 6 0.000295 -0.004096 0.008883 0.012712 -0.031034 0.117182
#
#
# Mechanical properties :
#
#
# Convention : Reuss Voigt Hill
#
# Bulk Modulus (GPa) = 33.61033 53.99651 43.80342
# Shear Modulus (GPa) = 15.59245 25.40558 20.49902
#
# Velocity S-wave (km/s) = 2.80647 3.58235 3.21788
# Velocity P-wave (km/s) = 5.24208 6.66232 5.99441
#
# Compressibility (1/GPa) = 0.02975276
#
# Stress axis : x y z
#
# Youngs Moduli (GPa) = 38.59428 84.21913 80.95220
#
# Poissons Ratio (x) = 0.04026 0.39965
# Poissons Ratio (y) = 0.01845 0.38674
# Poissons Ratio (z) = 0.19053 0.40235
#
# Static dielectric constant tensor:
#      x y z
#    x 1.703730 0.000910 0.042900 
#    y 0.000910 1.691540 0.028190 
#    z 0.042900 0.028190 1.706700 
# 
# From -- ./inp_files/609419.got.cif
#   From: 2010.05.17/outbox.cif.g08.bks.cpg/sg2_305_cif.got.tgz:609419.got - 2010.06.03 11:33:40.
