data_PCOD9075569
_publ_section_title
;
Structure prediction by ZEFSAII (Michael W. Deem and Ramdas Pophale) SiO2 
 PCOD9075569
Probable space group: P -1
;
_chemical_formula_sum "Si O2"
_cell_formula_units_Z 16
_cell_length_a 12.000000
_cell_length_b 15.000000
_cell_length_c 12.000000
_cell_angle_alpha 20.000000
_cell_angle_beta 90.000000
_cell_angle_gamma 90.000000
_cell_volume 738.763510
_symmetry_space_group_name_H-M "P -1"
_symmetry_group_IT_number 2
_symmetry_cell_setting 'triclinic'
loop_
_space_group_symop_operation_xyz
x,y,z
-x,-y,-z
loop_
_atom_site_type_symbol
_atom_site_label
_atom_site_fract_x
_atom_site_fract_y
_atom_site_fract_z
Si Si1 0.534841 0.964157 0.915113
Si Si2 0.994859 0.307493 0.117015
Si Si3 0.394363 0.467627 0.737251
Si Si4 0.874823 0.058451 0.887346
Si Si5 0.539809 0.295877 0.143150
Si Si6 0.716677 0.938334 0.240235
Si Si7 0.847031 0.670931 0.122834
Si Si8 0.758006 0.332335 0.980401
O O1 0.615423 0.219214 0.608002
O O2 0.414961 0.006047 0.809504
O O3 0.500000 0.000000 0.000000
O O4 0.575216 0.678703 0.208930
O O5 0.877522 0.364580 0.994942
O O6 0.000000 0.000000 0.500000
O O7 0.000000 0.500000 0.000000
O O8 0.080925 0.324931 0.994282
O O9 0.279201 0.322632 0.928793
O O10 0.487555 0.391687 0.914539
O O11 0.866543 0.372411 0.511739
O O12 0.781273 0.003222 0.048198
O O13 0.861720 0.882323 0.978028
O O14 0.000000 0.000000 0.000000
O O15 0.500000 0.000000 0.500000
O O16 0.500000 0.500000 0.000000
O O17 0.671280 0.270495 0.151978
O O18 0.724936 0.625822 0.602894
O O19 0.763295 0.116491 0.134077
#
# Coordination Sequence:
#
# PCOD9075569 Si02
#       8
#     2   2   2   2   2   2   2   2
#     4  12  23  41  65 100 139 180 215 261 329 401
#     4  12  28  48  71  98 131 180 226 283 335 384
#     4  12  25  44  65 101 140 173 219 274 331 397
#     4  12  25  45  72 101 135 180 222 275 334 397
#     4  12  26  43  70  98 132 180 223 277 335 391
#     4  12  22  43  69 102 134 176 218 272 334 396
#     4  12  26  46  68 104 136 176 225 276 332 399
#     4  12  25  46  70 100 134 172 229 277 329 404
#
# _framework density 21.657810000000001
#
# number of rings (size 3 to 8) (size 9 to 14) (size 15 to 20)
#    0.000    0.000    2.500    8.250    3.500    0.000 
#    0.000    0.000    0.000    0.000    0.000    0.000 
#    0.000    0.000    0.000    0.000    0.000    0.000 
#
# Total GULP energy -89111.074754 kJ/mol
# GULP energy per Si atom -5569.442172 kJ/mol
# Density = 2.160852 g / cm^3
# Si number density = 21.657810 Si / 1000 Ang^3
#
#
#
# Elastic Constant Matrix: (Units=GPa)
#
#
# Indices 1 2 3 4 5 6 
#
# 1 120.0367 39.1907 -12.9923 0.9487 -21.3212 -13.8865
# 2 39.1907 202.9435 19.2798 -47.1451 -29.0875 -13.2202
# 3 -12.9923 19.2798 87.1235 -22.9691 -28.6506 -21.7452
# 4 0.9487 -47.1451 -22.9691 41.0387 -4.6730 -3.2105
# 5 -21.3212 -29.0875 -28.6506 -4.6730 29.2106 0.1867
# 6 -13.8865 -13.2202 -21.7452 -3.2105 0.1867 55.2003
#
#
#
# Elastic Compliance Matrix: (Units=1/GPa)
#
#
# Indices 1 2 3 4 5 6 
#
# 1 -0.003424 -0.018513 -0.036972 -0.051078 -0.065224 -0.022610
# 2 -0.018513 -0.012827 -0.048060 -0.052813 -0.081686 -0.029457
# 3 -0.036972 -0.048060 -0.101613 -0.138921 -0.196296 -0.068255
# 4 -0.051078 -0.052813 -0.138921 -0.148144 -0.249267 -0.087996
# 5 -0.065224 -0.081686 -0.196296 -0.249267 -0.326315 -0.126693
# 6 -0.022610 -0.029457 -0.068255 -0.087996 -0.126693 -0.026204
#
#
# Mechanical properties :
#
#
# Convention : Reuss Voigt Hill
#
# Bulk Modulus (GPa) = -3.07735 55.67335 26.29800
# Shear Modulus (GPa) = -9.61995 49.39828 19.88917
#
# Velocity S-wave (km/s) = -2.10984 4.78101 3.03370
# Velocity P-wave (km/s) = 2.71279 7.49927 4.94368
#
# Compressibility (1/GPa) = -0.32495464
#
# Stress axis : x y z
#
# Youngs Moduli (GPa) = -292.09283 -77.96002 -9.84128
#
# Poissons Ratio (x) = -1.44331 -0.36385
# Poissons Ratio (y) = -5.40766 -0.47297
# Poissons Ratio (z) = -10.79919 -3.74678
#
# Static dielectric constant tensor:
#      x y z
#    x 2.682980 0.229540 0.010280 
#    y 0.229540 1.830260 0.141380 
#    z 0.010280 0.141380 2.047680 
# 
# From -- ./inp_files/433629.got.cif
#   From: 2010.05.17/outbox.ucp.g08.bks.cvg/sg2_217_cif.got.tgz:433629.got - 2010.06.11 11:32:03.
