data_PCOD9075672
_publ_section_title
;
Structure prediction by ZEFSAII (Michael W. Deem and Ramdas Pophale) SiO2 
 PCOD9075672
Probable space group: P -1
;
_chemical_formula_sum "Si O2"
_cell_formula_units_Z 10
_cell_length_a 9.000000
_cell_length_b 9.000000
_cell_length_c 9.000000
_cell_angle_alpha 100.000000
_cell_angle_beta 140.000000
_cell_angle_gamma 70.000000
_cell_volume 435.596259
_symmetry_space_group_name_H-M "P -1"
_symmetry_group_IT_number 2
_symmetry_cell_setting 'triclinic'
loop_
_space_group_symop_operation_xyz
x,y,z
-x,-y,-z
loop_
_atom_site_type_symbol
_atom_site_label
_atom_site_fract_x
_atom_site_fract_y
_atom_site_fract_z
Si Si1 0.146432 0.274357 0.977411
Si Si2 0.919068 0.036275 0.275125
Si Si3 0.301652 0.490823 0.467380
Si Si4 0.568124 0.351509 0.139481
Si Si5 0.282984 0.161227 0.391140
O O1 0.938831 0.434071 0.798734
O O2 0.104941 0.121857 0.841676
O O3 0.379082 0.311009 0.098017
O O4 0.162154 0.228911 0.153265
O O5 0.674104 0.186934 0.104596
O O6 0.108701 0.105854 0.353676
O O7 0.000000 0.000000 0.500000
O O8 0.500000 0.500000 0.500000
O O9 0.262389 0.601570 0.601727
O O10 0.358679 0.309507 0.532875
O O11 0.500000 0.500000 0.000000
O O12 0.500000 0.000000 0.500000
#
# Coordination Sequence:
#
# PCOD9075672 Si02
#       5
#     2   2   2   2   2
#     4  12  26  50  73 101 145 190 234 287 353 423
#     4  12  26  47  71 105 145 181 235 293 351 414
#     4  12  26  48  74 104 144 183 242 287 349 426
#     4  12  28  45  74 108 140 186 233 296 354 409
#     4  12  27  46  76 104 140 192 237 287 350 423
#
# _framework density 22.957038000000001
#
# number of rings (size 3 to 8) (size 9 to 14) (size 15 to 20)
#    0.000    0.000    4.000    5.400    8.400    1.600 
#    0.000    0.000    0.000    0.000    0.000    0.000 
#    0.000    0.000    0.000    0.000    0.000    0.000 
#
# Total GULP energy -55827.628127 kJ/mol
# GULP energy per Si atom -5582.762813 kJ/mol
# Density = 2.290479 g / cm^3
# Si number density = 22.957038 Si / 1000 Ang^3
#
#
#
# Elastic Constant Matrix: (Units=GPa)
#
#
# Indices 1 2 3 4 5 6 
#
# 1 109.2956 22.3054 37.9610 -5.1622 -30.4311 34.7361
# 2 22.3054 177.0249 30.1140 -7.7870 -5.5631 20.3218
# 3 37.9610 30.1140 37.5335 -8.3614 -14.2012 14.7219
# 4 -5.1622 -7.7870 -8.3614 35.4381 6.1404 -1.6446
# 5 -30.4311 -5.5631 -14.2012 6.1404 20.6468 -13.6988
# 6 34.7361 20.3218 14.7219 -1.6446 -13.6988 45.2606
#
#
#
# Elastic Compliance Matrix: (Units=1/GPa)
#
#
# Indices 1 2 3 4 5 6 
#
# 1 0.020286 0.000721 -0.012381 -0.003273 0.018268 -0.006455
# 2 0.000721 0.006853 -0.006360 0.000568 -0.003324 -0.002547
# 3 -0.012381 -0.006360 0.050588 0.006496 0.012938 0.000054
# 4 -0.003273 0.000568 0.006496 0.031177 -0.010796 -0.001991
# 5 0.018268 -0.003324 0.012938 -0.010796 0.094107 0.011354
# 6 -0.006455 -0.002547 0.000054 -0.001991 0.011354 0.031539
#
#
# Mechanical properties :
#
#
# Convention : Reuss Voigt Hill
#
# Bulk Modulus (GPa) = 23.98729 56.06830 40.02780
# Shear Modulus (GPa) = 17.57574 35.83401 26.70487
#
# Velocity S-wave (km/s) = 2.76994 3.95513 3.41435
# Velocity P-wave (km/s) = 4.54989 6.73302 5.74609
#
# Compressibility (1/GPa) = 0.04168874
#
# Stress axis : x y z
#
# Youngs Moduli (GPa) = 49.29562 145.92526 19.76755
#
# Poissons Ratio (x) = -0.10524 0.24473
# Poissons Ratio (y) = -0.03555 0.12571
# Poissons Ratio (z) = 0.61031 0.92802
#
# Static dielectric constant tensor:
#      x y z
#    x 1.693920 -0.043250 -0.005500 
#    y -0.043250 1.831900 0.037840 
#    z -0.005500 0.037840 1.921840 
# 
# From -- ./inp_files/15176.got.cif
#   From: 2010.05.17/outbox.ucp.g08.bks.cvg/sg2_8_cif.got.tgz:15176.got - 2010.06.11 11:32:03.
