data_PCOD9075823
_publ_section_title
;
Structure prediction by ZEFSAII (Michael W. Deem and Ramdas Pophale) SiO2 
 PCOD9075823
Probable space group: P -1
;
_chemical_formula_sum "Si O2"
_cell_formula_units_Z 16
_cell_length_a 11.528771
_cell_length_b 8.325584
_cell_length_c 12.022444
_cell_angle_alpha 111.642010
_cell_angle_beta 131.459992
_cell_angle_gamma 55.076549
_cell_volume 708.964904
_symmetry_space_group_name_H-M "P -1"
_symmetry_group_IT_number 2
_symmetry_cell_setting 'triclinic'
loop_
_space_group_symop_operation_xyz
x,y,z
-x,-y,-z
loop_
_atom_site_type_symbol
_atom_site_label
_atom_site_fract_x
_atom_site_fract_y
_atom_site_fract_z
Si Si1 0.787577 0.806276 0.184728
Si Si2 0.351379 0.072161 0.330642
Si Si3 0.563014 0.949473 0.867876
Si Si4 0.151272 0.216850 0.441822
Si Si5 0.687325 0.269910 0.050621
Si Si6 0.824706 0.188854 0.893055
Si Si7 0.047461 0.904036 0.277054
Si Si8 0.768529 0.541336 0.288763
O O1 0.629388 0.995852 0.193822
O O2 0.968321 0.816439 0.294220
O O3 0.809615 0.626230 0.225553
O O4 0.709729 0.811238 0.013692
O O5 0.183761 0.229927 0.334332
O O6 0.500000 0.000000 0.500000
O O7 0.394528 0.125716 0.250696
O O8 0.308609 0.895934 0.236531
O O9 0.572307 0.156545 0.936245
O O10 0.273038 0.287602 0.604331
O O11 0.955060 0.360183 0.394531
O O12 0.170507 0.999533 0.416347
O O13 0.643229 0.446044 0.154235
O O14 0.871083 0.090524 0.166286
O O15 0.741488 0.325450 0.980779
O O16 0.870656 0.238709 0.813988
O O17 0.000000 0.000000 0.000000
#
# Coordination Sequence:
#
# PCOD9075823 Si02
#       8
#     2   2   2   2   2   2   2   2
#     4  10  19  31  49  77 105 133 169 211 264 311
#     4  10  18  32  56  79 100 133 178 221 255 296
#     4   9  19  34  51  75 103 132 172 217 256 303
#     4   9  19  34  51  75 103 132 172 217 256 303
#     4   8  15  29  48  70  98 132 169 211 249 293
#     4   8  14  28  50  73  98 131 174 213 245 290
#     4   8  15  29  48  70  98 132 169 211 249 293
#     4  10  19  31  49  77 105 133 169 211 264 311
#
# _framework density 22.568111999999999
#
# number of rings (size 3 to 8) (size 9 to 14) (size 15 to 20)
#    0.000    3.000    0.000    2.250    0.000    1.000 
#    0.000    2.500    0.000    0.000    0.000   30.625 
#    0.000    0.000    0.000    0.000    0.000    0.000 
#
# Total GULP energy -89072.843613 kJ/mol
# GULP energy per Si atom -5567.052726 kJ/mol
# Density = 2.251675 g / cm^3
# Si number density = 22.568112 Si / 1000 Ang^3
#
#
#
# Elastic Constant Matrix: (Units=GPa)
#
#
# Indices 1 2 3 4 5 6 
#
# 1 108.7032 0.8168 33.2003 16.7805 -10.1186 -2.1791
# 2 0.8168 25.3768 8.9975 12.0069 -7.3401 0.5313
# 3 33.2003 8.9975 100.0840 23.9500 -7.3139 0.1369
# 4 16.7805 12.0069 23.9500 27.1051 -3.1064 -1.9813
# 5 -10.1186 -7.3401 -7.3139 -3.1064 38.5768 -1.1326
# 6 -2.1791 0.5313 0.1369 -1.9813 -1.1326 23.1491
#
#
#
# Elastic Compliance Matrix: (Units=1/GPa)
#
#
# Indices 1 2 3 4 5 6 
#
# 1 0.011138 0.004276 -0.002357 -0.006346 0.002794 0.000558
# 2 0.004276 0.054300 0.000720 -0.026456 0.009382 -0.002653
# 3 -0.002357 0.000720 0.013329 -0.010590 0.001159 -0.001167
# 4 -0.006346 -0.026456 -0.010590 0.061869 -0.003572 0.005193
# 5 0.002794 0.009382 0.001159 -0.003572 0.028405 0.001125
# 6 0.000558 -0.002653 -0.001167 0.005193 0.001125 0.043818
#
#
# Mechanical properties :
#
#
# Convention : Reuss Voigt Hill
#
# Bulk Modulus (GPa) = 11.89846 35.57704 23.73775
# Shear Modulus (GPa) = 21.22281 30.50951 25.86616
#
# Velocity S-wave (km/s) = 3.06990 3.68079 3.38914
# Velocity P-wave (km/s) = 4.22486 5.81917 5.08489
#
# Compressibility (1/GPa) = 0.08404452
#
# Stress axis : x y z
#
# Youngs Moduli (GPa) = 89.78266 18.41637 75.02311
#
# Poissons Ratio (x) = -0.07875 0.17685
# Poissons Ratio (y) = -0.38392 -0.05402
# Poissons Ratio (z) = 0.21164 -0.01326
#
# Static dielectric constant tensor:
#      x y z
#    x 1.930100 -0.038960 0.035290 
#    y -0.038960 1.836010 0.008980 
#    z 0.035290 0.008980 1.937190 
# 
# From -- ./inp_files/243920.got.cif
#   From: 2010.05.17/outbox.cif.g08.bks.cpg/sg2_122_cif.got.tgz:243920.got - 2010.06.03 11:33:40.
