data_PCOD9075599
_publ_section_title
;
Structure prediction by ZEFSAII (Michael W. Deem and Ramdas Pophale) SiO2 
 PCOD9075599
Probable space group: P -1
;
_chemical_formula_sum "Si O2"
_cell_formula_units_Z 12
_cell_length_a 12.000000
_cell_length_b 6.000000
_cell_length_c 15.000000
_cell_angle_alpha 130.000000
_cell_angle_beta 140.000000
_cell_angle_gamma 50.000000
_cell_volume 506.387931
_symmetry_space_group_name_H-M "P -1"
_symmetry_group_IT_number 2
_symmetry_cell_setting 'triclinic'
loop_
_space_group_symop_operation_xyz
x,y,z
-x,-y,-z
loop_
_atom_site_type_symbol
_atom_site_label
_atom_site_fract_x
_atom_site_fract_y
_atom_site_fract_z
Si Si1 0.847172 0.916643 0.741503
Si Si2 0.662217 0.179640 0.526748
Si Si3 0.001193 0.769267 0.363805
Si Si4 0.149023 0.209390 0.981876
Si Si5 0.403596 0.903439 0.196668
Si Si6 0.665226 0.713218 0.056412
O O1 0.879025 0.579043 0.638235
O O2 0.696900 0.130219 0.640101
O O3 0.763547 0.983778 0.806011
O O4 0.046981 0.957034 0.867280
O O5 0.500000 0.500000 0.500000
O O6 0.866417 0.150076 0.609645
O O7 0.579465 0.941514 0.363463
O O8 0.789218 0.765509 0.226572
O O9 0.000000 0.000000 0.500000
O O10 0.182728 0.300416 0.927879
O O11 0.000000 0.500000 0.000000
O O12 0.336238 0.127999 0.129594
O O13 0.407901 0.576528 0.074543
O O14 0.500000 0.000000 0.000000
#
# Coordination Sequence:
#
# PCOD9075599 Si02
#       6
#     2   2   2   2   2   2
#     4  12  24  46  75 106 142 186 239 293 352 420
#     4  12  27  45  74 111 142 186 238 292 356 421
#     4  12  29  49  71 104 149 190 234 291 359 423
#     4  12  23  44  77 105 139 181 242 298 351 414
#     4  12  26  43  77 109 138 182 244 294 351 421
#     4  12  29  48  72 106 145 189 238 295 353 419
#
# _framework density 23.697247000000001
#
# number of rings (size 3 to 8) (size 9 to 14) (size 15 to 20)
#    0.000    0.000    6.667    3.000    4.667    2.667 
#    0.000    0.000    0.000    0.000    0.000    0.000 
#    0.000    0.000    0.000    0.000    0.000    0.000 
#
# Total GULP energy -66953.826312 kJ/mol
# GULP energy per Si atom -5579.485526 kJ/mol
# Density = 2.364331 g / cm^3
# Si number density = 23.697247 Si / 1000 Ang^3
#
#
#
# Elastic Constant Matrix: (Units=GPa)
#
#
# Indices 1 2 3 4 5 6 
#
# 1 21.7558 -17.8854 -4.3531 14.4419 4.3403 -2.0358
# 2 -17.8854 99.1739 46.3748 15.5480 -10.2345 -18.2601
# 3 -4.3531 46.3748 156.1324 10.4139 16.5298 -0.8487
# 4 14.4419 15.5480 10.4139 45.5097 -4.5701 -0.6307
# 5 4.3403 -10.2345 16.5298 -4.5701 42.1663 -2.3591
# 6 -2.0358 -18.2601 -0.8487 -0.6307 -2.3591 27.8450
#
#
#
# Elastic Compliance Matrix: (Units=1/GPa)
#
#
# Indices 1 2 3 4 5 6 
#
# 1 0.102269 0.030650 -0.002733 -0.042456 -0.005158 0.026094
# 2 0.030650 0.024631 -0.005746 -0.016137 0.004347 0.018221
# 3 -0.002733 -0.005746 0.008478 0.000369 -0.004626 -0.004093
# 4 -0.042456 -0.016137 0.000369 0.041112 0.004071 -0.012399
# 5 -0.005158 0.004347 -0.004626 0.004071 0.027824 0.004782
# 6 0.026094 0.018221 -0.004093 -0.012399 0.004782 0.049769
#
#
# Mechanical properties :
#
#
# Convention : Reuss Voigt Hill
#
# Bulk Modulus (GPa) = 5.56422 36.14830 20.85626
# Shear Modulus (GPa) = 18.54268 39.96593 29.25430
#
# Velocity S-wave (km/s) = 2.80032 4.11118 3.51736
# Velocity P-wave (km/s) = 3.57895 6.15005 5.03150
#
# Compressibility (1/GPa) = 0.17971970
#
# Stress axis : x y z
#
# Youngs Moduli (GPa) = 9.77816 40.59898 117.94807
#
# Poissons Ratio (x) = -1.24434 0.32231
# Poissons Ratio (y) = -0.29970 0.67776
# Poissons Ratio (z) = 0.02672 0.23329
#
# Static dielectric constant tensor:
#      x y z
#    x 1.669240 -0.031120 -0.109030 
#    y -0.031120 1.979170 0.046480 
#    z -0.109030 0.046480 1.872830 
# 
# From -- ./inp_files/17666.got.cif
#   From: 2010.05.17/outbox.ucp.g08.bks.cvg/sg2_9_cif.got.tgz:17666.got - 2010.06.11 11:32:03.
