data_PCOD9075905
_publ_section_title
;
Structure prediction by ZEFSAII (Michael W. Deem and Ramdas Pophale) SiO2 
 PCOD9075905
Probable space group: P -1
;
_chemical_formula_sum "Si O2"
_cell_formula_units_Z 14
_cell_length_a 23.372866
_cell_length_b 9.507141
_cell_length_c 4.979481
_cell_angle_alpha 107.423999
_cell_angle_beta 60.184764
_cell_angle_gamma 133.838674
_cell_volume 690.671029
_symmetry_space_group_name_H-M "P -1"
_symmetry_group_IT_number 2
_symmetry_cell_setting 'triclinic'
loop_
_space_group_symop_operation_xyz
x,y,z
-x,-y,-z
loop_
_atom_site_type_symbol
_atom_site_label
_atom_site_fract_x
_atom_site_fract_y
_atom_site_fract_z
Si Si1 0.177751 0.458320 0.338858
Si Si2 0.630739 0.603622 0.913760
Si Si3 0.310268 0.844307 0.504642
Si Si4 0.550684 0.190939 0.809273
Si Si5 0.902033 0.800709 0.091058
Si Si6 0.737059 0.675925 0.181550
Si Si7 0.604887 0.895171 0.067115
O O1 0.217682 0.663750 0.489762
O O2 0.136399 0.306927 0.595694
O O3 0.110762 0.350316 0.184135
O O4 0.259437 0.486271 0.035899
O O5 0.569462 0.376955 0.009272
O O6 0.673835 0.614570 0.540566
O O7 0.705498 0.725998 0.035328
O O8 0.587018 0.696811 0.029263
O O9 0.358783 0.761325 0.423141
O O10 0.319173 0.948380 0.814708
O O11 0.362059 0.011230 0.251454
O O12 0.483704 0.140339 0.700720
O O13 0.500000 0.000000 0.000000
O O14 0.836754 0.830877 0.142961
O O15 0.000000 0.000000 0.000000
#
# Coordination Sequence:
#
# PCOD9075905 Si02
#       7
#     2   2   2   2   2   2   2
#     4  10  19  34  58  86 114 150 180 231 285 327
#     4  12  22  39  57  81 119 149 195 233 287 348
#     4  11  21  40  57  81 113 150 200 231 286 341
#     4  10  22  39  59  81 111 153 195 249 289 328
#     4  10  18  32  56  97 121 134 180 237 287 328
#     4  10  20  35  59  82 111 154 178 230 290 328
#     4  11  25  36  55  85 111 153 193 246 285 327
#
# _framework density 20.270140000000001
#
# number of rings (size 3 to 8) (size 9 to 14) (size 15 to 20)
#    0.857    0.571    2.857    3.000    2.000    2.286 
#    0.000    5.000    0.000    0.000    0.000   20.000 
#    0.000    0.000    0.000    0.000    0.000    0.000 
#
# Total GULP energy -77995.619109 kJ/mol
# GULP energy per Si atom -5571.115651 kJ/mol
# Density = 2.022400 g / cm^3
# Si number density = 20.270140 Si / 1000 Ang^3
#
#
#
# Elastic Constant Matrix: (Units=GPa)
#
#
# Indices 1 2 3 4 5 6 
#
# 1 65.8280 47.6355 30.5821 7.3397 14.2285 -2.0175
# 2 47.6355 107.5580 25.5557 6.4429 -6.2923 -2.9759
# 3 30.5821 25.5557 81.6925 -2.9865 27.1315 -0.9383
# 4 7.3397 6.4429 -2.9865 19.3099 -1.8836 3.0695
# 5 14.2285 -6.2923 27.1315 -1.8836 25.7890 4.6529
# 6 -2.0175 -2.9759 -0.9383 3.0695 4.6529 41.0868
#
#
#
# Elastic Compliance Matrix: (Units=1/GPa)
#
#
# Indices 1 2 3 4 5 6 
#
# 1 0.032080 -0.014745 -0.000272 -0.010108 -0.022434 0.003797
# 2 -0.014745 0.018644 -0.007154 0.000591 0.020599 -0.001914
# 3 -0.000272 -0.007154 0.023592 0.003090 -0.026695 0.002799
# 4 -0.010108 0.000591 0.003090 0.057541 0.007674 -0.005551
# 5 -0.022434 0.020599 -0.026695 0.007674 0.086740 -0.010616
# 6 0.003797 -0.001914 0.002799 -0.005551 -0.010616 0.026067
#
#
# Mechanical properties :
#
#
# Convention : Reuss Voigt Hill
#
# Bulk Modulus (GPa) = 33.36262 51.40280 42.38271
# Shear Modulus (GPa) = 16.72258 27.32415 22.02337
#
# Velocity S-wave (km/s) = 2.87537 3.67550 3.29978
# Velocity P-wave (km/s) = 5.24580 6.58986 5.95587
#
# Compressibility (1/GPa) = 0.02997367
#
# Stress axis : x y z
#
# Youngs Moduli (GPa) = 31.17248 53.63618 42.38740
#
# Poissons Ratio (x) = 0.79085 0.01152
# Poissons Ratio (y) = 0.45963 0.30326
# Poissons Ratio (z) = 0.00847 0.38373
#
# Static dielectric constant tensor:
#      x y z
#    x 1.760020 0.032270 0.016440 
#    y 0.032270 1.768380 0.034110 
#    z 0.016440 0.034110 1.750670 
# 
# From -- ./inp_files/122613.got.cif
#   From: 2010.05.17/outbox.cif.g08.bks.cpg/sg2_62_cif.got.tgz:122613.got - 2010.06.03 11:33:40.
