data_PCOD9075066
_publ_section_title
;
Structure prediction by ZEFSAII (Michael W. Deem and Ramdas Pophale) SiO2 
 PCOD9075066
Probable space group: P -1
;
_chemical_formula_sum "Si O2"
_cell_formula_units_Z 16
_cell_length_a 18.000000
_cell_length_b 6.000000
_cell_length_c 9.000000
_cell_angle_alpha 90.000000
_cell_angle_beta 100.000000
_cell_angle_gamma 50.000000
_cell_volume 725.212580
_symmetry_space_group_name_H-M "P -1"
_symmetry_group_IT_number 2
_symmetry_cell_setting 'triclinic'
loop_
_space_group_symop_operation_xyz
x,y,z
-x,-y,-z
loop_
_atom_site_type_symbol
_atom_site_label
_atom_site_fract_x
_atom_site_fract_y
_atom_site_fract_z
Si Si1 0.445917 0.252268 0.606995
Si Si2 0.947334 0.839115 0.196452
Si Si3 0.251520 0.800223 0.029002
Si Si4 0.845501 0.570402 0.631102
Si Si5 0.430265 0.782405 0.085781
Si Si6 0.328073 0.293011 0.836857
Si Si7 0.887388 0.459298 0.305884
Si Si8 0.742869 0.273153 0.634895
O O1 0.517847 0.261371 0.738609
O O2 0.386900 0.213489 0.705156
O O3 0.359424 0.553663 0.492089
O O4 0.500000 0.000000 0.500000
O O5 0.927515 0.625940 0.262677
O O6 0.066225 0.613838 0.216156
O O7 0.926638 0.132411 0.264574
O O8 0.867809 0.972740 0.034708
O O9 0.321486 0.881079 0.065179
O O10 0.273217 0.652771 0.196041
O O11 0.289325 0.597796 0.895330
O O12 0.896769 0.463735 0.486491
O O13 0.789262 0.432621 0.608537
O O14 0.796083 0.919840 0.632686
O O15 0.500000 0.500000 0.000000
O O16 0.403283 0.053322 0.984467
O O17 0.230464 0.330347 0.775150
#
# Coordination Sequence:
#
# PCOD9075066 Si02
#       8
#     2   2   2   2   2   2   2   2
#     4  12  28  48  75 110 150 198 250 310 382 444
#     4  11  24  45  77 111 142 201 244 306 367 454
#     4  11  27  47  71 106 147 193 254 299 371 451
#     4  12  26  47  74 107 155 190 247 307 383 434
#     4  12  26  44  76 104 142 197 252 304 372 444
#     4  11  24  47  72 102 149 190 247 311 364 442
#     4  11  22  42  77 107 151 185 249 303 374 434
#     4  12  30  47  72 109 155 195 242 316 373 443
#
# _framework density 22.062495999999999
#
# number of rings (size 3 to 8) (size 9 to 14) (size 15 to 20)
#    0.000    0.500    3.750    3.375    8.750    1.500 
#    0.000    0.000    0.000    0.000    0.000    0.000 
#    0.000    0.000    0.000    0.000    0.000    0.000 
#
# Total GULP energy -89132.119525 kJ/mol
# GULP energy per Si atom -5570.757470 kJ/mol
# Density = 2.201228 g / cm^3
# Si number density = 22.062496 Si / 1000 Ang^3
#
#
#
# Elastic Constant Matrix: (Units=GPa)
#
#
# Indices 1 2 3 4 5 6 
#
# 1 79.8247 31.4899 24.9689 -7.9548 32.7256 19.0207
# 2 31.4899 125.3363 29.7024 -2.6735 16.3413 7.3619
# 3 24.9689 29.7024 125.1759 -6.3312 25.0773 -12.6818
# 4 -7.9548 -2.6735 -6.3312 43.4538 -0.0081 13.2506
# 5 32.7256 16.3413 25.0773 -0.0081 53.1162 -11.9456
# 6 19.0207 7.3619 -12.6818 13.2506 -11.9456 36.1479
#
#
#
# Elastic Compliance Matrix: (Units=1/GPa)
#
#
# Indices 1 2 3 4 5 6 
#
# 1 0.035684 -0.002100 -0.003831 0.016438 -0.027345 -0.034755
# 2 -0.002100 0.009186 -0.001697 0.000524 -0.001167 -0.001939
# 3 -0.003831 -0.001697 0.009786 -0.001251 -0.000358 0.006135
# 4 0.016438 0.000524 -0.001251 0.034067 -0.015740 -0.026885
# 5 -0.027345 -0.001167 -0.000358 -0.015740 0.044031 0.034821
# 6 -0.034755 -0.001939 0.006135 -0.026885 0.034821 0.069861
#
#
# Mechanical properties :
#
#
# Convention : Reuss Voigt Hill
#
# Bulk Modulus (GPa) = 25.38142 55.85103 40.61622
# Shear Modulus (GPa) = 21.64463 42.82196 32.23329
#
# Velocity S-wave (km/s) = 3.13559 4.41039 3.82645
# Velocity P-wave (km/s) = 4.96372 7.16277 6.16213
#
# Compressibility (1/GPa) = 0.03939890
#
# Stress axis : x y z
#
# Youngs Moduli (GPa) = 28.02342 108.86720 102.19124
#
# Poissons Ratio (x) = 0.22865 0.39152
# Poissons Ratio (y) = 0.05886 0.17340
# Poissons Ratio (z) = 0.10736 0.18472
#
# Static dielectric constant tensor:
#      x y z
#    x 1.882030 -0.006600 -0.029950 
#    y -0.006600 1.868910 -0.034130 
#    z -0.029950 -0.034130 1.812960 
# 
# From -- ./inp_files/289060.got.cif
#   From: 2010.05.17/outbox.ucp.g08.bks.cvg/sg2_145_cif.got.tgz:289060.got - 2010.06.11 11:32:03.
