data_PCOD9075942
_publ_section_title
;
Structure prediction by ZEFSAII (Michael W. Deem and Ramdas Pophale) SiO2 
 PCOD9075942
Probable space group: P -1
;
_chemical_formula_sum "Si O2"
_cell_formula_units_Z 12
_cell_length_a 12.213674
_cell_length_b 8.824579
_cell_length_c 10.398108
_cell_angle_alpha 40.935358
_cell_angle_beta 127.587097
_cell_angle_gamma 98.082641
_cell_volume 458.049922
_symmetry_space_group_name_H-M "P -1"
_symmetry_group_IT_number 2
_symmetry_cell_setting 'triclinic'
loop_
_space_group_symop_operation_xyz
x,y,z
-x,-y,-z
loop_
_atom_site_type_symbol
_atom_site_label
_atom_site_fract_x
_atom_site_fract_y
_atom_site_fract_z
Si Si1 0.025938 0.309941 0.345496
Si Si2 0.587668 0.005051 0.188985
Si Si3 0.372822 0.783858 0.523263
Si Si4 0.316231 0.589282 0.353394
Si Si5 0.020215 0.145012 0.163691
Si Si6 0.330393 0.345672 0.016650
O O1 0.232120 0.049932 0.683649
O O2 0.978572 0.242487 0.218743
O O3 0.001853 0.607630 0.105524
O O4 0.878830 0.396588 0.289339
O O5 0.664198 0.690449 0.507673
O O6 0.442625 0.246487 0.029397
O O7 0.500000 0.000000 0.000000
O O8 0.325664 0.636333 0.480789
O O9 0.564893 0.605334 0.836984
O O10 0.350720 0.056453 0.263040
O O11 0.228557 0.898695 0.457497
O O12 0.500000 0.500000 0.500000
O O13 0.128969 0.871063 0.987898
#
# Coordination Sequence:
#
# PCOD9075942 Si02
#       6
#     2   2   2   2   2   2
#     4   9  18  33  55  82 108 146 186 224 270 330
#     4  11  23  39  56  80 116 151 182 223 276 334
#     4  10  18  32  57  87 112 138 183 235 279 318
#     4  11  20  33  55  87 112 140 186 234 272 316
#     4   9  17  30  54  85 114 135 181 236 277 315
#     4  10  19  34  59  83 109 148 184 223 278 329
#
# _framework density 26.19802
#
# number of rings (size 3 to 8) (size 9 to 14) (size 15 to 20)
#    0.000    2.000    3.333    1.500    4.667    0.667 
#    0.000    0.833    0.000    2.000    0.000    0.000 
#    0.000    0.000    0.000    0.000    0.000    0.000 
#
# Total GULP energy -67031.509485 kJ/mol
# GULP energy per Si atom -5585.959124 kJ/mol
# Density = 2.613839 g / cm^3
# Si number density = 26.198020 Si / 1000 Ang^3
#
#
#
# Elastic Constant Matrix: (Units=GPa)
#
#
# Indices 1 2 3 4 5 6 
#
# 1 133.3207 27.3087 67.6320 -5.1806 44.7095 -15.2377
# 2 27.3087 40.6707 51.3504 6.0162 31.4119 -10.7091
# 3 67.6320 51.3504 187.1473 17.2588 61.3333 -21.6013
# 4 -5.1806 6.0162 17.2588 50.6662 0.0511 -3.4247
# 5 44.7095 31.4119 61.3333 0.0511 54.1584 -12.7725
# 6 -15.2377 -10.7091 -21.6013 -3.4247 -12.7725 44.5082
#
#
#
# Elastic Compliance Matrix: (Units=1/GPa)
#
#
# Indices 1 2 3 4 5 6 
#
# 1 0.010833 0.000286 -0.001795 0.001765 -0.006822 0.001084
# 2 0.000286 0.050155 -0.006068 -0.003656 -0.021819 0.002678
# 3 -0.001795 -0.006068 0.010031 -0.002819 -0.006165 0.000808
# 4 0.001765 -0.003656 -0.002819 0.021388 0.004114 0.001183
# 5 -0.006822 -0.021819 -0.006165 0.004114 0.044307 0.002454
# 6 0.001084 0.002678 0.000808 0.001183 0.002454 0.024671
#
#
# Mechanical properties :
#
#
# Convention : Reuss Voigt Hill
#
# Bulk Modulus (GPa) = 17.90075 72.63564 45.26819
# Shear Modulus (GPa) = 25.61984 44.18976 34.90480
#
# Velocity S-wave (km/s) = 3.13058 4.11147 3.65409
# Velocity P-wave (km/s) = 4.46263 7.09399 5.92621
#
# Compressibility (1/GPa) = 0.05586358
#
# Stress axis : x y z
#
# Youngs Moduli (GPa) = 92.30964 19.93815 99.69279
#
# Poissons Ratio (x) = -0.00570 0.17899
# Poissons Ratio (y) = -0.02639 0.60496
# Poissons Ratio (z) = 0.16573 0.12099
#
# Static dielectric constant tensor:
#      x y z
#    x 2.146000 -0.077480 0.021620 
#    y -0.077480 3.202550 -0.626630 
#    z 0.021620 -0.626630 2.430590 
# 
# From -- ./inp_files/145625.got.cif
#   From: 2010.05.17/outbox.cif.g08.bks.cpg/sg2_73_cif.got.tgz:145625.got - 2010.06.03 11:33:40.
