data_PCOD9075434
_publ_section_title
;
Structure prediction by ZEFSAII (Michael W. Deem and Ramdas Pophale) SiO2 
 PCOD9075434
Probable space group: P -1
;
_chemical_formula_sum "Si O2"
_cell_formula_units_Z 14
_cell_length_a 12.000000
_cell_length_b 18.000000
_cell_length_c 9.000000
_cell_angle_alpha 50.000000
_cell_angle_beta 40.000000
_cell_angle_gamma 30.000000
_cell_volume 623.501542
_symmetry_space_group_name_H-M "P -1"
_symmetry_group_IT_number 2
_symmetry_cell_setting 'triclinic'
loop_
_space_group_symop_operation_xyz
x,y,z
-x,-y,-z
loop_
_atom_site_type_symbol
_atom_site_label
_atom_site_fract_x
_atom_site_fract_y
_atom_site_fract_z
Si Si1 0.061517 0.545200 0.066608
Si Si2 0.777270 0.012921 0.391005
Si Si3 0.027937 0.876427 0.594105
Si Si4 0.253665 0.147726 0.900461
Si Si5 0.355698 0.437167 0.588428
Si Si6 0.990265 0.128527 0.956294
Si Si7 0.532600 0.430361 0.900281
O O1 0.872590 0.718401 0.036477
O O2 0.863091 0.538758 0.301049
O O3 0.239376 0.473259 0.827723
O O4 0.268283 0.482874 0.064305
O O5 0.501640 0.093005 0.638734
O O6 0.871376 0.085063 0.214543
O O7 0.987180 0.872021 0.467698
O O8 0.774946 0.995667 0.238886
O O9 0.329906 0.722349 0.528769
O O10 0.000000 0.000000 0.500000
O O11 0.772437 0.935325 0.860891
O O12 0.068929 0.183355 0.911012
O O13 0.373261 0.534153 0.367783
O O14 0.760303 0.257143 0.916165
O O15 0.500000 0.500000 0.000000
#
# Coordination Sequence:
#
# PCOD9075434 Si02
#       7
#     2   2   2   2   2   2   2
#     4  11  25  44  72  98 133 178 225 286 330 398
#     4  11  26  44  70  98 138 174 226 276 336 401
#     4  12  23  45  72  96 136 173 223 283 330 396
#     4  12  24  44  70 100 130 178 228 274 339 397
#     4  11  26  46  66 104 135 173 232 276 339 396
#     4  11  25  47  66  99 137 180 217 279 336 403
#     4  12  24  44  71  97 138 175 223 275 339 403
#
# _framework density 22.453834000000001
#
# number of rings (size 3 to 8) (size 9 to 14) (size 15 to 20)
#    0.000    0.571    4.286    3.000    4.000    1.714 
#    2.571    0.000    0.000    0.000    0.000    0.000 
#    0.000    0.000    0.000    0.000    0.000    0.000 
#
# Total GULP energy -77977.210645 kJ/mol
# GULP energy per Si atom -5569.800760 kJ/mol
# Density = 2.240273 g / cm^3
# Si number density = 22.453834 Si / 1000 Ang^3
#
#
#
# Elastic Constant Matrix: (Units=GPa)
#
#
# Indices 1 2 3 4 5 6 
#
# 1 78.1064 -4.9050 18.1870 19.0175 2.3185 -14.8946
# 2 -4.9050 43.1764 36.7670 5.6305 15.7042 -10.2777
# 3 18.1870 36.7670 153.4838 21.2573 -5.4906 -17.1304
# 4 19.0175 5.6305 21.2573 17.8578 -17.4652 12.0715
# 5 2.3185 15.7042 -5.4906 -17.4652 9.0242 13.2271
# 6 -14.8946 -10.2777 -17.1304 12.0715 13.2271 23.3209
#
#
#
# Elastic Compliance Matrix: (Units=1/GPa)
#
#
# Indices 1 2 3 4 5 6 
#
# 1 0.011286 -0.003066 -0.000889 0.002834 0.011278 -0.002660
# 2 -0.003066 0.023590 -0.008805 0.018325 0.005096 -0.010405
# 3 -0.000889 -0.008805 0.010140 -0.006136 0.004691 0.003516
# 4 0.002834 0.018325 -0.006136 0.014514 -0.030435 0.015128
# 5 0.011278 0.005096 0.004691 -0.030435 0.005973 0.025261
# 6 -0.002660 -0.010405 0.003516 0.015128 0.025261 0.017020
#
#
# Mechanical properties :
#
#
# Convention : Reuss Voigt Hill
#
# Bulk Modulus (GPa) = 51.29004 41.65161 46.47082
# Shear Modulus (GPa) = 43.65248 25.02175 34.33711
#
# Velocity S-wave (km/s) = 4.41398 3.34183 3.91478
# Velocity P-wave (km/s) = 6.99068 5.78624 6.41678
#
# Compressibility (1/GPa) = 0.01949696
#
# Stress axis : x y z
#
# Youngs Moduli (GPa) = 88.60925 42.39053 98.62019
#
# Poissons Ratio (x) = 0.12996 0.08765
# Poissons Ratio (y) = 0.27165 0.86833
# Poissons Ratio (z) = 0.07875 0.37324
#
# Static dielectric constant tensor:
#      x y z
#    x 1.974460 0.054470 0.115390 
#    y 0.054470 1.967960 0.058500 
#    z 0.115390 0.058500 1.835030 
# 
# From -- ./inp_files/261905.got.cif
#   From: 2010.05.17/outbox.ucp.g08.bks.cvg/sg2_131_cif.got.tgz:261905.got - 2010.06.11 11:32:03.
