data_PCOD9075716
_publ_section_title
;
Structure prediction by ZEFSAII (Michael W. Deem and Ramdas Pophale) SiO2 
 PCOD9075716
Probable space group: P -1
;
_chemical_formula_sum "Si O2"
_cell_formula_units_Z 16
_cell_length_a 10.890730
_cell_length_b 14.606507
_cell_length_c 8.247196
_cell_angle_alpha 75.307438
_cell_angle_beta 83.364532
_cell_angle_gamma 30.099985
_cell_volume 621.668511
_symmetry_space_group_name_H-M "P -1"
_symmetry_group_IT_number 2
_symmetry_cell_setting 'triclinic'
loop_
_space_group_symop_operation_xyz
x,y,z
-x,-y,-z
loop_
_atom_site_type_symbol
_atom_site_label
_atom_site_fract_x
_atom_site_fract_y
_atom_site_fract_z
Si Si1 0.166835 0.481688 0.942791
Si Si2 0.694792 0.877063 0.269777
Si Si3 0.967110 0.133440 0.481016
Si Si4 0.785159 0.355283 0.723838
Si Si5 0.104893 0.731917 0.916714
Si Si6 0.472692 0.277125 0.435478
Si Si7 0.764487 0.729795 0.667733
Si Si8 0.518151 0.158633 0.830547
O O1 0.442359 0.266263 0.951916
O O2 0.164648 0.581188 0.987932
O O3 0.025797 0.598197 0.742612
O O4 0.000000 0.500000 0.000000
O O5 0.718721 0.804617 0.466739
O O6 0.639990 0.833001 0.164967
O O7 0.943282 0.772259 0.255927
O O8 0.439774 0.103638 0.243188
O O9 0.860462 0.252151 0.278938
O O10 0.812022 0.269627 0.601041
O O11 0.266700 0.950572 0.551278
O O12 0.000000 0.000000 0.500000
O O13 0.579188 0.576550 0.638526
O O14 0.762837 0.316178 0.918687
O O15 0.807676 0.942557 0.885059
O O16 0.261754 0.364181 0.321548
O O17 0.461087 0.257711 0.634584
#
# Coordination Sequence:
#
# PCOD9075716 Si02
#       8
#     2   2   2   2   2   2   2   2
#     4  12  23  33  55  91 139 175 208 249 300 369
#     4  10  18  32  57  85 124 175 207 246 298 363
#     4  11  26  49  71  91 122 162 212 280 338 380
#     4  12  24  40  68  93 127 165 210 263 327 376
#     4  11  25  42  64  98 131 167 218 261 312 384
#     4  10  21  40  64  94 122 167 217 261 319 385
#     4  10  18  32  54  85 128 169 212 244 293 368
#     4  10  21  36  58  88 136 180 213 251 302 368
#
# _framework density 25.737189000000001
#
# number of rings (size 3 to 8) (size 9 to 14) (size 15 to 20)
#    0.000    1.250    2.500    4.500    1.750    5.000 
#    0.000    0.625    0.000    0.000    0.000    0.000 
#    0.000    0.000    0.000    0.000    0.000    0.000 
#
# Total GULP energy -89448.290524 kJ/mol
# GULP energy per Si atom -5590.518158 kJ/mol
# Density = 2.567861 g / cm^3
# Si number density = 25.737189 Si / 1000 Ang^3
#
#
#
# Elastic Constant Matrix: (Units=GPa)
#
#
# Indices 1 2 3 4 5 6 
#
# 1 58.8953 9.4071 33.1598 4.5027 -0.1142 17.0638
# 2 9.4071 101.8611 37.3442 28.5745 5.8875 24.6664
# 3 33.1598 37.3442 149.9767 4.8650 -2.6906 29.9579
# 4 4.5027 28.5745 4.8650 32.2557 7.2881 7.5387
# 5 -0.1142 5.8875 -2.6906 7.2881 21.3672 -2.6289
# 6 17.0638 24.6664 29.9579 7.5387 -2.6289 34.8517
#
#
#
# Elastic Compliance Matrix: (Units=1/GPa)
#
#
# Indices 1 2 3 4 5 6 
#
# 1 0.021210 0.001973 -0.003443 -0.001919 -0.001255 -0.008501
# 2 0.001973 0.015767 -0.002500 -0.011745 -0.001572 -0.007553
# 3 -0.003443 -0.002500 0.008919 0.002353 0.000414 -0.004689
# 4 -0.001919 -0.011745 0.002353 0.044870 -0.012200 -0.003397
# 5 -0.001255 -0.001572 0.000414 -0.012200 0.052421 0.007964
# 6 -0.008501 -0.007553 -0.004689 -0.003397 0.007964 0.043567
#
#
# Mechanical properties :
#
#
# Convention : Reuss Voigt Hill
#
# Bulk Modulus (GPa) = 26.34723 52.28394 39.31559
# Shear Modulus (GPa) = 24.11422 33.08305 28.59864
#
# Velocity S-wave (km/s) = 3.06427 3.58916 3.33705
# Velocity P-wave (km/s) = 4.77273 6.12656 5.49152
#
# Compressibility (1/GPa) = 0.03795466
#
# Stress axis : x y z
#
# Youngs Moduli (GPa) = 47.14776 63.42558 112.11616
#
# Poissons Ratio (x) = -0.12513 0.38601
# Poissons Ratio (y) = -0.09302 0.28034
# Poissons Ratio (z) = 0.16233 0.15859
#
# Static dielectric constant tensor:
#      x y z
#    x 2.126200 -0.084390 0.003740 
#    y -0.084390 2.133250 -0.077960 
#    z 0.003740 -0.077960 2.213260 
# 
# From -- ./inp_files/272901.got.cif
#   From: 2010.05.17/outbox.cif.g08.bks.cpg/sg2_137_cif.got.tgz:272901.got - 2010.06.03 11:33:40.
