data_PCOD9075953
_publ_section_title
;
Structure prediction by ZEFSAII (Michael W. Deem and Ramdas Pophale) SiO2 
 PCOD9075953
Probable space group: P -1
;
_chemical_formula_sum "Si O2"
_cell_formula_units_Z 15
_cell_length_a 9.488681
_cell_length_b 13.496180
_cell_length_c 7.713139
_cell_angle_alpha 142.142261
_cell_angle_beta 68.792861
_cell_angle_gamma 98.742032
_cell_volume 549.506180
_symmetry_space_group_name_H-M "P -1"
_symmetry_group_IT_number 2
_symmetry_cell_setting 'triclinic'
loop_
_space_group_symop_operation_xyz
x,y,z
-x,-y,-z
loop_
_atom_site_type_symbol
_atom_site_label
_atom_site_fract_x
_atom_site_fract_y
_atom_site_fract_z
Si Si1 0.550962 0.027481 0.293613
Si Si2 0.321911 0.457844 0.615504
Si Si3 0.976192 0.129046 0.846506
Si Si4 0.945227 0.202303 0.449625
Si Si5 0.593087 0.344483 0.854026
Si Si6 0.629288 0.163748 0.083076
Si Si7 0.000000 0.500000 0.000000
Si Si8 0.176212 0.280935 0.169063
O O1 0.513678 0.192230 0.651805
O O2 0.621062 0.068973 0.136016
O O3 0.399147 0.960991 0.226252
O O4 0.687406 0.883274 0.107584
O O5 0.476027 0.311251 0.361196
O O6 0.251314 0.428246 0.414434
O O7 0.185512 0.435474 0.774555
O O8 0.380887 0.606587 0.891799
O O9 0.014369 0.991531 0.795770
O O10 0.000000 0.000000 0.500000
O O11 0.793346 0.209808 0.053209
O O12 0.082265 0.263176 0.009844
O O13 0.762995 0.272752 0.597048
O O14 0.978854 0.307789 0.745959
O O15 0.042292 0.270419 0.353867
O O16 0.500000 0.500000 0.000000
#
# Coordination Sequence:
#
# PCOD9075953 Si02
#       8
#     2   2   2   2   2   2   1   2
#     4  10  18  32  57  88 117 143 192 258 304 338
#     4   9  19  33  53  87 120 147 190 243 311 351
#     4  12  24  37  59  89 123 161 202 247 301 362
#     4  10  19  34  58  89 119 150 197 249 303 354
#     4  11  19  28  52  92 121 143 185 252 303 350
#     4  10  20  33  56  88 117 149 197 251 299 353
#     4   8  18  32  56  88 118 148 186 254 300 338
#     4  10  19  37  60  83 112 158 198 253 302 347
#
# _framework density 27.297236999999999
#
# number of rings (size 3 to 8) (size 9 to 14) (size 15 to 20)
#    0.000    1.867    4.000    1.200    1.867    0.000 
#    0.000    2.667    0.000   10.400    0.000    0.000 
#    0.000    0.000    0.000    0.000    0.000    0.000 
#
# Total GULP energy -83664.717434 kJ/mol
# GULP energy per Si atom -5577.647829 kJ/mol
# Density = 2.723511 g / cm^3
# Si number density = 27.297237 Si / 1000 Ang^3
#
#
#
# Elastic Constant Matrix: (Units=GPa)
#
#
# Indices 1 2 3 4 5 6 
#
# 1 202.9193 44.2305 97.4917 13.1806 18.7306 4.1975
# 2 44.2305 49.7031 49.8124 -2.5070 -5.2206 -2.4444
# 3 97.4917 49.8124 150.5385 29.4934 37.5543 -3.3958
# 4 13.1806 -2.5070 29.4934 52.9959 8.6881 10.3188
# 5 18.7306 -5.2206 37.5543 8.6881 86.3331 2.9590
# 6 4.1975 -2.4444 -3.3958 10.3188 2.9590 35.5627
#
#
#
# Elastic Compliance Matrix: (Units=1/GPa)
#
#
# Indices 1 2 3 4 5 6 
#
# 1 0.007473 -0.002487 -0.004197 0.000674 0.000043 -0.001653
# 2 -0.002487 0.039321 -0.015627 0.010162 0.008767 -0.002174
# 3 -0.004197 -0.015627 0.018307 -0.009591 -0.007189 0.004550
# 4 0.000674 0.010162 -0.009591 0.025685 0.002328 -0.007943
# 5 0.000043 0.008767 -0.007189 0.002328 0.015066 -0.002018
# 6 -0.001653 -0.002174 0.004550 -0.007943 -0.002018 0.031072
#
#
# Mechanical properties :
#
#
# Convention : Reuss Voigt Hill
#
# Bulk Modulus (GPa) = 48.83209 87.35888 68.09548
# Shear Modulus (GPa) = 26.54325 49.08677 37.81501
#
# Velocity S-wave (km/s) = 3.12168 4.24516 3.72601
# Velocity P-wave (km/s) = 5.56067 7.49005 6.59628
#
# Compressibility (1/GPa) = 0.02047834
#
# Stress axis : x y z
#
# Youngs Moduli (GPa) = 133.81699 25.43179 54.62483
#
# Poissons Ratio (x) = 0.06325 0.22924
# Poissons Ratio (y) = 0.33280 0.85364
# Poissons Ratio (z) = 0.56158 0.39743
#
# Static dielectric constant tensor:
#      x y z
#    x 2.158040 0.016040 0.150430 
#    y 0.016040 2.260190 -0.073830 
#    z 0.150430 -0.073830 2.208010 
# 
# From -- ./inp_files/221467.got.cif
#   From: 2010.05.17/outbox.cif.g08.bks.cpg/sg2_111_cif.got.tgz:221467.got - 2010.06.03 11:33:40.
