data_PCOD9075420
_publ_section_title
;
Structure prediction by ZEFSAII (Michael W. Deem and Ramdas Pophale) SiO2 
 PCOD9075420
Probable space group: P -1
;
_chemical_formula_sum "Si O2"
_cell_formula_units_Z 16
_cell_length_a 12.000000
_cell_length_b 9.000000
_cell_length_c 15.000000
_cell_angle_alpha 70.000000
_cell_angle_beta 130.000000
_cell_angle_gamma 140.000000
_cell_volume 759.581896
_symmetry_space_group_name_H-M "P -1"
_symmetry_group_IT_number 2
_symmetry_cell_setting 'triclinic'
loop_
_space_group_symop_operation_xyz
x,y,z
-x,-y,-z
loop_
_atom_site_type_symbol
_atom_site_label
_atom_site_fract_x
_atom_site_fract_y
_atom_site_fract_z
Si Si1 0.009860 0.839302 0.090911
Si Si2 0.532282 0.717126 0.666336
Si Si3 0.834900 0.510418 0.898449
Si Si4 0.086096 0.459348 0.731559
Si Si5 0.356944 0.722936 0.406181
Si Si6 0.367319 0.988860 0.686780
Si Si7 0.959148 0.797429 0.408682
Si Si8 0.172982 0.266539 0.311559
O O1 0.891467 0.667865 0.156793
O O2 0.277267 0.062699 0.211105
O O3 0.879588 0.633308 0.989869
O O4 0.000000 0.000000 0.000000
O O5 0.465739 0.797277 0.544406
O O6 0.300299 0.445767 0.640839
O O7 0.665831 0.703526 0.675220
O O8 0.923381 0.691888 0.823117
O O9 0.574617 0.242286 0.798003
O O10 0.000000 0.500000 0.000000
O O11 0.273265 0.749294 0.736776
O O12 0.019313 0.316224 0.635071
O O13 0.881075 0.388836 0.682000
O O14 0.303991 0.497298 0.394864
O O15 0.508169 0.921422 0.364222
O O16 0.143631 0.907342 0.558929
O O17 0.026151 0.021109 0.347421
#
# Coordination Sequence:
#
# PCOD9075420 Si02
#       8
#     2   2   2   2   2   2   2   2
#     4  12  25  49  73  97 145 197 245 289 345 424
#     4  12  25  44  76 107 145 188 231 299 361 426
#     4  11  26  47  74 100 142 200 241 290 351 423
#     4  12  26  46  73 112 142 188 239 301 361 425
#     4  11  25  43  77 106 149 184 229 304 374 421
#     4  11  25  45  73 109 147 179 237 298 361 431
#     4  12  26  43  78 113 144 180 240 301 371 425
#     4  11  24  49  71 106 149 188 237 297 362 428
#
# _framework density 21.064219999999999
#
# number of rings (size 3 to 8) (size 9 to 14) (size 15 to 20)
#    0.000    0.500    5.000    2.250    5.250    4.000 
#    2.250    1.250    0.000    0.000    0.000    0.000 
#    0.000    0.000    0.000    0.000    0.000    0.000 
#
# Total GULP energy -89136.468090 kJ/mol
# GULP energy per Si atom -5571.029256 kJ/mol
# Density = 2.101628 g / cm^3
# Si number density = 21.064220 Si / 1000 Ang^3
#
#
#
# Elastic Constant Matrix: (Units=GPa)
#
#
# Indices 1 2 3 4 5 6 
#
# 1 71.5913 46.5445 27.9705 3.9707 -4.9154 9.1935
# 2 46.5445 210.3558 67.8756 -13.5713 1.8313 27.8379
# 3 27.9705 67.8756 171.2980 4.0893 -16.6592 0.6249
# 4 3.9707 -13.5713 4.0893 62.6234 -7.1580 -4.8596
# 5 -4.9154 1.8313 -16.6592 -7.1580 35.4353 1.2615
# 6 9.1935 27.8379 0.6249 -4.8596 1.2615 50.2092
#
#
#
# Elastic Compliance Matrix: (Units=1/GPa)
#
#
# Indices 1 2 3 4 5 6 
#
# 1 0.016986 -0.003271 -0.001272 -0.001629 0.001651 -0.001480
# 2 -0.003271 0.006707 -0.002291 0.001414 -0.001488 -0.002917
# 3 -0.001272 -0.002291 0.007273 -0.000421 0.003230 0.001291
# 4 -0.001629 0.001414 -0.000421 0.016816 0.002861 0.001075
# 5 0.001651 -0.001488 0.003230 0.002861 0.030623 -0.000010
# 6 -0.001480 -0.002917 0.001291 0.001075 -0.000010 0.021893
#
#
# Mechanical properties :
#
#
# Convention : Reuss Voigt Hill
#
# Bulk Modulus (GPa) = 57.81815 82.00291 69.91053
# Shear Modulus (GPa) = 41.75903 50.37722 46.06812
#
# Velocity S-wave (km/s) = 4.45732 4.89571 4.68164
# Velocity P-wave (km/s) = 7.34835 8.42447 7.90475
#
# Compressibility (1/GPa) = 0.01729561
#
# Stress axis : x y z
#
# Youngs Moduli (GPa) = 58.87226 149.09147 137.49529
#
# Poissons Ratio (x) = 0.48775 0.17495
# Poissons Ratio (y) = 0.19260 0.31505
# Poissons Ratio (z) = 0.07491 0.34162
#
# Static dielectric constant tensor:
#      x y z
#    x 4.613520 -1.744580 -0.999870 
#    y -1.744580 2.837340 0.596720 
#    z -0.999870 0.596720 2.159360 
# 
# From -- ./inp_files/515421.got.cif
#   From: 2010.05.17/outbox.ucp.g08.bks.cvg/sg2_258_cif.got.tgz:515421.got - 2010.06.11 11:32:03.
