data_PCOD9075640
_publ_section_title
;
Structure prediction by ZEFSAII (Michael W. Deem and Ramdas Pophale) SiO2 
 PCOD9075640
Probable space group: P -1
;
_chemical_formula_sum "Si O2"
_cell_formula_units_Z 14
_cell_length_a 9.000000
_cell_length_b 9.000000
_cell_length_c 12.000000
_cell_angle_alpha 120.000000
_cell_angle_beta 110.000000
_cell_angle_gamma 110.000000
_cell_volume 614.029152
_symmetry_space_group_name_H-M "P -1"
_symmetry_group_IT_number 2
_symmetry_cell_setting 'triclinic'
loop_
_space_group_symop_operation_xyz
x,y,z
-x,-y,-z
loop_
_atom_site_type_symbol
_atom_site_label
_atom_site_fract_x
_atom_site_fract_y
_atom_site_fract_z
Si Si1 0.568826 0.752057 0.840533
Si Si2 0.178828 0.990101 0.546317
Si Si3 0.197975 0.398181 0.285084
Si Si4 0.102715 0.391811 0.510677
Si Si5 0.409259 0.082799 0.425976
Si Si6 0.796212 0.209255 0.960787
Si Si7 0.495647 0.295388 0.935566
O O1 0.706108 0.703898 0.791462
O O2 0.334507 0.556381 0.675151
O O3 0.640429 0.986483 0.906858
O O4 0.589992 0.778376 0.988986
O O5 0.266096 0.072596 0.476064
O O6 0.354978 0.132407 0.737188
O O7 0.000000 0.000000 0.500000
O O8 0.044059 0.748096 0.473287
O O9 0.111646 0.306859 0.355769
O O10 0.392933 0.661711 0.454416
O O11 0.017777 0.338589 0.128770
O O12 0.000000 0.500000 0.500000
O O13 0.500000 0.000000 0.500000
O O14 0.266576 0.907573 0.224066
O O15 0.711693 0.345291 0.997517
O O16 0.500000 0.500000 0.000000
#
# Coordination Sequence:
#
# PCOD9075640 Si02
#       7
#     2   2   2   2   2   2   2
#     4  12  26  48  79 113 155 195 261 318 371 460
#     4  12  27  45  73 108 155 196 244 314 382 447
#     4  12  27  48  82 114 150 203 258 314 381 451
#     4  12  24  47  77 111 148 202 251 308 381 448
#     4  12  26  50  75 113 156 196 257 314 380 451
#     4  12  27  50  80 109 154 203 253 318 381 452
#     4  12  26  49  71 113 152 197 255 315 382 458
#
# _framework density 22.800219999999999
#
# number of rings (size 3 to 8) (size 9 to 14) (size 15 to 20)
#    0.000    0.000    2.857    7.286    4.000    1.714 
#    2.571    0.000    0.000    0.000    0.000    0.000 
#    0.000    0.000    0.000    0.000    0.000    0.000 
#
# Total GULP energy -78036.567944 kJ/mol
# GULP energy per Si atom -5574.040567 kJ/mol
# Density = 2.274833 g / cm^3
# Si number density = 22.800220 Si / 1000 Ang^3
#
#
#
# Elastic Constant Matrix: (Units=GPa)
#
#
# Indices 1 2 3 4 5 6 
#
# 1 106.4127 -9.3247 45.0217 -1.6754 8.1117 1.0364
# 2 -9.3247 88.7483 15.8885 -8.8035 -2.8121 6.8199
# 3 45.0217 15.8885 125.6820 -26.5148 3.8223 17.7133
# 4 -1.6754 -8.8035 -26.5148 48.1309 11.5186 -7.1482
# 5 8.1117 -2.8121 3.8223 11.5186 46.5061 -12.5849
# 6 1.0364 6.8199 17.7133 -7.1482 -12.5849 43.5114
#
#
#
# Elastic Compliance Matrix: (Units=1/GPa)
#
#
# Indices 1 2 3 4 5 6 
#
# 1 0.011636 0.001835 -0.004830 -0.001575 -0.000892 0.000885
# 2 0.001835 0.011970 -0.001794 0.001115 0.000003 -0.001006
# 3 -0.004830 -0.001794 0.011898 0.006120 -0.002920 -0.004286
# 4 -0.001575 0.001115 0.006120 0.025842 -0.006644 -0.000305
# 5 -0.000892 0.000003 -0.002920 -0.006644 0.025578 0.007516
# 6 0.000885 -0.001006 -0.004286 -0.000305 0.007516 0.026988
#
#
# Mechanical properties :
#
#
# Convention : Reuss Voigt Hill
#
# Bulk Modulus (GPa) = 38.57162 47.11267 42.84214
# Shear Modulus (GPa) = 37.84126 45.58019 41.71072
#
# Velocity S-wave (km/s) = 4.07835 4.47599 4.28179
# Velocity P-wave (km/s) = 6.25549 6.88628 6.57845
#
# Compressibility (1/GPa) = 0.02592580
#
# Stress axis : x y z
#
# Youngs Moduli (GPa) = 85.93762 83.54429 84.05009
#
# Poissons Ratio (x) = -0.15329 0.40598
# Poissons Ratio (y) = -0.15768 0.15075
# Poissons Ratio (z) = 0.41510 0.14984
#
# Static dielectric constant tensor:
#      x y z
#    x 1.674620 -0.173490 0.050800 
#    y -0.173490 1.798740 0.045020 
#    z 0.050800 0.045020 1.804880 
# 
# From -- ./inp_files/176452.got.cif
#   From: 2010.05.17/outbox.ucp.g08.bks.cvg/sg2_89_cif.got.tgz:176452.got - 2010.06.11 11:32:03.
