data_PCOD9075388
_publ_section_title
;
Structure prediction by ZEFSAII (Michael W. Deem and Ramdas Pophale) SiO2 
 PCOD9075388
Probable space group: P -1
;
_chemical_formula_sum "Si O2"
_cell_formula_units_Z 14
_cell_length_a 15.000000
_cell_length_b 12.000000
_cell_length_c 9.000000
_cell_angle_alpha 120.000000
_cell_angle_beta 30.000000
_cell_angle_gamma 130.000000
_cell_volume 613.666794
_symmetry_space_group_name_H-M "P -1"
_symmetry_group_IT_number 2
_symmetry_cell_setting 'triclinic'
loop_
_space_group_symop_operation_xyz
x,y,z
-x,-y,-z
loop_
_atom_site_type_symbol
_atom_site_label
_atom_site_fract_x
_atom_site_fract_y
_atom_site_fract_z
Si Si1 0.817787 0.082594 0.756771
Si Si2 0.578085 0.359668 0.689270
Si Si3 0.099847 0.912258 0.710066
Si Si4 0.723839 0.769834 0.699178
Si Si5 0.689828 0.560823 0.376494
Si Si6 0.507706 0.098222 0.414651
Si Si7 0.017654 0.592591 0.691438
O O1 0.871763 0.087021 0.507992
O O2 0.038096 0.159058 0.563815
O O3 0.682314 0.908074 0.864989
O O4 0.700067 0.154378 0.062700
O O5 0.658914 0.489797 0.538263
O O6 0.486324 0.225241 0.614950
O O7 0.768447 0.371125 0.516765
O O8 0.410015 0.334847 0.040906
O O9 0.003630 0.739484 0.770553
O O10 0.323101 0.995179 0.509782
O O11 0.000000 0.000000 0.000000
O O12 0.709682 0.714801 0.512746
O O13 0.500000 0.500000 0.500000
O O14 0.854768 0.536579 0.026733
O O15 0.500000 0.000000 0.500000
O O16 0.000000 0.500000 0.500000
#
# Coordination Sequence:
#
# PCOD9075388 Si02
#       7
#     2   2   2   2   2   2   2
#     4  11  25  42  75 104 141 184 230 300 351 427
#     4  12  26  47  74 100 147 193 233 298 356 431
#     4  12  27  45  76 105 145 187 239 297 353 425
#     4  11  24  46  71 107 141 180 239 289 365 418
#     4  12  29  45  72 103 143 190 241 293 357 428
#     4  12  24  46  71 105 141 182 238 289 360 421
#     4  12  28  49  72 107 147 191 243 292 360 429
#
# _framework density 22.813683000000001
#
# number of rings (size 3 to 8) (size 9 to 14) (size 15 to 20)
#    0.000    0.286    2.857    4.714   12.000    0.000 
#    0.000    0.000    0.000    0.000    0.000    0.000 
#    0.000    0.000    0.000    0.000    0.000    0.000 
#
# Total GULP energy -78039.890480 kJ/mol
# GULP energy per Si atom -5574.277891 kJ/mol
# Density = 2.276176 g / cm^3
# Si number density = 22.813683 Si / 1000 Ang^3
#
#
#
# Elastic Constant Matrix: (Units=GPa)
#
#
# Indices 1 2 3 4 5 6 
#
# 1 120.3816 30.8938 34.2767 7.5382 26.6812 37.7407
# 2 30.8938 78.4779 39.6675 17.3590 15.4379 17.7979
# 3 34.2767 39.6675 151.5275 23.6657 37.2260 15.0538
# 4 7.5382 17.3590 23.6657 34.0106 10.9784 17.6649
# 5 26.6812 15.4379 37.2260 10.9784 46.7469 4.2359
# 6 37.7407 17.7979 15.0538 17.6649 4.2359 55.1190
#
#
#
# Elastic Compliance Matrix: (Units=1/GPa)
#
#
# Indices 1 2 3 4 5 6 
#
# 1 0.013257 -0.002770 -0.000623 0.005959 -0.006702 -0.009407
# 2 -0.002770 0.016698 -0.002701 -0.005369 -0.000431 -0.001004
# 3 -0.000623 -0.002701 0.009261 -0.003323 -0.005369 0.000247
# 4 0.005959 -0.005369 -0.003323 0.043301 -0.007818 -0.014715
# 5 -0.006702 -0.000431 -0.005369 -0.007818 0.030898 0.006326
# 6 -0.009407 -0.001004 0.000247 -0.014715 0.006326 0.029070
#
#
# Mechanical properties :
#
#
# Convention : Reuss Voigt Hill
#
# Bulk Modulus (GPa) = 36.99788 62.22921 49.61355
# Shear Modulus (GPa) = 30.54717 43.54523 37.04620
#
# Velocity S-wave (km/s) = 3.66318 4.37364 4.03408
# Velocity P-wave (km/s) = 5.84333 7.26921 6.59492
#
# Compressibility (1/GPa) = 0.02702858
#
# Stress axis : x y z
#
# Youngs Moduli (GPa) = 75.43320 59.88778 107.98137
#
# Poissons Ratio (x) = 0.16588 0.06729
# Poissons Ratio (y) = 0.20894 0.29160
# Poissons Ratio (z) = 0.04701 0.16173
#
# Static dielectric constant tensor:
#      x y z
#    x 1.820460 -0.116660 -0.001590 
#    y -0.116660 2.121830 -0.020420 
#    z -0.001590 -0.020420 1.908110 
# 
# From -- ./inp_files/160250.got.cif
#   From: 2010.05.17/outbox.ucp.g08.bks.cvg/sg2_81_cif.got.tgz:160250.got - 2010.06.11 11:32:03.
