data_PCOD9075296
_publ_section_title
;
Structure prediction by ZEFSAII (Michael W. Deem and Ramdas Pophale) SiO2 
 PCOD9075296
Probable space group: P -1
;
_chemical_formula_sum "Si O2"
_cell_formula_units_Z 16
_cell_length_a 9.000000
_cell_length_b 9.000000
_cell_length_c 21.000000
_cell_angle_alpha 120.000000
_cell_angle_beta 50.000000
_cell_angle_gamma 80.000000
_cell_volume 751.240448
_symmetry_space_group_name_H-M "P -1"
_symmetry_group_IT_number 2
_symmetry_cell_setting 'triclinic'
loop_
_space_group_symop_operation_xyz
x,y,z
-x,-y,-z
loop_
_atom_site_type_symbol
_atom_site_label
_atom_site_fract_x
_atom_site_fract_y
_atom_site_fract_z
Si Si1 0.272505 0.606218 0.820913
Si Si2 0.765531 0.167353 0.779593
Si Si3 0.883487 0.299470 0.895694
Si Si4 0.884976 0.220596 0.626023
Si Si5 0.761435 0.691391 0.441497
Si Si6 0.761063 0.012215 0.144160
Si Si7 0.788058 0.708311 0.291412
Si Si8 0.114599 0.309150 0.368466
O O1 0.545840 0.470741 0.760434
O O2 0.228222 0.788037 0.821501
O O3 0.340173 0.380082 0.722021
O O4 0.991041 0.786670 0.981780
O O5 0.864336 0.149611 0.820503
O O6 0.929075 0.159924 0.676057
O O7 0.820056 0.936125 0.694406
O O8 0.427300 0.451092 0.933558
O O9 0.947922 0.410023 0.851746
O O10 0.129713 0.117986 0.843620
O O11 0.056457 0.274512 0.571323
O O12 0.000000 0.000000 0.500000
O O13 0.855657 0.613867 0.325277
O O14 0.872497 0.474008 0.413146
O O15 0.435499 0.983257 0.588149
O O16 0.442977 0.165891 0.241072
O O17 0.000000 0.500000 0.500000
#
# Coordination Sequence:
#
# PCOD9075296 Si02
#       8
#     2   2   2   2   2   2   2   2
#     4  11  24  41  67  96 128 171 217 269 325 385
#     4  11  26  43  68  98 130 178 215 269 332 388
#     4  11  24  46  66  96 135 171 220 268 328 398
#     4  12  21  43  69  93 130 174 221 267 323 391
#     4  11  24  43  63  96 132 166 223 264 323 397
#     4  11  25  42  64  99 130 168 220 269 325 387
#     4  11  24  43  67  94 128 176 213 268 328 388
#     4  12  26  44  65  98 133 173 219 273 329 385
#
# _framework density 21.298107999999999
#
# number of rings (size 3 to 8) (size 9 to 14) (size 15 to 20)
#    0.000    0.750    5.000    2.250    3.500    1.000 
#    0.000    2.500    0.000    0.000    0.000    0.000 
#    0.000    0.000    0.000    0.000    0.000    0.000 
#
# Total GULP energy -89233.574921 kJ/mol
# GULP energy per Si atom -5577.098433 kJ/mol
# Density = 2.124963 g / cm^3
# Si number density = 21.298108 Si / 1000 Ang^3
#
#
#
# Elastic Constant Matrix: (Units=GPa)
#
#
# Indices 1 2 3 4 5 6 
#
# 1 62.7696 18.8136 -0.4307 11.1794 -0.6149 -10.2744
# 2 18.8136 61.9178 21.9426 0.8773 18.2024 -20.7524
# 3 -0.4307 21.9426 69.6488 10.7662 -7.7320 -3.1284
# 4 11.1794 0.8773 10.7662 23.7976 -0.6477 -0.4308
# 5 -0.6149 18.2024 -7.7320 -0.6477 29.5021 7.6001
# 6 -10.2744 -20.7524 -3.1284 -0.4308 7.6001 42.9604
#
#
#
# Elastic Compliance Matrix: (Units=1/GPa)
#
#
# Indices 1 2 3 4 5 6 
#
# 1 0.021904 -0.013194 0.007379 -0.012893 0.010934 -0.002661
# 2 -0.013194 0.048769 -0.021009 0.013230 -0.042409 0.026508
# 3 0.007379 -0.021009 0.025111 -0.013642 0.022130 -0.010607
# 4 -0.012893 0.013230 -0.013642 0.053522 -0.012119 0.004995
# 5 0.010934 -0.042409 0.022130 -0.012119 0.073388 -0.029364
# 6 -0.002661 0.026508 -0.010607 0.004995 -0.029364 0.039918
#
#
# Mechanical properties :
#
#
# Convention : Reuss Voigt Hill
#
# Bulk Modulus (GPa) = 23.73173 30.55412 27.14292
# Shear Modulus (GPa) = 15.13751 29.51941 22.32846
#
# Velocity S-wave (km/s) = 2.66887 3.72696 3.24138
# Velocity P-wave (km/s) = 4.54577 5.73562 5.17500
#
# Compressibility (1/GPa) = 0.04213768
#
# Stress axis : x y z
#
# Youngs Moduli (GPa) = 45.65323 20.50489 39.82293
#
# Poissons Ratio (x) = 0.27055 -0.29387
# Poissons Ratio (y) = 0.60236 0.83662
# Poissons Ratio (z) = -0.33689 0.43078
#
# Static dielectric constant tensor:
#      x y z
#    x 1.785920 0.019870 -0.030160 
#    y 0.019870 1.848890 0.034330 
#    z -0.030160 0.034330 1.804790 
# 
# From -- ./inp_files/185054.got.cif
#   From: 2010.05.17/outbox.ucp.g08.bks.cvg/sg2_93_cif.got.tgz:185054.got - 2010.06.11 11:32:03.
