data_PCOD9075975
_publ_section_title
;
Structure prediction by ZEFSAII (Michael W. Deem and Ramdas Pophale) SiO2 
 PCOD9075975
Probable space group: P -1
;
_chemical_formula_sum "Si O2"
_cell_formula_units_Z 16
_cell_length_a 8.581123
_cell_length_b 16.223729
_cell_length_c 7.735178
_cell_angle_alpha 100.611436
_cell_angle_beta 124.971731
_cell_angle_gamma 54.487611
_cell_volume 700.187489
_symmetry_space_group_name_H-M "P -1"
_symmetry_group_IT_number 2
_symmetry_cell_setting 'triclinic'
loop_
_space_group_symop_operation_xyz
x,y,z
-x,-y,-z
loop_
_atom_site_type_symbol
_atom_site_label
_atom_site_fract_x
_atom_site_fract_y
_atom_site_fract_z
Si Si1 0.685293 0.025579 0.946768
Si Si2 0.270154 0.515148 0.430611
Si Si3 0.356454 0.603121 0.826683
Si Si4 0.949487 0.689478 0.802330
Si Si5 0.186412 0.444667 0.904979
Si Si6 0.454080 0.130913 0.175782
Si Si7 0.608019 0.682371 0.368859
Si Si8 0.771430 0.104427 0.687633
O O1 0.710091 0.052620 0.777980
O O2 0.579942 0.959644 0.851528
O O3 0.530418 0.120998 0.020312
O O4 0.948455 0.958420 0.168284
O O5 0.500000 0.500000 0.500000
O O6 0.215406 0.587372 0.588820
O O7 0.351903 0.404395 0.509148
O O8 0.034044 0.557323 0.188467
O O9 0.159730 0.692331 0.862596
O O10 0.500000 0.500000 0.000000
O O11 0.558386 0.606816 0.864642
O O12 0.795957 0.762004 0.891905
O O13 0.756991 0.723220 0.544285
O O14 0.069146 0.567004 0.856350
O O15 0.285225 0.380329 0.763894
O O16 0.648289 0.114921 0.429835
O O17 0.343076 0.781664 0.261427
#
# Coordination Sequence:
#
# PCOD9075975 Si02
#       8
#     2   2   2   2   2   2   2   2
#     4  10  22  41  62  93 119 161 202 261 312 366
#     4  11  21  36  55  83 125 156 196 249 293 347
#     4  10  18  32  58  80 110 161 199 228 290 354
#     4   9  17  33  61  84 114 160 196 237 292 361
#     4  10  19  35  60  80 119 161 197 229 290 364
#     4  10  21  38  66  89 125 153 203 256 312 361
#     4  10  18  37  60  85 115 169 197 236 300 366
#     4  10  22  39  66  89 123 160 207 249 314 367
#
# _framework density 22.851019000000001
#
# number of rings (size 3 to 8) (size 9 to 14) (size 15 to 20)
#    0.000    2.000    3.750    1.500    1.750    0.500 
#    0.000    8.750    2.750    0.000    0.000    0.000 
#    0.000    0.000    0.000    0.000    0.000    0.000 
#
# Total GULP energy -89185.652455 kJ/mol
# GULP energy per Si atom -5574.103278 kJ/mol
# Density = 2.279901 g / cm^3
# Si number density = 22.851019 Si / 1000 Ang^3
#
#
#
# Elastic Constant Matrix: (Units=GPa)
#
#
# Indices 1 2 3 4 5 6 
#
# 1 79.5618 11.3756 20.3256 -1.5213 30.3316 -25.9550
# 2 11.3756 91.7863 13.1650 8.5605 7.8849 -37.0063
# 3 20.3256 13.1650 75.6654 12.9491 24.8737 2.6241
# 4 -1.5213 8.5605 12.9491 25.9930 -3.8359 4.1347
# 5 30.3316 7.8849 24.8737 -3.8359 39.5720 -4.2854
# 6 -25.9550 -37.0063 2.6241 4.1347 -4.2854 40.1791
#
#
#
# Elastic Compliance Matrix: (Units=1/GPa)
#
#
# Indices 1 2 3 4 5 6 
#
# 1 0.027168 0.009361 -0.002220 -0.007210 -0.019285 0.025001
# 2 0.009361 0.023106 -0.002956 -0.011194 -0.007993 0.027821
# 3 -0.002220 -0.002956 0.020194 -0.010078 -0.011999 -0.005719
# 4 -0.007210 -0.011194 -0.010078 0.052135 0.017213 -0.017839
# 5 -0.019285 -0.007993 -0.011999 0.017213 0.049170 -0.015563
# 6 0.025001 0.027821 -0.005719 -0.017839 -0.015563 0.067213
#
#
# Mechanical properties :
#
#
# Convention : Reuss Voigt Hill
#
# Bulk Modulus (GPa) = 12.68451 37.41621 25.05036
# Shear Modulus (GPa) = 19.46310 34.62532 27.04421
#
# Velocity S-wave (km/s) = 2.92162 3.89686 3.44394
# Velocity P-wave (km/s) = 4.11633 6.05449 5.17692
#
# Compressibility (1/GPa) = 0.07883629
#
# Stress axis : x y z
#
# Youngs Moduli (GPa) = 36.80807 43.27824 49.51926
#
# Poissons Ratio (x) = -0.40511 0.10995
# Poissons Ratio (y) = -0.34454 0.14639
# Poissons Ratio (z) = 0.08172 0.12794
#
# Static dielectric constant tensor:
#      x y z
#    x 1.969990 -0.039700 0.010560 
#    y -0.039700 1.892720 0.021290 
#    z 0.010560 0.021290 1.906740 
# 
# From -- ./inp_files/218107.got.cif
#   From: 2010.05.17/outbox.cif.g08.bks.cpg/sg2_110_cif.got.tgz:218107.got - 2010.06.03 11:33:40.
