data_PCOD9075013
_publ_section_title
;
Structure prediction by ZEFSAII (Michael W. Deem and Ramdas Pophale) SiO2 
 PCOD9075013
Probable space group: P -1
;
_chemical_formula_sum "Si O2"
_cell_formula_units_Z 16
_cell_length_a 10.893457
_cell_length_b 7.212422
_cell_length_c 18.713554
_cell_angle_alpha 143.578777
_cell_angle_beta 129.717438
_cell_angle_gamma 60.268267
_cell_volume 670.930872
_symmetry_space_group_name_H-M "P -1"
_symmetry_group_IT_number 2
_symmetry_cell_setting 'triclinic'
loop_
_space_group_symop_operation_xyz
x,y,z
-x,-y,-z
loop_
_atom_site_type_symbol
_atom_site_label
_atom_site_fract_x
_atom_site_fract_y
_atom_site_fract_z
Si Si1 0.083448 0.890300 0.382027
Si Si2 0.246263 0.813638 0.056145
Si Si3 0.880260 0.626567 0.883606
Si Si4 0.823642 0.737581 0.343474
Si Si5 0.703503 0.850505 0.102898
Si Si6 0.293965 0.870143 0.248065
Si Si7 0.963969 0.773516 0.666528
Si Si8 0.523053 0.404940 0.184585
O O1 0.131107 0.596883 0.260521
O O2 0.904348 0.833078 0.328702
O O3 0.188385 0.976106 0.516939
O O4 0.086157 0.186470 0.421804
O O5 0.330349 0.918105 0.193307
O O6 0.236937 0.086064 0.079574
O O7 0.303751 0.469193 0.953667
O O8 0.060517 0.761046 0.994578
O O9 0.835338 0.408145 0.865418
O O10 0.956950 0.524513 0.363726
O O11 0.661485 0.534388 0.222475
O O12 0.886718 0.966529 0.192993
O O13 0.607601 0.149649 0.185537
O O14 0.613669 0.754933 0.965936
O O15 0.449531 0.708802 0.288342
O O16 0.198866 0.157894 0.331114
#
# Coordination Sequence:
#
# PCOD9075013 Si02
#       8
#     2   2   2   2   2   2   2   2
#     4  10  20  37  58  80 107 139 195 232 263 315
#     4  10  18  32  53  79 115 138 178 223 270 320
#     4  10  20  32  53  88 103 139 186 230 265 316
#     4  10  21  38  58  78 107 150 182 231 272 318
#     4   9  17  35  51  79 116 143 177 220 266 329
#     4  10  19  34  56  80 115 142 174 227 274 326
#     4  10  19  35  60  85 104 141 190 227 266 324
#     4   9  20  34  54  83 114 149 178 214 289 332
#
# _framework density 23.847463999999999
#
# number of rings (size 3 to 8) (size 9 to 14) (size 15 to 20)
#    0.000    2.250    2.500    1.500    1.750    0.000 
#    9.000    8.750    0.000   12.000    0.000    0.000 
#    0.000    0.000    0.000    0.000    0.000    0.000 
#
# Total GULP energy -89176.139442 kJ/mol
# GULP energy per Si atom -5573.508715 kJ/mol
# Density = 2.379319 g / cm^3
# Si number density = 23.847464 Si / 1000 Ang^3
#
#
#
# Elastic Constant Matrix: (Units=GPa)
#
#
# Indices 1 2 3 4 5 6 
#
# 1 51.1828 9.6670 11.0500 -1.1124 -7.7624 -13.0915
# 2 9.6670 104.4736 4.7980 25.4351 -15.8546 -15.8129
# 3 11.0500 4.7980 47.7451 1.7153 -12.3935 -0.6476
# 4 -1.1124 25.4351 1.7153 24.2209 1.1414 -8.0436
# 5 -7.7624 -15.8546 -12.3935 1.1414 22.1027 7.7316
# 6 -13.0915 -15.8129 -0.6476 -8.0436 7.7316 45.3760
#
#
#
# Elastic Compliance Matrix: (Units=1/GPa)
#
#
# Indices 1 2 3 4 5 6 
#
# 1 0.023009 -0.002131 -0.004927 0.005799 0.001162 0.006655
# 2 -0.002131 0.015950 0.003023 -0.017854 0.013476 -0.000474
# 3 -0.004927 0.003023 0.026440 -0.007488 0.017133 -0.004237
# 4 0.005799 -0.017854 -0.007488 0.065430 -0.022094 0.010707
# 5 0.001162 0.013476 0.017133 -0.022094 0.069747 -0.010525
# 6 0.006655 -0.000474 -0.004237 0.010707 -0.010525 0.027424
#
#
# Mechanical properties :
#
#
# Convention : Reuss Voigt Hill
#
# Bulk Modulus (GPa) = 17.44319 28.27016 22.85667
# Shear Modulus (GPa) = 19.59411 30.19902 24.89656
#
# Velocity S-wave (km/s) = 2.86954 3.56243 3.23459
# Velocity P-wave (km/s) = 4.27895 5.36670 4.85340
#
# Compressibility (1/GPa) = 0.05732896
#
# Stress axis : x y z
#
# Youngs Moduli (GPa) = 43.46209 62.69484 37.82167
#
# Poissons Ratio (x) = 0.13359 0.18636
# Poissons Ratio (y) = 0.09261 -0.11435
# Poissons Ratio (z) = 0.21416 -0.18955
#
# Static dielectric constant tensor:
#      x y z
#    x 1.927920 -0.045910 -0.033150 
#    y -0.045910 1.961150 0.063090 
#    z -0.033150 0.063090 1.967280 
# 
# From -- ./inp_files/609515.got.cif
#   From: 2010.05.17/outbox.cif.g08.bks.cpg/sg2_305_cif.got.tgz:609515.got - 2010.06.03 11:33:40.
