data_PCOD9075920
_publ_section_title
;
Structure prediction by ZEFSAII (Michael W. Deem and Ramdas Pophale) SiO2 
 PCOD9075920
Probable space group: P -1
;
_chemical_formula_sum "Si O2"
_cell_formula_units_Z 16
_cell_length_a 8.522041
_cell_length_b 10.989764
_cell_length_c 14.335067
_cell_angle_alpha 59.008380
_cell_angle_beta 49.954664
_cell_angle_gamma 82.648730
_cell_volume 837.689925
_symmetry_space_group_name_H-M "P -1"
_symmetry_group_IT_number 2
_symmetry_cell_setting 'triclinic'
loop_
_space_group_symop_operation_xyz
x,y,z
-x,-y,-z
loop_
_atom_site_type_symbol
_atom_site_label
_atom_site_fract_x
_atom_site_fract_y
_atom_site_fract_z
Si Si1 0.642290 0.427869 0.206044
Si Si2 0.824468 0.949833 0.191577
Si Si3 0.045361 0.243660 0.261879
Si Si4 0.567142 0.833394 0.938317
Si Si5 0.435356 0.853378 0.518640
Si Si6 0.284204 0.041693 0.974764
Si Si7 0.968081 0.297714 0.051263
Si Si8 0.344267 0.506697 0.142719
O O1 0.578529 0.295653 0.358092
O O2 0.772643 0.368024 0.099752
O O3 0.445719 0.462574 0.215475
O O4 0.818417 0.578771 0.117308
O O5 0.622195 0.877632 0.362121
O O6 0.885055 0.131593 0.106918
O O7 0.763743 0.899165 0.129476
O O8 0.052258 0.925410 0.138918
O O9 0.125986 0.385580 0.242659
O O10 0.804361 0.155876 0.420864
O O11 0.016356 0.284873 0.148607
O O12 0.238383 0.169130 0.205029
O O13 0.370955 0.680753 0.067209
O O14 0.470720 0.968584 0.912411
O O15 0.652796 0.846785 0.006803
O O16 0.500000 0.000000 0.500000
O O17 0.500000 0.500000 0.000000
#
# Coordination Sequence:
#
# PCOD9075920 Si02
#       8
#     2   2   2   2   2   2   2   2
#     4  10  19  31  55  87 113 150 176 235 297 333
#     4  11  21  39  57  83 112 156 194 233 270 344
#     4  10  19  34  58  88 115 140 179 240 297 339
#     4  10  19  37  56  87 114 142 191 246 274 329
#     4  11  21  36  56  82 126 147 177 240 303 335
#     4  10  22  35  61  81 108 159 203 224 268 334
#     4  10  18  32  57  82 113 144 194 228 270 337
#     4  10  19  32  56  85 116 144 189 238 285 336
#
# _framework density 19.100145000000001
#
# number of rings (size 3 to 8) (size 9 to 14) (size 15 to 20)
#    0.000    1.750    6.250    0.000    3.500    0.000 
#    0.000    5.000    0.000   13.500    0.000    0.000 
#    0.000    0.000    0.000    0.000    0.000    0.000 
#
# Total GULP energy -89107.457745 kJ/mol
# GULP energy per Si atom -5569.216109 kJ/mol
# Density = 1.905667 g / cm^3
# Si number density = 19.100145 Si / 1000 Ang^3
#
#
#
# Elastic Constant Matrix: (Units=GPa)
#
#
# Indices 1 2 3 4 5 6 
#
# 1 32.5765 10.1811 18.3538 1.4602 -16.9451 11.6612
# 2 10.1811 39.1680 27.5816 -2.6419 0.6050 10.6511
# 3 18.3538 27.5816 118.2468 3.1946 -20.0281 7.2042
# 4 1.4602 -2.6419 3.1946 27.2585 -0.5055 -6.6231
# 5 -16.9451 0.6050 -20.0281 -0.5055 27.6610 -4.4463
# 6 11.6612 10.6511 7.2042 -6.6231 -4.4463 34.4654
#
#
#
# Elastic Compliance Matrix: (Units=1/GPa)
#
#
# Indices 1 2 3 4 5 6 
#
# 1 0.056196 -0.012826 0.000821 -0.006704 0.033213 -0.012225
# 2 -0.012826 0.037742 -0.009273 0.003465 -0.016433 -0.006840
# 3 0.000821 -0.009273 0.012114 -0.001962 0.009588 0.000916
# 4 -0.006704 0.003465 -0.001962 0.039681 -0.003466 0.008786
# 5 0.033213 -0.016433 0.009588 -0.003466 0.063637 -0.000620
# 6 -0.012225 -0.006840 0.000916 0.008786 -0.000620 0.036682
#
#
# Mechanical properties :
#
#
# Convention : Reuss Voigt Hill
#
# Bulk Modulus (GPa) = 15.74923 33.58049 24.66486
# Shear Modulus (GPa) = 16.14084 26.80197 21.47141
#
# Velocity S-wave (km/s) = 2.91015 3.75004 3.35647
# Velocity P-wave (km/s) = 4.42216 6.03074 5.28797
#
# Compressibility (1/GPa) = 0.06349517
#
# Stress axis : x y z
#
# Youngs Moduli (GPa) = 17.79494 26.49536 82.55139
#
# Poissons Ratio (x) = 0.33983 -0.06774
# Poissons Ratio (y) = 0.22824 0.76551
# Poissons Ratio (z) = -0.01460 0.24569
#
# Static dielectric constant tensor:
#      x y z
#    x 1.747920 -0.016940 -0.031030 
#    y -0.016940 1.709540 -0.017290 
#    z -0.031030 -0.017290 1.673920 
# 
# From -- ./inp_files/498926.got.cif
#   From: 2010.05.17/outbox.cif.g08.bks.cpg/sg2_250_cif.got.tgz:498926.got - 2010.06.03 11:33:40.
