data_PCOD9075571
_publ_section_title
;
Structure prediction by ZEFSAII (Michael W. Deem and Ramdas Pophale) SiO2 
 PCOD9075571
Probable space group: P -1
;
_chemical_formula_sum "Si O2"
_cell_formula_units_Z 16
_cell_length_a 15.000000
_cell_length_b 15.000000
_cell_length_c 15.000000
_cell_angle_alpha 160.000000
_cell_angle_beta 40.000000
_cell_angle_gamma 140.000000
_cell_volume 725.414092
_symmetry_space_group_name_H-M "P -1"
_symmetry_group_IT_number 2
_symmetry_cell_setting 'triclinic'
loop_
_space_group_symop_operation_xyz
x,y,z
-x,-y,-z
loop_
_atom_site_type_symbol
_atom_site_label
_atom_site_fract_x
_atom_site_fract_y
_atom_site_fract_z
Si Si1 0.547143 0.625774 0.234547
Si Si2 0.230183 0.298378 0.521483
Si Si3 0.079422 0.608858 0.447747
Si Si4 0.743053 0.827365 0.108046
Si Si5 0.606443 0.974276 0.181836
Si Si6 0.197416 0.165049 0.634048
Si Si7 0.046673 0.576425 0.234141
Si Si8 0.628917 0.102211 0.067459
O O1 0.609115 0.751163 0.209016
O O2 0.662986 0.714308 0.304959
O O3 0.425714 0.769684 0.500239
O O4 0.505157 0.304172 0.971825
O O5 0.221182 0.228645 0.569312
O O6 0.258466 0.053843 0.209523
O O7 0.082669 0.359517 0.661685
O O8 0.335597 0.577901 0.675330
O O9 0.012603 0.552624 0.345048
O O10 0.000000 0.500000 0.500000
O O11 0.144431 0.924542 0.703324
O O12 0.204248 0.447032 0.192982
O O13 0.730889 0.911042 0.091778
O O14 0.615172 0.030025 0.118686
O O15 0.163566 0.848531 0.382568
O O16 0.087955 0.319752 0.913454
O O17 0.500000 0.000000 0.000000
#
# Coordination Sequence:
#
# PCOD9075571 Si02
#       8
#     2   2   2   2   2   2   2   2
#     4  12  22  44  66  99 130 176 222 273 330 379
#     4  12  26  43  72  97 135 174 220 276 325 395
#     4  12  26  44  69  98 140 175 214 271 332 395
#     4  12  25  45  67 100 132 176 225 270 327 392
#     4  12  26  41  70  95 135 175 224 276 324 392
#     4  12  23  44  70  99 135 171 221 272 333 387
#     4  12  24  44  68 102 132 173 222 269 328 394
#     4  12  26  47  66 101 135 174 222 266 337 394
#
# _framework density 22.056367999999999
#
# number of rings (size 3 to 8) (size 9 to 14) (size 15 to 20)
#    0.000    0.000    2.500    8.250    3.500    0.000 
#    0.000    0.000    0.000    0.000    0.000    0.000 
#    0.000    0.000    0.000    0.000    0.000    0.000 
#
# Total GULP energy -89270.752553 kJ/mol
# GULP energy per Si atom -5579.422035 kJ/mol
# Density = 2.200617 g / cm^3
# Si number density = 22.056368 Si / 1000 Ang^3
#
#
#
# Elastic Constant Matrix: (Units=GPa)
#
#
# Indices 1 2 3 4 5 6 
#
# 1 93.4680 3.7826 -14.7619 -8.2743 9.6866 -36.2169
# 2 3.7826 95.6757 15.3241 6.7731 27.7132 -49.1175
# 3 -14.7619 15.3241 94.3325 -6.4391 6.7078 -10.6123
# 4 -8.2743 6.7731 -6.4391 35.3826 -3.6833 8.6568
# 5 9.6866 27.7132 6.7078 -3.6833 38.0826 -9.8574
# 6 -36.2169 -49.1175 -10.6123 8.6568 -9.8574 59.6190
#
#
#
# Elastic Compliance Matrix: (Units=1/GPa)
#
#
# Indices 1 2 3 4 5 6 
#
# 1 0.020664 0.013948 0.004095 -0.003956 -0.010394 0.023629
# 2 0.013948 0.036034 0.001023 -0.014744 -0.021832 0.036874
# 3 0.004095 0.001023 0.011896 0.001488 -0.002490 0.004821
# 4 -0.003956 -0.014744 0.001488 0.035858 0.010339 -0.017782
# 5 -0.010394 -0.021832 -0.002490 0.010339 0.041199 -0.019434
# 6 0.023629 0.036874 0.004821 -0.017782 -0.019434 0.061733
#
#
# Mechanical properties :
#
#
# Convention : Reuss Voigt Hill
#
# Bulk Modulus (GPa) = 9.36958 32.46286 20.91622
# Shear Modulus (GPa) = 24.41100 45.22560 34.81830
#
# Velocity S-wave (km/s) = 3.33040 4.53311 3.97748
# Velocity P-wave (km/s) = 4.36417 6.49221 5.53149
#
# Compressibility (1/GPa) = 0.10672842
#
# Stress axis : x y z
#
# Youngs Moduli (GPa) = 48.39357 27.75132 84.05947
#
# Poissons Ratio (x) = -0.38709 -0.34423
# Poissons Ratio (y) = -0.67502 -0.08602
# Poissons Ratio (z) = -0.19818 -0.02840
#
# Static dielectric constant tensor:
#      x y z
#    x 1.916370 0.120060 -0.041330 
#    y 0.120060 1.903170 -0.001300 
#    z -0.041330 -0.001300 1.888730 
# 
# From -- ./inp_files/519780.got.cif
#   From: 2010.05.17/outbox.ucp.g08.bks.cvg/sg2_260_cif.got.tgz:519780.got - 2010.06.11 11:32:03.
