data_PCOD9075231
_publ_section_title
;
Structure prediction by ZEFSAII (Michael W. Deem and Ramdas Pophale) SiO2 
 PCOD9075231
Probable space group: P -1
;
_chemical_formula_sum "Si O2"
_cell_formula_units_Z 16
_cell_length_a 18.000000
_cell_length_b 21.000000
_cell_length_c 12.000000
_cell_angle_alpha 40.000000
_cell_angle_beta 150.000000
_cell_angle_gamma 160.000000
_cell_volume 744.844803
_symmetry_space_group_name_H-M "P -1"
_symmetry_group_IT_number 2
_symmetry_cell_setting 'triclinic'
loop_
_space_group_symop_operation_xyz
x,y,z
-x,-y,-z
loop_
_atom_site_type_symbol
_atom_site_label
_atom_site_fract_x
_atom_site_fract_y
_atom_site_fract_z
Si Si1 0.166968 0.821353 0.339992
Si Si2 0.689439 0.870132 0.864030
Si Si3 0.216037 0.759546 0.722574
Si Si4 0.343169 0.530552 0.016727
Si Si5 0.708842 0.866217 0.652183
Si Si6 0.634424 0.486182 0.461327
Si Si7 0.559806 0.100073 0.835938
Si Si8 0.779494 0.465040 0.905487
O O1 0.119385 0.727400 0.514193
O O2 0.500000 0.000000 0.500000
O O3 0.162222 0.936989 0.197895
O O4 0.940955 0.660875 0.166859
O O5 0.549146 0.782219 0.677026
O O6 0.467163 0.703360 0.891617
O O7 0.957843 0.949854 0.126157
O O8 0.952586 0.647423 0.607843
O O9 0.497008 0.989469 0.801039
O O10 0.282796 0.686296 0.947230
O O11 0.554780 0.555965 0.255554
O O12 0.282586 0.514574 0.088189
O O13 0.593609 0.705365 0.653121
O O14 0.650438 0.927791 0.418536
O O15 0.627222 0.431861 0.647663
O O16 0.877373 0.328097 0.947938
O O17 0.500000 0.000000 0.000000
#
# Coordination Sequence:
#
# PCOD9075231 Si02
#       8
#     2   2   2   2   2   2   2   2
#     4  12  26  45  71 102 138 177 227 284 348 418
#     4  11  25  45  70 101 138 174 229 288 344 407
#     4  12  24  43  75 101 133 180 234 284 344 398
#     4  12  28  45  69  99 143 188 218 282 356 402
#     4  11  23  44  72 102 135 173 233 293 336 400
#     4  12  24  46  70 100 137 181 235 281 335 412
#     4  12  23  42  72 102 135 179 227 284 338 398
#     4  12  27  46  66 102 142 182 231 281 337 414
#
# _framework density 21.480985
#
# number of rings (size 3 to 8) (size 9 to 14) (size 15 to 20)
#    0.000    0.250    5.000    4.500    1.750    2.000 
#    0.000    0.625    0.000    0.000    0.000    0.000 
#    0.000    0.000    0.000    0.000    0.000    0.000 
#
# Total GULP energy -89411.750754 kJ/mol
# GULP energy per Si atom -5588.234422 kJ/mol
# Density = 2.143209 g / cm^3
# Si number density = 21.480985 Si / 1000 Ang^3
#
#
#
# Elastic Constant Matrix: (Units=GPa)
#
#
# Indices 1 2 3 4 5 6 
#
# 1 61.4846 -4.1520 12.7520 2.4528 -26.5292 11.4653
# 2 -4.1520 63.9048 7.0671 -12.6832 -5.5234 -2.2237
# 3 12.7520 7.0671 90.3303 -8.8113 -14.9058 9.0863
# 4 2.4528 -12.6832 -8.8113 36.0296 -3.8188 -9.4159
# 5 -26.5292 -5.5234 -14.9058 -3.8188 36.2787 -7.7533
# 6 11.4653 -2.2237 9.0863 -9.4159 -7.7533 33.7087
#
#
#
# Elastic Compliance Matrix: (Units=1/GPa)
#
#
# Indices 1 2 3 4 5 6 
#
# 1 0.024940 0.003070 -0.000427 0.000085 0.017667 -0.004078
# 2 0.003070 0.018139 -0.000416 0.007791 0.006496 0.003935
# 3 -0.000427 -0.000416 0.012377 0.003085 0.004765 -0.001261
# 4 0.000085 0.007791 0.003085 0.035163 0.008668 0.011469
# 5 0.017667 0.006496 0.004765 0.008668 0.045637 0.006053
# 6 -0.004078 0.003935 -0.001261 0.011469 0.006053 0.036248
#
#
# Mechanical properties :
#
#
# Convention : Reuss Voigt Hill
#
# Bulk Modulus (GPa) = 16.69213 27.45041 22.07127
# Shear Modulus (GPa) = 26.59284 34.54024 30.56654
#
# Velocity S-wave (km/s) = 3.52230 4.01427 3.77630
# Velocity P-wave (km/s) = 4.93251 5.85598 5.41397
#
# Compressibility (1/GPa) = 0.05990847
#
# Stress axis : x y z
#
# Youngs Moduli (GPa) = 40.09616 55.13119 80.79230
#
# Poissons Ratio (x) = -0.16923 0.03451
# Poissons Ratio (y) = -0.12308 0.03363
# Poissons Ratio (z) = 0.01713 0.02295
#
# Static dielectric constant tensor:
#      x y z
#    x 1.895140 -0.028930 0.069310 
#    y -0.028930 1.817710 -0.009300 
#    z 0.069310 -0.009300 1.825730 
# 
# From -- ./inp_files/272430.got.cif
#   From: 2010.05.17/outbox.ucp.g08.bks.cvg/sg2_137_cif.got.tgz:272430.got - 2010.06.11 11:32:03.
