data_PCOD9075825
_publ_section_title
;
Structure prediction by ZEFSAII (Michael W. Deem and Ramdas Pophale) SiO2 
 PCOD9075825
Probable space group: P -1
;
_chemical_formula_sum "Si O2"
_cell_formula_units_Z 16
_cell_length_a 20.808655
_cell_length_b 15.029126
_cell_length_c 7.863669
_cell_angle_alpha 138.487238
_cell_angle_beta 27.416784
_cell_angle_gamma 136.103529
_cell_volume 737.837308
_symmetry_space_group_name_H-M "P -1"
_symmetry_group_IT_number 2
_symmetry_cell_setting 'triclinic'
loop_
_space_group_symop_operation_xyz
x,y,z
-x,-y,-z
loop_
_atom_site_type_symbol
_atom_site_label
_atom_site_fract_x
_atom_site_fract_y
_atom_site_fract_z
Si Si1 0.420692 0.589688 0.140836
Si Si2 0.029867 0.684066 0.374701
Si Si3 0.595474 0.715722 0.383027
Si Si4 0.009394 0.192260 0.897441
Si Si5 0.299793 0.652677 0.882409
Si Si6 0.122616 0.108944 0.146125
Si Si7 0.153954 0.606644 0.608621
Si Si8 0.708681 0.643867 0.380771
O O1 0.357356 0.620243 0.513357
O O2 0.321129 0.631683 0.285895
O O3 0.405523 0.426724 0.919381
O O4 0.583235 0.658879 0.830536
O O5 0.963995 0.816368 0.679044
O O6 0.910200 0.551460 0.505110
O O7 0.154675 0.702066 0.245601
O O8 0.092185 0.642661 0.988624
O O9 0.435679 0.744273 0.783492
O O10 0.642877 0.678738 0.406817
O O11 0.713422 0.833579 0.196402
O O12 0.079221 0.157869 0.504070
O O13 0.141980 0.261279 0.797362
O O14 0.925072 0.052681 0.972703
O O15 0.905815 0.296698 0.244088
O O16 0.272066 0.512110 0.853741
#
# Coordination Sequence:
#
# PCOD9075825 Si02
#       8
#     2   2   2   2   2   2   2   2
#     4  10  18  32  56  79 104 136 176 220 262 301
#     4   9  16  30  54  82 105 127 171 225 261 297
#     4  11  21  33  50  77 112 140 172 213 263 314
#     4  10  20  36  57  79 104 138 177 215 259 312
#     4  10  18  32  56  79 104 136 176 220 262 301
#     4  10  20  36  57  79 104 138 177 215 259 312
#     4   9  16  30  54  82 105 127 171 225 261 297
#     4  11  21  33  50  77 112 140 172 213 263 314
#
# _framework density 21.684999000000001
#
# number of rings (size 3 to 8) (size 9 to 14) (size 15 to 20)
#    0.000    2.000    2.500    4.500    0.000    0.500 
#    0.000    5.000    0.000    7.500    0.000    0.000 
#    0.000    0.000    0.000    0.000    0.000    0.000 
#
# Total GULP energy -89462.783315 kJ/mol
# GULP energy per Si atom -5591.423957 kJ/mol
# Density = 2.163564 g / cm^3
# Si number density = 21.684999 Si / 1000 Ang^3
#
#
#
# Elastic Constant Matrix: (Units=GPa)
#
#
# Indices 1 2 3 4 5 6 
#
# 1 157.9017 57.1542 41.1428 -6.2032 -32.1479 -3.1616
# 2 57.1542 133.0458 29.7423 -14.0557 -24.6796 -11.7414
# 3 41.1428 29.7423 46.9745 -10.1251 -23.7866 -1.5333
# 4 -6.2032 -14.0557 -10.1251 27.6867 1.4224 -4.1871
# 5 -32.1479 -24.6796 -23.7866 1.4224 55.9585 -11.0610
# 6 -3.1616 -11.7414 -1.5333 -4.1871 -11.0610 28.7796
#
#
#
# Elastic Compliance Matrix: (Units=1/GPa)
#
#
# Indices 1 2 3 4 5 6 
#
# 1 0.009007 -0.002383 -0.005795 -0.001373 0.001730 0.000174
# 2 -0.002383 0.010655 -0.001418 0.005101 0.003828 0.006223
# 3 -0.005795 -0.001418 0.036465 0.011772 0.012693 0.007319
# 4 -0.001373 0.005101 0.011772 0.044115 0.007703 0.011936
# 5 0.001730 0.003828 0.012693 0.007703 0.028628 0.014551
# 6 0.000174 0.006223 0.007319 0.011936 0.014551 0.045024
#
#
# Mechanical properties :
#
#
# Convention : Reuss Voigt Hill
#
# Bulk Modulus (GPa) = 27.07408 66.00003 46.53705
# Shear Modulus (GPa) = 24.34295 36.47713 30.41004
#
# Velocity S-wave (km/s) = 3.35411 4.10584 3.74886
# Velocity P-wave (km/s) = 5.24522 7.27867 6.34395
#
# Compressibility (1/GPa) = 0.03693570
#
# Stress axis : x y z
#
# Youngs Moduli (GPa) = 111.02392 93.85223 27.42327
#
# Poissons Ratio (x) = 0.22363 0.15891
# Poissons Ratio (y) = 0.26455 0.03890
# Poissons Ratio (z) = 0.64335 0.13312
#
# Static dielectric constant tensor:
#      x y z
#    x 1.825630 0.000540 0.029230 
#    y 0.000540 1.716900 -0.022670 
#    z 0.029230 -0.022670 1.848030 
# 
# From -- ./inp_files/279091.got.cif
#   From: 2010.05.17/outbox.cif.g08.bks.cpg/sg2_140_cif.got.tgz:279091.got - 2010.06.03 11:33:40.
