data_PCOD9075584
_publ_section_title
;
Structure prediction by ZEFSAII (Michael W. Deem and Ramdas Pophale) SiO2 
 PCOD9075584
Probable space group: P -1
;
_chemical_formula_sum "Si O2"
_cell_formula_units_Z 16
_cell_length_a 27.000000
_cell_length_b 27.000000
_cell_length_c 9.000000
_cell_angle_alpha 140.000000
_cell_angle_beta 40.000000
_cell_angle_gamma 170.000000
_cell_volume 728.340053
_symmetry_space_group_name_H-M "P -1"
_symmetry_group_IT_number 2
_symmetry_cell_setting 'triclinic'
loop_
_space_group_symop_operation_xyz
x,y,z
-x,-y,-z
loop_
_atom_site_type_symbol
_atom_site_label
_atom_site_fract_x
_atom_site_fract_y
_atom_site_fract_z
Si Si1 0.261502 0.235801 0.336199
Si Si2 0.720773 0.916773 0.203633
Si Si3 0.374178 0.957907 0.756012
Si Si4 0.506111 0.861057 0.417099
Si Si5 0.020696 0.604297 0.261560
Si Si6 0.773158 0.730609 0.822032
Si Si7 0.213244 0.423392 0.451981
Si Si8 0.157975 0.519951 0.934661
O O1 0.500000 0.500000 0.500000
O O2 0.243007 0.270547 0.315081
O O3 0.277963 0.164224 0.068698
O O4 0.000000 0.000000 0.500000
O O5 0.588591 0.854965 0.261049
O O6 0.531658 0.734631 0.369429
O O7 0.023778 0.238100 0.309627
O O8 0.410924 0.047164 0.733287
O O9 0.500000 0.000000 0.500000
O O10 0.547429 0.155582 0.955171
O O11 0.057180 0.649498 0.842376
O O12 0.181990 0.571222 0.536520
O O13 0.673176 0.078434 0.647867
O O14 0.925090 0.556839 0.224660
O O15 0.000000 0.500000 0.000000
O O16 0.835881 0.705088 0.658315
O O17 0.500000 0.500000 0.000000
O O18 0.000000 0.000000 0.000000
O O19 0.174182 0.444264 0.727068
#
# Coordination Sequence:
#
# PCOD9075584 Si02
#       8
#     2   2   2   2   2   2   2   2
#     4  12  26  42  67 101 138 171 222 269 332 397
#     4  12  23  44  68  96 137 175 214 284 331 385
#     4  12  26  44  64  97 141 175 212 278 341 394
#     4  12  24  43  67  95 133 180 217 263 352 393
#     4  12  23  41  68  98 126 170 229 273 314 399
#     4  12  23  43  71  97 130 183 222 265 331 397
#     4  12  23  43  71  99 131 171 228 281 319 385
#     4  12  24  42  68  97 130 171 226 271 326 392
#
# _framework density 21.967760999999999
#
# number of rings (size 3 to 8) (size 9 to 14) (size 15 to 20)
#    0.000    0.000    5.000    6.000    0.000    2.000 
#    0.000    0.000    0.000    0.000    0.000    0.000 
#    0.000    0.000    0.000    0.000    0.000    0.000 
#
# Total GULP energy -89223.038798 kJ/mol
# GULP energy per Si atom -5576.439925 kJ/mol
# Density = 2.191776 g / cm^3
# Si number density = 21.967761 Si / 1000 Ang^3
#
#
#
# Elastic Constant Matrix: (Units=GPa)
#
#
# Indices 1 2 3 4 5 6 
#
# 1 76.4116 12.0194 20.5942 -11.7344 11.2423 -14.7073
# 2 12.0194 88.7397 18.2546 -10.7818 3.0286 1.0465
# 3 20.5942 18.2546 157.3469 -36.4439 -18.9636 -17.1736
# 4 -11.7344 -10.7818 -36.4439 63.3067 2.8447 25.2891
# 5 11.2423 3.0286 -18.9636 2.8447 53.5803 3.8875
# 6 -14.7073 1.0465 -17.1736 25.2891 3.8875 25.6983
#
#
#
# Elastic Compliance Matrix: (Units=1/GPa)
#
#
# Indices 1 2 3 4 5 6 
#
# 1 0.016449 -0.002180 -0.001845 -0.002901 -0.004686 0.011833
# 2 -0.002180 0.012266 -0.001018 0.003399 -0.000362 -0.005718
# 3 -0.001845 -0.001018 0.007999 0.003966 0.003068 -0.000036
# 4 -0.002901 0.003399 0.003966 0.029357 0.002321 -0.028389
# 5 -0.004686 -0.000362 0.003068 0.002321 0.021072 -0.006089
# 6 0.011833 -0.005718 -0.000036 -0.028389 -0.006089 0.074752
#
#
# Mechanical properties :
#
#
# Convention : Reuss Voigt Hill
#
# Bulk Modulus (GPa) = 37.55514 47.13718 42.34616
# Shear Modulus (GPa) = 27.64609 46.62572 37.13590
#
# Velocity S-wave (km/s) = 3.55136 4.61202 4.11600
# Velocity P-wave (km/s) = 5.82657 7.06151 6.47356
#
# Compressibility (1/GPa) = 0.02662751
#
# Stress axis : x y z
#
# Youngs Moduli (GPa) = 60.79505 81.52287 125.00881
#
# Poissons Ratio (x) = 0.17776 0.23064
# Poissons Ratio (y) = 0.13256 0.12727
# Poissons Ratio (z) = 0.11217 0.08300
#
# Static dielectric constant tensor:
#      x y z
#    x 1.875390 -0.061310 0.145760 
#    y -0.061310 1.715270 0.143240 
#    z 0.145760 0.143240 1.086700 
# 
# From -- ./inp_files/357984.got.cif
#   From: 2010.05.17/outbox.ucp.g08.bks.cvg/sg2_179_cif.got.tgz:357984.got - 2010.06.11 11:32:03.
