data_PCOD9075465
_publ_section_title
;
Structure prediction by ZEFSAII (Michael W. Deem and Ramdas Pophale) SiO2 
 PCOD9075465
Probable space group: P -1
;
_chemical_formula_sum "Si O2"
_cell_formula_units_Z 12
_cell_length_a 15.000000
_cell_length_b 18.000000
_cell_length_c 12.000000
_cell_angle_alpha 30.000000
_cell_angle_beta 160.000000
_cell_angle_gamma 150.000000
_cell_volume 527.600048
_symmetry_space_group_name_H-M "P -1"
_symmetry_group_IT_number 2
_symmetry_cell_setting 'triclinic'
loop_
_space_group_symop_operation_xyz
x,y,z
-x,-y,-z
loop_
_atom_site_type_symbol
_atom_site_label
_atom_site_fract_x
_atom_site_fract_y
_atom_site_fract_z
Si Si1 0.968829 0.099508 0.657794
Si Si2 0.653046 0.845046 0.756077
Si Si3 0.014277 0.670719 0.253797
Si Si4 0.161927 0.379540 0.366504
Si Si5 0.768873 0.946162 0.395845
Si Si6 0.280161 0.376649 0.259775
O O1 0.012619 0.266389 0.436558
O O2 0.202132 0.118614 0.000087
O O3 0.702580 0.006321 0.536257
O O4 0.943153 0.998397 0.646375
O O5 0.333253 0.769459 0.499448
O O6 0.817905 0.745692 0.003580
O O7 0.000000 0.500000 0.500000
O O8 0.928696 0.638367 0.065672
O O9 0.164854 0.323230 0.316543
O O10 0.479542 0.461583 0.663675
O O11 0.000000 0.500000 0.000000
O O12 0.605766 0.763367 0.453996
O O13 0.000000 0.000000 0.500000
O O14 0.500000 0.000000 0.000000
#
# Coordination Sequence:
#
# PCOD9075465 Si02
#       6
#     2   2   2   2   2   2
#     4  11  25  48  73 106 151 189 246 303 362 438
#     4  11  28  47  75 109 141 201 241 299 366 433
#     4  12  27  49  76 107 150 190 247 300 362 439
#     4  11  25  46  72 107 148 191 245 304 374 429
#     4  12  26  45  74 107 144 189 239 300 367 429
#     4  11  26  45  71 110 142 194 247 300 368 440
#
# _framework density 22.744501
#
# number of rings (size 3 to 8) (size 9 to 14) (size 15 to 20)
#    0.000    0.667    3.333    2.500    7.000    4.000 
#    6.000    0.000    0.000    0.000    0.000    0.000 
#    0.000    0.000    0.000    0.000    0.000    0.000 
#
# Total GULP energy -66846.978437 kJ/mol
# GULP energy per Si atom -5570.581536 kJ/mol
# Density = 2.269273 g / cm^3
# Si number density = 22.744501 Si / 1000 Ang^3
#
#
#
# Elastic Constant Matrix: (Units=GPa)
#
#
# Indices 1 2 3 4 5 6 
#
# 1 131.1651 66.4001 64.5475 23.6619 -37.5781 6.8121
# 2 66.4001 100.5154 44.7975 -7.5623 -9.6819 16.6872
# 3 64.5475 44.7975 83.8146 11.6501 -6.8110 6.3789
# 4 23.6619 -7.5623 11.6501 36.1981 11.0553 -18.1782
# 5 -37.5781 -9.6819 -6.8110 11.0553 43.9382 8.0753
# 6 6.8121 16.6872 6.3789 -18.1782 8.0753 54.5283
#
#
#
# Elastic Compliance Matrix: (Units=1/GPa)
#
#
# Indices 1 2 3 4 5 6 
#
# 1 0.119177 -0.055391 -0.023648 -0.158619 0.138567 -0.068571
# 2 -0.055391 0.040025 0.003101 0.077655 -0.063039 0.029532
# 3 -0.023648 0.003101 0.023065 0.020436 -0.022855 0.009505
# 4 -0.158619 0.077655 0.020436 0.256694 -0.199972 0.108850
# 5 0.138567 -0.063039 -0.022855 -0.199972 0.190738 -0.090257
# 6 -0.068571 0.029532 0.009505 0.108850 -0.090257 0.066410
#
#
# Mechanical properties :
#
#
# Convention : Reuss Voigt Hill
#
# Bulk Modulus (GPa) = 32.90583 74.10948 53.50765
# Shear Modulus (GPa) = 5.82673 36.24958 21.03815
#
# Velocity S-wave (km/s) = 1.60230 3.99654 3.04464
# Velocity P-wave (km/s) = 4.23346 7.34511 5.99470
#
# Compressibility (1/GPa) = 0.03038976
#
# Stress axis : x y z
#
# Youngs Moduli (GPa) = 8.39091 24.98418 43.35663
#
# Poissons Ratio (x) = 1.38389 1.02530
# Poissons Ratio (y) = 0.46478 -0.13443
# Poissons Ratio (z) = 0.19843 -0.07746
#
# Static dielectric constant tensor:
#      x y z
#    x 1.654080 0.072600 0.091010 
#    y 0.072600 1.846540 -0.045410 
#    z 0.091010 -0.045410 1.597540 
# 
# From -- ./inp_files/58367.got.cif
#   From: 2010.05.17/outbox.ucp.g08.bks.cvg/sg2_30_cif.got.tgz:58367.got - 2010.06.11 11:32:03.
