data_PCOD9075083
_publ_section_title
;
Structure prediction by ZEFSAII (Michael W. Deem and Ramdas Pophale) SiO2 
 PCOD9075083
Probable space group: P -1
;
_chemical_formula_sum "Si O2"
_cell_formula_units_Z 16
_cell_length_a 18.000000
_cell_length_b 9.000000
_cell_length_c 6.000000
_cell_angle_alpha 90.000000
_cell_angle_beta 50.000000
_cell_angle_gamma 90.000000
_cell_volume 744.595199
_symmetry_space_group_name_H-M "P -1"
_symmetry_group_IT_number 2
_symmetry_cell_setting 'triclinic'
loop_
_space_group_symop_operation_xyz
x,y,z
-x,-y,-z
loop_
_atom_site_type_symbol
_atom_site_label
_atom_site_fract_x
_atom_site_fract_y
_atom_site_fract_z
Si Si1 0.281227 0.602092 0.648642
Si Si2 0.912291 0.397026 0.261222
Si Si3 0.970620 0.072048 0.283225
Si Si4 0.368618 0.343495 0.215415
Si Si5 0.166064 0.076767 0.167602
Si Si6 0.793084 0.604726 0.818474
Si Si7 0.379410 0.104663 0.569003
Si Si8 0.537983 0.201532 0.631701
O O1 0.176885 0.644607 0.738583
O O2 0.343953 0.507955 0.348539
O O3 0.357748 0.719517 0.601732
O O4 0.253569 0.490148 0.897552
O O5 0.955264 0.247854 0.284815
O O6 0.859575 0.498410 0.545446
O O7 0.000000 0.500000 0.000000
O O8 0.069933 0.025489 0.221562
O O9 0.864230 0.003793 0.546927
O O10 0.000000 0.000000 0.000000
O O11 0.291215 0.323038 0.169019
O O12 0.349946 0.228954 0.449820
O O13 0.474283 0.301685 0.920931
O O14 0.151041 0.253299 0.201215
O O15 0.277198 0.052428 0.878401
O O16 0.462833 0.172662 0.571280
O O17 0.430770 0.963561 0.354971
#
# Coordination Sequence:
#
# PCOD9075083 Si02
#       8
#     2   2   2   2   2   2   2   2
#     4  11  25  42  69 100 135 176 220 279 329 394
#     4  11  26  44  69 103 134 174 222 270 334 397
#     4  11  27  43  71 100 133 175 221 274 329 402
#     4  11  22  44  67  98 128 181 221 269 332 391
#     4  11  24  45  68  98 133 179 219 270 338 388
#     4  11  24  44  71  96 135 176 218 278 328 397
#     4  11  25  43  69  97 136 178 220 276 335 393
#     4  11  25  43  66 100 134 175 225 276 333 395
#
# _framework density 21.488185999999999
#
# number of rings (size 3 to 8) (size 9 to 14) (size 15 to 20)
#    0.000    1.000    2.500    2.250    7.000    7.000 
#    2.250    0.000    0.000    0.000    0.000    0.000 
#    0.000    0.000    0.000    0.000    0.000    0.000 
#
# Total GULP energy -89125.571488 kJ/mol
# GULP energy per Si atom -5570.348218 kJ/mol
# Density = 2.143928 g / cm^3
# Si number density = 21.488186 Si / 1000 Ang^3
#
#
#
# Elastic Constant Matrix: (Units=GPa)
#
#
# Indices 1 2 3 4 5 6 
#
# 1 50.8972 -40.6310 28.9212 10.1975 -32.4581 6.4124
# 2 -40.6310 5.0171 7.9716 10.9507 -22.8103 -1.5917
# 3 28.9212 7.9716 62.3328 -7.9300 -19.7261 6.9861
# 4 10.1975 10.9507 -7.9300 32.4214 2.4689 -16.0375
# 5 -32.4581 -22.8103 -19.7261 2.4689 18.7544 -1.0036
# 6 6.4124 -1.5917 6.9861 -16.0375 -1.0036 37.9953
#
#
#
# Elastic Compliance Matrix: (Units=1/GPa)
#
#
# Indices 1 2 3 4 5 6 
#
# 1 0.004623 -0.012051 -0.003756 0.002647 -0.010944 0.000234
# 2 -0.012051 0.002275 -0.000430 0.006596 -0.019170 0.004486
# 3 -0.003756 -0.000430 0.024256 0.005359 0.017724 -0.001114
# 4 0.002647 0.006596 0.005359 0.034902 0.014391 0.013956
# 5 -0.010944 -0.019170 0.017724 0.014391 0.028059 0.004601
# 6 0.000234 0.004486 -0.001114 0.013956 0.004601 0.032685
#
#
# Mechanical properties :
#
#
# Convention : Reuss Voigt Hill
#
# Bulk Modulus (GPa) = -757.42989 12.30786 -372.56102
# Shear Modulus (GPa) = 31.47916 25.96657 28.72286
#
# Velocity S-wave (km/s) = 3.83162 3.47999 3.66003
# Velocity P-wave (km/s) = 18.26682 4.67839 12.48578
#
# Compressibility (1/GPa) = -0.00132025
#
# Stress axis : x y z
#
# Youngs Moduli (GPa) = 216.31699 439.53069 41.22615
#
# Poissons Ratio (x) = 5.29688 0.15487
# Poissons Ratio (y) = 2.60688 0.01771
# Poissons Ratio (z) = 0.81259 0.18885
#
# Static dielectric constant tensor:
#      x y z
#    x 2.175940 -0.232930 0.568500 
#    y -0.232930 1.955780 -0.347590 
#    z 0.568500 -0.347590 2.536590 
# 
# From -- ./inp_files/39853.got.cif
#   From: 2010.05.17/outbox.ucp.g08.bks.cvg/sg2_20_cif.got.tgz:39853.got - 2010.06.11 11:32:03.
