data_PCOD9075054
_publ_section_title
;
Structure prediction by ZEFSAII (Michael W. Deem and Ramdas Pophale) SiO2 
 PCOD9075054
Probable space group: P -1
;
_chemical_formula_sum "Si O2"
_cell_formula_units_Z 14
_cell_length_a 27.000000
_cell_length_b 24.000000
_cell_length_c 9.000000
_cell_angle_alpha 140.000000
_cell_angle_beta 40.000000
_cell_angle_gamma 170.000000
_cell_volume 647.413381
_symmetry_space_group_name_H-M "P -1"
_symmetry_group_IT_number 2
_symmetry_cell_setting 'triclinic'
loop_
_space_group_symop_operation_xyz
x,y,z
-x,-y,-z
loop_
_atom_site_type_symbol
_atom_site_label
_atom_site_fract_x
_atom_site_fract_y
_atom_site_fract_z
Si Si1 0.060252 0.972910 0.386780
Si Si2 0.390805 0.237472 0.411223
Si Si3 0.178872 0.114747 0.905963
Si Si4 0.064550 0.848453 0.871858
Si Si5 0.431127 0.096629 0.899194
Si Si6 0.222069 0.711865 0.790358
Si Si7 0.282338 0.898964 0.511487
O O1 0.725347 0.590877 0.412290
O O2 0.288784 0.205685 0.469680
O O3 0.168648 0.015690 0.115257
O O4 0.000000 0.000000 0.500000
O O5 0.222948 0.084954 0.628652
O O6 0.314112 0.060357 0.160719
O O7 0.041010 0.906126 0.929544
O O8 0.500000 0.500000 0.000000
O O9 0.000000 0.000000 0.000000
O O10 0.276520 0.994531 0.658689
O O11 0.752380 0.469160 0.859080
O O12 0.401146 0.986772 0.866180
O O13 0.256552 0.881435 0.712825
O O14 0.998473 0.441724 0.622417
O O15 0.443702 0.873442 0.663367
O O16 0.000000 0.500000 0.000000
#
# Coordination Sequence:
#
# PCOD9075054 Si02
#       7
#     2   2   2   2   2   2   2
#     4  11  22  42  68  98 137 179 234 288 348 421
#     4  11  24  42  66 101 134 183 231 294 345 414
#     4  12  28  48  70 104 149 192 241 299 365 421
#     4  11  26  45  75 108 142 194 241 295 363 424
#     4  11  26  47  75 107 145 187 246 290 358 431
#     4  12  29  48  75 109 146 191 233 297 364 433
#     4  12  25  49  73 107 148 188 241 296 359 435
#
# _framework density 21.624514000000001
#
# number of rings (size 3 to 8) (size 9 to 14) (size 15 to 20)
#    0.000    0.571    2.857    4.286    6.000    1.143 
#    2.571    0.000    0.000    0.000    0.000    0.000 
#    0.000    0.000    0.000    0.000    0.000    0.000 
#
# Total GULP energy -77963.392215 kJ/mol
# GULP energy per Si atom -5568.813730 kJ/mol
# Density = 2.157530 g / cm^3
# Si number density = 21.624514 Si / 1000 Ang^3
#
#
#
# Elastic Constant Matrix: (Units=GPa)
#
#
# Indices 1 2 3 4 5 6 
#
# 1 139.1633 45.5601 23.2928 -11.3302 -34.1821 2.4747
# 2 45.5601 86.6256 25.0293 -4.8534 -10.1718 9.2443
# 3 23.2928 25.0293 125.0481 -17.2615 -20.1068 -2.6546
# 4 -11.3302 -4.8534 -17.2615 27.0875 9.4594 -8.7013
# 5 -34.1821 -10.1718 -20.1068 9.4594 51.8872 -7.3800
# 6 2.4747 9.2443 -2.6546 -8.7013 -7.3800 52.5664
#
#
#
# Elastic Compliance Matrix: (Units=1/GPa)
#
#
# Indices 1 2 3 4 5 6 
#
# 1 0.010293 -0.004872 0.000312 0.002109 0.005782 0.001549
# 2 -0.004872 0.014916 -0.002573 -0.001455 -0.001439 -0.002967
# 3 0.000312 -0.002573 0.009722 0.005622 0.002763 0.002247
# 4 0.002109 -0.001455 0.005622 0.044816 -0.003847 0.007319
# 5 0.005782 -0.001439 0.002763 -0.003847 0.024997 0.002993
# 6 0.001549 -0.002967 0.002247 0.007319 0.002993 0.021218
#
#
# Mechanical properties :
#
#
# Convention : Reuss Voigt Hill
#
# Bulk Modulus (GPa) = 48.39367 59.84459 54.11913
# Shear Modulus (GPa) = 33.98680 43.43857 38.71268
#
# Velocity S-wave (km/s) = 3.96874 4.48679 4.23569
# Velocity P-wave (km/s) = 6.59006 7.38757 7.00018
#
# Compressibility (1/GPa) = 0.02066386
#
# Stress axis : x y z
#
# Youngs Moduli (GPa) = 97.15297 67.04320 102.86036
#
# Poissons Ratio (x) = 0.32662 -0.03205
# Poissons Ratio (y) = 0.47330 0.26469
# Poissons Ratio (z) = -0.03028 0.17252
#
# Static dielectric constant tensor:
#      x y z
#    x 1.869920 -0.058190 0.051470 
#    y -0.058190 1.866800 -0.011650 
#    z 0.051470 -0.011650 1.861210 
# 
# From -- ./inp_files/357858.got.cif
#   From: 2010.05.17/outbox.ucp.g08.bks.cvg/sg2_179_cif.got.tgz:357858.got - 2010.06.11 11:32:03.
