data_PCOD9075209
_publ_section_title
;
Structure prediction by ZEFSAII (Michael W. Deem and Ramdas Pophale) SiO2 
 PCOD9075209
Probable space group: P -1
;
_chemical_formula_sum "Si O2"
_cell_formula_units_Z 15
_cell_length_a 21.000000
_cell_length_b 18.000000
_cell_length_c 9.000000
_cell_angle_alpha 140.000000
_cell_angle_beta 50.000000
_cell_angle_gamma 160.000000
_cell_volume 700.468056
_symmetry_space_group_name_H-M "P -1"
_symmetry_group_IT_number 2
_symmetry_cell_setting 'triclinic'
loop_
_space_group_symop_operation_xyz
x,y,z
-x,-y,-z
loop_
_atom_site_type_symbol
_atom_site_label
_atom_site_fract_x
_atom_site_fract_y
_atom_site_fract_z
Si Si1 0.308103 0.699843 0.470432
Si Si2 0.241480 0.377126 0.892933
Si Si3 0.000000 0.500000 0.500000
Si Si4 0.838191 0.522200 0.316341
Si Si5 0.729660 0.205959 0.732239
Si Si6 0.415461 0.365813 0.141167
Si Si7 0.169982 0.251169 0.463828
Si Si8 0.719639 0.926404 0.388429
O O1 0.173301 0.632396 0.507480
O O2 0.242552 0.603533 0.592262
O O3 0.544323 0.018496 0.624830
O O4 0.267515 0.530250 0.176962
O O5 0.438342 0.547803 0.881965
O O6 0.188532 0.321026 0.711644
O O7 0.048626 0.059785 0.745473
O O8 0.080233 0.571623 0.318000
O O9 0.762635 0.554019 0.433252
O O10 0.775014 0.348102 0.020384
O O11 0.077557 0.827081 0.444987
O O12 0.673582 0.004291 0.559577
O O13 0.291729 0.285391 0.320206
O O14 0.549756 0.633285 0.269252
O O15 0.271590 0.119042 0.860566
#
# Coordination Sequence:
#
# PCOD9075209 Si02
#       8
#     2   2   1   2   2   2   2   2
#     4  12  26  47  75 100 139 189 234 291 348 415
#     4  11  24  46  67 103 145 175 234 286 353 419
#     4  12  28  46  70 104 138 188 230 288 352 408
#     4  12  25  47  71 104 143 185 238 291 342 413
#     4  12  26  50  69 104 143 188 237 284 350 416
#     4  11  23  44  73 104 137 183 232 289 348 420
#     4  11  25  42  69 105 139 184 225 292 351 412
#     4  11  23  43  73 104 138 180 235 289 342 410
#
# _framework density 21.414252999999999
#
# number of rings (size 3 to 8) (size 9 to 14) (size 15 to 20)
#    0.000    0.533    4.000    4.000    1.867    1.067 
#    2.400    0.000    0.000    0.000    0.000    0.000 
#    0.000    0.000    0.000    0.000    0.000    0.000 
#
# Total GULP energy -83590.646962 kJ/mol
# GULP energy per Si atom -5572.709797 kJ/mol
# Density = 2.136551 g / cm^3
# Si number density = 21.414253 Si / 1000 Ang^3
#
#
#
# Elastic Constant Matrix: (Units=GPa)
#
#
# Indices 1 2 3 4 5 6 
#
# 1 114.2585 28.5148 41.2573 -4.8938 -4.4370 33.7087
# 2 28.5148 79.7266 58.0152 -16.0342 -3.0275 17.8596
# 3 41.2573 58.0152 195.8774 -4.7707 20.8757 24.5398
# 4 -4.8938 -16.0342 -4.7707 26.0995 3.8910 -1.3845
# 5 -4.4370 -3.0275 20.8757 3.8910 25.9906 -9.0740
# 6 33.7087 17.8596 24.5398 -1.3845 -9.0740 38.2000
#
#
#
# Elastic Compliance Matrix: (Units=1/GPa)
#
#
# Indices 1 2 3 4 5 6 
#
# 1 0.012320 -0.001479 -0.000788 0.000885 -0.001019 -0.009883
# 2 -0.001479 0.019869 -0.005286 0.010248 0.003600 -0.003362
# 3 -0.000788 -0.005286 0.008288 -0.000798 -0.008779 -0.004272
# 4 0.000885 0.010248 -0.000798 0.045342 -0.006537 -0.004969
# 5 -0.001019 0.003600 -0.008779 -0.006537 0.052737 0.017146
# 6 -0.009883 -0.003362 -0.004272 -0.004969 0.017146 0.043108
#
#
# Mechanical properties :
#
#
# Convention : Reuss Voigt Hill
#
# Bulk Modulus (GPa) = 39.41722 71.71523 55.56623
# Shear Modulus (GPa) = 24.36295 35.52972 29.94634
#
# Velocity S-wave (km/s) = 3.37664 4.07770 3.74362
# Velocity P-wave (km/s) = 5.80079 7.46541 6.68512
#
# Compressibility (1/GPa) = 0.02536962
#
# Stress axis : x y z
#
# Youngs Moduli (GPa) = 81.16807 50.32853 120.65067
#
# Poissons Ratio (x) = 0.07446 0.09513
# Poissons Ratio (y) = 0.12008 0.63779
# Poissons Ratio (z) = 0.06400 0.26605
#
# Static dielectric constant tensor:
#      x y z
#    x 1.774490 -0.043490 -0.003600 
#    y -0.043490 1.864960 0.012310 
#    z -0.003600 0.012310 1.711500 
# 
# From -- ./inp_files/348682.got.cif
#   From: 2010.05.17/outbox.ucp.g08.bks.cvg/sg2_175_cif.got.tgz:348682.got - 2010.06.11 11:32:03.
