data_PCOD9075431
_publ_section_title
;
Structure prediction by ZEFSAII (Michael W. Deem and Ramdas Pophale) SiO2 
 PCOD9075431
Probable space group: P -1
;
_chemical_formula_sum "Si O2"
_cell_formula_units_Z 16
_cell_length_a 9.000000
_cell_length_b 18.000000
_cell_length_c 12.000000
_cell_angle_alpha 140.000000
_cell_angle_beta 80.000000
_cell_angle_gamma 130.000000
_cell_volume 729.599496
_symmetry_space_group_name_H-M "P -1"
_symmetry_group_IT_number 2
_symmetry_cell_setting 'triclinic'
loop_
_space_group_symop_operation_xyz
x,y,z
-x,-y,-z
loop_
_atom_site_type_symbol
_atom_site_label
_atom_site_fract_x
_atom_site_fract_y
_atom_site_fract_z
Si Si1 0.764784 0.222766 0.696643
Si Si2 0.796770 0.772822 0.274126
Si Si3 0.254861 0.548486 0.135313
Si Si4 0.609472 0.185840 0.144830
Si Si5 0.883595 0.689976 0.396411
Si Si6 0.303707 0.323439 0.074581
Si Si7 0.173345 0.498314 0.343045
Si Si8 0.867234 0.983830 0.100309
O O1 0.714556 0.325968 0.808183
O O2 0.898522 0.266233 0.613826
O O3 0.500000 0.000000 0.500000
O O4 0.974237 0.330473 0.888396
O O5 0.505279 0.630254 0.169393
O O6 0.870806 0.756167 0.360338
O O7 0.797034 0.721165 0.089403
O O8 0.000000 0.000000 0.500000
O O9 0.249689 0.577207 0.297925
O O10 0.691370 0.329512 0.393217
O O11 0.869913 0.318437 0.196609
O O12 0.393292 0.115152 0.018216
O O13 0.500000 0.000000 0.000000
O O14 0.599626 0.471010 0.199675
O O15 0.959899 0.811219 0.631889
O O16 0.264164 0.421001 0.254685
O O17 0.169919 0.136205 0.938724
O O18 0.000000 0.000000 0.000000
#
# Coordination Sequence:
#
# PCOD9075431 Si02
#       8
#     2   2   2   2   2   2   2   2
#     4  11  26  42  68 106 146 189 233 293 363 430
#     4  12  23  45  73 108 147 196 241 293 365 437
#     4  11  25  44  70 104 148 183 244 294 359 437
#     4  11  28  49  74 103 141 185 252 296 361 433
#     4  12  25  44  71 106 146 191 237 299 362 430
#     4  12  25  47  76 103 149 187 241 303 360 434
#     4  11  26  46  74 103 136 194 232 304 363 421
#     4  12  29  47  72 108 142 191 246 301 362 427
#
# _framework density 21.929839999999999
#
# number of rings (size 3 to 8) (size 9 to 14) (size 15 to 20)
#    0.000    0.500    3.750    3.375    5.250    4.000 
#    0.000    0.000    0.000    0.000    0.000    0.000 
#    0.000    0.000    0.000    0.000    0.000    0.000 
#
# Total GULP energy -89431.694720 kJ/mol
# GULP energy per Si atom -5589.480920 kJ/mol
# Density = 2.187993 g / cm^3
# Si number density = 21.929840 Si / 1000 Ang^3
#
#
#
# Elastic Constant Matrix: (Units=GPa)
#
#
# Indices 1 2 3 4 5 6 
#
# 1 108.6310 16.4094 18.5245 -1.8331 4.1802 4.1599
# 2 16.4094 71.2480 16.2154 -6.4972 0.4354 8.0008
# 3 18.5245 16.2154 102.2477 -4.2046 3.3942 8.1160
# 4 -1.8331 -6.4972 -4.2046 41.4467 5.6559 -2.7605
# 5 4.1802 0.4354 3.3942 5.6559 24.3761 -10.2258
# 6 4.1599 8.0008 8.1160 -2.7605 -10.2258 31.8428
#
#
#
# Elastic Compliance Matrix: (Units=1/GPa)
#
#
# Indices 1 2 3 4 5 6 
#
# 1 0.009827 -0.001804 -0.001332 0.000213 -0.001982 -0.001109
# 2 -0.001804 0.015447 -0.001691 0.002168 -0.001738 -0.003584
# 3 -0.001332 -0.001691 0.010645 0.000925 -0.002648 -0.002884
# 4 0.000213 0.002168 0.000925 0.025396 -0.006371 -0.000653
# 5 -0.001982 -0.001738 -0.002648 -0.006371 0.050371 0.016994
# 6 -0.001109 -0.003584 -0.002884 -0.000653 0.016994 0.038586
#
#
# Mechanical properties :
#
#
# Convention : Reuss Voigt Hill
#
# Bulk Modulus (GPa) = 38.07466 42.71393 40.39430
# Shear Modulus (GPa) = 29.64169 34.93161 32.28665
#
# Velocity S-wave (km/s) = 3.68048 3.99542 3.84118
# Velocity P-wave (km/s) = 5.95491 6.38783 6.17516
#
# Compressibility (1/GPa) = 0.02626418
#
# Stress axis : x y z
#
# Youngs Moduli (GPa) = 101.75567 64.73813 93.94450
#
# Poissons Ratio (x) = 0.11680 0.12511
# Poissons Ratio (y) = 0.18359 0.15890
# Poissons Ratio (z) = 0.13551 0.10950
#
# Static dielectric constant tensor:
#      x y z
#    x 1.872230 -0.000430 -0.089340 
#    y -0.000430 1.762540 -0.003980 
#    z -0.089340 -0.003980 1.782080 
# 
# From -- ./inp_files/399505.got.cif
#   From: 2010.05.17/outbox.ucp.g08.bks.cvg/sg2_200_cif.got.tgz:399505.got - 2010.06.11 11:32:03.
