data_PCOD9075858
_publ_section_title
;
Structure prediction by ZEFSAII (Michael W. Deem and Ramdas Pophale) SiO2 
 PCOD9075858
Probable space group: P -1
;
_chemical_formula_sum "Si O2"
_cell_formula_units_Z 16
_cell_length_a 23.048224
_cell_length_b 8.701336
_cell_length_c 18.861839
_cell_angle_alpha 49.194268
_cell_angle_beta 19.959739
_cell_angle_gamma 37.091197
_cell_volume 688.366028
_symmetry_space_group_name_H-M "P -1"
_symmetry_group_IT_number 2
_symmetry_cell_setting 'triclinic'
loop_
_space_group_symop_operation_xyz
x,y,z
-x,-y,-z
loop_
_atom_site_type_symbol
_atom_site_label
_atom_site_fract_x
_atom_site_fract_y
_atom_site_fract_z
Si Si1 0.996705 0.856392 0.979376
Si Si2 0.757307 0.329739 0.529458
Si Si3 0.450126 0.278212 0.997185
Si Si4 0.605006 0.491485 0.208191
Si Si5 0.859709 0.952734 0.720381
Si Si6 0.051272 0.569089 0.271947
Si Si7 0.671215 0.845966 0.418104
Si Si8 0.638781 0.165678 0.490170
O O1 0.928837 0.691622 0.133560
O O2 0.759430 0.155084 0.123312
O O3 0.223824 0.736866 0.709683
O O4 0.000000 0.000000 0.000000
O O5 0.596313 0.327006 0.769360
O O6 0.668121 0.311848 0.563228
O O7 0.685166 0.626103 0.511997
O O8 0.033694 0.102725 0.306816
O O9 0.573824 0.195362 0.957591
O O10 0.165822 0.535082 0.226794
O O11 0.500000 0.000000 0.000000
O O12 0.593063 0.587273 0.271952
O O13 0.741717 0.534799 0.989414
O O14 0.962095 0.657522 0.658344
O O15 0.000000 0.000000 0.500000
O O16 0.811236 0.878984 0.426948
O O17 0.500000 0.000000 0.500000
O O18 0.606234 0.073805 0.481865
#
# Coordination Sequence:
#
# PCOD9075858 Si02
#       8
#     2   2   2   2   2   2   2   2
#     4   9  20  36  56  75 112 147 192 229 273 325
#     4  10  18  32  56  83 116 144 181 239 283 320
#     4   8  16  30  56  87 105 143 190 223 273 349
#     4  10  20  36  57  82 110 150 194 226 275 341
#     4   9  16  30  58  87 106 145 189 225 290 339
#     4   9  17  34  59  82 113 144 185 231 279 333
#     4  11  20  35  55  82 114 149 185 237 281 321
#     4  10  21  37  59  79 109 158 191 223 279 339
#
# _framework density 23.243449999999999
#
# number of rings (size 3 to 8) (size 9 to 14) (size 15 to 20)
#    0.000    2.500    2.500    0.000    0.000    2.000 
#    0.000    1.875    0.000   28.500    0.000    0.000 
#    0.000    0.000    0.000    0.000    0.000    0.000 
#
# Total GULP energy -89078.570425 kJ/mol
# GULP energy per Si atom -5567.410652 kJ/mol
# Density = 2.319055 g / cm^3
# Si number density = 23.243450 Si / 1000 Ang^3
#
#
#
# Elastic Constant Matrix: (Units=GPa)
#
#
# Indices 1 2 3 4 5 6 
#
# 1 87.4154 23.5638 26.2483 17.3596 -34.0943 -10.1382
# 2 23.5638 118.2829 40.7277 -30.3903 -4.2362 -12.8888
# 3 26.2483 40.7277 62.9821 -14.3982 -21.8735 4.1067
# 4 17.3596 -30.3903 -14.3982 42.6631 -7.2961 -7.5558
# 5 -34.0943 -4.2362 -21.8735 -7.2961 39.4002 8.8511
# 6 -10.1382 -12.8888 4.1067 -7.5558 8.8511 28.4455
#
#
#
# Elastic Compliance Matrix: (Units=1/GPa)
#
#
# Indices 1 2 3 4 5 6 
#
# 1 0.021978 -0.006523 -0.002147 -0.012169 0.015517 -0.002873
# 2 -0.006523 0.017576 -0.010247 0.012377 -0.010202 0.013580
# 3 -0.002147 -0.010247 0.032167 0.005109 0.019135 -0.014649
# 4 -0.012169 0.012377 0.005109 0.040774 -0.001469 0.011821
# 5 0.015517 -0.010202 0.019135 -0.001469 0.052217 -0.018493
# 6 -0.002873 0.013580 -0.014649 0.011821 -0.018493 0.051293
#
#
# Mechanical properties :
#
#
# Convention : Reuss Voigt Hill
#
# Bulk Modulus (GPa) = 29.50888 49.97335 39.74111
# Shear Modulus (GPa) = 18.85833 33.97778 26.41806
#
# Velocity S-wave (km/s) = 2.85149 3.82753 3.37498
# Velocity P-wave (km/s) = 4.85433 6.40936 5.68526
#
# Compressibility (1/GPa) = 0.03388811
#
# Stress axis : x y z
#
# Youngs Moduli (GPa) = 45.49956 56.89461 31.08787
#
# Poissons Ratio (x) = 0.37113 0.06674
# Poissons Ratio (y) = 0.29680 0.31854
# Poissons Ratio (z) = 0.09768 0.58297
#
# Static dielectric constant tensor:
#      x y z
#    x 1.962350 -0.102210 -0.087800 
#    y -0.102210 1.946950 0.015420 
#    z -0.087800 0.015420 1.927210 
# 
# From -- ./inp_files/601842.got.cif
#   From: 2010.05.17/outbox.cif.g08.bks.cpg/sg2_301_cif.got.tgz:601842.got - 2010.06.03 11:33:40.
