data_PCOD9075510
_publ_section_title
;
Structure prediction by ZEFSAII (Michael W. Deem and Ramdas Pophale) SiO2 
 PCOD9075510
Probable space group: P -1
;
_chemical_formula_sum "Si O2"
_cell_formula_units_Z 9
_cell_length_a 9.000000
_cell_length_b 9.000000
_cell_length_c 9.000000
_cell_angle_alpha 30.000000
_cell_angle_beta 100.000000
_cell_angle_gamma 100.000000
_cell_volume 358.561556
_symmetry_space_group_name_H-M "P -1"
_symmetry_group_IT_number 2
_symmetry_cell_setting 'triclinic'
loop_
_space_group_symop_operation_xyz
x,y,z
-x,-y,-z
loop_
_atom_site_type_symbol
_atom_site_label
_atom_site_fract_x
_atom_site_fract_y
_atom_site_fract_z
Si Si1 0.000000 0.000000 0.000000
Si Si2 0.884360 0.178090 0.511276
Si Si3 0.285824 0.434339 0.646947
Si Si4 0.618201 0.243135 0.919370
Si Si5 0.784123 0.792745 0.547654
O O1 0.869850 0.752330 0.243075
O O2 0.070507 0.010925 0.173358
O O3 0.753164 0.376197 0.379683
O O4 0.048816 0.320204 0.366582
O O5 0.818552 0.995415 0.519543
O O6 0.438045 0.255423 0.852713
O O7 0.308947 0.653677 0.317284
O O8 0.672036 0.513670 0.801206
O O9 0.693854 0.968801 0.250806
#
# Coordination Sequence:
#
# PCOD9075510 Si02
#       5
#     1   2   2   2   2
#     4  12  24  46  72 112 134 196 240 298 338 456
#     4  11  26  44  75 104 145 192 236 296 352 433
#     4  11  27  45  78 101 148 188 245 287 364 418
#     4  11  27  50  72 109 144 190 234 305 351 428
#     4  11  27  47  73 107 150 182 243 293 365 411
#
# _framework density 25.100293000000001
#
# number of rings (size 3 to 8) (size 9 to 14) (size 15 to 20)
#    0.000    0.889    2.222    2.000    9.333    5.333 
#    0.000    0.000    0.000    0.000    0.000    0.000 
#    0.000    0.000    0.000    0.000    0.000    0.000 
#
# Total GULP energy -50114.629299 kJ/mol
# GULP energy per Si atom -5568.292144 kJ/mol
# Density = 2.504316 g / cm^3
# Si number density = 25.100293 Si / 1000 Ang^3
#
#
#
# Elastic Constant Matrix: (Units=GPa)
#
#
# Indices 1 2 3 4 5 6 
#
# 1 120.1954 71.7130 32.9213 -13.1830 -10.2479 -4.6004
# 2 71.7130 101.2125 9.9524 15.1254 0.9176 11.5983
# 3 32.9213 9.9524 88.4772 -7.7717 0.6152 5.3497
# 4 -13.1830 15.1254 -7.7717 33.8198 9.3698 2.7518
# 5 -10.2479 0.9176 0.6152 9.3698 38.7832 -10.8653
# 6 -4.6004 11.5983 5.3497 2.7518 -10.8653 56.8039
#
#
#
# Elastic Compliance Matrix: (Units=1/GPa)
#
#
# Indices 1 2 3 4 5 6 
#
# 1 0.023582 -0.019104 -0.005795 0.014438 0.005148 0.006642
# 2 -0.019104 0.026503 0.003088 -0.017012 -0.003608 -0.007115
# 3 -0.005795 0.003088 0.013342 0.000418 -0.002729 -0.002899
# 4 0.014438 -0.017012 0.000418 0.044513 -0.006189 0.001263
# 5 0.005148 -0.003608 -0.002729 -0.006189 0.030904 0.007621
# 6 0.006642 -0.007115 -0.002899 0.001263 0.007621 0.021265
#
#
# Mechanical properties :
#
#
# Convention : Reuss Voigt Hill
#
# Bulk Modulus (GPa) = 50.49099 59.89539 55.19319
# Shear Modulus (GPa) = 23.77199 38.90128 31.33663
#
# Velocity S-wave (km/s) = 3.08081 3.94106 3.53718
# Velocity P-wave (km/s) = 5.72840 6.68009 6.22246
#
# Compressibility (1/GPa) = 0.01980552
#
# Stress axis : x y z
#
# Youngs Moduli (GPa) = 42.40526 37.73145 74.95102
#
# Poissons Ratio (x) = 0.72084 0.43432
# Poissons Ratio (y) = 0.81013 -0.23147
# Poissons Ratio (z) = 0.24573 -0.11653
#
# Static dielectric constant tensor:
#      x y z
#    x 1.961630 -0.087040 0.043870 
#    y -0.087040 2.004830 -0.064470 
#    z 0.043870 -0.064470 1.993930 
# 
# From -- ./inp_files/15703.got.cif
#   From: 2010.05.17/outbox.ucp.g08.bks.cvg/sg2_8_cif.got.tgz:15703.got - 2010.06.11 11:32:03.
