data_PCOD9075661
_publ_section_title
;
Structure prediction by ZEFSAII (Michael W. Deem and Ramdas Pophale) SiO2 
 PCOD9075661
Probable space group: P -1
;
_chemical_formula_sum "Si O2"
_cell_formula_units_Z 15
_cell_length_a 9.000000
_cell_length_b 15.000000
_cell_length_c 9.000000
_cell_angle_alpha 60.000000
_cell_angle_beta 100.000000
_cell_angle_gamma 140.000000
_cell_volume 626.690879
_symmetry_space_group_name_H-M "P -1"
_symmetry_group_IT_number 2
_symmetry_cell_setting 'triclinic'
loop_
_space_group_symop_operation_xyz
x,y,z
-x,-y,-z
loop_
_atom_site_type_symbol
_atom_site_label
_atom_site_fract_x
_atom_site_fract_y
_atom_site_fract_z
Si Si1 0.160235 0.770476 0.991245
Si Si2 0.089973 0.152941 0.192711
Si Si3 0.000000 0.500000 0.000000
Si Si4 0.366172 0.936057 0.374512
Si Si5 0.871817 0.751781 0.560340
Si Si6 0.312959 0.204429 0.720843
Si Si7 0.436749 0.610850 0.087656
Si Si8 0.761595 0.301708 0.639350
O O1 0.032717 0.811291 0.923426
O O2 0.428111 0.922147 0.828744
O O3 0.983420 0.594990 0.019897
O O4 0.191767 0.756705 0.177755
O O5 0.049159 0.139154 0.373741
O O6 0.384612 0.311900 0.084293
O O7 0.948585 0.985248 0.221230
O O8 0.268161 0.618807 0.027731
O O9 0.278039 0.773371 0.460945
O O10 0.116681 0.865607 0.408442
O O11 0.500000 0.000000 0.500000
O O12 0.658731 0.686281 0.478422
O O13 0.756153 0.583190 0.740417
O O14 0.367452 0.268293 0.843403
O O15 0.520590 0.233476 0.697942
O O16 0.000000 0.500000 0.500000
#
# Coordination Sequence:
#
# PCOD9075661 Si02
#       8
#     2   2   1   2   2   2   2   2
#     4  12  27  48  79 110 152 202 257 316 388 454
#     4  12  27  50  76 112 152 201 254 313 386 457
#     4  12  26  48  80 112 146 198 270 306 388 452
#     4  12  25  49  76 107 155 198 258 316 377 461
#     4  12  27  49  72 113 151 206 248 317 382 453
#     4  12  27  48  71 113 154 196 257 308 391 450
#     4  12  27  49  77 110 151 200 258 316 379 455
#     4  12  28  46  76 114 151 200 256 318 382 456
#
# _framework density 23.935244999999998
#
# number of rings (size 3 to 8) (size 9 to 14) (size 15 to 20)
#    0.000    0.000    5.333    2.800    7.467    0.000 
#    0.000    0.000    0.000    0.000    0.000    0.000 
#    0.000    0.000    0.000    0.000    0.000    0.000 
#
# Total GULP energy -83672.116279 kJ/mol
# GULP energy per Si atom -5578.141085 kJ/mol
# Density = 2.388077 g / cm^3
# Si number density = 23.935245 Si / 1000 Ang^3
#
#
#
# Elastic Constant Matrix: (Units=GPa)
#
#
# Indices 1 2 3 4 5 6 
#
# 1 33.6149 -30.9049 29.1857 -24.7935 3.5719 -12.0907
# 2 -30.9049 90.4081 -1.3731 -16.8901 -18.1152 -21.4510
# 3 29.1857 -1.3731 44.3514 -9.5111 -13.6790 14.2774
# 4 -24.7935 -16.8901 -9.5111 26.3846 -0.8471 -2.7768
# 5 3.5719 -18.1152 -13.6790 -0.8471 4.3201 0.7307
# 6 -12.0907 -21.4510 14.2774 -2.7768 0.7307 28.2590
#
#
#
# Elastic Compliance Matrix: (Units=1/GPa)
#
#
# Indices 1 2 3 4 5 6 
#
# 1 -0.012307 -0.011145 0.013118 -0.016117 0.005552 -0.022081
# 2 -0.011145 -0.005768 -0.006925 -0.018608 -0.039454 -0.006457
# 3 0.013118 -0.006925 -0.008542 0.003361 -0.067412 0.006745
# 4 -0.016117 -0.018608 0.003361 0.008313 -0.048941 -0.020636
# 5 0.005552 -0.039454 -0.067412 -0.048941 -0.162597 0.005881
# 6 -0.022081 -0.006457 0.006745 -0.020636 0.005881 0.015451
#
#
# Mechanical properties :
#
#
# Convention : Reuss Voigt Hill
#
# Bulk Modulus (GPa) = -27.38157 18.02109 -4.68024
# Shear Modulus (GPa) = -29.81141 23.22386 -3.29378
#
# Velocity S-wave (km/s) = -3.53300 3.11831 -1.17435
# Velocity P-wave (km/s) = 5.30165 4.52886 1.94896
#
# Compressibility (1/GPa) = -0.03652092
#
# Stress axis : x y z
#
# Youngs Moduli (GPa) = -81.25234 -173.37343 -117.07009
#
# Poissons Ratio (x) = -1.93233 1.53575
# Poissons Ratio (y) = -0.90560 -0.81067
# Poissons Ratio (z) = 1.06589 -1.20055
#
# Static dielectric constant tensor:
#      x y z
#    x 1.819900 -0.052540 0.021930 
#    y -0.052540 1.924720 -0.049480 
#    z 0.021930 -0.049480 1.928470 
# 
# From -- ./inp_files/184025.got.cif
#   From: 2010.05.17/outbox.ucp.g08.bks.cvg/sg2_93_cif.got.tgz:184025.got - 2010.06.11 11:32:03.
