data_PCOD9075104
_publ_section_title
;
Structure prediction by ZEFSAII (Michael W. Deem and Ramdas Pophale) SiO2 
 PCOD9075104
Probable space group: P -1
;
_chemical_formula_sum "Si O2"
_cell_formula_units_Z 16
_cell_length_a 21.000000
_cell_length_b 18.000000
_cell_length_c 12.000000
_cell_angle_alpha 20.000000
_cell_angle_beta 40.000000
_cell_angle_gamma 30.000000
_cell_volume 744.844803
_symmetry_space_group_name_H-M "P -1"
_symmetry_group_IT_number 2
_symmetry_cell_setting 'triclinic'
loop_
_space_group_symop_operation_xyz
x,y,z
-x,-y,-z
loop_
_atom_site_type_symbol
_atom_site_label
_atom_site_fract_x
_atom_site_fract_y
_atom_site_fract_z
Si Si1 0.492815 0.716029 0.624151
Si Si2 0.817933 0.769704 0.652179
Si Si3 0.201374 0.640314 0.617660
Si Si4 0.533778 0.532059 0.573437
Si Si5 0.775086 0.997763 0.756934
Si Si6 0.333328 0.122254 0.751762
Si Si7 0.871371 0.545159 0.646318
Si Si8 0.052577 0.077893 0.570949
O O1 0.538705 0.573773 0.640072
O O2 0.574981 0.804974 0.437776
O O3 0.335433 0.983841 0.454194
O O4 0.500000 0.500000 0.000000
O O5 0.830673 0.716170 0.577548
O O6 0.904489 0.840095 0.493122
O O7 0.844698 0.494045 0.056152
O O8 0.358416 0.448691 0.647038
O O9 0.180490 0.885423 0.376170
O O10 0.104015 0.739292 0.502942
O O11 0.378989 0.763784 0.416236
O O12 0.583015 0.220680 0.906037
O O13 0.872721 0.894322 0.667490
O O14 0.764698 0.793896 0.131647
O O15 0.243418 0.279785 0.540358
O O16 0.000000 0.500000 0.500000
O O17 0.895753 0.248380 0.042363
#
# Coordination Sequence:
#
# PCOD9075104 Si02
#       8
#     2   2   2   2   2   2   2   2
#     4  12  26  43  69 104 146 186 230 286 353 416
#     4  12  26  44  72 104 137 185 237 284 347 419
#     4  11  24  43  73 106 139 182 236 290 345 416
#     4  11  24  45  70 104 145 180 231 294 347 406
#     4  11  22  45  74 101 139 182 232 292 347 402
#     4  11  26  42  72 104 138 185 234 285 348 417
#     4  12  28  48  70 100 145 188 228 287 353 421
#     4  12  26  46  74 103 141 184 235 290 347 415
#
# _framework density 21.480985
#
# number of rings (size 3 to 8) (size 9 to 14) (size 15 to 20)
#    0.000    0.500    2.500    6.750    3.500    3.500 
#    0.000    0.000    0.000    0.000    0.000    0.000 
#    0.000    0.000    0.000    0.000    0.000    0.000 
#
# Total GULP energy -89347.870866 kJ/mol
# GULP energy per Si atom -5584.241929 kJ/mol
# Density = 2.143209 g / cm^3
# Si number density = 21.480985 Si / 1000 Ang^3
#
#
#
# Elastic Constant Matrix: (Units=GPa)
#
#
# Indices 1 2 3 4 5 6 
#
# 1 215.3615 44.8725 45.0633 15.2080 -27.9268 -15.2824
# 2 44.8725 98.3474 15.9991 19.0251 -6.5614 -2.0776
# 3 45.0633 15.9991 63.1662 21.5361 -14.5457 -4.0234
# 4 15.2080 19.0251 21.5361 24.6258 -6.7808 1.9411
# 5 -27.9268 -6.5614 -14.5457 -6.7808 45.9729 4.5980
# 6 -15.2824 -2.0776 -4.0234 1.9411 4.5980 59.8499
#
#
#
# Elastic Compliance Matrix: (Units=1/GPa)
#
#
# Indices 1 2 3 4 5 6 
#
# 1 0.006194 -0.002402 -0.003881 0.002004 0.002389 0.000989
# 2 -0.002402 0.012925 0.001837 -0.010297 -0.000586 0.000338
# 3 -0.003881 0.001837 0.026097 -0.021145 0.002914 0.001289
# 4 0.002004 -0.010297 -0.021145 0.067020 0.003313 -0.003695
# 5 0.002389 -0.000586 0.002914 0.003313 0.024652 -0.001216
# 6 0.000989 0.000338 0.001289 -0.003695 -0.001216 0.017273
#
#
# Mechanical properties :
#
#
# Convention : Reuss Voigt Hill
#
# Bulk Modulus (GPa) = 27.52977 65.41608 46.47293
# Shear Modulus (GPa) = 28.54523 44.15241 36.34882
#
# Velocity S-wave (km/s) = 3.64931 4.53859 4.11802
# Velocity P-wave (km/s) = 5.53175 7.61474 6.65524
#
# Compressibility (1/GPa) = 0.03632431
#
# Stress axis : x y z
#
# Youngs Moduli (GPa) = 161.43655 77.36832 38.31883
#
# Poissons Ratio (x) = 0.18587 0.14871
# Poissons Ratio (y) = 0.38784 -0.07040
# Poissons Ratio (z) = 0.62653 -0.14215
#
# Static dielectric constant tensor:
#      x y z
#    x 1.609480 0.287360 -0.696900 
#    y 0.287360 1.289170 1.386150 
#    z -0.696900 1.386150 -2.169640 
# 
# From -- ./inp_files/472304.got.cif
#   From: 2010.05.17/outbox.ucp.g08.bks.cvg/sg2_237_cif.got.tgz:472304.got - 2010.06.11 11:32:03.
