data_PCOD9075777
_publ_section_title
;
Structure prediction by ZEFSAII (Michael W. Deem and Ramdas Pophale) SiO2 
 PCOD9075777
Probable space group: P -1
;
_chemical_formula_sum "Si O2"
_cell_formula_units_Z 16
_cell_length_a 13.464649
_cell_length_b 13.633881
_cell_length_c 15.477170
_cell_angle_alpha 42.700700
_cell_angle_beta 139.858578
_cell_angle_gamma 158.066991
_cell_volume 680.238047
_symmetry_space_group_name_H-M "P -1"
_symmetry_group_IT_number 2
_symmetry_cell_setting 'triclinic'
loop_
_space_group_symop_operation_xyz
x,y,z
-x,-y,-z
loop_
_atom_site_type_symbol
_atom_site_label
_atom_site_fract_x
_atom_site_fract_y
_atom_site_fract_z
Si Si1 0.115973 0.892621 0.760309
Si Si2 0.809883 0.096240 0.010786
Si Si3 0.336264 0.234705 0.390955
Si Si4 0.592093 0.214092 0.471557
Si Si5 0.348714 0.569380 0.790044
Si Si6 0.413685 0.601785 0.371889
Si Si7 0.543189 0.471983 0.863869
Si Si8 0.782650 0.151688 0.774751
O O1 0.192072 0.862362 0.916662
O O2 0.936168 0.892791 0.673879
O O3 0.903950 0.644368 0.714913
O O4 0.387295 0.159892 0.717236
O O5 0.126438 0.295147 0.073470
O O6 0.614820 0.802862 0.061732
O O7 0.736676 0.141736 0.852603
O O8 0.322533 0.096437 0.400523
O O9 0.499279 0.292361 0.541887
O O10 0.519289 0.495682 0.289891
O O11 0.754496 0.436187 0.364880
O O12 0.750895 0.273383 0.620401
O O13 0.500000 0.000000 0.500000
O O14 0.471217 0.516491 0.868259
O O15 0.095427 0.346921 0.831144
O O16 0.571800 0.858209 0.792360
O O17 0.500000 0.500000 0.500000
#
# Coordination Sequence:
#
# PCOD9075777 Si02
#       8
#     2   2   2   2   2   2   2   2
#     4  10  20  34  52  82 112 135 169 224 280 321
#     4  11  21  34  52  77 109 142 175 215 274 329
#     4   9  18  34  58  83 109 141 179 223 272 321
#     4   9  20  39  57  80 111 145 185 223 261 308
#     4  10  21  37  55  76 104 137 183 234 267 304
#     4  10  18  32  55  83 109 133 171 222 280 327
#     4  10  21  34  52  79 108 138 175 226 276 317
#     4  11  22  36  54  74 104 148 184 215 260 319
#
# _framework density 23.521179
#
# number of rings (size 3 to 8) (size 9 to 14) (size 15 to 20)
#    0.000    2.000    0.000    5.625    0.000    5.000 
#    0.000   12.500    0.000    1.500    0.000    0.000 
#    0.000    1.000    0.000    0.000    0.000    0.000 
#
# Total GULP energy -89324.947970 kJ/mol
# GULP energy per Si atom -5582.809248 kJ/mol
# Density = 2.346764 g / cm^3
# Si number density = 23.521179 Si / 1000 Ang^3
#
#
#
# Elastic Constant Matrix: (Units=GPa)
#
#
# Indices 1 2 3 4 5 6 
#
# 1 56.4733 -0.9536 1.5548 -1.0603 -12.2012 3.2605
# 2 -0.9536 118.0723 11.0408 -3.5432 -12.8579 14.6600
# 3 1.5548 11.0408 133.8913 2.0986 -52.6129 6.4127
# 4 -1.0603 -3.5432 2.0986 19.6591 1.4895 -10.4788
# 5 -12.2012 -12.8579 -52.6129 1.4895 39.8105 0.1124
# 6 3.2605 14.6600 6.4127 -10.4788 0.1124 21.1471
#
#
#
# Elastic Compliance Matrix: (Units=1/GPa)
#
#
# Indices 1 2 3 4 5 6 
#
# 1 0.021501 0.002364 0.006423 -0.005493 0.016075 -0.009709
# 2 0.002364 0.010287 0.002872 -0.004644 0.008046 -0.010710
# 3 0.006423 0.002872 0.019450 -0.011183 0.029061 -0.014575
# 4 -0.005493 -0.004644 -0.011183 0.076848 -0.020967 0.045648
# 5 0.016075 0.008046 0.029061 -0.020967 0.071913 -0.027641
# 6 -0.009709 -0.010710 -0.014575 0.045648 -0.027641 0.083396
#
#
# Mechanical properties :
#
#
# Convention : Reuss Voigt Hill
#
# Bulk Modulus (GPa) = 13.41265 36.85788 25.13527
# Shear Modulus (GPa) = 17.54826 35.90967 26.72896
#
# Velocity S-wave (km/s) = 2.73438 3.91153 3.37468
# Velocity P-wave (km/s) = 3.96028 6.00868 5.08862
#
# Compressibility (1/GPa) = 0.07455647
#
# Stress axis : x y z
#
# Youngs Moduli (GPa) = 46.50935 97.21378 51.41338
#
# Poissons Ratio (x) = -0.22984 -0.33024
# Poissons Ratio (y) = -0.10996 -0.14765
# Poissons Ratio (z) = -0.29874 -0.27918
#
# Static dielectric constant tensor:
#      x y z
#    x 1.936860 -0.039140 -0.017990 
#    y -0.039140 1.853790 0.059560 
#    z -0.017990 0.059560 2.012220 
# 
# From -- ./inp_files/534268.got.cif
#   From: 2010.05.17/outbox.cif.g08.bks.cpg/sg2_268_cif.got.tgz:534268.got - 2010.06.03 11:33:40.
