data_PCOD9075514
_publ_section_title
;
Structure prediction by ZEFSAII (Michael W. Deem and Ramdas Pophale) SiO2 
 PCOD9075514
Probable space group: P -1
;
_chemical_formula_sum "Si O2"
_cell_formula_units_Z 16
_cell_length_a 9.000000
_cell_length_b 21.000000
_cell_length_c 18.000000
_cell_angle_alpha 160.000000
_cell_angle_beta 140.000000
_cell_angle_gamma 40.000000
_cell_volume 731.217405
_symmetry_space_group_name_H-M "P -1"
_symmetry_group_IT_number 2
_symmetry_cell_setting 'triclinic'
loop_
_space_group_symop_operation_xyz
x,y,z
-x,-y,-z
loop_
_atom_site_type_symbol
_atom_site_label
_atom_site_fract_x
_atom_site_fract_y
_atom_site_fract_z
Si Si1 0.904952 0.200113 0.637054
Si Si2 0.698364 0.608463 0.079763
Si Si3 0.117613 0.037137 0.194640
Si Si4 0.424777 0.585602 0.482267
Si Si5 0.360941 0.807147 0.904245
Si Si6 0.851710 0.231756 0.966106
Si Si7 0.720241 0.039725 0.244004
Si Si8 0.122196 0.380972 0.675187
O O1 0.753832 0.146172 0.450632
O O2 0.122308 0.282204 0.774468
O O3 0.757587 0.385539 0.829794
O O4 0.000000 0.000000 0.500000
O O5 0.433199 0.731181 0.100973
O O6 0.737525 0.606684 0.181811
O O7 0.199063 0.183137 0.443050
O O8 0.306935 0.944369 0.104792
O O9 0.060343 0.855591 0.016564
O O10 0.879736 0.150863 0.189466
O O11 0.500000 0.500000 0.500000
O O12 0.426668 0.801914 0.695767
O O13 0.147216 0.599226 0.381793
O O14 0.564667 0.418177 0.299482
O O15 0.572183 0.876195 0.018840
O O16 0.885513 0.439246 0.183956
O O17 0.014940 0.071696 0.800791
#
# Coordination Sequence:
#
# PCOD9075514 Si02
#       8
#     2   2   2   2   2   2   2   2
#     4  11  26  46  71 103 141 188 230 288 352 410
#     4  11  27  46  69 103 144 177 240 290 340 415
#     4  11  27  46  69 107 139 180 232 286 356 406
#     4  12  24  45  73 102 140 185 231 290 344 415
#     4  11  27  46  70 104 144 177 229 294 342 423
#     4  12  26  43  73 103 139 185 235 286 339 418
#     4  12  26  45  74 105 137 188 235 278 360 413
#     4  12  24  46  68 102 138 184 232 283 349 413
#
# _framework density 21.881316999999999
#
# number of rings (size 3 to 8) (size 9 to 14) (size 15 to 20)
#    0.000    0.500    5.000    1.125    7.000    3.000 
#    0.000    2.500    0.000    0.000    0.000    0.000 
#    0.000    0.000    0.000    0.000    0.000    0.000 
#
# Total GULP energy -89404.943954 kJ/mol
# GULP energy per Si atom -5587.808997 kJ/mol
# Density = 2.183151 g / cm^3
# Si number density = 21.881317 Si / 1000 Ang^3
#
#
#
# Elastic Constant Matrix: (Units=GPa)
#
#
# Indices 1 2 3 4 5 6 
#
# 1 76.8911 27.8852 42.8826 11.9420 -17.4889 -6.5296
# 2 27.8852 80.0272 29.5646 36.4454 -20.6287 -2.7666
# 3 42.8826 29.5646 108.2927 27.6345 -20.3434 -0.8493
# 4 11.9420 36.4454 27.6345 43.7050 5.2628 2.8495
# 5 -17.4889 -20.6287 -20.3434 5.2628 45.9719 12.2598
# 6 -6.5296 -2.7666 -0.8493 2.8495 12.2598 41.2242
#
#
#
# Elastic Compliance Matrix: (Units=1/GPa)
#
#
# Indices 1 2 3 4 5 6 
#
# 1 0.018369 -0.005095 -0.006471 0.003078 0.000970 0.001933
# 2 -0.005095 0.029817 0.004222 -0.028071 0.017013 -0.001838
# 3 -0.006471 0.004222 0.015287 -0.012268 0.008135 -0.001998
# 4 0.003078 -0.028071 -0.012268 0.055955 -0.023665 0.001521
# 5 0.000970 0.017013 0.008135 -0.023665 0.038274 -0.008284
# 6 0.001933 -0.001838 -0.001998 0.001521 -0.008284 0.026758
#
#
# Mechanical properties :
#
#
# Convention : Reuss Voigt Hill
#
# Bulk Modulus (GPa) = 20.49789 51.76398 36.13093
# Shear Modulus (GPa) = 23.21173 37.17211 30.19192
#
# Velocity S-wave (km/s) = 3.26053 4.12613 3.71860
# Velocity P-wave (km/s) = 4.85415 6.81234 5.91485
#
# Compressibility (1/GPa) = 0.04878551
#
# Stress axis : x y z
#
# Youngs Moduli (GPa) = 54.44031 33.53797 65.41483
#
# Poissons Ratio (x) = 0.17087 0.42329
# Poissons Ratio (y) = 0.27736 -0.27618
# Poissons Ratio (z) = 0.35228 -0.14160
#
# Static dielectric constant tensor:
#      x y z
#    x 1.892190 0.026140 0.009850 
#    y 0.026140 1.762090 -0.016470 
#    z 0.009850 -0.016470 1.807800 
# 
# From -- ./inp_files/562997.got.cif
#   From: 2010.05.17/outbox.ucp.g08.bks.cvg/sg2_282_cif.got.tgz:562997.got - 2010.06.11 11:32:03.
