data_PCOD9075416
_publ_section_title
;
Structure prediction by ZEFSAII (Michael W. Deem and Ramdas Pophale) SiO2 
 PCOD9075416
Probable space group: P -1
;
_chemical_formula_sum "Si O2"
_cell_formula_units_Z 13
_cell_length_a 15.000000
_cell_length_b 9.000000
_cell_length_c 12.000000
_cell_angle_alpha 90.000000
_cell_angle_beta 30.000000
_cell_angle_gamma 70.000000
_cell_volume 590.849827
_symmetry_space_group_name_H-M "P -1"
_symmetry_group_IT_number 2
_symmetry_cell_setting 'triclinic'
loop_
_space_group_symop_operation_xyz
x,y,z
-x,-y,-z
loop_
_atom_site_type_symbol
_atom_site_label
_atom_site_fract_x
_atom_site_fract_y
_atom_site_fract_z
Si Si1 0.236064 0.307568 0.082605
Si Si2 0.647293 0.991883 0.241513
Si Si3 0.000000 0.000000 0.000000
Si Si4 0.503013 0.300728 0.231290
Si Si5 0.039696 0.053086 0.577448
Si Si6 0.742020 0.742789 0.687035
Si Si7 0.647147 0.286843 0.575581
O O1 0.335431 0.213619 0.099535
O O2 0.961738 0.505675 0.414024
O O3 0.267963 0.165336 0.951928
O O4 0.377249 0.371065 0.884043
O O5 0.500000 0.000000 0.500000
O O6 0.867461 0.954749 0.060415
O O7 0.477140 0.210447 0.365613
O O8 0.751631 0.160405 0.347583
O O9 0.460894 0.216336 0.171453
O O10 0.350950 0.536826 0.414431
O O11 0.778522 0.201488 0.920528
O O12 0.148460 0.156729 0.453706
O O13 0.000000 0.000000 0.500000
O O14 0.207288 0.859524 0.476050
#
# Coordination Sequence:
#
# PCOD9075416 Si02
#       7
#     2   2   1   2   2   2   2
#     4  11  24  48  76 108 153 191 245 300 367 440
#     4  12  26  49  74 106 141 195 246 304 365 434
#     4  12  26  48  78 100 144 192 250 308 360 426
#     4  12  27  48  77 109 147 195 244 304 376 434
#     4  12  26  45  74 109 151 194 241 297 371 437
#     4  11  26  45  75 113 148 195 239 300 370 441
#     4  12  26  49  75 108 150 194 250 303 363 441
#
# _framework density 22.002206999999999
#
# number of rings (size 3 to 8) (size 9 to 14) (size 15 to 20)
#    0.000    0.308    4.615    3.692    4.308    3.692 
#    2.769    1.538    0.000    0.000    0.000    0.000 
#    0.000    0.000    0.000    0.000    0.000    0.000 
#
# Total GULP energy -72375.728767 kJ/mol
# GULP energy per Si atom -5567.363751 kJ/mol
# Density = 2.195213 g / cm^3
# Si number density = 22.002207 Si / 1000 Ang^3
#
#
#
# Elastic Constant Matrix: (Units=GPa)
#
#
# Indices 1 2 3 4 5 6 
#
# 1 159.3883 80.7893 44.6489 -2.6172 23.5136 34.8633
# 2 80.7893 144.0922 25.5054 -9.5250 20.8332 17.8368
# 3 44.6489 25.5054 95.8833 -10.1372 21.4297 -3.2764
# 4 -2.6172 -9.5250 -10.1372 30.8208 4.6748 2.8249
# 5 23.5136 20.8332 21.4297 4.6748 51.4260 -5.1720
# 6 34.8633 17.8368 -3.2764 2.8249 -5.1720 32.0380
#
#
#
# Elastic Compliance Matrix: (Units=1/GPa)
#
#
# Indices 1 2 3 4 5 6 
#
# 1 0.013169 -0.004458 -0.004588 -0.000041 -0.003597 -0.012895
# 2 -0.004458 0.010191 0.000268 0.003403 -0.002665 -0.001525
# 3 -0.004588 0.000268 0.013961 0.004361 -0.003693 0.005290
# 4 -0.000041 0.003403 0.004361 0.036530 -0.007078 -0.005768
# 5 -0.003597 -0.002665 -0.003693 -0.007078 0.025331 0.009733
# 6 -0.012895 -0.001525 0.005290 -0.005768 0.009733 0.048715
#
#
# Mechanical properties :
#
#
# Convention : Reuss Voigt Hill
#
# Bulk Modulus (GPa) = 50.58921 77.91680 64.25301
# Shear Modulus (GPa) = 29.06278 39.41833 34.24055
#
# Velocity S-wave (km/s) = 3.63837 4.23728 3.94919
# Velocity P-wave (km/s) = 6.37910 7.70905 7.07539
#
# Compressibility (1/GPa) = 0.01976706
#
# Stress axis : x y z
#
# Youngs Moduli (GPa) = 75.93486 98.12458 71.62574
#
# Poissons Ratio (x) = 0.43745 0.32859
# Poissons Ratio (y) = 0.33853 -0.01922
# Poissons Ratio (z) = 0.34835 -0.02633
#
# Static dielectric constant tensor:
#      x y z
#    x 1.788230 -0.054020 -0.066230 
#    y -0.054020 1.845230 0.063240 
#    z -0.066230 0.063240 1.897700 
# 
# From -- ./inp_files/445951.got.cif
#   From: 2010.05.17/outbox.ucp.g08.bks.cvg/sg2_223_cif.got.tgz:445951.got - 2010.06.11 11:32:03.
