data_PCOD9075758
_publ_section_title
;
Structure prediction by ZEFSAII (Michael W. Deem and Ramdas Pophale) SiO2 
 PCOD9075758
Probable space group: P -1
;
_chemical_formula_sum "Si O2"
_cell_formula_units_Z 14
_cell_length_a 15.885115
_cell_length_b 30.226419
_cell_length_c 15.982501
_cell_angle_alpha 167.204268
_cell_angle_beta 18.502232
_cell_angle_gamma 163.013383
_cell_volume 481.719293
_symmetry_space_group_name_H-M "P -1"
_symmetry_group_IT_number 2
_symmetry_cell_setting 'triclinic'
loop_
_space_group_symop_operation_xyz
x,y,z
-x,-y,-z
loop_
_atom_site_type_symbol
_atom_site_label
_atom_site_fract_x
_atom_site_fract_y
_atom_site_fract_z
Si Si1 0.955694 0.784121 0.314050
Si Si2 0.654986 0.462329 0.668405
Si Si3 0.693783 0.880531 0.515272
Si Si4 0.482837 0.150588 0.922281
Si Si5 0.006909 0.489895 0.873965
Si Si6 0.943498 0.181572 0.164364
Si Si7 0.338177 0.156058 0.887780
O O1 0.649528 0.634725 0.277709
O O2 0.975835 0.641434 0.108526
O O3 0.951538 0.002166 0.761378
O O4 0.252186 0.909352 0.207522
O O5 0.593758 0.250028 0.394723
O O6 0.675219 0.668916 0.088169
O O7 0.945096 0.586564 0.564284
O O8 0.000000 0.000000 0.500000
O O9 0.630845 0.406224 0.284845
O O10 0.287711 0.143541 0.012109
O O11 0.732006 0.085099 0.529085
O O12 0.354238 0.975951 0.796402
O O13 0.000000 0.500000 0.000000
O O14 0.692372 0.277075 0.764495
O O15 0.168082 0.241781 0.143055
#
# Coordination Sequence:
#
# PCOD9075758 Si02
#       7
#     2   2   2   2   2   2   2
#     4  10  18  32  55  80 112 148 188 227 280 335
#     4   9  17  31  53  86 113 139 185 231 280 337
#     4   8  16  30  53  85 111 141 182 230 278 337
#     4  10  22  36  53  79 111 150 193 236 277 325
#     4  10  20  36  52  75 113 151 187 229 272 328
#     4  11  20  33  57  83 109 146 190 236 282 329
#     4  10  20  38  54  74 112 152 192 234 277 330
#
# _framework density 29.062567999999999
#
# number of rings (size 3 to 8) (size 9 to 14) (size 15 to 20)
#    0.000    2.286    2.857    0.429    0.000    1.143 
#    0.000    1.429    0.000    0.857    0.000   15.000 
#    0.000    0.000    0.000    0.000    0.000    0.000 
#
# Total GULP energy -78030.202649 kJ/mol
# GULP energy per Si atom -5573.585904 kJ/mol
# Density = 2.899642 g / cm^3
# Si number density = 29.062568 Si / 1000 Ang^3
#
#
#
# Elastic Constant Matrix: (Units=GPa)
#
#
# Indices 1 2 3 4 5 6 
#
# 1 176.6770 53.5842 45.9578 28.2792 21.2746 6.0685
# 2 53.5842 187.1870 53.7949 47.1830 -13.8071 -45.9144
# 3 45.9578 53.7949 83.2887 30.7059 1.4017 -11.8996
# 4 28.2792 47.1830 30.7059 59.2123 -13.3554 -12.1971
# 5 21.2746 -13.8071 1.4017 -13.3554 43.3014 26.2264
# 6 6.0685 -45.9144 -11.8996 -12.1971 26.2264 73.0702
#
#
#
# Elastic Compliance Matrix: (Units=1/GPa)
#
#
# Indices 1 2 3 4 5 6 
#
# 1 0.007670 -0.001374 -0.002474 -0.002435 -0.004444 -0.000714
# 2 -0.001374 0.008594 -0.002659 -0.003981 -0.000513 0.004601
# 3 -0.002474 -0.002659 0.017642 -0.006227 -0.002999 0.001445
# 4 -0.002435 -0.003981 -0.006227 0.026132 0.009651 -0.002415
# 5 -0.004444 -0.000513 -0.002999 0.009651 0.035112 -0.011433
# 6 -0.000714 0.004601 0.001445 -0.002415 -0.011433 0.020571
#
#
# Mechanical properties :
#
#
# Convention : Reuss Voigt Hill
#
# Bulk Modulus (GPa) = 47.86787 83.75851 65.81319
# Shear Modulus (GPa) = 36.84635 54.70450 45.77542
#
# Velocity S-wave (km/s) = 3.56452 4.34326 3.97301
# Velocity P-wave (km/s) = 5.78338 7.35081 6.61369
#
# Compressibility (1/GPa) = 0.02089084
#
# Stress axis : x y z
#
# Youngs Moduli (GPa) = 130.38156 116.36366 56.68413
#
# Poissons Ratio (x) = 0.15986 0.14026
# Poissons Ratio (y) = 0.17912 0.15072
# Poissons Ratio (z) = 0.32262 0.30940
#
# Static dielectric constant tensor:
#      x y z
#    x 2.358760 -0.074610 0.364280 
#    y -0.074610 2.395480 -0.170820 
#    z 0.364280 -0.170820 3.082370 
# 
# From -- ./inp_files/315591.got.cif
#   From: 2010.05.17/outbox.cif.g08.bks.cpg/sg2_158_cif.got.tgz:315591.got - 2010.06.03 11:33:40.
