data_PCOD9075730
_publ_section_title
;
Structure prediction by ZEFSAII (Michael W. Deem and Ramdas Pophale) SiO2 
 PCOD9075730
Probable space group: P -1
;
_chemical_formula_sum "Si O2"
_cell_formula_units_Z 16
_cell_length_a 6.708795
_cell_length_b 9.919175
_cell_length_c 12.511982
_cell_angle_alpha 51.240462
_cell_angle_beta 82.744605
_cell_angle_gamma 78.349462
_cell_volume 635.883297
_symmetry_space_group_name_H-M "P -1"
_symmetry_group_IT_number 2
_symmetry_cell_setting 'triclinic'
loop_
_space_group_symop_operation_xyz
x,y,z
-x,-y,-z
loop_
_atom_site_type_symbol
_atom_site_label
_atom_site_fract_x
_atom_site_fract_y
_atom_site_fract_z
Si Si1 0.475265 0.547806 0.601809
Si Si2 0.877751 0.834012 0.283334
Si Si3 0.434456 0.391989 0.884013
Si Si4 0.496428 0.922498 0.400017
Si Si5 0.809066 0.192758 0.020373
Si Si6 0.550894 0.709514 0.849404
Si Si7 0.076726 0.533470 0.277271
Si Si8 0.918282 0.856719 0.507738
O O1 0.500000 0.500000 0.500000
O O2 0.353265 0.448217 0.745901
O O3 0.394007 0.754868 0.514544
O O4 0.702848 0.506558 0.656617
O O5 0.637825 0.865622 0.312765
O O6 0.987384 0.843241 0.385384
O O7 0.944953 0.648237 0.318665
O O8 0.917581 0.995883 0.126552
O O9 0.608208 0.220853 0.943813
O O10 0.540691 0.554990 0.843207
O O11 0.676733 0.650957 0.978191
O O12 0.676667 0.925257 0.472225
O O13 0.384910 0.115149 0.286370
O O14 0.929039 0.336361 0.889422
O O15 0.685739 0.242774 0.115685
O O16 0.042682 0.337816 0.351003
O O17 0.000000 0.000000 0.500000
#
# Coordination Sequence:
#
# PCOD9075730 Si02
#       8
#     2   2   2   2   2   2   2   2
#     4  10  20  33  47  75 105 135 166 211 253 298
#     4   9  17  31  54  77  99 134 170 203 258 311
#     4   8  15  29  50  72  96 131 171 205 247 303
#     4   8  18  32  51  71 104 130 169 212 250 302
#     4   8  15  29  52  75  96 129 166 215 250 298
#     4   8  14  30  52  70  93 134 170 204 253 298
#     4  10  18  32  55  75 103 137 167 207 259 307
#     4   9  18  32  49  75 104 133 167 208 254 301
#
# _framework density 25.161852
#
# number of rings (size 3 to 8) (size 9 to 14) (size 15 to 20)
#    1.500    1.750    0.000    0.750    0.000    0.500 
#    2.250    1.250    0.000    0.000    0.000    0.000 
#    0.000    0.000    0.000    0.000    0.000    0.000 
#
# Total GULP energy -89149.357169 kJ/mol
# GULP energy per Si atom -5571.834823 kJ/mol
# Density = 2.510458 g / cm^3
# Si number density = 25.161852 Si / 1000 Ang^3
#
#
#
# Elastic Constant Matrix: (Units=GPa)
#
#
# Indices 1 2 3 4 5 6 
#
# 1 44.8226 31.0907 18.5495 1.6205 6.5920 -2.1373
# 2 31.0907 144.8365 73.6133 -2.1279 6.2843 5.0793
# 3 18.5495 73.6133 203.4653 -11.0620 -13.0132 10.8238
# 4 1.6205 -2.1279 -11.0620 53.4085 -4.3195 1.1611
# 5 6.5920 6.2843 -13.0132 -4.3195 28.9117 0.3514
# 6 -2.1373 5.0793 10.8238 1.1611 0.3514 29.3197
#
#
#
# Elastic Compliance Matrix: (Units=1/GPa)
#
#
# Indices 1 2 3 4 5 6 
#
# 1 0.027550 -0.005120 -0.001340 -0.001887 -0.006097 0.003538
# 2 -0.005120 0.009754 -0.003188 -0.000294 -0.002421 -0.000845
# 3 -0.001340 -0.003188 0.006669 0.001687 0.004278 -0.002125
# 4 -0.001887 -0.000294 0.001687 0.019490 0.004184 -0.001531
# 5 -0.006097 -0.002421 0.004278 0.004184 0.039082 -0.002238
# 6 0.003538 -0.000845 -0.002125 -0.001531 -0.002238 0.035383
#
#
# Mechanical properties :
#
#
# Convention : Reuss Voigt Hill
#
# Bulk Modulus (GPa) = 40.52439 71.07014 55.79727
# Shear Modulus (GPa) = 30.22052 40.31937 35.26995
#
# Velocity S-wave (km/s) = 3.46937 4.00734 3.74802
# Velocity P-wave (km/s) = 5.67355 7.05112 6.39951
#
# Compressibility (1/GPa) = 0.02467649
#
# Stress axis : x y z
#
# Youngs Moduli (GPa) = 36.29793 102.52030 149.95074
#
# Poissons Ratio (x) = 0.52491 0.20093
# Poissons Ratio (y) = 0.18585 0.47806
# Poissons Ratio (z) = 0.04864 0.32685
#
# Static dielectric constant tensor:
#      x y z
#    x 2.118550 -0.007750 -0.075150 
#    y -0.007750 1.977840 0.013990 
#    z -0.075150 0.013990 2.046090 
# 
# From -- ./inp_files/414310.got.cif
#   From: 2010.05.17/outbox.cif.g08.bks.cpg/sg2_208_cif.got.tgz:414310.got - 2010.06.03 11:33:40.
