data_PCOD9075436
_publ_section_title
;
Structure prediction by ZEFSAII (Michael W. Deem and Ramdas Pophale) SiO2 
 PCOD9075436
Probable space group: P -1
;
_chemical_formula_sum "Si O2"
_cell_formula_units_Z 16
_cell_length_a 9.000000
_cell_length_b 6.000000
_cell_length_c 15.000000
_cell_angle_alpha 90.000000
_cell_angle_beta 70.000000
_cell_angle_gamma 80.000000
_cell_volume 748.042140
_symmetry_space_group_name_H-M "P -1"
_symmetry_group_IT_number 2
_symmetry_cell_setting 'triclinic'
loop_
_space_group_symop_operation_xyz
x,y,z
-x,-y,-z
loop_
_atom_site_type_symbol
_atom_site_label
_atom_site_fract_x
_atom_site_fract_y
_atom_site_fract_z
Si Si1 0.140909 0.722516 0.059604
Si Si2 0.474858 0.762020 0.560254
Si Si3 0.156506 0.672396 0.716401
Si Si4 0.206392 0.368296 0.887974
Si Si5 0.354925 0.220998 0.280033
Si Si6 0.875577 0.085634 0.745408
Si Si7 0.028138 0.559301 0.389386
Si Si8 0.415983 0.954090 0.921930
O O1 0.170982 0.744367 0.160298
O O2 0.947273 0.755793 0.092932
O O3 0.187750 0.498031 0.987640
O O4 0.250627 0.880651 0.989435
O O5 0.500000 0.500000 0.500000
O O6 0.298450 0.776142 0.640378
O O7 0.575306 0.772803 0.632939
O O8 0.500000 0.000000 0.500000
O O9 0.201947 0.533488 0.800886
O O10 0.103798 0.513210 0.649623
O O11 0.001418 0.872930 0.761077
O O12 0.363646 0.177065 0.870892
O O13 0.200373 0.422108 0.320076
O O14 0.274067 0.006212 0.267419
O O15 0.478056 0.223820 0.170135
O O16 0.962203 0.187113 0.644504
O O17 0.000000 0.500000 0.500000
O O18 0.500000 0.000000 0.000000
#
# Coordination Sequence:
#
# PCOD9075436 Si02
#       8
#     2   2   2   2   2   2   2   2
#     4  11  25  44  73 106 150 202 266 317 387 471
#     4  12  31  52  82 116 163 208 271 336 415 484
#     4  11  27  47  73 112 147 202 265 325 401 471
#     4  11  27  43  75 107 153 204 261 323 390 476
#     4  11  28  47  75 113 153 204 260 325 408 474
#     4  11  26  45  78 106 151 199 268 325 392 479
#     4  11  26  48  79 105 149 199 265 331 395 468
#     4  12  27  47  73 111 161 203 253 320 406 482
#
# _framework density 21.389168999999999
#
# number of rings (size 3 to 8) (size 9 to 14) (size 15 to 20)
#    0.000    0.750    2.500    1.875   17.500    2.500 
#    0.000    0.000    0.000    0.000    0.000    0.000 
#    0.000    0.000    0.000    0.000    0.000    0.000 
#
# Total GULP energy -89112.166350 kJ/mol
# GULP energy per Si atom -5569.510397 kJ/mol
# Density = 2.134049 g / cm^3
# Si number density = 21.389169 Si / 1000 Ang^3
#
#
#
# Elastic Constant Matrix: (Units=GPa)
#
#
# Indices 1 2 3 4 5 6 
#
# 1 119.6511 43.1599 38.0989 -8.5071 12.2106 12.5945
# 2 43.1599 73.3275 41.0633 -13.7241 6.5669 2.7751
# 3 38.0989 41.0633 170.6529 -8.9308 13.8781 -4.0474
# 4 -8.5071 -13.7241 -8.9308 50.2858 12.0338 1.3394
# 5 12.2106 6.5669 13.8781 12.0338 52.0412 5.1017
# 6 12.5945 2.7751 -4.0474 1.3394 5.1017 41.6750
#
#
#
# Elastic Compliance Matrix: (Units=1/GPa)
#
#
# Indices 1 2 3 4 5 6 
#
# 1 0.011247 -0.005665 -0.001065 0.000603 -0.001489 -0.002962
# 2 -0.005665 0.019609 -0.003130 0.004141 -0.001280 0.000126
# 3 -0.001065 -0.003130 0.007033 0.000534 -0.001489 0.001379
# 4 0.000603 0.004141 0.000534 0.022661 -0.006007 -0.000399
# 5 -0.001489 -0.001280 -0.001489 -0.006007 0.021716 -0.002075
# 6 -0.002962 0.000126 0.001379 -0.000399 -0.002075 0.025283
#
#
# Mechanical properties :
#
#
# Convention : Reuss Voigt Hill
#
# Bulk Modulus (GPa) = 55.04122 67.58620 61.31371
# Shear Modulus (GPa) = 37.50204 44.88769 41.19486
#
# Velocity S-wave (km/s) = 4.19181 4.58604 4.39335
# Velocity P-wave (km/s) = 7.01551 7.72718 7.37993
#
# Compressibility (1/GPa) = 0.01816820
#
# Stress axis : x y z
#
# Youngs Moduli (GPa) = 88.91323 50.99581 142.19466
#
# Poissons Ratio (x) = 0.28889 0.15150
# Poissons Ratio (y) = 0.50369 0.44507
# Poissons Ratio (z) = 0.09473 0.15962
#
# Static dielectric constant tensor:
#      x y z
#    x 1.838210 0.010640 -0.019920 
#    y 0.010640 1.880940 0.013970 
#    z -0.019920 0.013970 1.755670 
# 
# From -- ./inp_files/488381.got.cif
#   From: 2010.05.17/outbox.ucp.g08.bks.cvg/sg2_245_cif.got.tgz:488381.got - 2010.06.11 11:32:03.
