data_PCOD9075980
_publ_section_title
;
Structure prediction by ZEFSAII (Michael W. Deem and Ramdas Pophale) SiO2 
 PCOD9075980
Probable space group: P -1
;
_chemical_formula_sum "Si O2"
_cell_formula_units_Z 15
_cell_length_a 13.520239
_cell_length_b 16.171448
_cell_length_c 11.532270
_cell_angle_alpha 134.224410
_cell_angle_beta 33.219791
_cell_angle_gamma 154.274486
_cell_volume 582.622914
_symmetry_space_group_name_H-M "P -1"
_symmetry_group_IT_number 2
_symmetry_cell_setting 'triclinic'
loop_
_space_group_symop_operation_xyz
x,y,z
-x,-y,-z
loop_
_atom_site_type_symbol
_atom_site_label
_atom_site_fract_x
_atom_site_fract_y
_atom_site_fract_z
Si Si1 0.642549 0.702853 0.562657
Si Si2 0.370268 0.450770 0.208299
Si Si3 0.500000 0.000000 0.500000
Si Si4 0.652759 0.405367 0.013801
Si Si5 0.766666 0.102637 0.753455
Si Si6 0.760529 0.983164 0.405555
Si Si7 0.828895 0.975347 0.034563
Si Si8 0.188247 0.525044 0.644287
O O1 0.500000 0.500000 0.500000
O O2 0.473071 0.678432 0.601066
O O3 0.002084 0.864156 0.374318
O O4 0.537159 0.703275 0.787780
O O5 0.284557 0.528086 0.425447
O O6 0.051479 0.215719 0.307741
O O7 0.500000 0.500000 0.000000
O O8 0.611575 0.514414 0.118904
O O9 0.517148 0.889558 0.453698
O O10 0.259842 0.939930 0.769030
O O11 0.485851 0.244005 0.919322
O O12 0.990197 0.536479 0.834744
O O13 0.660115 0.986436 0.627001
O O14 0.959340 0.312886 0.721983
O O15 0.500000 0.000000 0.000000
O O16 0.913197 0.936005 0.222218
O O17 0.000000 0.000000 0.000000
#
# Coordination Sequence:
#
# PCOD9075980 Si02
#       8
#     2   2   1   2   2   2   2   2
#     4  10  18  38  64  90 126 169 207 260 313 377
#     4  10  20  37  60  88 126 159 205 255 311 365
#     4  10  18  32  58  82 110 158 210 236 310 376
#     4  11  19  37  66  88 126 166 207 259 323 376
#     4  10  19  37  63  89 127 168 211 261 320 368
#     4   9  18  36  53  83 117 163 193 256 309 362
#     4   9  17  30  56  82 116 157 202 245 304 372
#     4  10  21  37  63  92 124 172 209 256 319 374
#
# _framework density 25.745640999999999
#
# number of rings (size 3 to 8) (size 9 to 14) (size 15 to 20)
#    0.000    2.133    5.333    2.000    0.000    0.533 
#    2.400    0.667    0.000   11.200    0.000    0.000 
#    0.000    0.000    0.000    0.000    0.000    0.000 
#
# Total GULP energy -83573.667489 kJ/mol
# GULP energy per Si atom -5571.577833 kJ/mol
# Density = 2.568704 g / cm^3
# Si number density = 25.745641 Si / 1000 Ang^3
#
#
#
# Elastic Constant Matrix: (Units=GPa)
#
#
# Indices 1 2 3 4 5 6 
#
# 1 113.0409 25.3142 68.8720 0.8536 -5.0763 16.1667
# 2 25.3142 55.6677 20.9996 -20.1946 4.5264 -6.6892
# 3 68.8720 20.9996 229.5892 8.1294 3.8410 0.6820
# 4 0.8536 -20.1946 8.1294 34.0763 -14.2129 1.8903
# 5 -5.0763 4.5264 3.8410 -14.2129 59.8696 5.2149
# 6 16.1667 -6.6892 0.6820 1.8903 5.2149 38.9887
#
#
#
# Elastic Compliance Matrix: (Units=1/GPa)
#
#
# Indices 1 2 3 4 5 6 
#
# 1 0.013463 -0.006668 -0.003358 -0.002316 0.001904 -0.006810
# 2 -0.006668 0.028501 -0.001256 0.017359 0.000896 0.006715
# 3 -0.003358 -0.001256 0.005588 -0.002607 -0.001287 0.001378
# 4 -0.002316 0.017359 -0.002607 0.044058 0.009062 0.000636
# 5 0.001904 0.000896 -0.001287 0.009062 0.019348 -0.003641
# 6 -0.006810 0.006715 0.001378 0.000636 -0.003641 0.030056
#
#
# Mechanical properties :
#
#
# Convention : Reuss Voigt Hill
#
# Bulk Modulus (GPa) = 40.02230 69.85212 54.93721
# Shear Modulus (GPa) = 29.08539 45.46106 37.27322
#
# Velocity S-wave (km/s) = 3.36478 4.20667 3.80906
# Velocity P-wave (km/s) = 5.53847 7.12638 6.38201
#
# Compressibility (1/GPa) = 0.02498607
#
# Stress axis : x y z
#
# Youngs Moduli (GPa) = 74.27928 35.08610 178.96697
#
# Poissons Ratio (x) = 0.23397 0.60101
# Poissons Ratio (y) = 0.49533 0.22480
# Poissons Ratio (z) = 0.24945 0.04407
#
# Static dielectric constant tensor:
#      x y z
#    x 2.088410 -0.016040 0.086650 
#    y -0.016040 2.204650 -0.043160 
#    z 0.086650 -0.043160 2.147810 
# 
# From -- ./inp_files/456761.got.cif
#   From: 2010.05.17/outbox.cif.g08.bks.cpg/sg2_229_cif.got.tgz:456761.got - 2010.06.03 11:33:40.
