data_PCOD9075201
_publ_section_title
;
Structure prediction by ZEFSAII (Michael W. Deem and Ramdas Pophale) SiO2 
 PCOD9075201
Probable space group: P -1
;
_chemical_formula_sum "Si O2"
_cell_formula_units_Z 14
_cell_length_a 12.000000
_cell_length_b 12.000000
_cell_length_c 9.000000
_cell_angle_alpha 120.000000
_cell_angle_beta 40.000000
_cell_angle_gamma 130.000000
_cell_volume 638.079485
_symmetry_space_group_name_H-M "P -1"
_symmetry_group_IT_number 2
_symmetry_cell_setting 'triclinic'
loop_
_space_group_symop_operation_xyz
x,y,z
-x,-y,-z
loop_
_atom_site_type_symbol
_atom_site_label
_atom_site_fract_x
_atom_site_fract_y
_atom_site_fract_z
Si Si1 0.463098 0.840619 0.479268
Si Si2 0.076039 0.312286 0.360048
Si Si3 0.936256 0.241749 0.993497
Si Si4 0.850569 0.958951 0.357000
Si Si5 0.543053 0.724102 0.016483
Si Si6 0.294663 0.991619 0.152971
Si Si7 0.127707 0.516607 0.164158
O O1 0.646216 0.874625 0.422054
O O2 0.467211 0.744273 0.270387
O O3 0.500000 0.000000 0.500000
O O4 0.256084 0.778099 0.732832
O O5 0.073812 0.394543 0.266646
O O6 0.989921 0.389107 0.617643
O O7 0.296817 0.335630 0.181133
O O8 0.953409 0.135510 0.341369
O O9 0.031654 0.133083 0.863524
O O10 0.846611 0.169051 0.875295
O O11 0.081444 0.414109 0.994402
O O12 0.800434 0.959746 0.583403
O O13 0.356811 0.628086 0.037676
O O14 0.653730 0.887771 0.947160
O O15 0.500000 0.000000 0.000000
#
# Coordination Sequence:
#
# PCOD9075201 Si02
#       7
#     2   2   2   2   2   2   2
#     4  12  21  39  68 105 133 171 229 291 329 395
#     4  11  23  43  70 101 145 181 226 281 355 408
#     4  12  25  43  71 102 136 180 236 283 342 405
#     4  12  25  44  75 102 138 183 236 284 342 414
#     4  12  25  44  72 103 142 183 228 284 351 413
#     4  12  24  48  72 101 141 184 232 290 346 411
#     4  11  25  43  67 105 145 178 224 291 348 409
#
# _framework density 21.940840000000001
#
# number of rings (size 3 to 8) (size 9 to 14) (size 15 to 20)
#    0.000    0.286    4.286    6.000    0.000    2.857 
#    0.000    3.571    0.000    0.000    0.000    0.000 
#    0.000    0.000    0.000    0.000    0.000    0.000 
#
# Total GULP energy -78263.772388 kJ/mol
# GULP energy per Si atom -5590.269456 kJ/mol
# Density = 2.189090 g / cm^3
# Si number density = 21.940840 Si / 1000 Ang^3
#
#
#
# Elastic Constant Matrix: (Units=GPa)
#
#
# Indices 1 2 3 4 5 6 
#
# 1 121.8259 36.6765 54.7794 17.9012 -27.3529 22.2839
# 2 36.6765 115.2042 47.6882 30.2167 -7.7748 30.2054
# 3 54.7794 47.6882 134.2608 29.0782 -24.8548 2.0145
# 4 17.9012 30.2167 29.0782 49.5803 -5.7003 2.1098
# 5 -27.3529 -7.7748 -24.8548 -5.7003 54.4111 7.1912
# 6 22.2839 30.2054 2.0145 2.1098 7.1912 59.3030
#
#
#
# Elastic Compliance Matrix: (Units=1/GPa)
#
#
# Indices 1 2 3 4 5 6 
#
# 1 0.012078 -0.000505 -0.003505 -0.001235 0.004892 -0.004711
# 2 -0.000505 0.013342 -0.003092 -0.005811 0.000471 -0.006351
# 3 -0.003505 -0.003092 0.011033 -0.003170 0.002192 0.002364
# 4 -0.001235 -0.005811 -0.003170 0.025839 -0.000546 0.002678
# 5 0.004892 0.000471 0.002192 -0.000546 0.022491 -0.004860
# 6 -0.004711 -0.006351 0.002364 0.002678 -0.004860 0.022282
#
#
# Mechanical properties :
#
#
# Convention : Reuss Voigt Hill
#
# Bulk Modulus (GPa) = 44.94459 72.17545 58.56002
# Shear Modulus (GPa) = 38.85446 48.13535 43.49490
#
# Velocity S-wave (km/s) = 4.21274 4.68896 4.45721
# Velocity P-wave (km/s) = 6.64769 7.89189 7.29636
#
# Compressibility (1/GPa) = 0.02224962
#
# Stress axis : x y z
#
# Youngs Moduli (GPa) = 82.79521 74.95053 90.63606
#
# Poissons Ratio (x) = 0.03786 0.31766
# Poissons Ratio (y) = 0.04182 0.28023
# Poissons Ratio (z) = 0.29018 0.23174
#
# Static dielectric constant tensor:
#      x y z
#    x 1.881720 0.006850 0.015890 
#    y 0.006850 1.811380 -0.046500 
#    z 0.015890 -0.046500 1.818130 
# 
# From -- ./inp_files/262863.got.cif
#   From: 2010.05.17/outbox.ucp.g08.bks.cvg/sg2_132_cif.got.tgz:262863.got - 2010.06.11 11:32:03.
