data_PCOD9075254
_publ_section_title
;
Structure prediction by ZEFSAII (Michael W. Deem and Ramdas Pophale) SiO2 
 PCOD9075254
Probable space group: P -1
;
_chemical_formula_sum "Si O2"
_cell_formula_units_Z 16
_cell_length_a 18.000000
_cell_length_b 15.000000
_cell_length_c 12.000000
_cell_angle_alpha 130.000000
_cell_angle_beta 150.000000
_cell_angle_gamma 30.000000
_cell_volume 731.734496
_symmetry_space_group_name_H-M "P -1"
_symmetry_group_IT_number 2
_symmetry_cell_setting 'triclinic'
loop_
_space_group_symop_operation_xyz
x,y,z
-x,-y,-z
loop_
_atom_site_type_symbol
_atom_site_label
_atom_site_fract_x
_atom_site_fract_y
_atom_site_fract_z
Si Si1 0.535538 0.347125 0.880913
Si Si2 0.145047 0.493299 0.104094
Si Si3 0.946202 0.089572 0.813968
Si Si4 0.389920 0.197390 0.003119
Si Si5 0.477181 0.438689 0.634993
Si Si6 0.735892 0.181604 0.369210
Si Si7 0.791955 0.834734 0.744450
Si Si8 0.882484 0.565051 0.517609
O O1 0.437877 0.403886 0.673718
O O2 0.373002 0.349936 0.734969
O O3 0.500000 0.500000 0.000000
O O4 0.837611 0.143079 0.102049
O O5 0.357979 0.286720 0.149444
O O6 0.265363 0.525719 0.347790
O O7 0.000000 0.500000 0.000000
O O8 0.935330 0.674631 0.896667
O O9 0.737645 0.229607 0.751748
O O10 0.805786 0.173045 0.580021
O O11 0.116534 0.094005 0.065056
O O12 0.573927 0.165155 0.145121
O O13 0.104395 0.371227 0.726723
O O14 0.500000 0.000000 0.000000
O O15 0.439334 0.601401 0.727311
O O16 0.000000 0.000000 0.500000
O O17 0.863158 0.715342 0.635269
O O18 0.500000 0.000000 0.500000
O O19 0.000000 0.500000 0.500000
#
# Coordination Sequence:
#
# PCOD9075254 Si02
#       8
#     2   2   2   2   2   2   2   2
#     4  12  29  47  71 107 151 188 236 299 365 429
#     4  11  24  43  72 101 139 184 236 297 351 416
#     4  12  25  47  73 106 136 192 244 291 359 425
#     4  11  27  47  69 107 143 183 239 292 360 429
#     4  12  24  48  75 103 143 188 247 300 351 429
#     4  12  27  45  77 106 146 189 237 300 361 427
#     4  11  23  45  71  99 139 180 243 286 347 427
#     4  11  27  48  70 102 144 190 234 291 362 430
#
# _framework density 21.865853999999999
#
# number of rings (size 3 to 8) (size 9 to 14) (size 15 to 20)
#    0.000    0.500    3.750    4.500   10.500    1.000 
#    0.000    0.000    0.000    0.000    0.000    0.000 
#    0.000    0.000    0.000    0.000    0.000    0.000 
#
# Total GULP energy -89245.237544 kJ/mol
# GULP energy per Si atom -5577.827346 kJ/mol
# Density = 2.181609 g / cm^3
# Si number density = 21.865854 Si / 1000 Ang^3
#
#
#
# Elastic Constant Matrix: (Units=GPa)
#
#
# Indices 1 2 3 4 5 6 
#
# 1 91.0157 39.5998 14.7744 7.0098 19.2665 -26.9194
# 2 39.5998 104.1900 6.9901 -14.7677 13.2224 -0.4148
# 3 14.7744 6.9901 67.2521 2.5725 23.1883 -13.3562
# 4 7.0098 -14.7677 2.5725 26.5682 -3.6447 11.2102
# 5 19.2665 13.2224 23.1883 -3.6447 34.4375 6.0763
# 6 -26.9194 -0.4148 -13.3562 11.2102 6.0763 22.5367
#
#
#
# Elastic Compliance Matrix: (Units=1/GPa)
#
#
# Indices 1 2 3 4 5 6 
#
# 1 -0.010825 0.006124 -0.018278 0.031561 0.027609 -0.046792
# 2 0.006124 0.007552 0.008386 -0.009747 -0.016854 0.021816
# 3 -0.018278 0.008386 0.007207 0.023687 0.010300 -0.031966
# 4 0.031561 -0.009747 0.023687 -0.014096 -0.043772 0.070371
# 5 0.027609 -0.016854 0.010300 -0.043772 -0.002297 0.061165
# 6 -0.046792 0.021816 -0.031966 0.070371 0.061165 -0.081558
#
#
# Mechanical properties :
#
#
# Convention : Reuss Voigt Hill
#
# Bulk Modulus (GPa) = -277.67105 42.79848 -117.43628
# Shear Modulus (GPa) = -57.02402 30.11471 -13.45465
#
# Velocity S-wave (km/s) = -5.11230 3.71516 -2.48327
# Velocity P-wave (km/s) = 12.73231 6.16594 7.87695
#
# Compressibility (1/GPa) = -0.00360138
#
# Stress axis : x y z
#
# Youngs Moduli (GPa) = -92.37932 132.41884 138.75013
#
# Poissons Ratio (x) = -0.81092 2.53608
# Poissons Ratio (y) = 0.56572 -1.16361
# Poissons Ratio (z) = -1.68851 -1.11052
#
# Static dielectric constant tensor:
#      x y z
#    x 1.808780 -0.026120 0.000190 
#    y -0.026120 1.844670 -0.047000 
#    z 0.000190 -0.047000 1.652830 
# 
# From -- ./inp_files/206965.got.cif
#   From: 2010.05.17/outbox.ucp.g08.bks.cvg/sg2_104_cif.got.tgz:206965.got - 2010.06.11 11:32:03.
