data_PCOD9075493
_publ_section_title
;
Structure prediction by ZEFSAII (Michael W. Deem and Ramdas Pophale) SiO2 
 PCOD9075493
Probable space group: P -1
;
_chemical_formula_sum "Si O2"
_cell_formula_units_Z 16
_cell_length_a 9.371582
_cell_length_b 28.589394
_cell_length_c 21.372399
_cell_angle_alpha 19.093889
_cell_angle_beta 142.327241
_cell_angle_gamma 151.937351
_cell_volume 847.141257
_symmetry_space_group_name_H-M "P -1"
_symmetry_group_IT_number 2
_symmetry_cell_setting 'triclinic'
loop_
_space_group_symop_operation_xyz
x,y,z
-x,-y,-z
loop_
_atom_site_type_symbol
_atom_site_label
_atom_site_fract_x
_atom_site_fract_y
_atom_site_fract_z
Si Si1 0.122460 0.698356 0.232828
Si Si2 0.228712 0.413027 0.462706
Si Si3 0.739915 0.368711 0.431679
Si Si4 0.436137 0.374410 0.813658
Si Si5 0.866631 0.038261 0.727700
Si Si6 0.655501 0.503854 0.861233
Si Si7 0.619803 0.160609 0.287131
Si Si8 0.327908 0.066827 0.773296
O O1 0.416781 0.811176 0.237211
O O2 0.028549 0.521503 0.385686
O O3 0.820984 0.609402 0.283525
O O4 0.180909 0.850681 0.010192
O O5 0.500000 0.500000 0.500000
O O6 0.398409 0.559321 0.278661
O O7 0.924038 0.372908 0.433458
O O8 0.072382 0.211651 0.628658
O O9 0.567576 0.451694 0.257361
O O10 0.494117 0.165483 0.640270
O O11 0.668645 0.490216 0.807224
O O12 0.232056 0.148387 0.037345
O O13 0.074637 0.083107 0.682242
O O14 0.541895 0.955398 0.687587
O O15 0.000847 0.678401 0.786874
O O16 0.538343 0.295708 0.103045
O O17 0.500000 0.000000 0.500000
#
# Coordination Sequence:
#
# PCOD9075493 Si02
#       8
#     2   2   2   2   2   2   2   2
#     4   9  18  32  53  76 100 139 186 231 274 310
#     4  12  24  35  52  79 116 159 187 212 261 322
#     4  11  21  33  51  79 113 142 178 226 271 319
#     4   9  19  37  55  77 110 142 183 228 266 323
#     4  10  21  36  56  80 106 144 183 222 275 325
#     4   9  20  36  59  86 105 134 181 231 282 326
#     4  10  18  35  64  86 103 130 177 236 285 328
#     4  10  18  32  54  77 102 136 185 235 270 313
#
# _framework density 18.887051
#
# number of rings (size 3 to 8) (size 9 to 14) (size 15 to 20)
#    0.000    2.000    0.000    5.625    0.000    1.500 
#    0.000    0.625    0.000   10.500    0.000    0.000 
#    0.000    0.000    0.000    0.000    0.000    0.000 
#
# Total GULP energy -89132.657041 kJ/mol
# GULP energy per Si atom -5570.791065 kJ/mol
# Density = 1.884406 g / cm^3
# Si number density = 18.887051 Si / 1000 Ang^3
#
#
#
# Elastic Constant Matrix: (Units=GPa)
#
#
# Indices 1 2 3 4 5 6 
#
# 1 111.7801 7.8362 31.7083 -2.4265 -18.7791 8.8422
# 2 7.8362 96.3485 4.3344 -14.7980 5.4965 -1.2305
# 3 31.7083 4.3344 87.6674 -5.5852 -12.6874 -2.8848
# 4 -2.4265 -14.7980 -5.5852 27.9996 2.3021 2.4813
# 5 -18.7791 5.4965 -12.6874 2.3021 16.5555 -1.2777
# 6 8.8422 -1.2305 -2.8848 2.4813 -1.2777 20.1997
#
#
#
# Elastic Compliance Matrix: (Units=1/GPa)
#
#
# Indices 1 2 3 4 5 6 
#
# 1 0.012281 -0.001778 -0.002830 -0.000992 0.012104 -0.005001
# 2 -0.001778 0.011995 -0.000587 0.006661 -0.007365 0.000141
# 3 -0.002830 -0.000587 0.013757 0.001252 0.007623 0.003496
# 4 -0.000992 0.006661 0.001252 0.040483 -0.008353 -0.004482
# 5 0.012104 -0.007365 0.007623 -0.008353 0.083710 0.001662
# 6 -0.005001 0.000141 0.003496 -0.004482 0.001662 0.052858
#
#
# Mechanical properties :
#
#
# Convention : Reuss Voigt Hill
#
# Bulk Modulus (GPa) = 36.17457 42.61707 39.39582
# Shear Modulus (GPa) = 21.30472 29.74544 25.52508
#
# Velocity S-wave (km/s) = 3.36222 3.97282 3.68021
# Velocity P-wave (km/s) = 5.85384 6.60739 6.24199
#
# Compressibility (1/GPa) = 0.02764373
#
# Stress axis : x y z
#
# Youngs Moduli (GPa) = 81.42560 83.36772 72.68788
#
# Poissons Ratio (x) = 0.14825 0.20571
# Poissons Ratio (y) = 0.14480 0.04264
# Poissons Ratio (z) = 0.23044 0.04891
#
# Static dielectric constant tensor:
#      x y z
#    x 1.645580 0.010830 0.012130 
#    y 0.010830 1.764330 0.003320 
#    z 0.012130 0.003320 1.727430 
# 
# From -- ./inp_files/268239.got.cif
#   From: 2010.05.17/outbox.cif.g08.bks.cpg/sg2_135_cif.got.tgz:268239.got - 2010.06.03 11:33:40.
