data_PCOD9075278
_publ_section_title
;
Structure prediction by ZEFSAII (Michael W. Deem and Ramdas Pophale) SiO2 
 PCOD9075278
Probable space group: P -1
;
_chemical_formula_sum "Si O2"
_cell_formula_units_Z 14
_cell_length_a 11.413371
_cell_length_b 17.019236
_cell_length_c 7.071192
_cell_angle_alpha 50.027622
_cell_angle_beta 53.263008
_cell_angle_gamma 31.831328
_cell_volume 550.504450
_symmetry_space_group_name_H-M "P -1"
_symmetry_group_IT_number 2
_symmetry_cell_setting 'triclinic'
loop_
_space_group_symop_operation_xyz
x,y,z
-x,-y,-z
loop_
_atom_site_type_symbol
_atom_site_label
_atom_site_fract_x
_atom_site_fract_y
_atom_site_fract_z
Si Si1 0.687136 0.451641 0.163497
Si Si2 0.519665 0.741438 0.085350
Si Si3 0.129567 0.090006 0.871754
Si Si4 0.423528 0.198800 0.669595
Si Si5 0.261958 0.570040 0.303541
Si Si6 0.831140 0.861746 0.818367
Si Si7 0.179661 0.288765 0.409527
O O1 0.592315 0.598420 0.139145
O O2 0.720337 0.456154 0.899564
O O3 0.503264 0.460035 0.327623
O O4 0.928172 0.291395 0.262009
O O5 0.708257 0.722142 0.862109
O O6 0.284106 0.910207 0.968242
O O7 0.515569 0.753788 0.298370
O O8 0.246237 0.134135 0.619526
O O9 0.874350 0.249158 0.813615
O O10 0.121334 0.104542 0.084108
O O11 0.267931 0.306457 0.476291
O O12 0.653664 0.027929 0.628458
O O13 0.294202 0.174654 0.937807
O O14 0.088474 0.577851 0.536608
#
# Coordination Sequence:
#
# PCOD9075278 Si02
#       7
#     2   2   2   2   2   2   2
#     4  10  18  32  53  84 104 145 180 215 269 330
#     4  11  20  28  59  89 103 129 186 231 267 297
#     4   7  15  31  48  77 102 139 173 212 256 320
#     4   9  17  34  53  79 107 140 176 226 259 322
#     4   8  18  35  52  70 116 147 176 206 271 336
#     4   8  15  31  51  74 106 146 174 209 273 319
#     4   9  18  36  55  80 107 142 177 217 271 319
#
# _framework density 25.431218999999999
#
# number of rings (size 3 to 8) (size 9 to 14) (size 15 to 20)
#    0.857    2.286    1.429    1.286    0.000    1.714 
#    0.000    0.000    0.000    2.571    0.000   11.000 
#    0.000    0.000    0.000    0.000    0.000    0.000 
#
# Total GULP energy -78193.905699 kJ/mol
# GULP energy per Si atom -5585.278979 kJ/mol
# Density = 2.537334 g / cm^3
# Si number density = 25.431219 Si / 1000 Ang^3
#
#
#
# Elastic Constant Matrix: (Units=GPa)
#
#
# Indices 1 2 3 4 5 6 
#
# 1 91.2887 74.3297 27.3592 3.1795 13.9298 0.7351
# 2 74.3297 194.0654 23.2139 -5.5325 -11.7304 10.4519
# 3 27.3592 23.2139 53.0252 10.8184 16.7865 15.2975
# 4 3.1795 -5.5325 10.8184 21.0725 7.0029 1.2205
# 5 13.9298 -11.7304 16.7865 7.0029 23.0344 11.2696
# 6 0.7351 10.4519 15.2975 1.2205 11.2696 39.2134
#
#
#
# Elastic Compliance Matrix: (Units=1/GPa)
#
#
# Indices 1 2 3 4 5 6 
#
# 1 0.024207 -0.010662 -0.004119 0.002711 -0.023044 0.010533
# 2 -0.010662 0.011016 -0.003045 0.000708 0.017256 -0.006530
# 3 -0.004119 -0.003045 0.031267 -0.010742 -0.015372 -0.006556
# 4 0.002711 0.000708 -0.010742 0.056968 -0.013773 0.006136
# 5 -0.023044 0.017256 -0.015372 -0.013773 0.093580 -0.024636
# 6 0.010533 -0.006530 -0.006556 0.006136 -0.024636 0.036491
#
#
# Mechanical properties :
#
#
# Convention : Reuss Voigt Hill
#
# Bulk Modulus (GPa) = 32.42725 65.35387 48.89056
# Shear Modulus (GPa) = 16.69678 30.89583 23.79630
#
# Velocity S-wave (km/s) = 2.56510 3.48929 3.06226
# Velocity P-wave (km/s) = 4.64237 6.47978 5.63645
#
# Compressibility (1/GPa) = 0.03083826
#
# Stress axis : x y z
#
# Youngs Moduli (GPa) = 41.31042 90.78007 31.98292
#
# Poissons Ratio (x) = 0.96788 0.13173
# Poissons Ratio (y) = 0.44045 0.09738
# Poissons Ratio (z) = 0.17015 0.27641
#
# Static dielectric constant tensor:
#      x y z
#    x 1.996500 0.008360 0.039860 
#    y 0.008360 2.078630 -0.032390 
#    z 0.039860 -0.032390 1.985440 
# 
# From -- ./inp_files/276336.got.cif
#   From: 2010.05.17/outbox.cif.g08.bks.cpg/sg2_139_cif.got.tgz:276336.got - 2010.06.03 11:33:40.
