data_PCOD9075244
_publ_section_title
;
Structure prediction by ZEFSAII (Michael W. Deem and Ramdas Pophale) SiO2 
 PCOD9075244
Probable space group: P -1
;
_chemical_formula_sum "Si O2"
_cell_formula_units_Z 14
_cell_length_a 12.000000
_cell_length_b 9.000000
_cell_length_c 9.000000
_cell_angle_alpha 50.000000
_cell_angle_beta 120.000000
_cell_angle_gamma 110.000000
_cell_volume 644.526612
_symmetry_space_group_name_H-M "P -1"
_symmetry_group_IT_number 2
_symmetry_cell_setting 'triclinic'
loop_
_space_group_symop_operation_xyz
x,y,z
-x,-y,-z
loop_
_atom_site_type_symbol
_atom_site_label
_atom_site_fract_x
_atom_site_fract_y
_atom_site_fract_z
Si Si1 0.717913 0.064440 0.784542
Si Si2 0.993704 0.463543 0.343840
Si Si3 0.225176 0.125848 0.384419
Si Si4 0.940246 0.175955 0.053992
Si Si5 0.466928 0.186246 0.957150
Si Si6 0.279296 0.442519 0.462537
Si Si7 0.241424 0.759063 0.827812
O O1 0.703158 0.311316 0.647910
O O2 0.724476 0.975356 0.675215
O O3 0.855466 0.036549 0.977647
O O4 0.613460 0.922871 0.891678
O O5 0.133627 0.376707 0.456466
O O6 0.000000 0.500000 0.500000
O O7 0.858982 0.357374 0.273915
O O8 0.005597 0.653155 0.126318
O O9 0.278486 0.336024 0.360812
O O10 0.069987 0.118102 0.261488
O O11 0.252722 0.974436 0.629677
O O12 0.836880 0.240111 0.068917
O O13 0.381104 0.334087 0.706715
O O14 0.606670 0.290104 0.024797
O O15 0.500000 0.000000 0.000000
#
# Coordination Sequence:
#
# PCOD9075244 Si02
#       7
#     2   2   2   2   2   2   2
#     4  11  27  48  75 117 151 201 269 311 389 468
#     4  11  26  47  76 119 149 197 270 317 384 464
#     4  12  25  45  79 115 148 202 258 328 385 452
#     4  11  23  44  76 111 155 197 256 327 385 452
#     4  12  26  50  76 110 160 211 252 318 388 471
#     4  11  26  51  77 109 157 204 253 333 380 451
#     4  12  24  46  75 113 156 197 259 312 388 467
#
# _framework density 21.721367999999998
#
# number of rings (size 3 to 8) (size 9 to 14) (size 15 to 20)
#    0.000    0.571    4.286    3.000    6.000    1.143 
#    2.571    2.857    0.000    0.000    0.000    0.000 
#    0.000    0.000    0.000    0.000    0.000    0.000 
#
# Total GULP energy -77981.095852 kJ/mol
# GULP energy per Si atom -5570.078275 kJ/mol
# Density = 2.167193 g / cm^3
# Si number density = 21.721368 Si / 1000 Ang^3
#
#
#
# Elastic Constant Matrix: (Units=GPa)
#
#
# Indices 1 2 3 4 5 6 
#
# 1 132.3668 56.4700 50.8209 9.4799 -0.3199 13.7071
# 2 56.4700 143.3627 37.0007 24.3258 -7.9783 -1.2377
# 3 50.8209 37.0007 121.9909 20.3539 19.6691 1.8092
# 4 9.4799 24.3258 20.3539 35.7543 2.5555 1.1241
# 5 -0.3199 -7.9783 19.6691 2.5555 54.7147 14.1327
# 6 13.7071 -1.2377 1.8092 1.1241 14.1327 51.9758
#
#
#
# Elastic Compliance Matrix: (Units=1/GPa)
#
#
# Indices 1 2 3 4 5 6 
#
# 1 0.010767 -0.003441 -0.003963 0.001721 0.001758 -0.003299
# 2 -0.003441 0.009548 -0.000880 -0.005232 0.001724 0.000810
# 3 -0.003963 -0.000880 0.011614 -0.004694 -0.004618 0.001977
# 4 0.001721 -0.005232 -0.004694 0.033804 -0.000375 -0.001044
# 5 0.001758 0.001724 -0.004618 -0.000375 0.021813 -0.006185
# 6 -0.003299 0.000810 0.001977 -0.001044 -0.006185 0.021764
#
#
# Mechanical properties :
#
#
# Convention : Reuss Voigt Hill
#
# Bulk Modulus (GPa) = 65.09836 76.25596 70.67716
# Shear Modulus (GPa) = 38.16831 45.38420 41.77625
#
# Velocity S-wave (km/s) = 4.19642 4.57593 4.39028
# Velocity P-wave (km/s) = 7.31537 7.94365 7.63597
#
# Compressibility (1/GPa) = 0.01536137
#
# Stress axis : x y z
#
# Youngs Moduli (GPa) = 92.87660 104.73072 86.10503
#
# Poissons Ratio (x) = 0.36035 0.34127
# Poissons Ratio (y) = 0.31956 0.07574
# Poissons Ratio (z) = 0.36811 0.09213
#
# Static dielectric constant tensor:
#      x y z
#    x 1.842050 -0.041450 0.033550 
#    y -0.041450 1.889510 -0.032770 
#    z 0.033550 -0.032770 1.865520 
# 
# From -- ./inp_files/242269.got.cif
#   From: 2010.05.17/outbox.ucp.g08.bks.cvg/sg2_122_cif.got.tgz:242269.got - 2010.06.11 11:32:03.
