data_PCOD9075396
_publ_section_title
;
Structure prediction by ZEFSAII (Michael W. Deem and Ramdas Pophale) SiO2 
 PCOD9075396
Probable space group: P -1
;
_chemical_formula_sum "Si O2"
_cell_formula_units_Z 16
_cell_length_a 27.000000
_cell_length_b 9.000000
_cell_length_c 27.000000
_cell_angle_alpha 140.000000
_cell_angle_beta 170.000000
_cell_angle_gamma 40.000000
_cell_volume 728.340053
_symmetry_space_group_name_H-M "P -1"
_symmetry_group_IT_number 2
_symmetry_cell_setting 'triclinic'
loop_
_space_group_symop_operation_xyz
x,y,z
-x,-y,-z
loop_
_atom_site_type_symbol
_atom_site_label
_atom_site_fract_x
_atom_site_fract_y
_atom_site_fract_z
Si Si1 0.415795 0.259812 0.875929
Si Si2 0.184541 0.575686 0.505855
Si Si3 0.026585 0.048270 0.682130
Si Si4 0.352963 0.258845 0.926671
Si Si5 0.061095 0.916372 0.883306
Si Si6 0.541607 0.970806 0.450763
Si Si7 0.105748 0.249447 0.919713
Si Si8 0.427019 0.390085 0.522644
O O1 0.174757 0.155578 0.578719
O O2 0.500000 0.500000 0.000000
O O3 0.330110 0.331246 0.865639
O O4 0.678156 0.053240 0.079670
O O5 0.141222 0.718990 0.448357
O O6 0.479763 0.589951 0.830421
O O7 0.070036 0.322917 0.323067
O O8 0.965127 0.731207 0.364223
O O9 0.100894 0.107909 0.827034
O O10 0.500000 0.000000 0.000000
O O11 0.800883 0.043511 0.691485
O O12 0.149727 0.067623 0.962361
O O13 0.314423 0.887964 0.166309
O O14 0.627046 0.755167 0.517519
O O15 0.445152 0.191399 0.447202
O O16 0.803476 0.400348 0.665806
O O17 0.305230 0.460895 0.167715
#
# Coordination Sequence:
#
# PCOD9075396 Si02
#       8
#     2   2   2   2   2   2   2   2
#     4  12  27  41  66  93 129 170 215 274 332 388
#     4  12  24  42  69  92 130 171 218 274 320 393
#     4  12  24  45  65  93 130 175 216 266 329 395
#     4  12  23  43  66  95 123 166 225 270 326 386
#     4  12  27  43  68 105 136 177 220 280 331 393
#     4  11  24  46  73 100 134 177 231 263 327 399
#     4  12  27  43  68 102 142 174 220 274 344 389
#     4  11  24  46  73 100 134 181 219 275 323 406
#
# _framework density 21.967760999999999
#
# number of rings (size 3 to 8) (size 9 to 14) (size 15 to 20)
#    0.000    0.250    2.500    6.750    3.500    5.000 
#    0.000    0.000    0.000    0.000    0.000    0.000 
#    0.000    0.000    0.000    0.000    0.000    0.000 
#
# Total GULP energy -89373.990717 kJ/mol
# GULP energy per Si atom -5585.874420 kJ/mol
# Density = 2.191776 g / cm^3
# Si number density = 21.967761 Si / 1000 Ang^3
#
#
#
# Elastic Constant Matrix: (Units=GPa)
#
#
# Indices 1 2 3 4 5 6 
#
# 1 132.6577 23.0159 -2.1754 13.0041 -20.0682 3.4924
# 2 23.0159 72.7930 -4.3937 19.5384 -13.4261 4.4745
# 3 -2.1754 -4.3937 68.6278 16.6816 -11.0821 -10.8331
# 4 13.0041 19.5384 16.6816 42.2440 -9.0335 6.2125
# 5 -20.0682 -13.4261 -11.0821 -9.0335 33.5659 4.0151
# 6 3.4924 4.4745 -10.8331 6.2125 4.0151 39.3887
#
#
#
# Elastic Compliance Matrix: (Units=1/GPa)
#
#
# Indices 1 2 3 4 5 6 
#
# 1 0.008663 -0.001385 0.001206 -0.001417 0.004706 -0.000535
# 2 -0.001385 0.017566 0.003895 -0.008090 0.005315 -0.000067
# 3 0.001206 0.003895 0.018858 -0.009295 0.005338 0.005559
# 4 -0.001417 -0.008090 -0.009295 0.033104 0.002594 -0.006998
# 5 0.004706 0.005315 0.005338 0.002594 0.037647 -0.003800
# 6 -0.000535 -0.000067 0.005559 -0.006998 -0.003800 0.028463
#
#
# Mechanical properties :
#
#
# Convention : Reuss Voigt Hill
#
# Bulk Modulus (GPa) = 19.04062 34.10801 26.57432
# Shear Modulus (GPa) = 32.38820 40.21516 36.30168
#
# Velocity S-wave (km/s) = 3.84389 4.28324 4.06950
# Velocity P-wave (km/s) = 5.32795 6.32627 5.84845
#
# Compressibility (1/GPa) = 0.05251929
#
# Stress axis : x y z
#
# Youngs Moduli (GPa) = 115.43002 56.92656 53.02795
#
# Poissons Ratio (x) = 0.07884 -0.06395
# Poissons Ratio (y) = 0.15987 -0.20654
# Poissons Ratio (z) = -0.13920 -0.22172
#
# Static dielectric constant tensor:
#      x y z
#    x 1.984120 0.092940 -0.048550 
#    y 0.092940 1.788280 -0.115310 
#    z -0.048550 -0.115310 1.806890 
# 
# From -- ./inp_files/357949.got.cif
#   From: 2010.05.17/outbox.ucp.g08.bks.cvg/sg2_179_cif.got.tgz:357949.got - 2010.06.11 11:32:03.
