data_PCOD9075545
_publ_section_title
;
Structure prediction by ZEFSAII (Michael W. Deem and Ramdas Pophale) SiO2 
 PCOD9075545
Probable space group: P -1
;
_chemical_formula_sum "Si O2"
_cell_formula_units_Z 16
_cell_length_a 9.000000
_cell_length_b 15.000000
_cell_length_c 12.000000
_cell_angle_alpha 30.000000
_cell_angle_beta 80.000000
_cell_angle_gamma 70.000000
_cell_volume 734.803614
_symmetry_space_group_name_H-M "P -1"
_symmetry_group_IT_number 2
_symmetry_cell_setting 'triclinic'
loop_
_space_group_symop_operation_xyz
x,y,z
-x,-y,-z
loop_
_atom_site_type_symbol
_atom_site_label
_atom_site_fract_x
_atom_site_fract_y
_atom_site_fract_z
Si Si1 0.355678 0.267331 0.421947
Si Si2 0.706681 0.072154 0.557953
Si Si3 0.181750 0.834254 0.151798
Si Si4 0.195496 0.663881 0.100480
Si Si5 0.827318 0.702717 0.103997
Si Si6 0.793689 0.324652 0.428117
Si Si7 0.141685 0.065993 0.554687
Si Si8 0.334958 0.133841 0.818414
O O1 0.519809 0.127707 0.491342
O O2 0.309956 0.496097 0.185601
O O3 0.227439 0.202447 0.444312
O O4 0.353514 0.231474 0.595568
O O5 0.678665 0.272169 0.413961
O O6 0.818709 0.992380 0.518784
O O7 0.757957 0.903958 0.827088
O O8 0.220940 0.679076 0.214636
O O9 0.216205 0.750779 0.363169
O O10 0.274880 0.970005 0.963753
O O11 0.000000 0.000000 0.000000
O O12 0.021800 0.641370 0.142500
O O13 0.187456 0.865251 0.832536
O O14 0.781026 0.541306 0.220231
O O15 0.771158 0.735254 0.206591
O O16 0.957699 0.191361 0.484320
O O17 0.500000 0.000000 0.000000
#
# Coordination Sequence:
#
# PCOD9075545 Si02
#       8
#     2   2   2   2   2   2   2   2
#     4  12  26  45  69 102 134 176 222 275 336 393
#     4  12  27  47  66  97 140 176 227 278 323 392
#     4  12  20  40  69  97 134 170 213 274 338 393
#     4  12  25  42  73 103 131 174 226 274 332 401
#     4  12  25  43  72 102 133 176 222 273 339 398
#     4  12  24  43  70 101 131 175 223 277 330 394
#     4  12  25  45  71  96 135 182 224 275 327 388
#     4  12  22  42  70  99 137 173 209 274 345 395
#
# _framework density 21.774525000000001
#
# number of rings (size 3 to 8) (size 9 to 14) (size 15 to 20)
#    0.000    0.000    8.750    1.500    0.000    5.000 
#    0.000    2.500    0.000    0.000    0.000    0.000 
#    0.000    0.000    0.000    0.000    0.000    0.000 
#
# Total GULP energy -89162.412096 kJ/mol
# GULP energy per Si atom -5572.650756 kJ/mol
# Density = 2.172497 g / cm^3
# Si number density = 21.774525 Si / 1000 Ang^3
#
#
#
# Elastic Constant Matrix: (Units=GPa)
#
#
# Indices 1 2 3 4 5 6 
#
# 1 -3.6946 3.6778 10.0492 -19.9516 2.6557 -0.7725
# 2 3.6778 142.7370 23.9268 -5.5702 -19.7144 15.8665
# 3 10.0492 23.9268 41.5768 -7.5785 -16.9623 7.8503
# 4 -19.9516 -5.5702 -7.5785 37.9213 2.8056 -5.3623
# 5 2.6557 -19.7144 -16.9623 2.8056 17.5716 -6.4201
# 6 -0.7725 15.8665 7.8503 -5.3623 -6.4201 40.7756
#
#
#
# Elastic Compliance Matrix: (Units=1/GPa)
#
#
# Indices 1 2 3 4 5 6 
#
# 1 -0.051193 0.001757 0.020608 -0.025495 0.032249 -0.003896
# 2 0.001757 0.008426 -0.002208 0.001016 0.006273 -0.001699
# 3 0.020608 -0.002208 0.032722 0.015399 0.023801 0.000722
# 4 -0.025495 0.001016 0.015399 0.014998 0.017804 0.000933
# 5 0.032249 0.006273 0.023801 0.017804 0.082464 0.008913
# 6 -0.003896 -0.001699 0.000722 0.000933 0.008913 0.026499
#
#
# Mechanical properties :
#
#
# Convention : Reuss Voigt Hill
#
# Bulk Modulus (GPa) = 33.03861 28.43632 30.73747
# Shear Modulus (GPa) = 59.74263 28.78473 44.26368
#
# Velocity S-wave (km/s) = 5.24371 3.63980 4.51357
# Velocity P-wave (km/s) = 7.20194 5.54545 6.42729
#
# Compressibility (1/GPa) = 0.03026762
#
# Stress axis : x y z
#
# Youngs Moduli (GPa) = -19.53392 118.68460 30.56010
#
# Poissons Ratio (x) = -0.20852 -0.62977
# Poissons Ratio (y) = 0.03432 0.06748
# Poissons Ratio (z) = 0.40255 0.26208
#
# Static dielectric constant tensor:
#      x y z
#    x 1.899930 -0.045920 0.013080 
#    y -0.045920 1.755740 -0.011860 
#    z 0.013080 -0.011860 1.799340 
# 
# From -- ./inp_files/187098.got.cif
#   From: 2010.05.17/outbox.ucp.g08.bks.cvg/sg2_94_cif.got.tgz:187098.got - 2010.06.11 11:32:03.
