data_PCOD9075478
_publ_section_title
;
Structure prediction by ZEFSAII (Michael W. Deem and Ramdas Pophale) SiO2 
 PCOD9075478
Probable space group: P -1
;
_chemical_formula_sum "Si O2"
_cell_formula_units_Z 12
_cell_length_a 12.000000
_cell_length_b 9.000000
_cell_length_c 6.000000
_cell_angle_alpha 70.000000
_cell_angle_beta 90.000000
_cell_angle_gamma 60.000000
_cell_volume 515.566255
_symmetry_space_group_name_H-M "P -1"
_symmetry_group_IT_number 2
_symmetry_cell_setting 'triclinic'
loop_
_space_group_symop_operation_xyz
x,y,z
-x,-y,-z
loop_
_atom_site_type_symbol
_atom_site_label
_atom_site_fract_x
_atom_site_fract_y
_atom_site_fract_z
Si Si1 0.698211 0.972355 0.039867
Si Si2 0.938194 0.590324 0.704884
Si Si3 0.314534 0.441109 0.210033
Si Si4 0.190302 0.840756 0.797922
Si Si5 0.099574 0.044779 0.297523
Si Si6 0.406483 0.286378 0.777561
O O1 0.727364 0.064488 0.197981
O O2 0.687318 0.797436 0.188521
O O3 0.558785 0.120584 0.855215
O O4 0.817491 0.930532 0.902179
O O5 0.798708 0.605541 0.727143
O O6 0.935483 0.783902 0.621233
O O7 0.000000 0.500000 0.500000
O O8 0.000000 0.500000 0.000000
O O9 0.383206 0.393226 0.482601
O O10 0.252653 0.657089 0.040577
O O11 0.384697 0.357290 0.005322
O O12 0.034013 0.937147 0.791231
O O13 0.186611 0.846427 0.525497
#
# Coordination Sequence:
#
# PCOD9075478 Si02
#       6
#     2   2   2   2   2   2
#     4  11  26  48  74 105 143 200 240 303 359 434
#     4  12  25  44  75 107 146 189 240 297 362 428
#     4  12  26  48  72 113 144 191 243 305 354 436
#     4  11  27  43  75 104 154 185 242 300 379 415
#     4  11  25  47  71 111 145 194 237 305 365 442
#     4  11  28  48  79 102 148 194 253 290 357 433
#
# _framework density 23.275379000000001
#
# number of rings (size 3 to 8) (size 9 to 14) (size 15 to 20)
#    0.000    0.667    3.333    2.500    7.000    4.000 
#    0.000    0.000    0.000    0.000    0.000    0.000 
#    0.000    0.000    0.000    0.000    0.000    0.000 
#
# Total GULP energy -66835.675770 kJ/mol
# GULP energy per Si atom -5569.639648 kJ/mol
# Density = 2.322240 g / cm^3
# Si number density = 23.275379 Si / 1000 Ang^3
#
#
#
# Elastic Constant Matrix: (Units=GPa)
#
#
# Indices 1 2 3 4 5 6 
#
# 1 41.3470 -10.4395 -21.9670 -15.0641 7.4701 13.5558
# 2 -10.4395 19.8498 43.4717 17.9089 3.5723 -9.7223
# 3 -21.9670 43.4717 177.0674 -38.2819 16.8813 5.5122
# 4 -15.0641 17.9089 -38.2819 25.9707 4.1565 6.9525
# 5 7.4701 3.5723 16.8813 4.1565 33.2229 -2.8235
# 6 13.5558 -9.7223 5.5122 6.9525 -2.8235 12.8876
#
#
#
# Elastic Compliance Matrix: (Units=1/GPa)
#
#
# Indices 1 2 3 4 5 6 
#
# 1 0.030105 0.029935 -0.004208 -0.006784 -0.007448 -0.005255
# 2 0.029935 0.022481 0.005430 0.021221 -0.017289 -0.032086
# 3 -0.004208 0.005430 0.001832 -0.006821 0.001279 0.011698
# 4 -0.006784 0.021221 -0.006821 0.002210 0.004633 0.025885
# 5 -0.007448 -0.017289 0.001279 0.004633 0.032304 -0.001178
# 6 -0.005255 -0.032086 0.011698 0.025885 -0.001178 0.039690
#
#
# Mechanical properties :
#
#
# Convention : Reuss Voigt Hill
#
# Bulk Modulus (GPa) = 8.56662 28.93272 18.74967
# Shear Modulus (GPa) = 47.52020 29.56285 38.54153
#
# Velocity S-wave (km/s) = 4.52337 3.56776 4.07368
# Velocity P-wave (km/s) = 5.56504 5.42489 5.49541
#
# Compressibility (1/GPa) = 0.11673219
#
# Stress axis : x y z
#
# Youngs Moduli (GPa) = 33.21715 44.48153 545.94819
#
# Poissons Ratio (x) = -1.33157 2.29719
# Poissons Ratio (y) = -0.99437 -2.96424
# Poissons Ratio (z) = 0.13977 -0.24151
#
# Static dielectric constant tensor:
#      x y z
#    x 1.822050 -0.003410 0.023930 
#    y -0.003410 2.035080 -0.001420 
#    z 0.023930 -0.001420 1.950310 
# 
# From -- ./inp_files/23028.got.cif
#   From: 2010.05.17/outbox.ucp.g08.bks.cvg/sg2_12_cif.got.tgz:23028.got - 2010.06.11 11:32:03.
