data_PCOD9075718
_publ_section_title
;
Structure prediction by ZEFSAII (Michael W. Deem and Ramdas Pophale) SiO2 
 PCOD9075718
Probable space group: P -1
;
_chemical_formula_sum "Si O2"
_cell_formula_units_Z 13
_cell_length_a 8.387873
_cell_length_b 13.000951
_cell_length_c 14.689516
_cell_angle_alpha 147.345624
_cell_angle_beta 40.284953
_cell_angle_gamma 118.629210
_cell_volume 494.017401
_symmetry_space_group_name_H-M "P -1"
_symmetry_group_IT_number 2
_symmetry_cell_setting 'triclinic'
loop_
_space_group_symop_operation_xyz
x,y,z
-x,-y,-z
loop_
_atom_site_type_symbol
_atom_site_label
_atom_site_fract_x
_atom_site_fract_y
_atom_site_fract_z
Si Si1 0.514151 0.558302 0.880506
Si Si2 0.973391 0.580848 0.196714
Si Si3 0.500000 0.000000 0.000000
Si Si4 0.254600 0.502345 0.447419
Si Si5 0.392520 0.044428 0.477944
Si Si6 0.887886 0.954341 0.643312
Si Si7 0.916449 0.698006 0.905764
O O1 0.600931 0.440946 0.657305
O O2 0.764570 0.557730 0.830141
O O3 0.302833 0.501582 0.983959
O O4 0.332578 0.808585 0.117529
O O5 0.938823 0.399560 0.133048
O O6 0.852458 0.783780 0.469411
O O7 0.814055 0.706082 0.269035
O O8 0.429336 0.258309 0.224830
O O9 0.201901 0.063889 0.229601
O O10 0.000000 0.500000 0.500000
O O11 0.130259 0.667012 0.708413
O O12 0.189590 0.933657 0.478838
O O13 0.500000 0.000000 0.500000
O O14 0.662117 0.931095 0.211251
#
# Coordination Sequence:
#
# PCOD9075718 Si02
#       7
#     2   2   1   2   2   2   2
#     4   9  17  31  51  86 114 132 173 236 284 320
#     4  11  19  34  60  82 103 141 192 239 270 315
#     4  10  18  32  54  86 114 128 178 244 276 314
#     4   9  19  28  48  84 115 136 165 225 291 320
#     4  11  24  38  53  79 120 152 181 223 275 337
#     4  10  18  35  59  85 107 144 183 231 285 313
#     4  11  19  32  57  83 112 140 186 228 280 322
#
# _framework density 26.314865999999999
#
# number of rings (size 3 to 8) (size 9 to 14) (size 15 to 20)
#    0.000    1.846    4.615    1.385    0.000    0.615 
#    0.000    0.000    0.000    9.231    0.000    0.000 
#    0.000    0.000    0.000    0.000    0.000    0.000 
#
# Total GULP energy -72452.126153 kJ/mol
# GULP energy per Si atom -5573.240473 kJ/mol
# Density = 2.625497 g / cm^3
# Si number density = 26.314866 Si / 1000 Ang^3
#
#
#
# Elastic Constant Matrix: (Units=GPa)
#
#
# Indices 1 2 3 4 5 6 
#
# 1 42.4920 16.0042 -8.2711 15.5747 -4.0670 -11.0865
# 2 16.0042 96.7726 45.6621 -17.3152 -10.1753 -20.8080
# 3 -8.2711 45.6621 154.3993 -17.8545 -0.7612 -5.9257
# 4 15.5747 -17.3152 -17.8545 56.3062 -5.3778 -5.0293
# 5 -4.0670 -10.1753 -0.7612 -5.3778 14.8617 4.5465
# 6 -11.0865 -20.8080 -5.9257 -5.0293 4.5465 41.2488
#
#
#
# Elastic Compliance Matrix: (Units=1/GPa)
#
#
# Indices 1 2 3 4 5 6 
#
# 1 0.031543 -0.007665 0.002956 -0.009911 -0.001265 0.003967
# 2 -0.007665 0.017409 -0.004402 0.007609 0.010559 0.005853
# 3 0.002956 -0.004402 0.007946 0.000178 -0.001711 -0.000074
# 4 -0.009911 0.007609 0.000178 0.024153 0.010326 0.003007
# 5 -0.001265 0.010559 -0.001711 0.010326 0.078635 -0.002668
# 6 0.003967 0.005853 -0.000074 0.003007 -0.002668 0.028912
#
#
# Mechanical properties :
#
#
# Convention : Reuss Voigt Hill
#
# Bulk Modulus (GPa) = 25.85569 44.49493 35.17531
# Shear Modulus (GPa) = 22.75706 38.50125 30.62915
#
# Velocity S-wave (km/s) = 2.94394 3.82920 3.41537
# Velocity P-wave (km/s) = 4.62629 6.04117 5.38044
#
# Compressibility (1/GPa) = 0.03867621
#
# Stress axis : x y z
#
# Youngs Moduli (GPa) = 31.70274 57.44272 125.84339
#
# Poissons Ratio (x) = 0.44030 -0.37206
# Poissons Ratio (y) = 0.24300 0.55402
# Poissons Ratio (z) = -0.09373 0.25289
#
# Static dielectric constant tensor:
#      x y z
#    x 2.106080 -0.060570 0.003620 
#    y -0.060570 2.069340 -0.034300 
#    z 0.003620 -0.034300 2.091660 
# 
# From -- ./inp_files/162550.got.cif
#   From: 2010.05.17/outbox.cif.g08.bks.cpg/sg2_82_cif.got.tgz:162550.got - 2010.06.03 11:33:40.
