data_PCOD9075245
_publ_section_title
;
Structure prediction by ZEFSAII (Michael W. Deem and Ramdas Pophale) SiO2 
 PCOD9075245
Probable space group: P -1
;
_chemical_formula_sum "Si O2"
_cell_formula_units_Z 14
_cell_length_a 12.000000
_cell_length_b 12.000000
_cell_length_c 6.000000
_cell_angle_alpha 50.000000
_cell_angle_beta 70.000000
_cell_angle_gamma 70.000000
_cell_volume 612.923978
_symmetry_space_group_name_H-M "P -1"
_symmetry_group_IT_number 2
_symmetry_cell_setting 'triclinic'
loop_
_space_group_symop_operation_xyz
x,y,z
-x,-y,-z
loop_
_atom_site_type_symbol
_atom_site_label
_atom_site_fract_x
_atom_site_fract_y
_atom_site_fract_z
Si Si1 0.695904 0.005903 0.841779
Si Si2 0.142588 0.520386 0.842815
Si Si3 0.204088 0.303135 0.678030
Si Si4 0.896866 0.038747 0.338307
Si Si5 0.007217 0.760638 0.342341
Si Si6 0.613537 0.577017 0.913144
Si Si7 0.503420 0.875521 0.850987
O O1 0.770726 0.071325 0.513828
O O2 0.600266 0.920625 0.897223
O O3 0.622632 0.108276 0.948653
O O4 0.784304 0.871805 0.068728
O O5 0.186288 0.388416 0.811123
O O6 0.112093 0.677545 0.536164
O O7 0.261244 0.511989 0.937512
O O8 0.000000 0.500000 0.000000
O O9 0.322244 0.344914 0.428843
O O10 0.083465 0.342813 0.559978
O O11 0.927032 0.168719 0.994228
O O12 0.000000 0.000000 0.500000
O O13 0.919110 0.889198 0.369058
O O14 0.549921 0.712000 0.938163
O O15 0.500000 0.500000 0.000000
O O16 0.500000 0.000000 0.500000
#
# Coordination Sequence:
#
# PCOD9075245 Si02
#       7
#     2   2   2   2   2   2   2
#     4  11  23  44  78 107 142 197 254 314 381 453
#     4  12  26  48  79 107 148 202 256 309 385 469
#     4  12  23  47  77 105 147 196 260 308 386 464
#     4  11  24  44  70 112 156 181 251 328 382 446
#     4  11  25  43  73 116 146 200 248 317 390 461
#     4  12  28  51  73 114 160 202 255 324 385 461
#     4  11  24  48  75 104 143 207 262 304 379 466
#
# _framework density 22.841332000000001
#
# number of rings (size 3 to 8) (size 9 to 14) (size 15 to 20)
#    0.000    0.571    5.714    2.143    0.000    0.571 
#    7.714    0.000    0.000    0.000    0.000    0.000 
#    0.000    0.000    0.000    0.000    0.000    0.000 
#
# Total GULP energy -78191.121346 kJ/mol
# GULP energy per Si atom -5585.080096 kJ/mol
# Density = 2.278934 g / cm^3
# Si number density = 22.841332 Si / 1000 Ang^3
#
#
#
# Elastic Constant Matrix: (Units=GPa)
#
#
# Indices 1 2 3 4 5 6 
#
# 1 136.6032 50.1849 53.7739 6.3680 -4.5879 0.0953
# 2 50.1849 118.4055 37.3470 24.4744 -22.0387 -18.3670
# 3 53.7739 37.3470 128.7914 13.8863 -14.7750 -22.5802
# 4 6.3680 24.4744 13.8863 35.3511 -14.7792 -6.9601
# 5 -4.5879 -22.0387 -14.7750 -14.7792 56.2543 9.9551
# 6 0.0953 -18.3670 -22.5802 -6.9601 9.9551 48.0292
#
#
#
# Elastic Compliance Matrix: (Units=1/GPa)
#
#
# Indices 1 2 3 4 5 6 
#
# 1 0.010244 -0.004057 -0.003890 0.001550 -0.000837 -0.003002
# 2 -0.004057 0.012500 -0.000442 -0.006171 0.002259 0.003218
# 3 -0.003890 -0.000442 0.010597 -0.001870 0.001034 0.004335
# 4 0.001550 -0.006171 -0.001870 0.035865 0.006534 0.000601
# 5 -0.000837 0.002259 0.001034 0.006534 0.020943 -0.002042
# 6 -0.003002 0.003218 0.004335 0.000601 -0.002042 0.024606
#
#
# Mechanical properties :
#
#
# Convention : Reuss Voigt Hill
#
# Bulk Modulus (GPa) = 60.37709 74.04575 67.21142
# Shear Modulus (GPa) = 36.48191 44.09322 40.28757
#
# Velocity S-wave (km/s) = 4.00082 4.39841 4.20432
# Velocity P-wave (km/s) = 6.91612 7.63430 7.28407
#
# Compressibility (1/GPa) = 0.01656257
#
# Stress axis : x y z
#
# Youngs Moduli (GPa) = 97.61841 80.00231 94.36254
#
# Poissons Ratio (x) = 0.32455 0.36710
# Poissons Ratio (y) = 0.39601 0.04172
# Poissons Ratio (z) = 0.37977 0.03537
#
# Static dielectric constant tensor:
#      x y z
#    x 1.917580 -0.000380 0.069210 
#    y -0.000380 1.864720 -0.000110 
#    z 0.069210 -0.000110 1.950690 
# 
# From -- ./inp_files/68090.got.cif
#   From: 2010.05.17/outbox.ucp.g08.bks.cvg/sg2_35_cif.got.tgz:68090.got - 2010.06.11 11:32:03.
