data_PCOD9075977
_publ_section_title
;
Structure prediction by ZEFSAII (Michael W. Deem and Ramdas Pophale) SiO2 
 PCOD9075977
Probable space group: P -1
;
_chemical_formula_sum "Si O2"
_cell_formula_units_Z 16
_cell_length_a 7.904908
_cell_length_b 13.540218
_cell_length_c 14.011671
_cell_angle_alpha 142.650518
_cell_angle_beta 100.516502
_cell_angle_gamma 103.154779
_cell_volume 698.471668
_symmetry_space_group_name_H-M "P -1"
_symmetry_group_IT_number 2
_symmetry_cell_setting 'triclinic'
loop_
_space_group_symop_operation_xyz
x,y,z
-x,-y,-z
loop_
_atom_site_type_symbol
_atom_site_label
_atom_site_fract_x
_atom_site_fract_y
_atom_site_fract_z
Si Si1 0.237842 0.597443 0.202280
Si Si2 0.702003 0.821079 0.335678
Si Si3 0.020767 0.534620 0.413860
Si Si4 0.212218 0.011438 0.961514
Si Si5 0.317088 0.897465 0.599946
Si Si6 0.384964 0.888990 0.037849
Si Si7 0.264187 0.361629 0.319273
Si Si8 0.993722 0.225368 0.780492
O O1 0.451668 0.664482 0.219676
O O2 0.314287 0.733279 0.409663
O O3 0.125199 0.686041 0.206747
O O4 0.079471 0.345833 0.983155
O O5 0.810578 0.721985 0.229350
O O6 0.718119 0.966987 0.366016
O O7 0.830931 0.976156 0.558756
O O8 0.115470 0.751365 0.541161
O O9 0.203670 0.505076 0.390433
O O10 0.000000 0.500000 0.500000
O O11 0.794916 0.350328 0.196907
O O12 0.260001 0.229917 0.132115
O O13 0.285665 0.993684 0.061613
O O14 0.385472 0.019267 0.920533
O O15 0.952995 0.819345 0.779488
O O16 0.543495 0.052995 0.801352
O O17 0.500000 0.500000 0.500000
#
# Coordination Sequence:
#
# PCOD9075977 Si02
#       8
#     2   2   2   2   2   2   2   2
#     4  10  21  39  67  91 128 163 204 255 317 375
#     4  10  21  39  66  93 128 164 205 252 318 378
#     4  11  23  39  62  84 120 169 214 257 313 365
#     4   9  19  35  58  81 107 163 206 249 315 360
#     4  11  22  36  59  92 121 159 210 252 317 376
#     4  10  20  37  59  82 119 158 206 261 306 365
#     4  10  18  32  58  81 111 147 202 258 306 361
#     4   9  19  38  66  94 125 165 205 249 308 387
#
# _framework density 22.907157000000002
#
# number of rings (size 3 to 8) (size 9 to 14) (size 15 to 20)
#    0.000    2.000    0.000    5.625    0.000    4.000 
#    2.250    0.000   55.000    0.000    0.000    0.000 
#    0.000    0.000    0.000    0.000    0.000    0.000 
#
# Total GULP energy -89165.355579 kJ/mol
# GULP energy per Si atom -5572.834724 kJ/mol
# Density = 2.285502 g / cm^3
# Si number density = 22.907157 Si / 1000 Ang^3
#
#
#
# Elastic Constant Matrix: (Units=GPa)
#
#
# Indices 1 2 3 4 5 6 
#
# 1 -5.7424 -162.3822 -47.1935 -2.6021 112.0455 44.1160
# 2 -162.3822 -161.8652 -71.6919 -2.3030 139.1466 49.5844
# 3 -47.1935 -71.6919 124.0479 -27.4149 79.5070 27.1479
# 4 -2.6021 -2.3030 -27.4149 22.9036 5.1839 0.5582
# 5 112.0455 139.1466 79.5070 5.1839 -33.1558 -25.3906
# 6 44.1160 49.5844 27.1479 0.5582 -25.3906 -0.0124
#
#
#
# Elastic Compliance Matrix: (Units=1/GPa)
#
#
# Indices 1 2 3 4 5 6 
#
# 1 0.007133 -0.003912 -0.001860 -0.002428 0.002712 0.000177
# 2 -0.003912 0.010016 -0.004674 -0.007037 0.007606 0.011625
# 3 -0.001860 -0.004674 0.008820 0.010500 -0.002698 -0.000538
# 4 -0.002428 -0.007037 0.010500 0.056433 -0.005494 0.002298
# 5 0.002712 0.007606 -0.002698 -0.005494 0.016568 -0.016940
# 6 0.000177 0.011625 -0.000538 0.002298 -0.016940 0.085398
#
#
# Mechanical properties :
#
#
# Convention : Reuss Voigt Hill
#
# Bulk Modulus (GPa) = 196.95452 -67.34385 64.80534
# Shear Modulus (GPa) = 24.16004 13.79428 18.97716
#
# Velocity S-wave (km/s) = 3.25113 2.45660 2.88138
# Velocity P-wave (km/s) = 10.01295 4.62773 6.27867
#
# Compressibility (1/GPa) = 0.00507731
#
# Stress axis : x y z
#
# Youngs Moduli (GPa) = 140.19600 99.83768 113.37777
#
# Poissons Ratio (x) = 0.39053 0.21094
# Poissons Ratio (y) = 0.54839 0.52991
# Poissons Ratio (z) = 0.26083 0.46663
#
# Static dielectric constant tensor:
#      x y z
#    x 1.895420 0.109520 -0.085890 
#    y 0.109520 1.992230 -0.127370 
#    z -0.085890 -0.127370 2.040050 
# 
# From -- ./inp_files/505608.got.cif
#   From: 2010.05.17/outbox.cif.g08.bks.cpg/sg2_253_cif.got.tgz:505608.got - 2010.06.03 11:33:40.
