data_PCOD9075356
_publ_section_title
;
Structure prediction by ZEFSAII (Michael W. Deem and Ramdas Pophale) SiO2 
 PCOD9075356
Probable space group: P -1
;
_chemical_formula_sum "Si O2"
_cell_formula_units_Z 16
_cell_length_a 9.000000
_cell_length_b 9.000000
_cell_length_c 15.000000
_cell_angle_alpha 40.000000
_cell_angle_beta 70.000000
_cell_angle_gamma 80.000000
_cell_volume 725.993766
_symmetry_space_group_name_H-M "P -1"
_symmetry_group_IT_number 2
_symmetry_cell_setting 'triclinic'
loop_
_space_group_symop_operation_xyz
x,y,z
-x,-y,-z
loop_
_atom_site_type_symbol
_atom_site_label
_atom_site_fract_x
_atom_site_fract_y
_atom_site_fract_z
Si Si1 0.113799 0.248202 0.861345
Si Si2 0.369981 0.394789 0.198183
Si Si3 0.899195 0.429510 0.961247
Si Si4 0.354526 0.874660 0.753790
Si Si5 0.076810 0.677105 0.566142
Si Si6 0.807898 0.973816 0.463901
Si Si7 0.414269 0.716654 0.389204
Si Si8 0.486468 0.243553 0.846420
O O1 0.072593 0.400959 0.713923
O O2 0.301981 0.254242 0.845697
O O3 0.041816 0.388094 0.889076
O O4 0.000000 0.000000 0.000000
O O5 0.231617 0.444248 0.131349
O O6 0.544722 0.342219 0.155953
O O7 0.305451 0.167507 0.374576
O O8 0.423450 0.585556 0.175851
O O9 0.795174 0.187277 0.122610
O O10 0.000000 0.500000 0.000000
O O11 0.289091 0.938394 0.640268
O O12 0.472451 0.078965 0.679225
O O13 0.237332 0.729689 0.452724
O O14 0.932145 0.791908 0.498632
O O15 0.102556 0.812950 0.593769
O O16 0.500000 0.500000 0.500000
O O17 0.416536 0.727870 0.277841
O O18 0.500000 0.000000 0.000000
#
# Coordination Sequence:
#
# PCOD9075356 Si02
#       8
#     2   2   2   2   2   2   2   2
#     4  12  25  48  71 102 151 199 235 298 374 441
#     4  12  24  48  73 106 147 192 245 300 373 439
#     4  12  27  46  74 106 145 189 247 303 362 436
#     4  12  26  43  74 111 141 192 248 304 361 439
#     4  11  24  45  75 103 148 193 245 304 364 440
#     4  11  24  44  75 109 146 191 244 302 378 429
#     4  12  25  45  71 106 145 186 246 303 363 431
#     4  12  27  46  73 105 146 195 244 302 370 435
#
# _framework density 22.038757
#
# number of rings (size 3 to 8) (size 9 to 14) (size 15 to 20)
#    0.000    0.250    3.750    6.000    1.750    2.000 
#    0.000    3.750    0.000    0.000    0.000    0.000 
#    0.000    0.000    0.000    0.000    0.000    0.000 
#
# Total GULP energy -89102.734770 kJ/mol
# GULP energy per Si atom -5568.920923 kJ/mol
# Density = 2.198860 g / cm^3
# Si number density = 22.038757 Si / 1000 Ang^3
#
#
#
# Elastic Constant Matrix: (Units=GPa)
#
#
# Indices 1 2 3 4 5 6 
#
# 1 131.2608 37.8944 21.9557 4.7090 18.0622 -7.7089
# 2 37.8944 89.1283 40.9449 0.8191 6.4730 3.1374
# 3 21.9557 40.9449 109.9870 -5.5926 3.0433 -2.0548
# 4 4.7090 0.8191 -5.5926 24.4297 -6.3714 -7.2398
# 5 18.0622 6.4730 3.0433 -6.3714 49.4892 7.5925
# 6 -7.7089 3.1374 -2.0548 -7.2398 7.5925 45.6573
#
#
#
# Elastic Compliance Matrix: (Units=1/GPa)
#
#
# Indices 1 2 3 4 5 6 
#
# 1 0.009417 -0.003558 -0.000527 -0.002126 -0.003529 0.002060
# 2 -0.003558 0.015161 -0.005050 -0.001668 -0.000268 -0.002090
# 3 -0.000527 -0.005050 0.011258 0.003315 0.000400 0.001224
# 4 -0.002126 -0.001668 0.003315 0.045472 0.005698 0.006168
# 5 -0.003529 -0.000268 0.000400 0.005698 0.022766 -0.003442
# 6 0.002060 -0.002090 0.001224 0.006168 -0.003442 0.023999
#
#
# Mechanical properties :
#
#
# Convention : Reuss Voigt Hill
#
# Bulk Modulus (GPa) = 56.93357 59.10735 58.02046
# Shear Modulus (GPa) = 32.85173 39.22065 36.03619
#
# Velocity S-wave (km/s) = 3.86506 4.22313 4.04806
# Velocity P-wave (km/s) = 6.76814 7.11743 6.94498
#
# Compressibility (1/GPa) = 0.01756433
#
# Stress axis : x y z
#
# Youngs Moduli (GPa) = 106.19424 65.95892 88.82899
#
# Poissons Ratio (x) = 0.23470 0.04682
# Poissons Ratio (y) = 0.37786 0.44860
# Poissons Ratio (z) = 0.05598 0.33310
#
# Static dielectric constant tensor:
#      x y z
#    x 1.792830 -0.036610 -0.016540 
#    y -0.036610 1.825300 -0.071650 
#    z -0.016540 -0.071650 1.937620 
# 
# From -- ./inp_files/274740.got.cif
#   From: 2010.05.17/outbox.ucp.g08.bks.cvg/sg2_138_cif.got.tgz:274740.got - 2010.06.11 11:32:03.
