data_PCOD9075697
_publ_section_title
;
Structure prediction by ZEFSAII (Michael W. Deem and Ramdas Pophale) SiO2 
 PCOD9075697
Probable space group: P -1
;
_chemical_formula_sum "Si O2"
_cell_formula_units_Z 12
_cell_length_a 7.029970
_cell_length_b 19.118332
_cell_length_c 9.626310
_cell_angle_alpha 143.771360
_cell_angle_beta 48.988263
_cell_angle_gamma 133.750256
_cell_volume 537.477315
_symmetry_space_group_name_H-M "P -1"
_symmetry_group_IT_number 2
_symmetry_cell_setting 'triclinic'
loop_
_space_group_symop_operation_xyz
x,y,z
-x,-y,-z
loop_
_atom_site_type_symbol
_atom_site_label
_atom_site_fract_x
_atom_site_fract_y
_atom_site_fract_z
Si Si1 0.170092 0.179770 0.822191
Si Si2 0.162546 0.535344 0.835109
Si Si3 0.273042 0.121990 0.082580
Si Si4 0.789347 0.644420 0.687500
Si Si5 0.672477 0.181041 0.765693
Si Si6 0.847017 0.895271 0.593654
O O1 0.449083 0.184153 0.767721
O O2 0.224897 0.185928 0.642292
O O3 0.942583 0.042789 0.744530
O O4 0.094272 0.285471 0.111579
O O5 0.480339 0.553783 0.727967
O O6 0.066345 0.434498 0.594565
O O7 0.174727 0.676423 0.024074
O O8 0.000000 0.500000 0.000000
O O9 0.230007 0.244136 0.228278
O O10 0.345612 0.140517 0.239404
O O11 0.509895 0.102607 0.848664
O O12 0.000000 0.000000 0.000000
O O13 0.883484 0.125992 0.516769
#
# Coordination Sequence:
#
# PCOD9075697 Si02
#       6
#     2   2   2   2   2   2
#     4   9  20  34  54  82 110 146 174 223 268 321
#     4   9  17  33  56  79  99 144 186 217 264 316
#     4  10  18  32  54  82 108 142 177 217 274 316
#     4   9  18  34  53  78 112 136 180 225 262 317
#     4  10  21  36  57  80 107 145 184 218 270 321
#     4  11  19  36  55  78 117 141 178 220 269 324
#
# _framework density 22.326522000000001
#
# number of rings (size 3 to 8) (size 9 to 14) (size 15 to 20)
#    0.000    2.667    3.333    1.500    0.000    0.000 
#    0.000   10.833    0.000   32.000    0.000    0.000 
#    0.000    0.000    0.000    0.000    0.000    0.000 
#
# Total GULP energy -66945.850546 kJ/mol
# GULP energy per Si atom -5578.820879 kJ/mol
# Density = 2.227571 g / cm^3
# Si number density = 22.326522 Si / 1000 Ang^3
#
#
#
# Elastic Constant Matrix: (Units=GPa)
#
#
# Indices 1 2 3 4 5 6 
#
# 1 46.7374 9.7605 27.1756 -7.4267 15.2860 -6.4822
# 2 9.7605 69.3579 33.3118 -9.8670 10.0301 6.3888
# 3 27.1756 33.3118 178.7207 -4.1364 36.0067 2.9450
# 4 -7.4267 -9.8670 -4.1364 42.5730 -7.2712 3.0447
# 5 15.2860 10.0301 36.0067 -7.2712 41.7044 -12.2971
# 6 -6.4822 6.3888 2.9450 3.0447 -12.2971 9.8663
#
#
#
# Elastic Compliance Matrix: (Units=1/GPa)
#
#
# Indices 1 2 3 4 5 6 
#
# 1 0.027679 -0.004011 -0.004136 0.002105 0.001673 0.023452
# 2 -0.004011 0.020341 -0.000133 0.004241 -0.012020 -0.032057
# 3 -0.004136 -0.000133 0.009108 -0.000521 -0.012549 -0.020829
# 4 0.002105 0.004241 -0.000521 0.025493 0.000675 -0.008233
# 5 0.001673 -0.012020 -0.012549 0.000675 0.064618 0.092958
# 6 0.023452 -0.032057 -0.020829 -0.008233 0.092958 0.262141
#
#
# Mechanical properties :
#
#
# Convention : Reuss Voigt Hill
#
# Bulk Modulus (GPa) = 24.65052 48.36799 36.50925
# Shear Modulus (GPa) = 11.37752 33.79994 22.58873
#
# Velocity S-wave (km/s) = 2.25987 3.89510 3.18424
# Velocity P-wave (km/s) = 4.22780 6.47611 5.46874
#
# Compressibility (1/GPa) = 0.04056710
#
# Stress axis : x y z
#
# Youngs Moduli (GPa) = 36.12878 49.16173 109.78872
#
# Poissons Ratio (x) = 0.19721 0.45406
# Poissons Ratio (y) = 0.14493 0.01465
# Poissons Ratio (z) = 0.14942 0.00656
#
# Static dielectric constant tensor:
#      x y z
#    x 1.873480 0.007170 0.035390 
#    y 0.007170 1.834250 0.024970 
#    z 0.035390 0.024970 1.868510 
# 
# From -- ./inp_files/171845.got.cif
#   From: 2010.05.17/outbox.cif.g08.bks.cpg/sg2_86_cif.got.tgz:171845.got - 2010.06.03 11:33:40.
