data_PCOD9075038
_publ_section_title
;
Structure prediction by ZEFSAII (Michael W. Deem and Ramdas Pophale) SiO2 
 PCOD9075038
Probable space group: P -1
;
_chemical_formula_sum "Si O2"
_cell_formula_units_Z 16
_cell_length_a 9.000000
_cell_length_b 9.000000
_cell_length_c 12.000000
_cell_angle_alpha 50.000000
_cell_angle_beta 90.000000
_cell_angle_gamma 100.000000
_cell_volume 725.212580
_symmetry_space_group_name_H-M "P -1"
_symmetry_group_IT_number 2
_symmetry_cell_setting 'triclinic'
loop_
_space_group_symop_operation_xyz
x,y,z
-x,-y,-z
loop_
_atom_site_type_symbol
_atom_site_label
_atom_site_fract_x
_atom_site_fract_y
_atom_site_fract_z
Si Si1 0.129503 0.379944 0.083435
Si Si2 0.201593 0.659231 0.301034
Si Si3 0.675095 0.635693 0.698954
Si Si4 0.757173 0.095211 0.421227
Si Si5 0.892868 0.999112 0.241425
Si Si6 0.051383 0.701509 0.492698
Si Si7 0.338208 0.499089 0.827220
Si Si8 0.815408 0.954534 0.024873
O O1 0.185784 0.370484 0.213823
O O2 0.271018 0.483361 0.958550
O O3 0.055681 0.155193 0.152031
O O4 0.000000 0.500000 0.000000
O O5 0.305270 0.511490 0.331411
O O6 0.194504 0.700502 0.412909
O O7 0.030964 0.514567 0.356908
O O8 0.228030 0.868172 0.134155
O O9 0.518373 0.534537 0.806221
O O10 0.672655 0.865987 0.560060
O O11 0.896759 0.146010 0.482308
O O12 0.695308 0.299817 0.327036
O O13 0.814061 0.081311 0.303807
O O14 0.789138 0.989219 0.138465
O O15 0.931459 0.791198 0.376704
O O16 0.260442 0.277702 0.886715
O O17 0.000000 0.000000 0.000000
#
# Coordination Sequence:
#
# PCOD9075038 Si02
#       8
#     2   2   2   2   2   2   2   2
#     4  12  23  42  74 106 137 183 241 293 346 409
#     4  11  24  41  70  99 142 185 228 295 353 411
#     4  12  27  47  69 106 148 188 233 287 360 431
#     4  12  25  44  70 105 141 191 234 286 353 425
#     4  12  22  41  71 107 137 177 240 304 339 404
#     4  11  22  41  70 106 136 178 242 299 345 403
#     4  12  28  46  69 103 151 191 227 290 362 420
#     4  12  24  44  69 104 141 181 246 291 346 418
#
# _framework density 22.062495999999999
#
# number of rings (size 3 to 8) (size 9 to 14) (size 15 to 20)
#    0.000    0.250    6.250    3.375    1.750    0.500 
#    0.000    3.750    0.000    0.000    0.000    0.000 
#    0.000    0.000    0.000    0.000    0.000    0.000 
#
# Total GULP energy -89290.400416 kJ/mol
# GULP energy per Si atom -5580.650026 kJ/mol
# Density = 2.201228 g / cm^3
# Si number density = 22.062496 Si / 1000 Ang^3
#
#
#
# Elastic Constant Matrix: (Units=GPa)
#
#
# Indices 1 2 3 4 5 6 
#
# 1 65.1328 32.6075 39.6611 -7.7300 -15.6300 -5.6904
# 2 32.6075 131.1875 63.1246 -11.6162 -5.6332 -12.4259
# 3 39.6611 63.1246 130.2247 -18.5858 -6.1216 -1.9461
# 4 -7.7300 -11.6162 -18.5858 54.6356 -6.9955 -1.5157
# 5 -15.6300 -5.6332 -6.1216 -6.9955 29.3616 -2.6192
# 6 -5.6904 -12.4259 -1.9461 -1.5157 -2.6192 18.3221
#
#
#
# Elastic Compliance Matrix: (Units=1/GPa)
#
#
# Indices 1 2 3 4 5 6 
#
# 1 0.023366 -0.001849 -0.005101 0.002972 0.012395 0.007479
# 2 -0.001849 0.010990 -0.004497 0.000854 0.000980 0.006612
# 3 -0.005101 -0.004497 0.011610 0.002054 -0.000969 -0.003370
# 4 0.002972 0.000854 0.002054 0.020690 0.007505 0.004505
# 5 0.012395 0.000980 -0.000969 0.007505 0.043433 0.011241
# 6 0.007479 0.006612 -0.003370 0.004505 0.011241 0.063007
#
#
# Mechanical properties :
#
#
# Convention : Reuss Voigt Hill
#
# Bulk Modulus (GPa) = 43.34606 66.37016 54.85811
# Shear Modulus (GPa) = 24.54794 33.20730 28.87762
#
# Velocity S-wave (km/s) = 3.33927 3.88383 3.62180
# Velocity P-wave (km/s) = 5.87854 7.08945 6.51220
#
# Compressibility (1/GPa) = 0.02307015
#
# Stress axis : x y z
#
# Youngs Moduli (GPa) = 42.79723 90.98840 86.13283
#
# Poissons Ratio (x) = 0.16827 0.43939
# Poissons Ratio (y) = 0.07915 0.38738
# Poissons Ratio (z) = 0.21832 0.40922
#
# Static dielectric constant tensor:
#      x y z
#    x 1.818060 -0.050160 -0.011040 
#    y -0.050160 1.892430 0.044390 
#    z -0.011040 0.044390 1.858320 
# 
# From -- ./inp_files/381059.got.cif
#   From: 2010.05.17/outbox.ucp.g08.bks.cvg/sg2_191_cif.got.tgz:381059.got - 2010.06.11 11:32:03.
