data_PCOD9075532
_publ_section_title
;
Structure prediction by ZEFSAII (Michael W. Deem and Ramdas Pophale) SiO2 
 PCOD9075532
Probable space group: P -1
;
_chemical_formula_sum "Si O2"
_cell_formula_units_Z 12
_cell_length_a 9.000000
_cell_length_b 24.000000
_cell_length_c 27.000000
_cell_angle_alpha 170.000000
_cell_angle_beta 30.000000
_cell_angle_gamma 150.000000
_cell_volume 500.510623
_symmetry_space_group_name_H-M "P -1"
_symmetry_group_IT_number 2
_symmetry_cell_setting 'triclinic'
loop_
_space_group_symop_operation_xyz
x,y,z
-x,-y,-z
loop_
_atom_site_type_symbol
_atom_site_label
_atom_site_fract_x
_atom_site_fract_y
_atom_site_fract_z
Si Si1 0.668575 0.217643 0.907477
Si Si2 0.223588 0.737024 0.200672
Si Si3 0.112293 0.084842 0.801576
Si Si4 0.965983 0.872011 0.953603
Si Si5 0.221880 0.288004 0.335444
Si Si6 0.203749 0.393871 0.609164
O O1 0.668284 0.258404 0.883905
O O2 0.638463 0.856871 0.623151
O O3 0.365453 0.327214 0.113283
O O4 0.000271 0.408693 0.992162
O O5 0.527616 0.831439 0.226428
O O6 0.000000 0.000000 0.500000
O O7 0.958855 0.940425 0.770711
O O8 0.004702 0.831646 0.567307
O O9 0.973312 0.419992 0.136772
O O10 0.205734 0.626277 0.665107
O O11 0.000000 0.000000 0.000000
O O12 0.041604 0.149165 0.215889
O O13 0.556633 0.361832 0.279190
#
# Coordination Sequence:
#
# PCOD9075532 Si02
#       6
#     2   2   2   2   2   2
#     4  11  27  47  74 112 140 193 248 302 360 428
#     4  11  27  50  80  99 145 194 252 300 357 435
#     4  12  27  48  72 107 147 197 238 297 366 433
#     4  12  24  42  78 111 145 188 246 303 355 429
#     4  12  24  45  72 107 151 196 240 290 364 437
#     4  12  28  45  73 109 152 186 241 302 365 432
#
# _framework density 23.975515000000001
#
# number of rings (size 3 to 8) (size 9 to 14) (size 15 to 20)
#    0.000    0.333    3.333    4.500    7.000    1.333 
#    0.000    0.000    0.000    0.000    0.000    0.000 
#    0.000    0.000    0.000    0.000    0.000    0.000 
#
# Total GULP energy -67023.845383 kJ/mol
# GULP energy per Si atom -5585.320449 kJ/mol
# Density = 2.392095 g / cm^3
# Si number density = 23.975515 Si / 1000 Ang^3
#
#
#
# Elastic Constant Matrix: (Units=GPa)
#
#
# Indices 1 2 3 4 5 6 
#
# 1 77.7036 16.6444 -7.6913 14.3066 31.0515 6.3669
# 2 16.6444 142.3836 1.1590 -12.0307 17.8230 19.5986
# 3 -7.6913 1.1590 37.7946 -10.0555 12.4967 9.4923
# 4 14.3066 -12.0307 -10.0555 36.2423 11.5684 3.5958
# 5 31.0515 17.8230 12.4967 11.5684 29.2679 0.8759
# 6 6.3669 19.5986 9.4923 3.5958 0.8759 59.0019
#
#
#
# Elastic Compliance Matrix: (Units=1/GPa)
#
#
# Indices 1 2 3 4 5 6 
#
# 1 0.047090 0.009833 0.050198 0.028395 -0.088100 -0.016846
# 2 0.009833 0.012406 0.019013 0.016744 -0.032460 -0.008779
# 3 0.050198 0.019013 0.103235 0.060192 -0.131806 -0.030053
# 4 0.028395 0.016744 0.060192 0.070515 -0.093260 -0.021223
# 5 -0.088100 -0.032460 -0.131806 -0.093260 0.239237 0.043626
# 6 -0.016846 -0.008779 -0.030053 -0.021223 0.043626 0.027163
#
#
# Mechanical properties :
#
#
# Convention : Reuss Voigt Hill
#
# Bulk Modulus (GPa) = 3.11703 30.90067 17.00885
# Shear Modulus (GPa) = 11.14828 41.42040 26.28434
#
# Velocity S-wave (km/s) = 2.15869 4.16097 3.31463
# Velocity P-wave (km/s) = 2.74157 6.00010 4.66462
#
# Compressibility (1/GPa) = 0.32081790
#
# Stress axis : x y z
#
# Youngs Moduli (GPa) = 21.23571 80.60929 9.68663
#
# Poissons Ratio (x) = -0.79261 -0.48624
# Poissons Ratio (y) = -0.20880 -0.18417
# Poissons Ratio (z) = -1.06598 -1.53264
#
# Static dielectric constant tensor:
#      x y z
#    x 1.970540 0.024040 -0.121720 
#    y 0.024040 1.841790 0.053680 
#    z -0.121720 0.053680 2.042820 
# 
# From -- ./inp_files/21705.got.cif
#   From: 2010.05.17/outbox.ucp.g08.bks.cvg/sg2_11_cif.got.tgz:21705.got - 2010.06.11 11:32:03.
