data_PCOD9075373
_publ_section_title
;
Structure prediction by ZEFSAII (Michael W. Deem and Ramdas Pophale) SiO2 
 PCOD9075373
Probable space group: P -1
;
_chemical_formula_sum "Si O2"
_cell_formula_units_Z 14
_cell_length_a 15.000000
_cell_length_b 9.000000
_cell_length_c 15.000000
_cell_angle_alpha 40.000000
_cell_angle_beta 30.000000
_cell_angle_gamma 40.000000
_cell_volume 616.747849
_symmetry_space_group_name_H-M "P -1"
_symmetry_group_IT_number 2
_symmetry_cell_setting 'triclinic'
loop_
_space_group_symop_operation_xyz
x,y,z
-x,-y,-z
loop_
_atom_site_type_symbol
_atom_site_label
_atom_site_fract_x
_atom_site_fract_y
_atom_site_fract_z
Si Si1 0.178764 0.242749 0.981364
Si Si2 0.987966 0.926609 0.407349
Si Si3 0.038082 0.734935 0.132702
Si Si4 0.753083 0.874416 0.477148
Si Si5 0.827610 0.387507 0.450222
Si Si6 0.564186 0.443592 0.367932
Si Si7 0.404806 0.737908 0.907611
O O1 0.332514 0.358192 0.833828
O O2 0.290613 0.017133 0.918178
O O3 0.000000 0.500000 0.000000
O O4 0.099938 0.076813 0.189132
O O5 0.122125 0.713503 0.447961
O O6 0.866814 0.820155 0.495805
O O7 0.854051 0.137530 0.487994
O O8 0.895726 0.769175 0.322763
O O9 0.972300 0.532588 0.228578
O O10 0.250744 0.663111 0.016843
O O11 0.000000 0.000000 0.000000
O O12 0.572395 0.786192 0.683717
O O13 0.696492 0.166273 0.378997
O O14 0.614786 0.543071 0.543512
O O15 0.500000 0.500000 0.500000
O O16 0.500000 0.500000 0.000000
#
# Coordination Sequence:
#
# PCOD9075373 Si02
#       7
#     2   2   2   2   2   2   2
#     4  12  23  44  79 106 140 197 258 301 362 455
#     4  11  24  45  74 101 143 190 245 312 372 428
#     4  12  29  48  71 107 157 196 247 308 380 451
#     4  12  25  48  77 103 146 206 247 301 376 455
#     4  11  26  44  67 108 145 184 244 318 371 426
#     4  12  22  42  74 102 135 189 255 301 355 442
#     4  12  27  46  77 112 148 196 253 301 378 459
#
# _framework density 22.699714
#
# number of rings (size 3 to 8) (size 9 to 14) (size 15 to 20)
#    0.000    0.286    5.714    1.714    6.000    5.143 
#    0.000    0.000    0.000    0.000    0.000    0.000 
#    0.000    0.000    0.000    0.000    0.000    0.000 
#
# Total GULP energy -78215.306958 kJ/mol
# GULP energy per Si atom -5586.807640 kJ/mol
# Density = 2.264805 g / cm^3
# Si number density = 22.699714 Si / 1000 Ang^3
#
#
#
# Elastic Constant Matrix: (Units=GPa)
#
#
# Indices 1 2 3 4 5 6 
#
# 1 100.1081 34.9387 39.3404 8.4841 -16.5518 -24.9547
# 2 34.9387 74.7386 21.6981 -12.7131 7.1866 2.2593
# 3 39.3404 21.6981 147.6614 -9.9944 -26.2115 -9.0893
# 4 8.4841 -12.7131 -9.9944 43.3069 3.6681 4.5259
# 5 -16.5518 7.1866 -26.2115 3.6681 36.9617 -3.6321
# 6 -24.9547 2.2593 -9.0893 4.5259 -3.6321 42.1887
#
#
#
# Elastic Compliance Matrix: (Units=1/GPa)
#
#
# Indices 1 2 3 4 5 6 
#
# 1 0.023380 -0.014684 -0.001114 -0.012232 0.015420 0.017015
# 2 -0.014684 0.024999 -0.002540 0.012350 -0.015765 -0.013254
# 3 -0.001114 -0.002540 0.008721 0.000764 0.006282 0.001815
# 4 -0.012232 0.012350 0.000764 0.031543 -0.011659 -0.012120
# 5 0.015420 -0.015765 0.006282 -0.011659 0.044247 0.016379
# 6 0.017015 -0.013254 0.001815 -0.012120 0.016379 0.037578
#
#
# Mechanical properties :
#
#
# Convention : Reuss Voigt Hill
#
# Bulk Modulus (GPa) = 48.96369 57.16249 53.06309
# Shear Modulus (GPa) = 23.36971 39.59352 31.48161
#
# Velocity S-wave (km/s) = 3.21209 4.18093 3.72811
# Velocity P-wave (km/s) = 5.94758 6.96732 6.47755
#
# Compressibility (1/GPa) = 0.02042330
#
# Stress axis : x y z
#
# Youngs Moduli (GPa) = 42.77204 40.00164 114.66786
#
# Poissons Ratio (x) = 0.58738 0.12779
# Poissons Ratio (y) = 0.62806 0.29124
# Poissons Ratio (z) = 0.04767 0.10160
#
# Static dielectric constant tensor:
#      x y z
#    x 1.981740 0.070190 0.024040 
#    y 0.070190 1.888990 0.047680 
#    z 0.024040 0.047680 1.814330 
# 
# From -- ./inp_files/529248.got.cif
#   From: 2010.05.17/outbox.ucp.g08.bks.cvg/sg2_265_cif.got.tgz:529248.got - 2010.06.11 11:32:03.
