data_PCOD9075546
_publ_section_title
;
Structure prediction by ZEFSAII (Michael W. Deem and Ramdas Pophale) SiO2 
 PCOD9075546
Probable space group: P -1
;
_chemical_formula_sum "Si O2"
_cell_formula_units_Z 15
_cell_length_a 12.000000
_cell_length_b 21.000000
_cell_length_c 9.000000
_cell_angle_alpha 50.000000
_cell_angle_beta 140.000000
_cell_angle_gamma 150.000000
_cell_volume 727.418465
_symmetry_space_group_name_H-M "P -1"
_symmetry_group_IT_number 2
_symmetry_cell_setting 'triclinic'
loop_
_space_group_symop_operation_xyz
x,y,z
-x,-y,-z
loop_
_atom_site_type_symbol
_atom_site_label
_atom_site_fract_x
_atom_site_fract_y
_atom_site_fract_z
Si Si1 0.596736 0.711894 0.013637
Si Si2 0.596082 0.264119 0.736584
Si Si3 0.313143 0.101098 0.989819
Si Si4 0.849809 0.830066 0.781586
Si Si5 0.006382 0.257785 0.487205
Si Si6 0.788668 0.152509 0.084263
Si Si7 0.500000 0.000000 0.500000
Si Si8 0.982691 0.450186 0.218612
O O1 0.680492 0.734645 0.892669
O O2 0.286109 0.619969 0.864919
O O3 0.739311 0.845439 0.027265
O O4 0.702133 0.672863 0.278417
O O5 0.506931 0.210792 0.895676
O O6 0.333951 0.186046 0.493679
O O7 0.769438 0.410052 0.667137
O O8 0.739937 0.231848 0.879259
O O9 0.432235 0.063870 0.249045
O O10 0.058348 0.973121 0.839859
O O11 0.011394 0.819200 0.869033
O O12 0.002389 0.356659 0.362973
O O13 0.906745 0.196946 0.308278
O O14 0.816333 0.136888 0.587020
O O15 0.500000 0.000000 0.000000
O O16 0.000000 0.500000 0.000000
#
# Coordination Sequence:
#
# PCOD9075546 Si02
#       8
#     2   2   2   2   2   2   1   2
#     4  12  27  45  75 109 144 195 243 305 356 434
#     4  12  26  49  77 102 151 196 240 302 361 438
#     4  12  23  47  73 113 141 191 241 305 367 424
#     4  12  28  44  70 111 150 185 240 304 367 436
#     4  12  26  44  80 108 142 195 243 308 359 432
#     4  12  25  43  70 111 147 186 233 296 377 428
#     4  12  20  42  78 110 144 174 250 304 360 414
#     4  12  25  52  76 105 143 195 258 286 360 441
#
# _framework density 20.620868000000002
#
# number of rings (size 3 to 8) (size 9 to 14) (size 15 to 20)
#    0.000    0.000    8.000    1.600    1.867    4.267 
#    0.000    1.333    0.000    0.000    0.000    0.000 
#    0.000    0.000    0.000    0.000    0.000    0.000 
#
# Total GULP energy -83552.190394 kJ/mol
# GULP energy per Si atom -5570.146026 kJ/mol
# Density = 2.057393 g / cm^3
# Si number density = 20.620868 Si / 1000 Ang^3
#
#
#
# Elastic Constant Matrix: (Units=GPa)
#
#
# Indices 1 2 3 4 5 6 
#
# 1 135.4136 39.1629 53.7123 -17.4261 1.7736 11.2612
# 2 39.1629 111.4499 28.9009 -21.0636 0.6108 -3.4045
# 3 53.7123 28.9009 141.3829 -14.5498 16.1450 -6.7580
# 4 -17.4261 -21.0636 -14.5498 31.5257 1.1651 -0.8295
# 5 1.7736 0.6108 16.1450 1.1651 19.4646 0.0789
# 6 11.2612 -3.4045 -6.7580 -0.8295 0.0789 30.1521
#
#
#
# Elastic Compliance Matrix: (Units=1/GPa)
#
#
# Indices 1 2 3 4 5 6 
#
# 1 0.010159 -0.002384 -0.003613 0.002153 0.002037 -0.004819
# 2 -0.002384 0.011163 -0.000675 0.005884 0.000066 0.002161
# 3 -0.003613 -0.000675 0.009936 0.002530 -0.008057 0.003591
# 4 0.002153 0.005884 0.002530 0.038224 -0.004773 0.001491
# 5 0.002037 0.000066 -0.008057 -0.004773 0.058168 -0.002843
# 6 -0.004819 0.002161 0.003591 0.001491 -0.002843 0.036062
#
#
# Mechanical properties :
#
#
# Convention : Reuss Voigt Hill
#
# Bulk Modulus (GPa) = 55.82709 70.19987 63.01348
# Shear Modulus (GPa) = 27.31826 33.99315 30.65571
#
# Velocity S-wave (km/s) = 3.64371 4.06456 3.85987
# Velocity P-wave (km/s) = 6.69582 7.49296 7.10558
#
# Compressibility (1/GPa) = 0.01791245
#
# Stress axis : x y z
#
# Youngs Moduli (GPa) = 98.43758 89.58094 100.64710
#
# Poissons Ratio (x) = 0.21358 0.36368
# Poissons Ratio (y) = 0.23470 0.06792
# Poissons Ratio (z) = 0.35570 0.06045
#
# Static dielectric constant tensor:
#      x y z
#    x 1.776450 0.011610 0.004830 
#    y 0.011610 1.779300 0.075360 
#    z 0.004830 0.075360 1.774110 
# 
# From -- ./inp_files/282959.got.cif
#   From: 2010.05.17/outbox.ucp.g08.bks.cvg/sg2_142_cif.got.tgz:282959.got - 2010.06.11 11:32:03.
