data_PCOD9075220
_publ_section_title
;
Structure prediction by ZEFSAII (Michael W. Deem and Ramdas Pophale) SiO2 
 PCOD9075220
Probable space group: P -1
;
_chemical_formula_sum "Si O2"
_cell_formula_units_Z 16
_cell_length_a 9.000000
_cell_length_b 18.000000
_cell_length_c 18.000000
_cell_angle_alpha 30.000000
_cell_angle_beta 40.000000
_cell_angle_gamma 30.000000
_cell_volume 727.497153
_symmetry_space_group_name_H-M "P -1"
_symmetry_group_IT_number 2
_symmetry_cell_setting 'triclinic'
loop_
_space_group_symop_operation_xyz
x,y,z
-x,-y,-z
loop_
_atom_site_type_symbol
_atom_site_label
_atom_site_fract_x
_atom_site_fract_y
_atom_site_fract_z
Si Si1 0.702488 0.560105 0.362039
Si Si2 0.695084 0.965102 0.679110
Si Si3 0.332427 0.693437 0.107182
Si Si4 0.318467 0.135429 0.809753
Si Si5 0.625158 0.743176 0.078132
Si Si6 0.322223 0.734103 0.658068
Si Si7 0.617850 0.785133 0.633467
Si Si8 0.266563 0.346073 0.143949
O O1 0.500000 0.500000 0.500000
O O2 0.684200 0.689264 0.322521
O O3 0.603453 0.689372 0.215046
O O4 0.034278 0.365244 0.389718
O O5 0.729480 0.834562 0.712597
O O6 0.999549 0.806284 0.742910
O O7 0.403762 0.065766 0.752236
O O8 0.707259 0.132359 0.510128
O O9 0.372888 0.780053 0.088036
O O10 0.465916 0.481129 0.262707
O O11 0.007702 0.796263 0.110703
O O12 0.544404 0.667675 0.983667
O O13 0.567701 0.942238 0.926386
O O14 0.939979 0.550920 0.094045
O O15 0.452733 0.769823 0.644838
O O16 0.581734 0.700403 0.794395
O O17 0.500000 0.000000 0.500000
#
# Coordination Sequence:
#
# PCOD9075220 Si02
#       8
#     2   2   2   2   2   2   2   2
#     4  11  28  46  66  98 135 175 216 267 335 395
#     4  11  24  41  71  98 128 175 220 268 326 390
#     4  12  24  43  66 101 134 168 222 274 325 385
#     4  12  26  45  65  99 136 172 217 268 335 391
#     4  11  24  45  69  95 134 177 218 269 322 393
#     4  11  24  43  67  99 131 169 222 274 323 383
#     4  11  24  45  68  97 131 168 222 273 322 385
#     4  11  23  44  68  97 130 173 225 267 321 386
#
# _framework density 21.993213000000001
#
# number of rings (size 3 to 8) (size 9 to 14) (size 15 to 20)
#    0.000    0.750    5.000    1.875    3.500    3.000 
#    2.250    0.000    0.000    0.000    0.000    0.000 
#    0.000    0.000    0.000    0.000    0.000    0.000 
#
# Total GULP energy -89272.224294 kJ/mol
# GULP energy per Si atom -5579.514018 kJ/mol
# Density = 2.194316 g / cm^3
# Si number density = 21.993213 Si / 1000 Ang^3
#
#
#
# Elastic Constant Matrix: (Units=GPa)
#
#
# Indices 1 2 3 4 5 6 
#
# 1 37.9922 10.3396 -5.0263 1.2074 1.5469 -2.6335
# 2 10.3396 67.5116 42.3766 -28.3229 2.1600 0.2442
# 3 -5.0263 42.3766 32.3660 -33.3437 -5.5599 13.1222
# 4 1.2074 -28.3229 -33.3437 34.5770 7.9015 -12.6540
# 5 1.5469 2.1600 -5.5599 7.9015 18.3792 -4.3991
# 6 -2.6335 0.2442 13.1222 -12.6540 -4.3991 6.5462
#
#
#
# Elastic Compliance Matrix: (Units=1/GPa)
#
#
# Indices 1 2 3 4 5 6 
#
# 1 0.028421 0.003996 0.002192 0.023655 0.000269 0.052798
# 2 0.003996 0.002465 0.051691 0.048530 -0.009340 -0.014569
# 3 0.002192 0.051691 0.024045 0.161725 -0.006524 0.258990
# 4 0.023655 0.048530 0.161725 0.367482 -0.026791 0.375874
# 5 0.000269 -0.009340 -0.006524 -0.026791 0.066582 0.006489
# 6 0.052798 -0.014569 0.258990 0.375874 0.006489 0.386324
#
#
# Mechanical properties :
#
#
# Convention : Reuss Voigt Hill
#
# Bulk Modulus (GPa) = 5.85861 25.91664 15.88762
# Shear Modulus (GPa) = 6.12402 17.91245 12.01823
#
# Velocity S-wave (km/s) = 1.67049 2.85696 2.34017
# Velocity P-wave (km/s) = 2.52791 4.76366 3.81332
#
# Compressibility (1/GPa) = 0.17068896
#
# Stress axis : x y z
#
# Youngs Moduli (GPa) = 35.18548 405.68026 41.58813
#
# Poissons Ratio (x) = -1.62106 -0.09116
# Poissons Ratio (y) = -0.14060 -2.14974
# Poissons Ratio (z) = -0.07712 -20.97007
#
# Static dielectric constant tensor:
#      x y z
#    x 1.788920 0.000210 0.000700 
#    y 0.000210 1.845240 -0.030960 
#    z 0.000700 -0.030960 1.969260 
# 
# From -- ./inp_files/184263.got.cif
#   From: 2010.05.17/outbox.ucp.g08.bks.cvg/sg2_93_cif.got.tgz:184263.got - 2010.06.11 11:32:03.
