data_PCOD9075267
_publ_section_title
;
Structure prediction by ZEFSAII (Michael W. Deem and Ramdas Pophale) SiO2 
 PCOD9075267
Probable space group: P -1
;
_chemical_formula_sum "Si O2"
_cell_formula_units_Z 16
_cell_length_a 18.000000
_cell_length_b 9.000000
_cell_length_c 6.000000
_cell_angle_alpha 60.000000
_cell_angle_beta 120.000000
_cell_angle_gamma 110.000000
_cell_volume 723.492119
_symmetry_space_group_name_H-M "P -1"
_symmetry_group_IT_number 2
_symmetry_cell_setting 'triclinic'
loop_
_space_group_symop_operation_xyz
x,y,z
-x,-y,-z
loop_
_atom_site_type_symbol
_atom_site_label
_atom_site_fract_x
_atom_site_fract_y
_atom_site_fract_z
Si Si1 0.198857 0.816032 0.716590
Si Si2 0.093239 0.603781 0.067977
Si Si3 0.412282 0.389012 0.381564
Si Si4 0.268350 0.441102 0.482346
Si Si5 0.908362 0.055013 0.902248
Si Si6 0.420753 0.015549 0.536753
Si Si7 0.344441 0.659115 0.792788
Si Si8 0.749793 0.920935 0.035536
O O1 0.156574 0.947295 0.398781
O O2 0.258607 0.692334 0.775136
O O3 0.252944 0.936004 0.885231
O O4 0.119557 0.706375 0.804121
O O5 0.169591 0.481771 0.289017
O O6 0.088982 0.750036 0.142161
O O7 0.000000 0.500000 0.000000
O O8 0.500000 0.500000 0.500000
O O9 0.326901 0.401433 0.391916
O O10 0.435033 0.195156 0.551784
O O11 0.387692 0.490946 0.049208
O O12 0.315422 0.617983 0.527888
O O13 0.268549 0.272414 0.760242
O O14 0.848643 0.941820 0.076460
O O15 0.000000 0.000000 0.000000
O O16 0.500000 0.000000 0.500000
O O17 0.407191 0.835393 0.781792
O O18 0.326048 0.035344 0.274683
#
# Coordination Sequence:
#
# PCOD9075267 Si02
#       8
#     2   2   2   2   2   2   2   2
#     4  11  23  46  69  94 139 183 224 285 344 405
#     4  11  26  42  67 102 134 180 229 281 346 407
#     4  12  29  46  72 107 137 184 232 283 348 409
#     4  12  25  46  70 102 139 177 232 287 341 411
#     4  11  26  44  67  99 136 180 230 280 345 411
#     4  12  27  47  72 105 141 182 231 284 346 413
#     4  12  24  48  74  96 144 182 230 288 340 409
#     4  11  26  44  70 102 136 180 231 282 346 410
#
# _framework density 22.114961000000001
#
# number of rings (size 3 to 8) (size 9 to 14) (size 15 to 20)
#    0.000    0.500    5.000    2.250    7.000    4.000 
#    0.000    0.000    0.000    0.000    0.000    0.000 
#    0.000    0.000    0.000    0.000    0.000    0.000 
#
# Total GULP energy -89255.790582 kJ/mol
# GULP energy per Si atom -5578.486911 kJ/mol
# Density = 2.206463 g / cm^3
# Si number density = 22.114961 Si / 1000 Ang^3
#
#
#
# Elastic Constant Matrix: (Units=GPa)
#
#
# Indices 1 2 3 4 5 6 
#
# 1 125.3981 42.8021 11.2883 -1.1108 24.7677 -14.9742
# 2 42.8021 109.2091 17.8251 -16.1094 -15.1113 17.7887
# 3 11.2883 17.8251 48.8444 -12.9835 5.1253 8.9846
# 4 -1.1108 -16.1094 -12.9835 29.5443 0.1377 6.8384
# 5 24.7677 -15.1113 5.1253 0.1377 21.0396 3.2010
# 6 -14.9742 17.7887 8.9846 6.8384 3.2010 35.1125
#
#
#
# Elastic Compliance Matrix: (Units=1/GPa)
#
#
# Indices 1 2 3 4 5 6 
#
# 1 0.086527 -0.086338 -0.010407 -0.073941 -0.178188 0.113949
# 2 -0.086338 0.100135 0.008036 0.082463 0.189768 -0.122968
# 3 -0.010407 0.008036 0.027920 0.021068 0.014287 -0.021059
# 4 -0.073941 0.082463 0.021068 0.111111 0.157867 -0.114733
# 5 -0.178188 0.189768 0.014287 0.157867 0.426413 -0.245407
# 6 0.113949 -0.122968 -0.021059 -0.114733 -0.245407 0.189479
#
#
# Mechanical properties :
#
#
# Convention : Reuss Voigt Hill
#
# Bulk Modulus (GPa) = 26.90515 47.47583 37.19049
# Shear Modulus (GPa) = 4.41934 31.24166 17.83050
#
# Velocity S-wave (km/s) = 1.41516 3.76266 2.84256
# Velocity P-wave (km/s) = 3.85522 6.35540 5.25613
#
# Compressibility (1/GPa) = 0.03716761
#
# Stress axis : x y z
#
# Youngs Moduli (GPa) = 11.55702 9.98647 35.81630
#
# Poissons Ratio (x) = 0.86221 0.37272
# Poissons Ratio (y) = 0.99781 -0.28784
# Poissons Ratio (z) = 0.12027 -0.08026
#
# Static dielectric constant tensor:
#      x y z
#    x 1.730560 0.007150 -0.109530 
#    y 0.007150 1.866170 0.040930 
#    z -0.109530 0.040930 1.894650 
# 
# From -- ./inp_files/38229.got.cif
#   From: 2010.05.17/outbox.ucp.g08.bks.cvg/sg2_20_cif.got.tgz:38229.got - 2010.06.11 11:32:03.
