data_PCOD9075347
_publ_section_title
;
Structure prediction by ZEFSAII (Michael W. Deem and Ramdas Pophale) SiO2 
 PCOD9075347
Probable space group: P -1
;
_chemical_formula_sum "Si O2"
_cell_formula_units_Z 15
_cell_length_a 18.263816
_cell_length_b 12.964391
_cell_length_c 12.018272
_cell_angle_alpha 49.331292
_cell_angle_beta 152.618359
_cell_angle_gamma 145.892767
_cell_volume 694.314423
_symmetry_space_group_name_H-M "P -1"
_symmetry_group_IT_number 2
_symmetry_cell_setting 'triclinic'
loop_
_space_group_symop_operation_xyz
x,y,z
-x,-y,-z
loop_
_atom_site_type_symbol
_atom_site_label
_atom_site_fract_x
_atom_site_fract_y
_atom_site_fract_z
Si Si1 0.803499 0.511999 0.347691
Si Si2 0.193607 0.562538 0.346202
Si Si3 0.593008 0.870330 0.313928
Si Si4 0.072013 0.857660 0.110601
Si Si5 0.907438 0.836396 0.148096
Si Si6 0.500000 0.000000 0.500000
Si Si7 0.666618 0.221444 0.190257
Si Si8 0.775400 0.503045 0.799970
O O1 0.762742 0.476094 0.448222
O O2 0.667156 0.316469 0.231545
O O3 0.757754 0.633342 0.150487
O O4 0.071505 0.642410 0.591986
O O5 0.216082 0.471981 0.338001
O O6 0.365668 0.793327 0.398032
O O7 0.940801 0.473825 0.065596
O O8 0.472779 0.691109 0.358683
O O9 0.860857 0.008553 0.577386
O O10 0.564903 0.009226 0.219212
O O11 0.471018 0.791422 0.085832
O O12 0.977638 0.820778 0.132401
O O13 0.277291 0.877812 0.367180
O O14 0.879889 0.684949 0.888998
O O15 0.172487 0.060073 0.055452
#
# Coordination Sequence:
#
# PCOD9075347 Si02
#       8
#     2   2   2   2   2   1   2   2
#     4  10  19  35  56  86 119 156 192 251 291 349
#     4  10  21  34  55  87 111 161 198 245 285 352
#     4  10  18  32  53  88 114 153 186 248 292 355
#     4  10  22  42  59  90 115 162 193 250 294 358
#     4  10  22  37  64  86 124 148 201 246 306 342
#     4  10  22  38  62  80 118 154 206 230 294 352
#     4   9  19  30  54  85 123 144 192 244 303 340
#     4  10  20  34  55  81 126 149 201 238 291 350
#
# _framework density 21.604046
#
# number of rings (size 3 to 8) (size 9 to 14) (size 15 to 20)
#    0.000    2.133    1.333    1.600   11.200    0.533 
#    0.000    2.667    0.000    0.000    0.000    0.000 
#    0.000    0.000    0.000    0.000    0.000    0.000 
#
# Total GULP energy -83550.562283 kJ/mol
# GULP energy per Si atom -5570.037486 kJ/mol
# Density = 2.155487 g / cm^3
# Si number density = 21.604046 Si / 1000 Ang^3
#
#
#
# Elastic Constant Matrix: (Units=GPa)
#
#
# Indices 1 2 3 4 5 6 
#
# 1 47.0880 20.8070 28.4894 -1.0026 -35.2660 -2.3345
# 2 20.8070 67.8674 16.2303 2.3213 -22.1705 4.3487
# 3 28.4894 16.2303 55.9471 -2.2208 -27.7468 -5.7408
# 4 -1.0026 2.3213 -2.2208 34.8564 4.2933 -5.8975
# 5 -35.2660 -22.1705 -27.7468 4.2933 40.2231 0.3319
# 6 -2.3345 4.3487 -5.7408 -5.8975 0.3319 13.6000
#
#
#
# Elastic Compliance Matrix: (Units=1/GPa)
#
#
# Indices 1 2 3 4 5 6 
#
# 1 0.065040 -0.001670 -0.006321 -0.003804 0.052099 0.006110
# 2 -0.001670 0.019106 -0.001564 -0.003987 0.008487 -0.008992
# 3 -0.006321 -0.001564 0.029768 0.002257 0.013786 0.012623
# 4 -0.003804 -0.003987 0.002257 0.032614 -0.007588 0.015902
# 5 0.052099 0.008487 0.013786 -0.007588 0.085483 0.006672
# 6 0.006110 -0.008992 0.012623 0.015902 0.006672 0.089515
#
#
# Mechanical properties :
#
#
# Convention : Reuss Voigt Hill
#
# Bulk Modulus (GPa) = 10.54799 33.55063 22.04931
# Shear Modulus (GPa) = 13.43225 24.76096 19.09661
#
# Velocity S-wave (km/s) = 2.49619 3.38912 2.97633
# Velocity P-wave (km/s) = 3.63331 5.55683 4.69464
#
# Compressibility (1/GPa) = 0.09480478
#
# Stress axis : x y z
#
# Youngs Moduli (GPa) = 15.37505 52.34001 33.59270
#
# Poissons Ratio (x) = 0.08743 0.21234
# Poissons Ratio (y) = 0.02568 0.05252
# Poissons Ratio (z) = 0.09718 0.08184
#
# Static dielectric constant tensor:
#      x y z
#    x 1.796110 0.016630 0.038250 
#    y 0.016630 1.880530 0.032750 
#    z 0.038250 0.032750 1.859790 
# 
# From -- ./inp_files/389188.got.cif
#   From: 2010.05.17/outbox.cif.g08.bks.cpg/sg2_195_cif.got.tgz:389188.got - 2010.06.03 11:33:40.
