data_PCOD9075971
_publ_section_title
;
Structure prediction by ZEFSAII (Michael W. Deem and Ramdas Pophale) SiO2 
 PCOD9075971
Probable space group: P -1
;
_chemical_formula_sum "Si O2"
_cell_formula_units_Z 10
_cell_length_a 15.357664
_cell_length_b 7.072388
_cell_length_c 5.266079
_cell_angle_alpha 112.939951
_cell_angle_beta 84.399147
_cell_angle_gamma 52.094325
_cell_volume 368.192240
_symmetry_space_group_name_H-M "P -1"
_symmetry_group_IT_number 2
_symmetry_cell_setting 'triclinic'
loop_
_space_group_symop_operation_xyz
x,y,z
-x,-y,-z
loop_
_atom_site_type_symbol
_atom_site_label
_atom_site_fract_x
_atom_site_fract_y
_atom_site_fract_z
Si Si1 0.771253 0.611907 0.412913
Si Si2 0.956196 0.809354 0.732020
Si Si3 0.415768 0.399853 0.750977
Si Si4 0.126557 0.161887 0.729738
Si Si5 0.578652 0.129918 0.064079
O O1 0.913199 0.312354 0.280724
O O2 0.694978 0.572378 0.259049
O O3 0.778755 0.818779 0.369590
O O4 0.696486 0.793051 0.784434
O O5 0.000000 0.500000 0.500000
O O6 0.896285 0.959960 0.555919
O O7 0.858827 0.967373 0.071777
O O8 0.515781 0.200693 0.390426
O O9 0.385682 0.691025 0.885822
O O10 0.477800 0.263843 0.937219
O O11 0.000000 0.500000 0.000000
#
# Coordination Sequence:
#
# PCOD9075971 Si02
#       5
#     2   2   2   2   2
#     4  10  18  32  58  72  94 138 166 188 250 302
#     4   8  16  28  45  72  99 120 154 202 237 278
#     4  10  22  36  49  73 103 127 164 210 241 282
#     4   8  16  28  45  72  99 120 154 202 237 278
#     4  10  22  36  49  73 103 127 164 210 241 282
#
# _framework density 27.159723
#
# number of rings (size 3 to 8) (size 9 to 14) (size 15 to 20)
#    0.000    3.200    0.000    1.200    0.000   12.800 
#    0.000    0.000    0.000   21.600    0.000    0.000 
#    0.000    0.000    0.000    0.000    0.000    0.000 
#
# Total GULP energy -56006.170737 kJ/mol
# GULP energy per Si atom -5600.617074 kJ/mol
# Density = 2.709791 g / cm^3
# Si number density = 27.159723 Si / 1000 Ang^3
#
#
#
# Elastic Constant Matrix: (Units=GPa)
#
#
# Indices 1 2 3 4 5 6 
#
# 1 236.5040 52.6018 59.6940 -9.2818 8.5538 -26.1792
# 2 52.6018 76.8920 56.5816 -9.6671 4.9924 -19.2886
# 3 59.6940 56.5816 169.2829 -45.8846 -1.4180 -23.4499
# 4 -9.2818 -9.6671 -45.8846 52.0450 -2.2853 13.8232
# 5 8.5538 4.9924 -1.4180 -2.2853 32.6587 -0.5876
# 6 -26.1792 -19.2886 -23.4499 13.8232 -0.5876 47.6603
#
#
#
# Elastic Compliance Matrix: (Units=1/GPa)
#
#
# Indices 1 2 3 4 5 6 
#
# 1 0.005219 -0.002426 -0.001069 -0.000940 -0.001079 0.001618
# 2 -0.002426 0.020175 -0.006216 -0.003559 -0.002882 0.004771
# 3 -0.001069 -0.006216 0.010548 0.008116 0.002252 -0.000240
# 4 -0.000940 -0.003559 0.008116 0.027216 0.002942 -0.005821
# 5 -0.001079 -0.002882 0.002252 0.002942 0.031626 -0.001115
# 6 0.001618 0.004771 -0.000240 -0.005821 -0.001115 0.025358
#
#
# Mechanical properties :
#
#
# Convention : Reuss Voigt Hill
#
# Bulk Modulus (GPa) = 60.53231 91.15931 75.84581
# Shear Modulus (GPa) = 34.46593 47.39288 40.92941
#
# Velocity S-wave (km/s) = 3.56618 4.18181 3.88621
# Velocity P-wave (km/s) = 6.26839 7.54677 6.93709
#
# Compressibility (1/GPa) = 0.01652010
#
# Stress axis : x y z
#
# Youngs Moduli (GPa) = 191.61204 49.56568 94.80869
#
# Poissons Ratio (x) = 0.12023 0.10136
# Poissons Ratio (y) = 0.46478 0.58933
# Poissons Ratio (z) = 0.20486 0.30810
#
# Static dielectric constant tensor:
#      x y z
#    x 2.152190 -0.045280 0.060320 
#    y -0.045280 2.471490 -0.219620 
#    z 0.060320 -0.219620 2.213640 
# 
# From -- ./inp_files/57711.got.cif
#   From: 2010.05.17/outbox.cif.g08.bks.cpg/sg2_29_cif.got.tgz:57711.got - 2010.06.03 11:33:40.
