data_PCOD9075701
_publ_section_title
;
Structure prediction by ZEFSAII (Michael W. Deem and Ramdas Pophale) SiO2 
 PCOD9075701
Probable space group: P -1
;
_chemical_formula_sum "Si O2"
_cell_formula_units_Z 14
_cell_length_a 8.641681
_cell_length_b 29.166879
_cell_length_c 14.281342
_cell_angle_alpha 19.749096
_cell_angle_beta 48.401432
_cell_angle_gamma 37.677417
_cell_volume 683.865011
_symmetry_space_group_name_H-M "P -1"
_symmetry_group_IT_number 2
_symmetry_cell_setting 'triclinic'
loop_
_space_group_symop_operation_xyz
x,y,z
-x,-y,-z
loop_
_atom_site_type_symbol
_atom_site_label
_atom_site_fract_x
_atom_site_fract_y
_atom_site_fract_z
Si Si1 0.889870 0.175805 0.647440
Si Si2 0.134117 0.543479 0.435441
Si Si3 0.918228 0.881341 0.521588
Si Si4 0.427008 0.800532 0.425350
Si Si5 0.891565 0.779810 0.243478
Si Si6 0.662504 0.468047 0.323959
Si Si7 0.371837 0.271293 0.037498
O O1 0.607564 0.254977 0.555277
O O2 0.835543 0.332975 0.427805
O O3 0.090017 0.111241 0.602939
O O4 0.000000 0.000000 0.000000
O O5 0.356957 0.542218 0.298822
O O6 0.000000 0.500000 0.500000
O O7 0.917474 0.730072 0.220397
O O8 0.284499 0.394965 0.743801
O O9 0.829971 0.770597 0.800105
O O10 0.235376 0.790169 0.588959
O O11 0.685663 0.083301 0.264627
O O12 0.733815 0.721504 0.469349
O O13 0.262224 0.013556 0.076438
O O14 0.187957 0.665986 0.389116
O O15 0.657641 0.625961 0.054210
#
# Coordination Sequence:
#
# PCOD9075701 Si02
#       7
#     2   2   2   2   2   2   2
#     4  10  18  32  55  83 113 140 180 231 270 323
#     4  11  22  35  57  83 110 143 185 236 276 324
#     4   9  20  36  59  80 111 152 183 223 278 333
#     4   9  18  32  53  79 111 144 180 227 271 327
#     4  10  18  32  54  83 107 145 186 227 274 323
#     4  11  20  34  58  83 110 141 189 231 274 325
#     4  10  20  38  60  79 111 151 187 222 279 334
#
# _framework density 20.471876000000002
#
# number of rings (size 3 to 8) (size 9 to 14) (size 15 to 20)
#    0.857    1.143    1.429    5.143    0.000    0.571 
#    0.000    2.857    3.143    2.571    0.000    0.000 
#    0.000    0.000    0.000    0.000    0.000    0.000 
#
# Total GULP energy -77944.676837 kJ/mol
# GULP energy per Si atom -5567.476917 kJ/mol
# Density = 2.042528 g / cm^3
# Si number density = 20.471876 Si / 1000 Ang^3
#
#
#
# Elastic Constant Matrix: (Units=GPa)
#
#
# Indices 1 2 3 4 5 6 
#
# 1 92.7330 20.2768 5.4419 -19.6401 -25.7910 0.5830
# 2 20.2768 81.1216 15.9675 -13.8470 -18.5083 0.5765
# 3 5.4419 15.9675 43.2261 -11.2188 -21.1692 9.2489
# 4 -19.6401 -13.8470 -11.2188 28.0391 10.3469 -18.8218
# 5 -25.7910 -18.5083 -21.1692 10.3469 22.4551 -7.5142
# 6 0.5830 0.5765 9.2489 -18.8218 -7.5142 45.6972
#
#
#
# Elastic Compliance Matrix: (Units=1/GPa)
#
#
# Indices 1 2 3 4 5 6 
#
# 1 0.025684 0.003147 0.021166 0.017433 0.047474 0.010335
# 2 0.003147 0.016506 0.003628 0.008800 0.018487 0.005682
# 3 0.021166 0.003628 0.060737 0.016480 0.079387 0.007233
# 4 0.017433 0.008800 0.016480 0.070806 0.019807 0.028752
# 5 0.047474 0.018487 0.079387 0.019807 0.187395 0.022066
# 6 0.010335 0.005682 0.007233 0.028752 0.022066 0.035686
#
#
# Mechanical properties :
#
#
# Convention : Reuss Voigt Hill
#
# Bulk Modulus (GPa) = 6.29678 33.38367 19.84022
# Shear Modulus (GPa) = 12.69464 30.93124 21.81294
#
# Velocity S-wave (km/s) = 2.49289 3.89126 3.26775
# Velocity P-wave (km/s) = 3.37172 6.04415 4.89388
#
# Compressibility (1/GPa) = 0.15881142
#
# Stress axis : x y z
#
# Youngs Moduli (GPa) = 38.93491 60.58483 16.46437
#
# Poissons Ratio (x) = -0.19069 -0.34849
# Poissons Ratio (y) = -0.12255 -0.05974
# Poissons Ratio (z) = -0.82411 -0.21982
#
# Static dielectric constant tensor:
#      x y z
#    x 1.734060 -0.021620 -0.020540 
#    y -0.021620 1.784230 -0.006460 
#    z -0.020540 -0.006460 1.728120 
# 
# From -- ./inp_files/394049.got.cif
#   From: 2010.05.17/outbox.cif.g08.bks.cpg/sg2_198_cif.got.tgz:394049.got - 2010.06.03 11:33:40.
