data_PCOD9075882
_publ_section_title
;
Structure prediction by ZEFSAII (Michael W. Deem and Ramdas Pophale) SiO2 
 PCOD9075882
Probable space group: P -1
;
_chemical_formula_sum "Si O2"
_cell_formula_units_Z 15
_cell_length_a 19.989284
_cell_length_b 9.748878
_cell_length_c 11.284589
_cell_angle_alpha 76.159256
_cell_angle_beta 28.372558
_cell_angle_gamma 53.994629
_cell_volume 583.824452
_symmetry_space_group_name_H-M "P -1"
_symmetry_group_IT_number 2
_symmetry_cell_setting 'triclinic'
loop_
_space_group_symop_operation_xyz
x,y,z
-x,-y,-z
loop_
_atom_site_type_symbol
_atom_site_label
_atom_site_fract_x
_atom_site_fract_y
_atom_site_fract_z
Si Si1 0.000000 0.500000 0.000000
Si Si2 0.791298 0.381891 0.745109
Si Si3 0.515758 0.311715 0.183186
Si Si4 0.344287 0.918303 0.232478
Si Si5 0.966321 0.795316 0.842269
Si Si6 0.094387 0.885258 0.006588
Si Si7 0.045090 0.574831 0.313017
Si Si8 0.277743 0.436659 0.756308
O O1 0.892691 0.703487 0.026308
O O2 0.035798 0.596940 0.022509
O O3 0.991060 0.228602 0.360525
O O4 0.878177 0.350672 0.746229
O O5 0.679359 0.316861 0.933683
O O6 0.586281 0.666819 0.972556
O O7 0.245799 0.580946 0.503152
O O8 0.474179 0.262200 0.380604
O O9 0.603356 0.140335 0.976454
O O10 0.138952 0.977781 0.584673
O O11 0.211732 0.176959 0.402176
O O12 0.815795 0.047848 0.081420
O O13 0.000000 0.000000 0.000000
O O14 0.269653 0.607858 0.771383
O O15 0.000000 0.500000 0.500000
O O16 0.248928 0.378625 0.936980
#
# Coordination Sequence:
#
# PCOD9075882 Si02
#       8
#     1   2   2   2   2   2   2   2
#     4  10  18  32  56  86 122 172 198 240 324 372
#     4  11  20  39  68  90 124 168 203 258 326 360
#     4  10  18  37  63  93 122 160 212 264 307 373
#     4  10  21  39  66  92 122 163 211 259 311 371
#     4  10  18  32  60  91 127 162 210 255 310 377
#     4  11  16  33  59  96 125 154 209 273 295 360
#     4  11  26  43  61  92 133 163 212 260 306 384
#     4  10  22  37  62  91 129 162 212 265 308 371
#
# _framework density 25.692655999999999
#
# number of rings (size 3 to 8) (size 9 to 14) (size 15 to 20)
#    0.000    1.600    5.333    1.600    0.000    1.600 
#    0.000    3.333    0.000    0.000    0.000    0.000 
#    0.000    0.000    0.000    0.000    0.000    0.000 
#
# Total GULP energy -83603.787357 kJ/mol
# GULP energy per Si atom -5573.585824 kJ/mol
# Density = 2.563418 g / cm^3
# Si number density = 25.692656 Si / 1000 Ang^3
#
#
#
# Elastic Constant Matrix: (Units=GPa)
#
#
# Indices 1 2 3 4 5 6 
#
# 1 126.7604 2.4843 40.3539 -12.1331 33.1494 -16.1236
# 2 2.4843 92.3376 38.1514 -14.2027 15.3382 -11.8835
# 3 40.3539 38.1514 118.5975 -1.7843 40.2472 -25.4747
# 4 -12.1331 -14.2027 -1.7843 37.3823 -21.0291 13.9385
# 5 33.1494 15.3382 40.2472 -21.0291 45.8735 -11.4386
# 6 -16.1236 -11.8835 -25.4747 13.9385 -11.4386 38.2979
#
#
#
# Elastic Compliance Matrix: (Units=1/GPa)
#
#
# Indices 1 2 3 4 5 6 
#
# 1 0.010183 0.001520 -0.001292 -0.000644 -0.006480 0.002198
# 2 0.001520 0.013801 -0.005903 0.007217 0.002558 -0.000867
# 3 -0.001292 -0.005903 0.019169 -0.016255 -0.018692 0.010708
# 4 -0.000644 0.007217 -0.016255 0.053620 0.032222 -0.018735
# 5 -0.006480 0.002558 -0.018692 0.032222 0.054337 -0.009866
# 6 0.002198 -0.000867 0.010708 -0.018735 -0.009866 0.037762
#
#
# Mechanical properties :
#
#
# Convention : Reuss Voigt Hill
#
# Bulk Modulus (GPa) = 31.44221 55.51942 43.48082
# Shear Modulus (GPa) = 23.71644 41.42447 32.57046
#
# Velocity S-wave (km/s) = 3.04152 4.01971 3.56433
# Velocity P-wave (km/s) = 4.95973 6.57268 5.82233
#
# Compressibility (1/GPa) = 0.03180438
#
# Stress axis : x y z
#
# Youngs Moduli (GPa) = 98.20166 72.45621 52.16641
#
# Poissons Ratio (x) = -0.11015 0.06742
# Poissons Ratio (y) = -0.14929 0.30792
# Poissons Ratio (z) = 0.12692 0.42768
#
# Static dielectric constant tensor:
#      x y z
#    x 2.015150 0.002020 -0.087610 
#    y 0.002020 2.044320 -0.034010 
#    z -0.087610 -0.034010 2.080860 
# 
# From -- ./inp_files/468893.got.cif
#   From: 2010.05.17/outbox.cif.g08.bks.cpg/sg2_235_cif.got.tgz:468893.got - 2010.06.03 11:33:40.
