data_PCOD9075101
_publ_section_title
;
Structure prediction by ZEFSAII (Michael W. Deem and Ramdas Pophale) SiO2 
 PCOD9075101
Probable space group: P -1
;
_chemical_formula_sum "Si O2"
_cell_formula_units_Z 16
_cell_length_a 12.000000
_cell_length_b 9.000000
_cell_length_c 15.000000
_cell_angle_alpha 110.000000
_cell_angle_beta 110.000000
_cell_angle_gamma 130.000000
_cell_volume 728.972637
_symmetry_space_group_name_H-M "P -1"
_symmetry_group_IT_number 2
_symmetry_cell_setting 'triclinic'
loop_
_space_group_symop_operation_xyz
x,y,z
-x,-y,-z
loop_
_atom_site_type_symbol
_atom_site_label
_atom_site_fract_x
_atom_site_fract_y
_atom_site_fract_z
Si Si1 0.119029 0.590355 0.220239
Si Si2 0.630595 0.181543 0.977859
Si Si3 0.623504 0.261067 0.442401
Si Si4 0.845831 0.703982 0.750065
Si Si5 0.452722 0.491993 0.232193
Si Si6 0.308517 0.562007 0.684454
Si Si7 0.837004 0.188485 0.531876
Si Si8 0.307075 0.385419 0.970553
O O1 0.076734 0.355511 0.178871
O O2 0.153478 0.727180 0.349738
O O3 0.358117 0.894592 0.295516
O O4 0.882086 0.391023 0.078543
O O5 0.467955 0.899401 0.808805
O O6 0.660846 0.401014 0.012915
O O7 0.500000 0.000000 0.000000
O O8 0.668346 0.408386 0.576033
O O9 0.693026 0.462870 0.426466
O O10 0.790834 0.298668 0.487643
O O11 0.738513 0.718334 0.784984
O O12 0.054555 0.016812 0.813935
O O13 0.579572 0.468048 0.250807
O O14 0.629742 0.831425 0.381040
O O15 0.347842 0.423455 0.095430
O O16 0.063379 0.341128 0.608492
O O17 0.500000 0.500000 0.000000
#
# Coordination Sequence:
#
# PCOD9075101 Si02
#       8
#     2   2   2   2   2   2   2   2
#     4  11  22  45  76  97 142 184 234 285 347 415
#     4  12  26  48  71 102 140 179 235 290 347 417
#     4  11  24  44  72 107 135 188 234 287 349 409
#     4  11  24  47  70 102 146 186 229 287 349 417
#     4  12  25  47  68 104 147 183 232 285 353 414
#     4  12  27  41  71 104 143 183 237 288 343 414
#     4  11  22  45  72 100 137 185 232 294 345 410
#     4  12  29  45  73 103 138 187 235 288 354 413
#
# _framework density 21.948698
#
# number of rings (size 3 to 8) (size 9 to 14) (size 15 to 20)
#    0.000    0.500    3.750    4.875    5.250    2.000 
#    0.000    0.000    0.000    0.000    0.000    0.000 
#    0.000    0.000    0.000    0.000    0.000    0.000 
#
# Total GULP energy -89410.337097 kJ/mol
# GULP energy per Si atom -5588.146069 kJ/mol
# Density = 2.189874 g / cm^3
# Si number density = 21.948698 Si / 1000 Ang^3
#
#
#
# Elastic Constant Matrix: (Units=GPa)
#
#
# Indices 1 2 3 4 5 6 
#
# 1 103.1833 26.1660 11.4684 -0.0922 11.0435 6.4970
# 2 26.1660 81.2179 10.1465 8.3376 3.9073 -4.0309
# 3 11.4684 10.1465 38.6500 24.6804 19.9446 13.0921
# 4 -0.0922 8.3376 24.6804 30.1869 -6.6509 -3.5125
# 5 11.0435 3.9073 19.9446 -6.6509 19.0131 -3.5764
# 6 6.4970 -4.0309 13.0921 -3.5125 -3.5764 33.3725
#
#
#
# Elastic Compliance Matrix: (Units=1/GPa)
#
#
# Indices 1 2 3 4 5 6 
#
# 1 0.011180 -0.003509 -0.003188 0.003128 -0.001558 -0.001187
# 2 -0.003509 0.014023 -0.000467 -0.003527 -0.001200 0.002060
# 3 -0.003188 -0.000467 -0.028529 0.036569 0.048581 0.020811
# 4 0.003128 -0.003527 0.036569 -0.008488 -0.046420 -0.021249
# 5 -0.001558 -0.001200 0.048581 -0.046420 -0.018296 -0.025747
# 6 -0.001187 0.002060 0.020811 -0.021249 -0.025747 0.017285
#
#
# Mechanical properties :
#
#
# Convention : Reuss Voigt Hill
#
# Bulk Modulus (GPa) = -56.64552 35.40145 -10.62203
# Shear Modulus (GPa) = -1141.09399 28.19918 -556.44740
#
# Velocity S-wave (km/s) = -22.82586 3.58827 -15.93964
# Velocity P-wave (km/s) = 26.84320 5.77337 18.53680
#
# Compressibility (1/GPa) = -0.01765365
#
# Stress axis : x y z
#
# Youngs Moduli (GPa) = 89.44680 71.30967 -35.05202
#
# Poissons Ratio (x) = 0.25020 -0.11174
# Poissons Ratio (y) = 0.31384 -0.01638
# Poissons Ratio (z) = 0.28515 0.03332
#
# Static dielectric constant tensor:
#      x y z
#    x 1.768560 0.031830 0.045140 
#    y 0.031830 1.856350 -0.103180 
#    z 0.045140 -0.103180 1.984240 
# 
# From -- ./inp_files/209260.got.cif
#   From: 2010.05.17/outbox.ucp.g08.bks.cvg/sg2_105_cif.got.tgz:209260.got - 2010.06.11 11:32:03.
