data_PCOD9075740
_publ_section_title
;
Structure prediction by ZEFSAII (Michael W. Deem and Ramdas Pophale) SiO2 
 PCOD9075740
Probable space group: P -1
;
_chemical_formula_sum "Si O2"
_cell_formula_units_Z 12
_cell_length_a 7.013014
_cell_length_b 9.752679
_cell_length_c 9.293927
_cell_angle_alpha 59.546859
_cell_angle_beta 123.596525
_cell_angle_gamma 122.044893
_cell_volume 427.845485
_symmetry_space_group_name_H-M "P -1"
_symmetry_group_IT_number 2
_symmetry_cell_setting 'triclinic'
loop_
_space_group_symop_operation_xyz
x,y,z
-x,-y,-z
loop_
_atom_site_type_symbol
_atom_site_label
_atom_site_fract_x
_atom_site_fract_y
_atom_site_fract_z
Si Si1 0.239407 0.700332 0.557304
Si Si2 0.978577 0.648682 0.202010
Si Si3 0.233689 0.226236 0.544295
Si Si4 0.219536 0.088212 0.887495
Si Si5 0.973244 0.730014 0.840041
Si Si6 0.402327 0.921071 0.736445
O O1 0.201497 0.518901 0.705606
O O2 0.456061 0.843792 0.651700
O O3 0.221963 0.686482 0.384518
O O4 0.004713 0.748883 0.489768
O O5 0.891865 0.804753 0.116136
O O6 0.970557 0.628346 0.038428
O O7 0.370179 0.221309 0.755677
O O8 0.238178 0.326056 0.341928
O O9 0.265610 0.054541 0.587248
O O10 0.030051 0.925392 0.815115
O O11 0.377055 0.015328 0.095406
O O12 0.218216 0.762456 0.832692
#
# Coordination Sequence:
#
# PCOD9075740 Si02
#       6
#     2   2   2   2   2   2
#     4   9  19  35  53  71 101 136 167 201 249 300
#     4  10  20  34  53  75  99 133 170 205 243 294
#     4   9  17  32  53  74  96 131 170 201 239 291
#     4  10  19  33  52  76 106 131 157 204 260 297
#     4  10  18  32  55  77  96 128 177 209 231 290
#     4  10  19  33  54  75 102 133 162 204 253 296
#
# _framework density 28.047511
#
# number of rings (size 3 to 8) (size 9 to 14) (size 15 to 20)
#    0.000    2.333    0.000    8.000    0.000    3.333 
#    0.000    5.000    0.000   17.000    0.000    0.000 
#    0.000    0.000    0.000    0.000    0.000    0.000 
#
# Total GULP energy -66854.959539 kJ/mol
# GULP energy per Si atom -5571.246628 kJ/mol
# Density = 2.798367 g / cm^3
# Si number density = 28.047511 Si / 1000 Ang^3
#
#
#
# Elastic Constant Matrix: (Units=GPa)
#
#
# Indices 1 2 3 4 5 6 
#
# 1 66.3039 27.2075 56.0979 -3.4606 -25.2501 -1.3633
# 2 27.2075 72.6204 19.3536 -6.2502 -4.6016 -11.1374
# 3 56.0979 19.3536 257.1439 9.7409 -47.0213 16.4023
# 4 -3.4606 -6.2502 9.7409 49.4551 -5.8730 -10.2543
# 5 -25.2501 -4.6016 -47.0213 -5.8730 67.3474 0.5895
# 6 -1.3633 -11.1374 16.4023 -10.2543 0.5895 17.9721
#
#
#
# Elastic Compliance Matrix: (Units=1/GPa)
#
#
# Indices 1 2 3 4 5 6 
#
# 1 0.023545 -0.006837 -0.003792 0.002726 0.005930 0.002371
# 2 -0.006837 0.019588 -0.001591 0.005440 -0.002004 0.016242
# 3 -0.003792 -0.001591 0.005943 -0.003124 0.002421 -0.008560
# 4 0.002726 0.005440 -0.003124 0.026307 0.001319 0.021397
# 5 0.005930 -0.002004 0.002421 0.001319 0.018765 -0.002864
# 6 0.002371 0.016242 -0.008560 0.021397 -0.002864 0.086002
#
#
# Mechanical properties :
#
#
# Convention : Reuss Voigt Hill
#
# Bulk Modulus (GPa) = 40.59107 66.82070 53.70588
# Shear Modulus (GPa) = 23.49593 46.51553 35.00573
#
# Velocity S-wave (km/s) = 2.89748 4.07683 3.53666
# Velocity P-wave (km/s) = 5.06927 6.78503 5.98891
#
# Compressibility (1/GPa) = 0.02463596
#
# Stress axis : x y z
#
# Youngs Moduli (GPa) = 42.47149 51.05176 168.26313
#
# Poissons Ratio (x) = 0.34902 0.63809
# Poissons Ratio (y) = 0.29036 0.26776
# Poissons Ratio (z) = 0.16106 0.08124
#
# Static dielectric constant tensor:
#      x y z
#    x 2.348950 0.144920 0.002960 
#    y 0.144920 2.213730 0.069330 
#    z 0.002960 0.069330 2.290300 
# 
# From -- ./inp_files/150011.got.cif
#   From: 2010.05.17/outbox.cif.g08.bks.cpg/sg2_76_cif.got.tgz:150011.got - 2010.06.03 11:33:40.
