data_PCOD9075144
_publ_section_title
;
Structure prediction by ZEFSAII (Michael W. Deem and Ramdas Pophale) SiO2 
 PCOD9075144
Probable space group: P -1
;
_chemical_formula_sum "Si O2"
_cell_formula_units_Z 14
_cell_length_a 12.000000
_cell_length_b 15.000000
_cell_length_c 30.000000
_cell_angle_alpha 20.000000
_cell_angle_beta 160.000000
_cell_angle_gamma 150.000000
_cell_volume 624.976433
_symmetry_space_group_name_H-M "P -1"
_symmetry_group_IT_number 2
_symmetry_cell_setting 'triclinic'
loop_
_space_group_symop_operation_xyz
x,y,z
-x,-y,-z
loop_
_atom_site_type_symbol
_atom_site_label
_atom_site_fract_x
_atom_site_fract_y
_atom_site_fract_z
Si Si1 0.155446 0.452720 0.911841
Si Si2 0.189571 0.651914 0.036055
Si Si3 0.758205 0.905679 0.092588
Si Si4 0.163754 0.165623 0.315312
Si Si5 0.361559 0.872899 0.286054
Si Si6 0.770743 0.720434 0.339250
Si Si7 0.604225 0.433397 0.645788
O O1 0.958693 0.718419 0.736284
O O2 0.940129 0.367479 0.830271
O O3 0.500000 0.500000 0.000000
O O4 0.266155 0.186446 0.107616
O O5 0.185677 0.447743 0.169742
O O6 0.074939 0.947099 0.873474
O O7 0.543324 0.694931 0.129740
O O8 0.000000 0.500000 0.000000
O O9 0.520515 0.139080 0.868222
O O10 0.018666 0.773072 0.217598
O O11 0.500000 0.000000 0.500000
O O12 0.915633 0.976981 0.291762
O O13 0.599309 0.711377 0.487459
O O14 0.447214 0.775534 0.314079
O O15 0.656307 0.574705 0.408361
O O16 0.000000 0.500000 0.500000
#
# Coordination Sequence:
#
# PCOD9075144 Si02
#       7
#     2   2   2   2   2   2   2
#     4  12  26  47  74 104 147 189 243 308 368 439
#     4  11  23  41  64 101 139 185 240 294 357 436
#     4  11  24  42  70 101 142 193 239 299 368 432
#     4  12  26  44  66 109 146 187 246 305 373 435
#     4  11  25  47  73 102 142 192 247 291 375 439
#     4  12  25  44  72 102 144 192 240 306 371 437
#     4  11  26  46  73 106 140 192 246 302 363 444
#
# _framework density 22.400845
#
# number of rings (size 3 to 8) (size 9 to 14) (size 15 to 20)
#    0.000    0.571    4.286    3.000    8.000    1.714 
#    0.000    0.000    0.000    0.000    0.000    0.000 
#    0.000    0.000    0.000    0.000    0.000    0.000 
#
# Total GULP energy -77999.665510 kJ/mol
# GULP energy per Si atom -5571.404679 kJ/mol
# Density = 2.234986 g / cm^3
# Si number density = 22.400845 Si / 1000 Ang^3
#
#
#
# Elastic Constant Matrix: (Units=GPa)
#
#
# Indices 1 2 3 4 5 6 
#
# 1 136.9832 30.7673 11.4032 3.9286 18.6387 5.8919
# 2 30.7673 129.3469 6.2890 -16.5066 -6.1533 -3.0565
# 3 11.4032 6.2890 58.4298 -12.1564 5.9942 -3.8555
# 4 3.9286 -16.5066 -12.1564 24.1544 0.3959 4.1574
# 5 18.6387 -6.1533 5.9942 0.3959 34.1085 -6.8389
# 6 5.8919 -3.0565 -3.8555 4.1574 -6.8389 34.8888
#
#
#
# Elastic Compliance Matrix: (Units=1/GPa)
#
#
# Indices 1 2 3 4 5 6 
#
# 1 0.009099 -0.002896 -0.001859 -0.003847 -0.005654 -0.002646
# 2 -0.002896 0.009471 0.000754 0.007060 0.003320 0.001212
# 3 -0.001859 0.000754 0.019922 0.010735 -0.002303 0.000851
# 4 -0.003847 0.007060 0.010735 0.052911 0.000107 -0.003830
# 5 -0.005654 0.003320 -0.002303 0.000107 0.034981 0.007835
# 6 -0.002646 0.001212 0.000851 -0.003830 0.007835 0.031302
#
#
# Mechanical properties :
#
#
# Convention : Reuss Voigt Hill
#
# Bulk Modulus (GPa) = 32.79804 46.85323 39.82563
# Shear Modulus (GPa) = 28.43317 37.05035 32.74176
#
# Velocity S-wave (km/s) = 3.56657 4.07132 3.82728
# Velocity P-wave (km/s) = 5.62440 6.56217 6.11130
#
# Compressibility (1/GPa) = 0.03048963
#
# Stress axis : x y z
#
# Youngs Moduli (GPa) = 109.90436 105.58644 50.19546
#
# Poissons Ratio (x) = 0.30581 0.09331
# Poissons Ratio (y) = 0.31831 -0.03785
# Poissons Ratio (z) = 0.20430 -0.07962
#
# Static dielectric constant tensor:
#      x y z
#    x 2.163820 0.026840 0.205870 
#    y 0.026840 1.867050 0.094810 
#    z 0.205870 0.094810 2.156990 
# 
# From -- ./inp_files/623119.got.cif
#   From: 2010.05.17/outbox.ucp.g08.bks.cvg/sg2_312_cif.got.tgz:623119.got - 2010.06.11 11:32:03.
