data_PCOD9075790
_publ_section_title
;
Structure prediction by ZEFSAII (Michael W. Deem and Ramdas Pophale) SiO2 
 PCOD9075790
Probable space group: P -1
;
_chemical_formula_sum "Si O2"
_cell_formula_units_Z 16
_cell_length_a 11.626402
_cell_length_b 10.579725
_cell_length_c 11.352203
_cell_angle_alpha 123.450752
_cell_angle_beta 44.217934
_cell_angle_gamma 114.837800
_cell_volume 811.759922
_symmetry_space_group_name_H-M "P -1"
_symmetry_group_IT_number 2
_symmetry_cell_setting 'triclinic'
loop_
_space_group_symop_operation_xyz
x,y,z
-x,-y,-z
loop_
_atom_site_type_symbol
_atom_site_label
_atom_site_fract_x
_atom_site_fract_y
_atom_site_fract_z
Si Si1 0.888507 0.083205 0.953262
Si Si2 0.005466 0.859574 0.561986
Si Si3 0.142566 0.199681 0.993730
Si Si4 0.431594 0.801982 0.837186
Si Si5 0.705867 0.629771 0.650881
Si Si6 0.905860 0.367187 0.425780
Si Si7 0.338313 0.909703 0.222825
Si Si8 0.564313 0.671672 0.033173
O O1 0.060441 0.161964 0.910019
O O2 0.738034 0.195237 0.109700
O O3 0.916691 0.990795 0.765427
O O4 0.845703 0.955682 0.019008
O O5 0.104612 0.770604 0.545793
O O6 0.146226 0.916129 0.397554
O O7 0.864821 0.738967 0.554380
O O8 0.319358 0.283570 0.919944
O O9 0.015665 0.305913 0.208601
O O10 0.546445 0.661429 0.705461
O O11 0.556869 0.932934 0.761782
O O12 0.374140 0.853052 0.035668
O O13 0.750893 0.454609 0.535637
O O14 0.668777 0.683386 0.840207
O O15 0.000000 0.500000 0.500000
O O16 0.420343 0.786450 0.182404
O O17 0.500000 0.500000 0.000000
#
# Coordination Sequence:
#
# PCOD9075790 Si02
#       8
#     2   2   2   2   2   2   2   2
#     4  10  19  36  56  75 113 146 183 212 267 336
#     4  10  18  32  55  85 106 140 180 229 268 313
#     4  10  19  34  58  80 105 148 179 219 274 321
#     4  10  20  35  51  79 114 142 176 223 270 329
#     4  10  19  33  53  82 112 137 181 227 270 311
#     4   9  16  31  54  81 106 130 181 225 262 310
#     4  10  20  31  54  84 110 136 182 228 274 309
#     4  11  19  32  55  86 108 136 179 231 276 309
#
# _framework density 19.710262
#
# number of rings (size 3 to 8) (size 9 to 14) (size 15 to 20)
#    0.000    2.000    5.000    2.250    1.750    2.000 
#    0.000    1.250    2.750    3.000    0.000    0.000 
#    0.000    0.000    0.000    0.000    0.000    0.000 
#
# Total GULP energy -89195.041216 kJ/mol
# GULP energy per Si atom -5574.690076 kJ/mol
# Density = 1.966540 g / cm^3
# Si number density = 19.710262 Si / 1000 Ang^3
#
#
#
# Elastic Constant Matrix: (Units=GPa)
#
#
# Indices 1 2 3 4 5 6 
#
# 1 119.2467 37.4438 19.8654 14.6254 -41.5295 -10.0817
# 2 37.4438 56.5306 8.8972 -5.2207 -14.1082 0.2126
# 3 19.8654 8.8972 50.8679 -4.1296 -28.5490 -14.1709
# 4 14.6254 -5.2207 -4.1296 34.6579 -5.6205 -13.1031
# 5 -41.5295 -14.1082 -28.5490 -5.6205 37.0271 9.0538
# 6 -10.0817 0.2126 -14.1709 -13.1031 9.0538 26.8369
#
#
#
# Elastic Compliance Matrix: (Units=1/GPa)
#
#
# Indices 1 2 3 4 5 6 
#
# 1 0.017567 -0.007878 0.005770 -0.004340 0.020311 0.000737
# 2 -0.007878 0.023942 0.000488 0.007305 0.001751 0.000085
# 3 0.005770 0.000488 0.048341 0.018754 0.041163 0.022959
# 4 -0.004340 0.007305 0.018754 0.046079 0.012928 0.026352
# 5 0.020311 0.001751 0.041163 0.012928 0.082217 0.007927
# 6 0.000737 0.000085 0.022959 0.026352 0.007927 0.059854
#
#
# Mechanical properties :
#
#
# Convention : Reuss Voigt Hill
#
# Bulk Modulus (GPa) = 11.54601 39.89532 25.72066
# Shear Modulus (GPa) = 16.12336 30.40031 23.26184
#
# Velocity S-wave (km/s) = 2.86321 3.93155 3.43912
# Velocity P-wave (km/s) = 4.09892 6.39486 5.37101
#
# Compressibility (1/GPa) = 0.08661001
#
# Stress axis : x y z
#
# Youngs Moduli (GPa) = 56.92602 41.76707 20.68650
#
# Poissons Ratio (x) = 0.32905 -0.11936
# Poissons Ratio (y) = 0.44848 -0.01011
# Poissons Ratio (z) = -0.32846 -0.02040
#
# Static dielectric constant tensor:
#      x y z
#    x 1.763270 -0.022420 -0.044520 
#    y -0.022420 1.706840 -0.006800 
#    z -0.044520 -0.006800 1.705630 
# 
# From -- ./inp_files/390821.got.cif
#   From: 2010.05.17/outbox.cif.g08.bks.cpg/sg2_196_cif.got.tgz:390821.got - 2010.06.03 11:33:40.
