data_PCOD9075923
_publ_section_title
;
Structure prediction by ZEFSAII (Michael W. Deem and Ramdas Pophale) SiO2 
 PCOD9075923
Probable space group: P -1
;
_chemical_formula_sum "Si O2"
_cell_formula_units_Z 16
_cell_length_a 14.733839
_cell_length_b 11.656407
_cell_length_c 5.228393
_cell_angle_alpha 85.603403
_cell_angle_beta 103.343593
_cell_angle_gamma 118.286943
_cell_volume 768.808290
_symmetry_space_group_name_H-M "P -1"
_symmetry_group_IT_number 2
_symmetry_cell_setting 'triclinic'
loop_
_space_group_symop_operation_xyz
x,y,z
-x,-y,-z
loop_
_atom_site_type_symbol
_atom_site_label
_atom_site_fract_x
_atom_site_fract_y
_atom_site_fract_z
Si Si1 0.396883 0.583124 0.529008
Si Si2 0.802916 0.378281 0.593422
Si Si3 0.069215 0.924254 0.813157
Si Si4 0.898679 0.201871 0.656980
Si Si5 0.722012 0.607602 0.127680
Si Si6 0.839996 0.828092 0.513381
Si Si7 0.630942 0.692817 0.671135
Si Si8 0.886752 0.543705 0.098504
O O1 0.310399 0.630690 0.409511
O O2 0.367758 0.530249 0.810249
O O3 0.518852 0.687016 0.562886
O O4 0.383878 0.450627 0.403839
O O5 0.806266 0.242503 0.605052
O O6 0.843771 0.448879 0.333607
O O7 0.882411 0.466148 0.853448
O O8 0.087966 0.843745 0.608212
O O9 0.943060 0.873998 0.747560
O O10 0.123673 0.070104 0.713650
O O11 0.109399 0.900364 0.112970
O O12 0.004295 0.333545 0.778056
O O13 0.803455 0.686014 0.393209
O O14 0.800419 0.593994 0.983955
O O15 0.665703 0.690527 0.985410
O O16 0.732592 0.806122 0.583049
#
# Coordination Sequence:
#
# PCOD9075923 Si02
#       8
#     2   2   2   2   2   2   2   2
#     4   9  20  32  53  88 112 148 182 229 282 346
#     4  11  22  37  56  84 118 153 185 228 277 340
#     4  11  25  39  59  85 111 151 195 235 277 328
#     4  12  23  38  58  81 117 153 193 229 275 332
#     4  10  18  32  57  82 118 145 179 231 286 344
#     4  10  23  37  57  83 111 147 189 238 285 329
#     4  10  18  35  57  80 117 143 187 228 291 334
#     4  11  20  35  56  85 117 150 187 218 286 344
#
# _framework density 20.811430000000001
#
# number of rings (size 3 to 8) (size 9 to 14) (size 15 to 20)
#    0.000    1.500    2.500    3.375    3.500    1.000 
#    0.000    0.000    0.000    1.500    0.000    0.000 
#    0.000    0.000    0.000    0.000    0.000    0.000 
#
# Total GULP energy -89294.809657 kJ/mol
# GULP energy per Si atom -5580.925604 kJ/mol
# Density = 2.076406 g / cm^3
# Si number density = 20.811430 Si / 1000 Ang^3
#
#
#
# Elastic Constant Matrix: (Units=GPa)
#
#
# Indices 1 2 3 4 5 6 
#
# 1 116.0174 34.4348 26.8479 -7.6315 16.7846 11.9843
# 2 34.4348 47.4497 13.9793 -5.3477 0.6219 10.9210
# 3 26.8479 13.9793 72.4837 -5.3657 0.3884 3.2345
# 4 -7.6315 -5.3477 -5.3657 24.8545 -4.2303 -4.2439
# 5 16.7846 0.6219 0.3884 -4.2303 26.0458 0.7841
# 6 11.9843 10.9210 3.2345 -4.2439 0.7841 35.3269
#
#
#
# Elastic Compliance Matrix: (Units=1/GPa)
#
#
# Indices 1 2 3 4 5 6 
#
# 1 0.013097 -0.008130 -0.003178 -0.000053 -0.008163 -0.001464
# 2 -0.008130 0.029244 -0.002158 0.003235 0.005274 -0.005813
# 3 -0.003178 -0.002158 0.015529 0.002389 0.002239 0.000561
# 4 -0.000053 0.003235 0.002389 0.043248 0.006830 0.003843
# 5 -0.008163 0.005274 0.002239 0.006830 0.044581 0.000765
# 6 -0.001464 -0.005813 0.000561 0.003843 0.000765 0.030994
#
#
# Mechanical properties :
#
#
# Convention : Reuss Voigt Hill
#
# Bulk Modulus (GPa) = 32.32264 42.94165 37.63214
# Shear Modulus (GPa) = 23.37115 27.95801 25.66458
#
# Velocity S-wave (km/s) = 3.35475 3.66921 3.51550
# Velocity P-wave (km/s) = 5.52908 6.21525 5.88218
#
# Compressibility (1/GPa) = 0.03093806
#
# Stress axis : x y z
#
# Youngs Moduli (GPa) = 76.35621 34.19459 64.39425
#
# Poissons Ratio (x) = 0.27801 0.20463
# Poissons Ratio (y) = 0.62079 0.13897
# Poissons Ratio (z) = 0.24265 0.07379
#
# Static dielectric constant tensor:
#      x y z
#    x 1.786860 -0.038490 -0.014050 
#    y -0.038490 1.746950 0.017240 
#    z -0.014050 0.017240 1.878260 
# 
# From -- ./inp_files/75701.got.cif
#   From: 2010.05.17/outbox.cif.g08.bks.cpg/sg2_38_cif.got.tgz:75701.got - 2010.06.03 11:33:40.
