data_PCOD9075093
_publ_section_title
;
Structure prediction by ZEFSAII (Michael W. Deem and Ramdas Pophale) SiO2 
 PCOD9075093
Probable space group: P -1
;
_chemical_formula_sum "Si O2"
_cell_formula_units_Z 14
_cell_length_a 9.000000
_cell_length_b 15.000000
_cell_length_c 12.000000
_cell_angle_alpha 150.000000
_cell_angle_beta 130.000000
_cell_angle_gamma 60.000000
_cell_volume 613.666794
_symmetry_space_group_name_H-M "P -1"
_symmetry_group_IT_number 2
_symmetry_cell_setting 'triclinic'
loop_
_space_group_symop_operation_xyz
x,y,z
-x,-y,-z
loop_
_atom_site_type_symbol
_atom_site_label
_atom_site_fract_x
_atom_site_fract_y
_atom_site_fract_z
Si Si1 0.084056 0.604627 0.822021
Si Si2 0.110971 0.059291 0.969836
Si Si3 0.803389 0.115170 0.404766
Si Si4 0.748146 0.793517 0.193152
Si Si5 0.303684 0.520874 0.355598
Si Si6 0.492473 0.784926 0.274079
Si Si7 0.206484 0.253959 0.429865
O O1 0.151148 0.454044 0.610030
O O2 0.032168 0.789496 0.945878
O O3 0.890646 0.516157 0.699631
O O4 0.275357 0.676235 0.065526
O O5 0.261238 0.154833 0.237079
O O6 0.195464 0.013510 0.842652
O O7 0.984947 0.876880 0.757427
O O8 0.705322 0.287361 0.503472
O O9 0.032259 0.180798 0.620229
O O10 0.721646 0.982975 0.324255
O O11 0.592257 0.739005 0.156612
O O12 0.723889 0.636898 0.920343
O O13 0.500000 0.500000 0.500000
O O14 0.626778 0.742357 0.394164
O O15 0.500000 0.000000 0.500000
#
# Coordination Sequence:
#
# PCOD9075093 Si02
#       7
#     2   2   2   2   2   2   2
#     4  12  24  48  75 105 151 190 246 302 368 441
#     4  11  22  44  73 107 147 190 241 303 361 434
#     4  11  23  49  79 105 148 196 249 299 372 433
#     4  11  25  48  76 107 149 196 242 307 362 445
#     4  12  28  48  75 110 150 193 250 303 372 441
#     4  12  25  48  74 114 144 193 249 297 371 439
#     4  11  24  42  72 111 150 190 239 306 370 428
#
# _framework density 22.813683000000001
#
# number of rings (size 3 to 8) (size 9 to 14) (size 15 to 20)
#    0.000    0.571    5.714    1.286    2.000    4.000 
#    5.143    0.000    0.000    0.000    0.000    0.000 
#    0.000    0.000    0.000    0.000    0.000    0.000 
#
# Total GULP energy -78404.883704 kJ/mol
# GULP energy per Si atom -5600.348836 kJ/mol
# Density = 2.276176 g / cm^3
# Si number density = 22.813683 Si / 1000 Ang^3
#
#
#
# Elastic Constant Matrix: (Units=GPa)
#
#
# Indices 1 2 3 4 5 6 
#
# 1 73.1197 29.4186 44.1810 -29.7223 12.6390 -3.3706
# 2 29.4186 165.9511 56.0911 8.7078 1.7693 -6.9493
# 3 44.1810 56.0911 129.9118 -0.1791 -11.0397 -5.5874
# 4 -29.7223 8.7078 -0.1791 45.3557 -1.3796 -12.3298
# 5 12.6390 1.7693 -11.0397 -1.3796 35.6954 -3.7638
# 6 -3.3706 -6.9493 -5.5874 -12.3298 -3.7638 22.8228
#
#
#
# Elastic Compliance Matrix: (Units=1/GPa)
#
#
# Indices 1 2 3 4 5 6 
#
# 1 0.036166 -0.003275 -0.011386 0.027763 -0.013582 0.014315
# 2 -0.003275 0.007511 -0.002180 -0.003822 -0.000120 -0.000815
# 3 -0.011386 -0.002180 0.013080 -0.007241 0.007717 -0.001782
# 4 0.027763 -0.003822 -0.007241 0.047720 -0.007322 0.025736
# 5 -0.013582 -0.000120 0.007717 -0.007322 0.035111 0.001681
# 6 0.014315 -0.000815 -0.001782 0.025736 0.001681 0.059427
#
#
# Mechanical properties :
#
#
# Convention : Reuss Voigt Hill
#
# Bulk Modulus (GPa) = 43.33552 69.81821 56.57686
# Shear Modulus (GPa) = 20.79970 36.72759 28.76365
#
# Velocity S-wave (km/s) = 3.02275 4.01670 3.55464
# Velocity P-wave (km/s) = 5.58742 7.22371 6.45760
#
# Compressibility (1/GPa) = 0.02307576
#
# Stress axis : x y z
#
# Youngs Moduli (GPa) = 27.64998 133.13945 76.45372
#
# Poissons Ratio (x) = 0.43610 0.87048
# Poissons Ratio (y) = 0.09057 0.16663
# Poissons Ratio (z) = 0.31481 0.29018
#
# Static dielectric constant tensor:
#      x y z
#    x 1.848040 0.009390 -0.012680 
#    y 0.009390 1.870570 -0.027070 
#    z -0.012680 -0.027070 1.843460 
# 
# From -- ./inp_files/187740.got.cif
#   From: 2010.05.17/outbox.ucp.g08.bks.cvg/sg2_94_cif.got.tgz:187740.got - 2010.06.11 11:32:03.
