data_PCOD9075963
_publ_section_title
;
Structure prediction by ZEFSAII (Michael W. Deem and Ramdas Pophale) SiO2 
 PCOD9075963
Probable space group: P -1
;
_chemical_formula_sum "Si O2"
_cell_formula_units_Z 14
_cell_length_a 12.679416
_cell_length_b 8.347625
_cell_length_c 8.540053
_cell_angle_alpha 68.473696
_cell_angle_beta 102.181399
_cell_angle_gamma 54.140704
_cell_volume 562.292393
_symmetry_space_group_name_H-M "P -1"
_symmetry_group_IT_number 2
_symmetry_cell_setting 'triclinic'
loop_
_space_group_symop_operation_xyz
x,y,z
-x,-y,-z
loop_
_atom_site_type_symbol
_atom_site_label
_atom_site_fract_x
_atom_site_fract_y
_atom_site_fract_z
Si Si1 0.841881 0.465124 0.218582
Si Si2 0.884493 0.788787 0.413572
Si Si3 0.652488 0.121228 0.648685
Si Si4 0.602401 0.518001 0.314581
Si Si5 0.072066 0.095494 0.935858
Si Si6 0.152894 0.426961 0.137124
Si Si7 0.373064 0.005721 0.908896
O O1 0.752289 0.444975 0.318660
O O2 0.026723 0.243060 0.396296
O O3 0.770885 0.741636 0.125732
O O4 0.810796 0.475619 0.022249
O O5 0.878397 0.936256 0.217884
O O6 0.000000 0.500000 0.500000
O O7 0.708758 0.916794 0.312003
O O8 0.639500 0.279577 0.453637
O O9 0.483286 0.309596 0.616638
O O10 0.708115 0.870429 0.699511
O O11 0.784507 0.032696 0.850140
O O12 0.463947 0.723825 0.074412
O O13 0.919575 0.397660 0.799607
O O14 0.000000 0.000000 0.000000
O O15 0.000000 0.500000 0.000000
O O16 0.500000 0.000000 0.000000
#
# Coordination Sequence:
#
# PCOD9075963 Si02
#       7
#     2   2   2   2   2   2   2
#     4  10  19  33  58  92 116 157 204 246 300 351
#     4  10  18  34  55  88 117 151 203 247 295 353
#     4  10  19  34  58  88 119 161 202 243 301 359
#     4  10  18  32  57  90 118 156 207 237 292 379
#     4  11  22  38  60  90 122 155 201 255 308 356
#     4  10  20  38  59  89 121 157 202 253 300 358
#     4   9  16  29  53  88 117 155 200 238 292 358
#
# _framework density 24.898078999999999
#
# number of rings (size 3 to 8) (size 9 to 14) (size 15 to 20)
#    0.000    2.000    2.857    3.429    0.000    0.000 
#    0.000    7.857    0.000    8.571   44.571    1.000 
#    0.000    0.000    0.000    0.000    0.000    0.000 
#
# Total GULP energy -78041.399763 kJ/mol
# GULP energy per Si atom -5574.385697 kJ/mol
# Density = 2.484141 g / cm^3
# Si number density = 24.898079 Si / 1000 Ang^3
#
#
#
# Elastic Constant Matrix: (Units=GPa)
#
#
# Indices 1 2 3 4 5 6 
#
# 1 117.1547 20.8068 57.0489 -3.5038 -17.1259 -13.1307
# 2 20.8068 67.3654 21.3967 -17.5932 -5.1799 -11.6772
# 3 57.0489 21.3967 161.0153 -16.6670 -7.7731 -2.2541
# 4 -3.5038 -17.5932 -16.6670 32.4169 -6.7103 -5.1097
# 5 -17.1259 -5.1799 -7.7731 -6.7103 46.8919 -7.5039
# 6 -13.1307 -11.6772 -2.2541 -5.1097 -7.5039 18.6402
#
#
#
# Elastic Compliance Matrix: (Units=1/GPa)
#
#
# Indices 1 2 3 4 5 6 
#
# 1 0.012687 0.000772 -0.003780 0.003165 0.006540 0.012464
# 2 0.000772 0.025023 -0.000780 0.019267 0.009726 0.025322
# 3 -0.003780 -0.000780 0.007957 0.003068 0.000081 -0.001316
# 4 0.003165 0.019267 0.003068 0.052409 0.017037 0.035896
# 5 0.006540 0.009726 0.000081 0.017037 0.031746 0.028159
# 6 0.012464 0.025322 -0.001316 0.035896 0.028159 0.099307
#
#
# Mechanical properties :
#
#
# Convention : Reuss Voigt Hill
#
# Bulk Modulus (GPa) = 26.25354 60.44891 43.35123
# Shear Modulus (GPa) = 20.04799 36.00867 28.02833
#
# Velocity S-wave (km/s) = 2.84069 3.80708 3.35882
# Velocity P-wave (km/s) = 4.61808 6.60730 5.70013
#
# Compressibility (1/GPa) = 0.03809010
#
# Stress axis : x y z
#
# Youngs Moduli (GPa) = 78.82229 39.96333 125.68252
#
# Poissons Ratio (x) = -0.03085 0.47505
# Poissons Ratio (y) = -0.06085 0.09807
# Poissons Ratio (z) = 0.29793 0.03118
#
# Static dielectric constant tensor:
#      x y z
#    x 2.109850 -0.026580 -0.019050 
#    y -0.026580 2.069060 0.062810 
#    z -0.019050 0.062810 2.040560 
# 
# From -- ./inp_files/297895.got.cif
#   From: 2010.05.17/outbox.cif.g08.bks.cpg/sg2_149_cif.got.tgz:297895.got - 2010.06.03 11:33:40.
