data_PCOD9075855
_publ_section_title
;
Structure prediction by ZEFSAII (Michael W. Deem and Ramdas Pophale) SiO2 
 PCOD9075855
Probable space group: P -1
;
_chemical_formula_sum "Si O2"
_cell_formula_units_Z 14
_cell_length_a 14.694958
_cell_length_b 8.854914
_cell_length_c 11.689311
_cell_angle_alpha 101.095857
_cell_angle_beta 29.381704
_cell_angle_gamma 118.980336
_cell_volume 551.422515
_symmetry_space_group_name_H-M "P -1"
_symmetry_group_IT_number 2
_symmetry_cell_setting 'triclinic'
loop_
_space_group_symop_operation_xyz
x,y,z
-x,-y,-z
loop_
_atom_site_type_symbol
_atom_site_label
_atom_site_fract_x
_atom_site_fract_y
_atom_site_fract_z
Si Si1 0.183781 0.007413 0.185069
Si Si2 0.601097 0.537537 0.267252
Si Si3 0.114048 0.826528 0.837752
Si Si4 0.981808 0.566375 0.370103
Si Si5 0.132648 0.113254 0.686874
Si Si6 0.417540 0.774771 0.061257
Si Si7 0.427596 0.751672 0.391954
O O1 0.334360 0.165674 0.148203
O O2 0.408173 0.080687 0.863153
O O3 0.032134 0.776130 0.357990
O O4 0.007805 0.007590 0.293364
O O5 0.500000 0.500000 0.500000
O O6 0.594097 0.705669 0.250426
O O7 0.392329 0.329257 0.401760
O O8 0.875917 0.631083 0.001335
O O9 0.323583 0.813121 0.607314
O O10 0.187468 0.006544 0.699856
O O11 0.022879 0.846390 0.061067
O O12 0.257893 0.653129 0.104150
O O13 0.794851 0.384213 0.637610
O O14 0.821758 0.459141 0.416047
O O15 0.500000 0.000000 0.000000
#
# Coordination Sequence:
#
# PCOD9075855 Si02
#       7
#     2   2   2   2   2   2   2
#     4  10  18  32  56  83 110 147 187 227 282 337
#     4  10  21  38  54  78 112 150 196 235 273 329
#     4  10  23  38  53  80 115 153 192 234 272 329
#     4   9  17  32  53  87 112 141 186 228 277 338
#     4  10  20  38  53  77 116 151 191 231 280 328
#     4   8  16  30  54  85 114 140 180 229 277 337
#     4  11  21  35  58  83 113 149 192 233 278 328
#
# _framework density 25.38888
#
# number of rings (size 3 to 8) (size 9 to 14) (size 15 to 20)
#    0.000    2.286    2.857    0.000    0.000    4.000 
#    0.000    0.000    0.000    0.857    0.000   15.000 
#    0.000    0.000    0.000    0.000    0.000    0.000 
#
# Total GULP energy -78055.711201 kJ/mol
# GULP energy per Si atom -5575.407943 kJ/mol
# Density = 2.533109 g / cm^3
# Si number density = 25.388880 Si / 1000 Ang^3
#
#
#
# Elastic Constant Matrix: (Units=GPa)
#
#
# Indices 1 2 3 4 5 6 
#
# 1 113.3507 5.6457 32.6219 -16.8741 -36.4317 7.1043
# 2 5.6457 0.2898 68.1099 -24.4351 14.0293 -2.6667
# 3 32.6219 68.1099 110.6887 -19.6397 -0.7076 4.9721
# 4 -16.8741 -24.4351 -19.6397 46.5723 13.8490 -1.3489
# 5 -36.4317 14.0293 -0.7076 13.8490 56.7822 -28.8861
# 6 7.1043 -2.6667 4.9721 -1.3489 -28.8861 33.6718
#
#
#
# Elastic Compliance Matrix: (Units=1/GPa)
#
#
# Indices 1 2 3 4 5 6 
#
# 1 0.013885 -0.000839 -0.004132 -0.001142 0.014382 0.009907
# 2 -0.000839 -0.018952 0.010323 -0.008243 0.008280 0.003925
# 3 -0.004132 0.010323 0.005982 0.009819 -0.012264 -0.009321
# 4 -0.001142 -0.008243 0.009819 0.023114 -0.008316 -0.008070
# 5 0.014382 0.008280 -0.012264 -0.008316 0.046507 0.038996
# 6 0.009907 0.003925 -0.009321 -0.008070 0.038996 0.062426
#
#
# Mechanical properties :
#
#
# Convention : Reuss Voigt Hill
#
# Bulk Modulus (GPa) = 86.05554 48.56492 67.31023
# Shear Modulus (GPa) = 39.64233 35.26871 37.45552
#
# Velocity S-wave (km/s) = 3.95575 3.73116 3.84509
# Velocity P-wave (km/s) = 7.40490 6.14264 6.80311
#
# Compressibility (1/GPa) = 0.01162040
#
# Stress axis : x y z
#
# Youngs Moduli (GPa) = 72.02141 -52.76361 167.16069
#
# Poissons Ratio (x) = -0.04426 0.69063
# Poissons Ratio (y) = 0.06042 -1.72565
# Poissons Ratio (z) = 0.29756 0.54470
#
# Static dielectric constant tensor:
#      x y z
#    x 1.970950 0.098650 -0.043360 
#    y 0.098650 1.936820 -0.027200 
#    z -0.043360 -0.027200 2.025640 
# 
# From -- ./inp_files/106044.got.cif
#   From: 2010.05.17/outbox.cif.g08.bks.cpg/sg2_54_cif.got.tgz:106044.got - 2010.06.03 11:33:40.
