data_PCOD9075099
_publ_section_title
;
Structure prediction by ZEFSAII (Michael W. Deem and Ramdas Pophale) SiO2 
 PCOD9075099
Probable space group: P -1
;
_chemical_formula_sum "Si O2"
_cell_formula_units_Z 14
_cell_length_a 12.000000
_cell_length_b 9.000000
_cell_length_c 21.000000
_cell_angle_alpha 140.000000
_cell_angle_beta 150.000000
_cell_angle_gamma 60.000000
_cell_volume 627.666119
_symmetry_space_group_name_H-M "P -1"
_symmetry_group_IT_number 2
_symmetry_cell_setting 'triclinic'
loop_
_space_group_symop_operation_xyz
x,y,z
-x,-y,-z
loop_
_atom_site_type_symbol
_atom_site_label
_atom_site_fract_x
_atom_site_fract_y
_atom_site_fract_z
Si Si1 0.831614 0.435150 0.159961
Si Si2 0.034192 0.295717 0.100575
Si Si3 0.078718 0.941779 0.745551
Si Si4 0.311466 0.512658 0.088378
Si Si5 0.174750 0.509614 0.689751
Si Si6 0.485472 0.724085 0.382219
Si Si7 0.763626 0.909203 0.265445
O O1 0.835010 0.344276 0.202653
O O2 0.871350 0.729237 0.289232
O O3 0.032367 0.420866 0.209056
O O4 0.543280 0.244465 0.926978
O O5 0.301503 0.483063 0.258518
O O6 0.826914 0.355392 0.978308
O O7 0.000000 0.000000 0.000000
O O8 0.195877 0.744210 0.731841
O O9 0.770232 0.763218 0.533473
O O10 0.182966 0.115101 0.789861
O O11 0.147550 0.186869 0.908430
O O12 0.588209 0.547249 0.214170
O O13 0.365160 0.649032 0.228097
O O14 0.917960 0.221793 0.460048
O O15 0.500000 0.000000 0.500000
#
# Coordination Sequence:
#
# PCOD9075099 Si02
#       7
#     2   2   2   2   2   2   2
#     4  11  24  46  68 100 153 179 235 294 366 426
#     4  12  29  49  73 103 147 201 237 291 355 435
#     4  12  25  45  74 112 141 182 245 299 358 423
#     4  12  25  49  78 103 143 187 243 304 363 414
#     4  12  26  40  79 110 138 184 235 304 369 420
#     4  12  27  50  76 103 147 196 247 292 346 436
#     4  11  22  45  69 107 144 182 234 302 363 417
#
# _framework density 22.304852
#
# number of rings (size 3 to 8) (size 9 to 14) (size 15 to 20)
#    0.000    0.286    5.714    2.571    4.000    0.000 
#    0.000    1.429    0.000    0.000    0.000    0.000 
#    0.000    0.000    0.000    0.000    0.000    0.000 
#
# Total GULP energy -78076.094337 kJ/mol
# GULP energy per Si atom -5576.863881 kJ/mol
# Density = 2.225409 g / cm^3
# Si number density = 22.304852 Si / 1000 Ang^3
#
#
#
# Elastic Constant Matrix: (Units=GPa)
#
#
# Indices 1 2 3 4 5 6 
#
# 1 102.2638 5.7535 25.4749 2.0380 6.2857 4.0225
# 2 5.7535 105.2384 43.0441 27.5465 2.3903 -16.7543
# 3 25.4749 43.0441 89.4712 20.9155 -7.3751 2.7113
# 4 2.0380 27.5465 20.9155 31.3971 -3.5498 2.2526
# 5 6.2857 2.3903 -7.3751 -3.5498 37.5489 5.3406
# 6 4.0225 -16.7543 2.7113 2.2526 5.3406 24.7591
#
#
#
# Elastic Compliance Matrix: (Units=1/GPa)
#
#
# Indices 1 2 3 4 5 6 
#
# 1 0.010847 0.000715 -0.003854 0.000987 -0.002466 -0.000414
# 2 0.000715 0.018446 -0.006918 -0.013442 -0.006153 0.015674
# 3 -0.003854 -0.006918 0.017170 -0.004074 0.005018 -0.006647
# 4 0.000987 -0.013442 -0.004074 0.048076 0.006510 -0.014589
# 5 -0.002466 -0.006153 0.005018 0.006510 0.030676 -0.011522
# 6 -0.000414 0.015674 -0.006647 -0.014589 -0.011522 0.055604
#
#
# Mechanical properties :
#
#
# Convention : Reuss Voigt Hill
#
# Bulk Modulus (GPa) = 37.95133 49.50203 43.72668
# Shear Modulus (GPa) = 23.84192 33.58775 28.71483
#
# Velocity S-wave (km/s) = 3.27297 3.88474 3.59190
# Velocity P-wave (km/s) = 5.59776 6.50870 6.07034
#
# Compressibility (1/GPa) = 0.02634954
#
# Stress axis : x y z
#
# Youngs Moduli (GPa) = 92.19482 54.21140 58.24266
#
# Poissons Ratio (x) = -0.03876 0.22445
# Poissons Ratio (y) = -0.06592 0.40291
# Poissons Ratio (z) = 0.35529 0.37502
#
# Static dielectric constant tensor:
#      x y z
#    x 1.840540 0.030600 -0.032010 
#    y 0.030600 1.796730 -0.044090 
#    z -0.032010 -0.044090 1.851570 
# 
# From -- ./inp_files/184672.got.cif
#   From: 2010.05.17/outbox.ucp.g08.bks.cvg/sg2_93_cif.got.tgz:184672.got - 2010.06.11 11:32:03.
