data_PCOD9075991
_publ_section_title
;
Structure prediction by ZEFSAII (Michael W. Deem and Ramdas Pophale) SiO2 
 PCOD9075991
Probable space group: P -1
;
_chemical_formula_sum "Si O2"
_cell_formula_units_Z 16
_cell_length_a 8.247357
_cell_length_b 18.842411
_cell_length_c 21.137940
_cell_angle_alpha 20.064658
_cell_angle_beta 37.421417
_cell_angle_gamma 36.002966
_cell_volume 652.807090
_symmetry_space_group_name_H-M "P -1"
_symmetry_group_IT_number 2
_symmetry_cell_setting 'triclinic'
loop_
_space_group_symop_operation_xyz
x,y,z
-x,-y,-z
loop_
_atom_site_type_symbol
_atom_site_label
_atom_site_fract_x
_atom_site_fract_y
_atom_site_fract_z
Si Si1 0.737596 0.843580 0.141720
Si Si2 0.260622 0.443263 0.013372
Si Si3 0.676291 0.012986 0.585244
Si Si4 0.145211 0.562624 0.650491
Si Si5 0.847535 0.110545 0.733689
Si Si6 0.733461 0.521770 0.521227
Si Si7 0.256046 0.909335 0.873930
Si Si8 0.468469 0.237353 0.333642
O O1 0.797524 0.644459 0.240064
O O2 0.418016 0.980076 0.111743
O O3 0.723423 0.730229 0.307214
O O4 0.986697 0.949777 0.968413
O O5 0.294345 0.661504 0.847806
O O6 0.281776 0.245942 0.219548
O O7 0.540114 0.332928 0.976659
O O8 0.000000 0.500000 0.000000
O O9 0.475509 0.048370 0.680746
O O10 0.521548 0.188340 0.434031
O O11 0.000000 0.000000 0.500000
O O12 0.123276 0.776494 0.435340
O O13 0.419322 0.537637 0.629416
O O14 0.826233 0.611189 0.727855
O O15 0.796539 0.312244 0.630221
O O16 0.113941 0.936618 0.825527
O O17 0.000000 0.500000 0.500000
O O18 0.500000 0.000000 0.500000
#
# Coordination Sequence:
#
# PCOD9075991 Si02
#       8
#     2   2   2   2   2   2   2   2
#     4   9  17  31  59  81 109 149 198 239 290 355
#     4  10  21  38  60  84 121 155 209 253 294 359
#     4  10  21  38  62  83 117 163 209 252 299 356
#     4   9  16  36  53  78 110 155 195 239 289 358
#     4   9  17  31  58  82 103 149 201 233 289 365
#     4   9  19  34  52  81 120 150 187 245 303 360
#     4  10  18  32  58  84 108 148 205 251 286 344
#     4  12  22  38  61  91 125 158 200 262 310 356
#
# _framework density 24.509536000000001
#
# number of rings (size 3 to 8) (size 9 to 14) (size 15 to 20)
#    0.750    1.500    3.750    1.875    0.000    0.500 
#    4.500    0.625    0.000    4.500    0.000    0.000 
#    0.000    0.000    0.000    0.000    0.000    0.000 
#
# Total GULP energy -89101.639032 kJ/mol
# GULP energy per Si atom -5568.852439 kJ/mol
# Density = 2.445375 g / cm^3
# Si number density = 24.509536 Si / 1000 Ang^3
#
#
#
# Elastic Constant Matrix: (Units=GPa)
#
#
# Indices 1 2 3 4 5 6 
#
# 1 85.0239 47.5301 24.0648 12.3028 -14.0961 -38.5856
# 2 47.5301 84.8788 20.3473 19.5153 -19.9376 -50.5551
# 3 24.0648 20.3473 134.1303 16.3990 -11.6399 -12.0617
# 4 12.3028 19.5153 16.3990 42.9461 -15.4424 -5.4402
# 5 -14.0961 -19.9376 -11.6399 -15.4424 39.6804 5.2190
# 6 -38.5856 -50.5551 -12.0617 -5.4402 5.2190 44.9682
#
#
#
# Elastic Compliance Matrix: (Units=1/GPa)
#
#
# Indices 1 2 3 4 5 6 
#
# 1 0.020699 0.000238 -0.001657 -0.001804 0.004062 0.016894
# 2 0.000238 0.047175 -0.000271 -0.010320 0.013063 0.050403
# 3 -0.001657 -0.000271 0.008142 -0.002215 0.000788 0.000097
# 4 -0.001804 -0.010320 -0.002215 0.030401 0.006783 -0.010853
# 5 0.004062 0.013063 0.000788 0.006783 0.034073 0.015249
# 6 0.016894 0.050403 0.000097 -0.010853 0.015249 0.090342
#
#
# Mechanical properties :
#
#
# Convention : Reuss Voigt Hill
#
# Bulk Modulus (GPa) = 13.76759 54.21304 33.99032
# Shear Modulus (GPa) = 19.34784 39.65833 29.50308
#
# Velocity S-wave (km/s) = 2.81267 4.02690 3.47326
# Velocity P-wave (km/s) = 4.02214 6.61728 5.47567
#
# Compressibility (1/GPa) = 0.07263435
#
# Stress axis : x y z
#
# Youngs Moduli (GPa) = 48.31150 21.19746 122.82083
#
# Poissons Ratio (x) = -0.00504 0.20357
# Poissons Ratio (y) = -0.01148 0.03331
# Poissons Ratio (z) = 0.08007 0.00575
#
# Static dielectric constant tensor:
#      x y z
#    x 2.000460 0.070310 -0.013150 
#    y 0.070310 2.129030 0.041670 
#    z -0.013150 0.041670 2.038000 
# 
# From -- ./inp_files/617563.got.cif
#   From: 2010.05.17/outbox.cif.g08.bks.cpg/sg2_309_cif.got.tgz:617563.got - 2010.06.03 11:33:40.
