data_PCOD9075951
_publ_section_title
;
Structure prediction by ZEFSAII (Michael W. Deem and Ramdas Pophale) SiO2 
 PCOD9075951
Probable space group: P -1
;
_chemical_formula_sum "Si O2"
_cell_formula_units_Z 14
_cell_length_a 15.369382
_cell_length_b 15.531956
_cell_length_c 15.109588
_cell_angle_alpha 40.537552
_cell_angle_beta 161.101874
_cell_angle_gamma 146.467266
_cell_volume 637.013549
_symmetry_space_group_name_H-M "P -1"
_symmetry_group_IT_number 2
_symmetry_cell_setting 'triclinic'
loop_
_space_group_symop_operation_xyz
x,y,z
-x,-y,-z
loop_
_atom_site_type_symbol
_atom_site_label
_atom_site_fract_x
_atom_site_fract_y
_atom_site_fract_z
Si Si1 0.146045 0.202830 0.528010
Si Si2 0.375508 0.013205 0.578669
Si Si3 0.128213 0.901072 0.244841
Si Si4 0.492851 0.238637 0.652454
Si Si5 0.023747 0.313460 0.884716
Si Si6 0.683689 0.465962 0.503681
Si Si7 0.565400 0.974998 0.964579
O O1 0.318444 0.244753 0.566125
O O2 0.237913 0.360263 0.544524
O O3 0.762930 0.097066 0.239226
O O4 0.255932 0.101874 0.764613
O O5 0.133150 0.910963 0.347939
O O6 0.451042 0.920605 0.795248
O O7 0.267715 0.107885 0.463105
O O8 0.712865 0.154907 0.751336
O O9 0.961315 0.734541 0.164034
O O10 0.500000 0.000000 0.500000
O O11 0.000000 0.000000 0.000000
O O12 0.671314 0.398001 0.643571
O O13 0.698384 0.162634 0.937226
O O14 0.937889 0.444471 0.712318
O O15 0.343339 0.363740 0.206234
#
# Coordination Sequence:
#
# PCOD9075951 Si02
#       7
#     2   2   2   2   2   2   2
#     4  12  23  40  56  87 117 160 189 230 291 343
#     4   8  20  35  58  87 113 144 188 241 290 324
#     4  10  18  32  57  88 115 139 185 245 291 325
#     4   9  21  39  60  86 112 151 197 244 277 334
#     4  10  20  37  59  86 117 147 191 238 290 333
#     4  11  23  38  60  84 120 154 191 236 281 345
#     4  10  24  37  61  81 123 147 195 238 286 338
#
# _framework density 21.977554999999999
#
# number of rings (size 3 to 8) (size 9 to 14) (size 15 to 20)
#    0.857    1.143    0.000    4.714    2.000    3.429 
#    0.000    5.000    0.000    5.143    0.000    0.000 
#    0.000    0.000    0.000    0.000    0.000    0.000 
#
# Total GULP energy -78120.103733 kJ/mol
# GULP energy per Si atom -5580.007410 kJ/mol
# Density = 2.192753 g / cm^3
# Si number density = 21.977555 Si / 1000 Ang^3
#
#
#
# Elastic Constant Matrix: (Units=GPa)
#
#
# Indices 1 2 3 4 5 6 
#
# 1 75.4418 13.1194 16.9235 -11.4090 -11.8692 -31.1246
# 2 13.1194 74.2599 33.4962 -20.0793 -6.4254 -17.4597
# 3 16.9235 33.4962 149.0766 -22.4728 -6.1494 -11.6533
# 4 -11.4090 -20.0793 -22.4728 19.5144 -8.4608 5.8496
# 5 -11.8692 -6.4254 -6.1494 -8.4608 26.5727 0.7633
# 6 -31.1246 -17.4597 -11.6533 5.8496 0.7633 28.0746
#
#
#
# Elastic Compliance Matrix: (Units=1/GPa)
#
#
# Indices 1 2 3 4 5 6 
#
# 1 0.045745 0.021453 0.004478 0.056871 0.043245 0.052890
# 2 0.021453 0.034890 0.002337 0.056444 0.035563 0.033725
# 3 0.004478 0.002337 0.009377 0.018502 0.010449 0.006171
# 4 0.056871 0.056444 0.018502 0.188841 0.101630 0.063723
# 5 0.043245 0.035563 0.010449 0.101630 0.098875 0.050534
# 6 0.052890 0.033725 0.006171 0.063723 0.050534 0.103139
#
#
# Mechanical properties :
#
#
# Convention : Reuss Voigt Hill
#
# Bulk Modulus (GPa) = 6.82367 47.31739 27.07053
# Shear Modulus (GPa) = 10.56679 30.51494 20.54087
#
# Velocity S-wave (km/s) = 2.19509 3.73025 3.06049
# Velocity P-wave (km/s) = 3.08807 6.33479 4.98326
#
# Compressibility (1/GPa) = 0.14654862
#
# Stress axis : x y z
#
# Youngs Moduli (GPa) = 21.86039 28.66121 106.64355
#
# Poissons Ratio (x) = -0.61487 -0.47756
# Poissons Ratio (y) = -0.46897 -0.24923
# Poissons Ratio (z) = -0.09789 -0.06698
#
# Static dielectric constant tensor:
#      x y z
#    x 1.909300 -0.032080 -0.010050 
#    y -0.032080 1.805580 0.008940 
#    z -0.010050 0.008940 1.824150 
# 
# From -- ./inp_files/520004.got.cif
#   From: 2010.05.17/outbox.cif.g08.bks.cpg/sg2_261_cif.got.tgz:520004.got - 2010.06.03 11:33:40.
