data_PCOD9075333
_publ_section_title
;
Structure prediction by ZEFSAII (Michael W. Deem and Ramdas Pophale) SiO2 
 PCOD9075333
Probable space group: P -1
;
_chemical_formula_sum "Si O2"
_cell_formula_units_Z 16
_cell_length_a 9.000000
_cell_length_b 18.000000
_cell_length_c 12.000000
_cell_angle_alpha 40.000000
_cell_angle_beta 140.000000
_cell_angle_gamma 140.000000
_cell_volume 723.717541
_symmetry_space_group_name_H-M "P -1"
_symmetry_group_IT_number 2
_symmetry_cell_setting 'triclinic'
loop_
_space_group_symop_operation_xyz
x,y,z
-x,-y,-z
loop_
_atom_site_type_symbol
_atom_site_label
_atom_site_fract_x
_atom_site_fract_y
_atom_site_fract_z
Si Si1 0.416136 0.055580 0.708990
Si Si2 0.578422 0.225252 0.928166
Si Si3 0.107089 0.700702 0.384344
Si Si4 0.004869 0.835496 0.372985
Si Si5 0.261488 0.313389 0.010906
Si Si6 0.010713 0.466624 0.780494
Si Si7 0.237710 0.685537 0.817844
Si Si8 0.072247 0.043480 0.314708
O O1 0.212843 0.043626 0.702760
O O2 0.640128 0.202523 0.654112
O O3 0.262397 0.037845 0.524996
O O4 0.460343 0.925912 0.909513
O O5 0.299329 0.219910 0.753175
O O6 0.765711 0.328132 0.824698
O O7 0.684789 0.286009 0.041793
O O8 0.045890 0.568674 0.577243
O O9 0.111199 0.801038 0.363557
O O10 0.880117 0.673943 0.197461
O O11 0.108404 0.776894 0.598904
O O12 0.111287 0.984512 0.289927
O O13 0.239977 0.424624 0.944686
O O14 0.515462 0.301275 0.129542
O O15 0.113612 0.185707 0.146805
O O16 0.037612 0.546764 0.816725
#
# Coordination Sequence:
#
# PCOD9075333 Si02
#       8
#     2   2   2   2   2   2   2   2
#     4  11  25  45  71 107 140 185 236 291 352 420
#     4  12  24  48  74 105 144 182 238 289 354 416
#     4  11  26  45  69 107 142 185 238 286 353 419
#     4  11  25  44  73 107 140 188 227 297 349 417
#     4  12  24  46  72 103 143 189 233 292 349 416
#     4  11  26  48  70 103 142 192 233 288 352 416
#     4  11  25  46  71 105 142 186 237 286 351 422
#     4  11  24  43  73 106 142 182 236 293 353 416
#
# _framework density 22.108073000000001
#
# number of rings (size 3 to 8) (size 9 to 14) (size 15 to 20)
#    0.000    0.750    3.750    3.375    3.500    5.000 
#    2.250    0.000    0.000    0.000    0.000    0.000 
#    0.000    0.000    0.000    0.000    0.000    0.000 
#
# Total GULP energy -89133.437270 kJ/mol
# GULP energy per Si atom -5570.839829 kJ/mol
# Density = 2.205775 g / cm^3
# Si number density = 22.108073 Si / 1000 Ang^3
#
#
#
# Elastic Constant Matrix: (Units=GPa)
#
#
# Indices 1 2 3 4 5 6 
#
# 1 52.6882 6.0619 34.6419 -3.0392 -4.5769 7.0605
# 2 6.0619 41.9083 51.1193 -15.1273 -3.9462 -2.1296
# 3 34.6419 51.1193 140.0855 -9.2291 10.3924 13.6075
# 4 -3.0392 -15.1273 -9.2291 44.8370 -0.3473 -4.9789
# 5 -4.5769 -3.9462 10.3924 -0.3473 34.4132 -3.1756
# 6 7.0605 -2.1296 13.6075 -4.9789 -3.1756 53.8376
#
#
#
# Elastic Compliance Matrix: (Units=1/GPa)
#
#
# Indices 1 2 3 4 5 6 
#
# 1 0.025834 0.012196 -0.011292 0.003693 0.008354 0.000783
# 2 0.012196 0.065368 -0.028108 0.018452 0.018799 0.010906
# 3 -0.011292 -0.028108 0.021236 -0.006670 -0.011788 -0.006310
# 4 0.003693 0.018452 -0.006670 0.027984 0.005350 0.004835
# 5 0.008354 0.018799 -0.011788 0.005350 0.036425 0.005271
# 6 0.000783 0.010906 -0.006310 0.004835 0.005271 0.021256
#
#
# Mechanical properties :
#
#
# Convention : Reuss Voigt Hill
#
# Bulk Modulus (GPa) = 17.23217 46.48093 31.85655
# Shear Modulus (GPa) = 18.39216 36.14148 27.26682
#
# Velocity S-wave (km/s) = 2.88743 4.04761 3.51571
# Velocity P-wave (km/s) = 4.35061 6.55090 5.56067
#
# Compressibility (1/GPa) = 0.05803098
#
# Stress axis : x y z
#
# Youngs Moduli (GPa) = 38.70822 15.29798 47.09010
#
# Poissons Ratio (x) = -0.18657 0.53172
# Poissons Ratio (y) = -0.47208 1.32361
# Poissons Ratio (z) = 0.43707 0.43000
#
# Static dielectric constant tensor:
#      x y z
#    x 1.822960 0.000910 0.012390 
#    y 0.000910 1.892150 0.020730 
#    z 0.012390 0.020730 1.785420 
# 
# From -- ./inp_files/402909.got.cif
#   From: 2010.05.17/outbox.ucp.g08.bks.cvg/sg2_202_cif.got.tgz:402909.got - 2010.06.11 11:32:03.
