data_PCOD9075896
_publ_section_title
;
Structure prediction by ZEFSAII (Michael W. Deem and Ramdas Pophale) SiO2 
 PCOD9075896
Probable space group: P -1
;
_chemical_formula_sum "Si O2"
_cell_formula_units_Z 15
_cell_length_a 17.142072
_cell_length_b 7.885562
_cell_length_c 5.612125
_cell_angle_alpha 96.323376
_cell_angle_beta 73.007526
_cell_angle_gamma 123.191072
_cell_volume 605.955200
_symmetry_space_group_name_H-M "P -1"
_symmetry_group_IT_number 2
_symmetry_cell_setting 'triclinic'
loop_
_space_group_symop_operation_xyz
x,y,z
-x,-y,-z
loop_
_atom_site_type_symbol
_atom_site_label
_atom_site_fract_x
_atom_site_fract_y
_atom_site_fract_z
Si Si1 0.166030 0.330784 0.230897
Si Si2 0.486657 0.682706 0.836403
Si Si3 0.157885 0.019090 0.489327
Si Si4 0.002418 0.394586 0.229446
Si Si5 0.682890 0.975283 0.920709
Si Si6 0.312264 0.280237 0.759845
Si Si7 0.500000 0.000000 0.500000
Si Si8 0.657797 0.284827 0.711380
O O1 0.112348 0.122151 0.395973
O O2 0.234346 0.521654 0.368712
O O3 0.096038 0.376882 0.157605
O O4 0.243769 0.316409 0.998464
O O5 0.594107 0.763270 0.849698
O O6 0.419492 0.477153 0.718216
O O7 0.502806 0.862796 0.684792
O O8 0.423873 0.673702 0.118550
O O9 0.209999 0.944674 0.256370
O O10 0.250881 0.205677 0.565669
O O11 0.088385 0.839167 0.700883
O O12 0.000000 0.500000 0.500000
O O13 0.000000 0.500000 0.000000
O O14 0.660988 0.141376 0.888353
O O15 0.680989 0.906193 0.179937
O O16 0.384861 0.822215 0.515412
#
# Coordination Sequence:
#
# PCOD9075896 Si02
#       8
#     2   2   2   2   2   2   1   2
#     4  10  24  46  70  99 141 182 235 292 362 433
#     4  10  21  38  57  93 132 182 229 286 347 418
#     4  11  25  43  70  99 138 182 234 292 361 431
#     4  12  30  51  79 111 143 182 240 305 368 433
#     4  10  21  37  61  95 138 178 232 292 342 427
#     4  10  23  40  66  95 135 184 229 282 361 421
#     4  10  18  32  56  88 126 168 230 270 338 398
#     4  10  21  38  63  93 136 180 237 287 354 413
#
# _framework density 24.754304999999999
#
# number of rings (size 3 to 8) (size 9 to 14) (size 15 to 20)
#    0.000    1.600    0.000    4.000    7.467    5.333 
#    4.800    0.000    0.000    0.000    0.000    0.000 
#    0.000    0.000    0.000    0.000    0.000    0.000 
#
# Total GULP energy -83568.826586 kJ/mol
# GULP energy per Si atom -5571.255106 kJ/mol
# Density = 2.469796 g / cm^3
# Si number density = 24.754305 Si / 1000 Ang^3
#
#
#
# Elastic Constant Matrix: (Units=GPa)
#
#
# Indices 1 2 3 4 5 6 
#
# 1 155.7967 50.2108 57.0885 -17.4471 19.6219 1.6809
# 2 50.2108 72.4766 20.4801 -27.2536 -5.5882 0.5443
# 3 57.0885 20.4801 71.0607 -20.6177 16.3969 -11.0968
# 4 -17.4471 -27.2536 -20.6177 34.5877 -4.1860 0.0967
# 5 19.6219 -5.5882 16.3969 -4.1860 39.8370 -14.4595
# 6 1.6809 0.5443 -11.0968 0.0967 -14.4595 37.1993
#
#
#
# Elastic Compliance Matrix: (Units=1/GPa)
#
#
# Indices 1 2 3 4 5 6 
#
# 1 0.012961 -0.009641 -0.009065 -0.007279 -0.006876 -0.005803
# 2 -0.009641 0.028059 0.004018 0.020987 0.011248 0.005541
# 3 -0.009065 0.004018 0.025652 0.013695 -0.001396 0.007425
# 4 -0.007279 0.020987 0.013695 0.051004 0.008958 0.007457
# 5 -0.006876 0.011248 -0.001396 0.008958 0.036647 0.013951
# 6 -0.005803 0.005541 0.007425 0.007457 0.013951 0.034682
#
#
# Mechanical properties :
#
#
# Convention : Reuss Voigt Hill
#
# Bulk Modulus (GPa) = 26.81330 61.65475 44.23403
# Shear Modulus (GPa) = 21.66246 33.76177 27.71212
#
# Velocity S-wave (km/s) = 2.96142 3.69707 3.34950
# Velocity P-wave (km/s) = 4.74854 6.57155 5.73297
#
# Compressibility (1/GPa) = 0.03729493
#
# Stress axis : x y z
#
# Youngs Moduli (GPa) = 77.15305 35.63936 38.98265
#
# Poissons Ratio (x) = 0.34361 0.35340
# Poissons Ratio (y) = 0.74386 -0.15663
# Poissons Ratio (z) = 0.69943 -0.14320
#
# Static dielectric constant tensor:
#      x y z
#    x 1.898110 -0.044210 -0.041340 
#    y -0.044210 2.091540 0.125850 
#    z -0.041340 0.125850 2.057480 
# 
# From -- ./inp_files/106891.got.cif
#   From: 2010.05.17/outbox.cif.g08.bks.cpg/sg2_54_cif.got.tgz:106891.got - 2010.06.03 11:33:40.
