data_PCOD9075103
_publ_section_title
;
Structure prediction by ZEFSAII (Michael W. Deem and Ramdas Pophale) SiO2 
 PCOD9075103
Probable space group: P -1
;
_chemical_formula_sum "Si O2"
_cell_formula_units_Z 14
_cell_length_a 12.000000
_cell_length_b 9.000000
_cell_length_c 18.000000
_cell_angle_alpha 70.000000
_cell_angle_beta 140.000000
_cell_angle_gamma 140.000000
_cell_volume 647.049418
_symmetry_space_group_name_H-M "P -1"
_symmetry_group_IT_number 2
_symmetry_cell_setting 'triclinic'
loop_
_space_group_symop_operation_xyz
x,y,z
-x,-y,-z
loop_
_atom_site_type_symbol
_atom_site_label
_atom_site_fract_x
_atom_site_fract_y
_atom_site_fract_z
Si Si1 0.720934 0.217870 0.646120
Si Si2 0.539444 0.709566 0.820605
Si Si3 0.874531 0.703972 0.061954
Si Si4 0.813794 0.253860 0.309510
Si Si5 0.676482 0.519544 0.644790
Si Si6 0.593137 0.929837 0.114857
Si Si7 0.263406 0.335492 0.595560
O O1 0.598475 0.270504 0.629689
O O2 0.886154 0.190011 0.772540
O O3 0.008149 0.526290 0.703735
O O4 0.500000 0.000000 0.500000
O O5 0.326501 0.703956 0.725096
O O6 0.390543 0.483119 0.717712
O O7 0.630079 0.668428 0.945586
O O8 0.867203 0.038366 0.908037
O O9 0.653529 0.395542 0.972990
O O10 0.075600 0.349335 0.469271
O O11 0.582412 0.965885 0.191633
O O12 0.500000 0.500000 0.500000
O O13 0.553514 0.491981 0.666204
O O14 0.045869 0.832951 0.764693
O O15 0.500000 0.000000 0.000000
O O16 0.000000 0.000000 0.500000
#
# Coordination Sequence:
#
# PCOD9075103 Si02
#       7
#     2   2   2   2   2   2   2
#     4  11  24  44  73 102 135 182 240 296 352 410
#     4  11  28  46  66 106 150 190 236 287 369 432
#     4  11  25  49  67 104 145 193 236 292 364 428
#     4  11  24  45  69 105 140 182 246 296 347 425
#     4  11  24  45  73 107 136 181 242 296 350 424
#     4  11  22  45  73 106 137 179 246 296 358 410
#     4  12  26  46  72 105 146 192 239 289 360 434
#
# _framework density 21.636678
#
# number of rings (size 3 to 8) (size 9 to 14) (size 15 to 20)
#    0.000    0.857    5.714    2.143    4.000    3.429 
#    0.000    0.000    0.000    0.000    0.000    0.000 
#    0.000    0.000    0.000    0.000    0.000    0.000 
#
# Total GULP energy -77975.813408 kJ/mol
# GULP energy per Si atom -5569.700958 kJ/mol
# Density = 2.158743 g / cm^3
# Si number density = 21.636678 Si / 1000 Ang^3
#
#
#
# Elastic Constant Matrix: (Units=GPa)
#
#
# Indices 1 2 3 4 5 6 
#
# 1 136.8722 6.4586 51.5352 2.1713 15.1405 -23.7320
# 2 6.4586 88.5112 39.7798 -7.2305 5.9828 -18.4903
# 3 51.5352 39.7798 161.2859 -18.2146 -0.5386 -16.1843
# 4 2.1713 -7.2305 -18.2146 59.4885 -14.2707 0.6265
# 5 15.1405 5.9828 -0.5386 -14.2707 37.5535 -3.5129
# 6 -23.7320 -18.4903 -16.1843 0.6265 -3.5129 25.3734
#
#
#
# Elastic Compliance Matrix: (Units=1/GPa)
#
#
# Indices 1 2 3 4 5 6 
#
# 1 0.010641 0.002834 -0.003458 -0.002357 -0.004826 0.009202
# 2 0.002834 0.015173 -0.003555 -0.000090 -0.002608 0.011081
# 3 -0.003458 -0.003555 0.008542 0.003091 0.003257 -0.000002
# 4 -0.002357 -0.000090 0.003091 0.019892 0.008606 0.000401
# 5 -0.004826 -0.002608 0.003257 0.008606 0.032300 -0.000078
# 6 0.009202 0.011081 -0.000002 0.000401 -0.000078 0.056071
#
#
# Mechanical properties :
#
#
# Convention : Reuss Voigt Hill
#
# Bulk Modulus (GPa) = 38.46531 64.69073 51.57802
# Shear Modulus (GPa) = 31.32012 43.74279 37.53145
#
# Velocity S-wave (km/s) = 3.80879 4.50121 4.16940
# Velocity P-wave (km/s) = 6.09581 7.54838 6.86065
#
# Compressibility (1/GPa) = 0.02599745
#
# Stress axis : x y z
#
# Youngs Moduli (GPa) = 93.97439 65.90850 117.07446
#
# Poissons Ratio (x) = -0.18676 0.40485
# Poissons Ratio (y) = -0.26629 0.41615
# Poissons Ratio (z) = 0.32496 0.23428
#
# Static dielectric constant tensor:
#      x y z
#    x 1.918940 -0.047500 0.003480 
#    y -0.047500 1.863420 -0.032530 
#    z 0.003480 -0.032530 1.929210 
# 
# From -- ./inp_files/383167.got.cif
#   From: 2010.05.17/outbox.ucp.g08.bks.cvg/sg2_192_cif.got.tgz:383167.got - 2010.06.11 11:32:03.
