data_PCOD9075148
_publ_section_title
;
Structure prediction by ZEFSAII (Michael W. Deem and Ramdas Pophale) SiO2 
 PCOD9075148
Probable space group: P -1
;
_chemical_formula_sum "Si O2"
_cell_formula_units_Z 16
_cell_length_a 18.000000
_cell_length_b 9.000000
_cell_length_c 12.000000
_cell_angle_alpha 120.000000
_cell_angle_beta 50.000000
_cell_angle_gamma 150.000000
_cell_volume 736.400153
_symmetry_space_group_name_H-M "P -1"
_symmetry_group_IT_number 2
_symmetry_cell_setting 'triclinic'
loop_
_space_group_symop_operation_xyz
x,y,z
-x,-y,-z
loop_
_atom_site_type_symbol
_atom_site_label
_atom_site_fract_x
_atom_site_fract_y
_atom_site_fract_z
Si Si1 0.272198 0.958606 0.897767
Si Si2 0.954719 0.802365 0.869397
Si Si3 0.266891 0.290524 0.587997
Si Si4 0.136403 0.336753 0.535975
Si Si5 0.615210 0.493497 0.019184
Si Si6 0.552599 0.783855 0.682507
Si Si7 0.011798 0.517472 0.183143
Si Si8 0.568282 0.187098 0.748295
O O1 0.369383 0.280938 0.927418
O O2 0.390358 0.962071 0.772300
O O3 0.151111 0.787167 0.842382
O O4 0.152108 0.771503 0.051409
O O5 0.922892 0.558170 0.844034
O O6 0.107173 0.021271 0.718250
O O7 0.797016 0.666017 0.913990
O O8 0.000000 0.000000 0.000000
O O9 0.220641 0.375938 0.580045
O O10 0.417443 0.556501 0.628017
O O11 0.317880 0.187017 0.439023
O O12 0.049517 0.397872 0.663062
O O13 0.280753 0.553181 0.383882
O O14 0.000000 0.000000 0.500000
O O15 0.528399 0.337743 0.163036
O O16 0.535169 0.274973 0.912322
O O17 0.609337 0.060409 0.709741
#
# Coordination Sequence:
#
# PCOD9075148 Si02
#       8
#     2   2   2   2   2   2   2   2
#     4  11  23  41  67  99 133 172 226 271 328 394
#     4  12  22  41  69  95 130 170 221 275 327 385
#     4  11  24  43  69  95 130 172 220 273 333 389
#     4  12  27  46  66  95 140 178 217 274 334 397
#     4  12  24  43  66  97 135 176 220 273 331 391
#     4  11  24  43  68  98 130 170 222 277 330 389
#     4  11  24  41  69  99 132 174 226 272 326 395
#     4  12  26  42  66  98 136 177 222 270 334 398
#
# _framework density 21.727318
#
# number of rings (size 3 to 8) (size 9 to 14) (size 15 to 20)
#    0.000    0.500    2.500    6.000    1.750    6.000 
#    0.000    2.500    0.000    0.000    0.000    0.000 
#    0.000    0.000    0.000    0.000    0.000    0.000 
#
# Total GULP energy -89476.430172 kJ/mol
# GULP energy per Si atom -5592.276886 kJ/mol
# Density = 2.167787 g / cm^3
# Si number density = 21.727318 Si / 1000 Ang^3
#
#
#
# Elastic Constant Matrix: (Units=GPa)
#
#
# Indices 1 2 3 4 5 6 
#
# 1 100.7274 9.1632 7.3915 -3.9282 -8.2947 -23.8060
# 2 9.1632 58.1452 16.2611 16.2143 4.2558 -18.3356
# 3 7.3915 16.2611 105.1448 -14.1238 -7.8232 -15.5587
# 4 -3.9282 16.2143 -14.1238 44.5865 -9.3557 -5.5045
# 5 -8.2947 4.2558 -7.8232 -9.3557 42.6242 -4.3541
# 6 -23.8060 -18.3356 -15.5587 -5.5045 -4.3541 42.0995
#
#
#
# Elastic Compliance Matrix: (Units=1/GPa)
#
#
# Indices 1 2 3 4 5 6 
#
# 1 0.012319 -0.001227 0.001337 0.003856 0.004417 0.007887
# 2 -0.001227 0.023905 -0.004501 -0.010547 -0.005139 0.006144
# 3 0.001337 -0.004501 0.012164 0.007248 0.005019 0.004758
# 4 0.003856 -0.010547 0.007248 0.031824 0.010684 0.005532
# 5 0.004417 -0.005139 0.005019 0.010684 0.028762 0.006486
# 6 0.007887 0.006144 0.004758 0.005532 0.006486 0.034042
#
#
# Mechanical properties :
#
#
# Convention : Reuss Voigt Hill
#
# Bulk Modulus (GPa) = 25.24740 36.62766 30.93753
# Shear Modulus (GPa) = 30.30307 41.27549 35.78928
#
# Velocity S-wave (km/s) = 3.73862 4.36329 4.06298
# Velocity P-wave (km/s) = 5.50288 6.50222 6.02331
#
# Compressibility (1/GPa) = 0.03960804
#
# Stress axis : x y z
#
# Youngs Moduli (GPa) = 81.17245 41.83234 82.21023
#
# Poissons Ratio (x) = 0.05132 -0.10995
# Poissons Ratio (y) = 0.09959 0.37001
# Poissons Ratio (z) = -0.10856 0.18828
#
# Static dielectric constant tensor:
#      x y z
#    x 1.844280 0.096230 0.026060 
#    y 0.096230 1.869700 0.035950 
#    z 0.026060 0.035950 1.736960 
# 
# From -- ./inp_files/226158.got.cif
#   From: 2010.05.17/outbox.ucp.g08.bks.cvg/sg2_114_cif.got.tgz:226158.got - 2010.06.11 11:32:03.
