data_PCOD9075480
_publ_section_title
;
Structure prediction by ZEFSAII (Michael W. Deem and Ramdas Pophale) SiO2 
 PCOD9075480
Probable space group: P -1
;
_chemical_formula_sum "Si O2"
_cell_formula_units_Z 12
_cell_length_a 9.048520
_cell_length_b 11.946528
_cell_length_c 13.721006
_cell_angle_alpha 44.444385
_cell_angle_beta 28.837607
_cell_angle_gamma 61.298864
_cell_volume 452.307824
_symmetry_space_group_name_H-M "P -1"
_symmetry_group_IT_number 2
_symmetry_cell_setting 'triclinic'
loop_
_space_group_symop_operation_xyz
x,y,z
-x,-y,-z
loop_
_atom_site_type_symbol
_atom_site_label
_atom_site_fract_x
_atom_site_fract_y
_atom_site_fract_z
Si Si1 0.202820 0.436247 0.567910
Si Si2 0.221204 0.805616 0.691594
Si Si3 0.214461 0.839518 0.887875
Si Si4 0.358473 0.462987 0.253521
Si Si5 0.067392 0.106755 0.536841
Si Si6 0.888252 0.328469 0.370551
O O1 0.443514 0.476906 0.310701
O O2 0.869803 0.437897 0.706775
O O3 0.288405 0.584797 0.509955
O O4 0.090438 0.252988 0.805182
O O5 0.145356 0.736589 0.888299
O O6 0.197962 0.695277 0.677848
O O7 0.616220 0.956270 0.370021
O O8 0.980571 0.909709 0.746387
O O9 0.542479 0.837988 0.752185
O O10 0.122697 0.256560 0.492809
O O11 0.707945 0.546883 0.939931
O O12 0.851793 0.143265 0.554754
#
# Coordination Sequence:
#
# PCOD9075480 Si02
#       6
#     2   2   2   2   2   2
#     4  10  19  32  53  76 100 132 162 204 249 288
#     4   9  19  30  55  73 100 134 160 204 250 289
#     4   9  17  35  50  73  99 136 166 188 255 304
#     4  10  18  32  54  76  99 128 169 204 240 294
#     4   9  16  33  53  73  96 132 168 194 243 297
#     4  11  17  32  55  78  98 123 168 213 240 283
#
# _framework density 26.530605000000001
#
# number of rings (size 3 to 8) (size 9 to 14) (size 15 to 20)
#    1.000    1.333    3.333    1.500    0.000    0.667 
#    0.000    3.333    0.000    7.000    0.000    0.000 
#    0.000    0.000    0.000    0.000    0.000    0.000 
#
# Total GULP energy -66955.501768 kJ/mol
# GULP energy per Si atom -5579.625147 kJ/mol
# Density = 2.647022 g / cm^3
# Si number density = 26.530605 Si / 1000 Ang^3
#
#
#
# Elastic Constant Matrix: (Units=GPa)
#
#
# Indices 1 2 3 4 5 6 
#
# 1 114.5917 24.6676 17.3793 -0.2466 16.1805 12.2848
# 2 24.6676 70.3961 26.3557 14.5666 10.5098 32.2867
# 3 17.3793 26.3557 72.6006 11.7430 26.3041 4.3545
# 4 -0.2466 14.5666 11.7430 28.5952 -0.0597 9.4312
# 5 16.1805 10.5098 26.3041 -0.0597 33.4774 0.8665
# 6 12.2848 32.2867 4.3545 9.4312 0.8665 60.3601
#
#
#
# Elastic Compliance Matrix: (Units=1/GPa)
#
#
# Indices 1 2 3 4 5 6 
#
# 1 0.009996 -0.002932 -0.000260 0.001907 -0.003685 -0.000692
# 2 -0.002932 0.023811 -0.005866 -0.006210 -0.001183 -0.010730
# 3 -0.000260 -0.005866 0.022790 -0.007372 -0.016028 0.002928
# 4 0.001907 -0.006210 -0.007372 0.042261 0.006979 -0.003238
# 5 -0.003685 -0.001183 -0.016028 0.006979 0.044609 0.000808
# 6 -0.000692 -0.010730 0.002928 -0.003238 0.000808 0.022731
#
#
# Mechanical properties :
#
#
# Convention : Reuss Voigt Hill
#
# Bulk Modulus (GPa) = 25.98715 43.82152 34.90433
# Shear Modulus (GPa) = 25.36262 37.09891 31.23076
#
# Velocity S-wave (km/s) = 3.09524 3.74350 3.43470
# Velocity P-wave (km/s) = 4.75294 5.93618 5.37721
#
# Compressibility (1/GPa) = 0.03848056
#
# Stress axis : x y z
#
# Youngs Moduli (GPa) = 100.04028 41.99653 43.87941
#
# Poissons Ratio (x) = 0.12315 0.01142
# Poissons Ratio (y) = 0.29335 0.25739
# Poissons Ratio (z) = 0.02604 0.24634
#
# Static dielectric constant tensor:
#      x y z
#    x 2.121460 -0.036500 -0.002100 
#    y -0.036500 2.189300 -0.051290 
#    z -0.002100 -0.051290 2.053210 
# 
# From -- ./inp_files/154882.got.cif
#   From: 2010.05.17/outbox.cif.g08.bks.cpg/sg2_78_cif.got.tgz:154882.got - 2010.06.03 11:33:40.
