data_PCOD9075630
_publ_section_title
;
Structure prediction by ZEFSAII (Michael W. Deem and Ramdas Pophale) SiO2 
 PCOD9075630
Probable space group: P -1
;
_chemical_formula_sum "Si O2"
_cell_formula_units_Z 16
_cell_length_a 21.000000
_cell_length_b 9.000000
_cell_length_c 6.000000
_cell_angle_alpha 120.000000
_cell_angle_beta 130.000000
_cell_angle_gamma 60.000000
_cell_volume 724.534506
_symmetry_space_group_name_H-M "P -1"
_symmetry_group_IT_number 2
_symmetry_cell_setting 'triclinic'
loop_
_space_group_symop_operation_xyz
x,y,z
-x,-y,-z
loop_
_atom_site_type_symbol
_atom_site_label
_atom_site_fract_x
_atom_site_fract_y
_atom_site_fract_z
Si Si1 0.099244 0.500471 0.696942
Si Si2 0.676782 0.201537 0.346119
Si Si3 0.191704 0.105504 0.399861
Si Si4 0.492568 0.191397 0.735573
Si Si5 0.908367 0.125708 0.299032
Si Si6 0.586592 0.519747 0.595012
Si Si7 0.203761 0.593465 0.419684
Si Si8 0.674090 0.715604 0.266668
O O1 0.142052 0.303652 0.529978
O O2 0.091311 0.694361 0.706527
O O3 0.000000 0.500000 0.500000
O O4 0.152469 0.517521 0.055298
O O5 0.645311 0.313396 0.584656
O O6 0.711204 0.354549 0.425808
O O7 0.759882 0.033456 0.407127
O O8 0.588782 0.179635 0.029411
O O9 0.280321 0.125697 0.504179
O O10 0.137322 0.002974 0.045029
O O11 0.455568 0.364987 0.629209
O O12 0.418063 0.221883 0.775768
O O13 0.500000 0.000000 0.500000
O O14 0.856964 0.228854 0.473372
O O15 0.000000 0.000000 0.500000
O O16 0.500000 0.500000 0.500000
O O17 0.646833 0.637088 0.918495
O O18 0.247712 0.439766 0.574582
#
# Coordination Sequence:
#
# PCOD9075630 Si02
#       8
#     2   2   2   2   2   2   2   2
#     4  12  29  53  79 113 151 188 243 311 376 452
#     4  12  25  46  72 106 146 199 249 300 365 429
#     4  12  28  48  79 111 153 195 248 306 369 447
#     4  12  28  43  67 105 147 200 250 301 360 426
#     4  12  29  52  78 116 148 192 243 303 384 452
#     4  12  24  46  68  99 147 195 251 308 360 417
#     4  12  26  48  79 108 153 195 246 305 369 443
#     4  12  26  46  72 105 151 198 247 303 364 428
#
# _framework density 22.083144000000001
#
# number of rings (size 3 to 8) (size 9 to 14) (size 15 to 20)
#    0.000    0.000    5.000    4.125    8.750    3.000 
#    0.000    0.000    0.000    0.000    0.000    0.000 
#    0.000    0.000    0.000    0.000    0.000    0.000 
#
# Total GULP energy -89088.704160 kJ/mol
# GULP energy per Si atom -5568.044010 kJ/mol
# Density = 2.203288 g / cm^3
# Si number density = 22.083144 Si / 1000 Ang^3
#
#
#
# Elastic Constant Matrix: (Units=GPa)
#
#
# Indices 1 2 3 4 5 6 
#
# 1 77.7242 18.1653 53.9293 12.2506 28.4831 -6.1507
# 2 18.1653 111.5434 60.8209 13.4263 4.5042 -15.3203
# 3 53.9293 60.8209 196.6008 17.2984 38.5806 -8.9289
# 4 12.2506 13.4263 17.2984 46.2247 -0.9326 0.6435
# 5 28.4831 4.5042 38.5806 -0.9326 32.3592 10.5045
# 6 -6.1507 -15.3203 -8.9289 0.6435 10.5045 41.0513
#
#
#
# Elastic Compliance Matrix: (Units=1/GPa)
#
#
# Indices 1 2 3 4 5 6 
#
# 1 0.023720 -0.000415 -0.000903 -0.006418 -0.022905 0.009164
# 2 -0.000415 0.011520 -0.003524 -0.001921 0.001931 0.003007
# 3 -0.000903 -0.003524 0.008779 -0.002273 -0.010261 0.003121
# 4 -0.006418 -0.001921 -0.002273 0.025042 0.011104 -0.005407
# 5 -0.022905 0.001931 -0.010261 0.011104 0.070900 -0.023259
# 6 0.009164 0.003007 0.003121 -0.005407 -0.023259 0.033570
#
#
# Mechanical properties :
#
#
# Convention : Reuss Voigt Hill
#
# Bulk Modulus (GPa) = 29.12249 72.41103 50.76676
# Shear Modulus (GPa) = 25.68598 40.79055 33.23827
#
# Velocity S-wave (km/s) = 3.41420 4.30249 3.88382
# Velocity P-wave (km/s) = 5.36270 7.58573 6.56894
#
# Compressibility (1/GPa) = 0.03433772
#
# Stress axis : x y z
#
# Youngs Moduli (GPa) = 42.15920 86.80493 113.90227
#
# Poissons Ratio (x) = 0.03599 0.10281
# Poissons Ratio (y) = 0.01748 0.40134
# Poissons Ratio (z) = 0.03805 0.30586
#
# Static dielectric constant tensor:
#      x y z
#    x 1.515390 -0.491070 -0.208660 
#    y -0.491070 1.737090 -0.001940 
#    z -0.208660 -0.001940 1.801640 
# 
# From -- ./inp_files/117499.got.cif
#   From: 2010.05.17/outbox.ucp.g08.bks.cvg/sg2_59_cif.got.tgz:117499.got - 2010.06.11 11:32:03.
