data_PCOD9075011
_publ_section_title
;
Structure prediction by ZEFSAII (Michael W. Deem and Ramdas Pophale) SiO2 
 PCOD9075011
Probable space group: P -1
;
_chemical_formula_sum "Si O2"
_cell_formula_units_Z 16
_cell_length_a 12.000000
_cell_length_b 18.000000
_cell_length_c 9.000000
_cell_angle_alpha 60.000000
_cell_angle_beta 130.000000
_cell_angle_gamma 150.000000
_cell_volume 736.400153
_symmetry_space_group_name_H-M "P -1"
_symmetry_group_IT_number 2
_symmetry_cell_setting 'triclinic'
loop_
_space_group_symop_operation_xyz
x,y,z
-x,-y,-z
loop_
_atom_site_type_symbol
_atom_site_label
_atom_site_fract_x
_atom_site_fract_y
_atom_site_fract_z
Si Si1 0.743384 0.359776 0.716899
Si Si2 0.066318 0.956861 0.216445
Si Si3 0.776142 0.206733 0.699875
Si Si4 0.251787 0.326093 0.095185
Si Si5 0.744147 0.347609 0.074021
Si Si6 0.495081 0.915455 0.709692
Si Si7 0.810023 0.866894 0.589123
Si Si8 0.545867 0.626141 0.095934
O O1 0.753547 0.284932 0.688668
O O2 0.477596 0.279841 0.566802
O O3 0.990285 0.537757 0.727764
O O4 0.777669 0.347319 0.929059
O O5 0.816941 0.787420 0.228578
O O6 0.250051 0.980519 0.268599
O O7 0.201875 0.069911 0.352802
O O8 0.000000 0.000000 0.000000
O O9 0.725912 0.192262 0.495396
O O10 0.548398 0.029978 0.723823
O O11 0.040787 0.288749 0.885344
O O12 0.122385 0.191713 0.221366
O O13 0.446581 0.483296 0.189437
O O14 0.399186 0.351158 0.059038
O O15 0.538438 0.180519 0.117527
O O16 0.649511 0.396287 0.992253
O O17 0.000000 0.000000 0.500000
#
# Coordination Sequence:
#
# PCOD9075011 Si02
#       8
#     2   2   2   2   2   2   2   2
#     4  11  26  45  65  99 138 177 231 264 346 418
#     4  12  20  40  68 100 132 174 230 278 327 400
#     4  11  23  44  66 101 134 168 227 286 334 400
#     4  11  24  43  68 104 136 173 226 289 340 397
#     4  11  24  45  68  96 139 186 219 282 336 406
#     4  11  23  40  69 100 133 174 228 284 334 396
#     4  12  26  46  69 100 134 184 228 274 340 419
#     4  11  22  39  72  97 135 179 223 279 344 386
#
# _framework density 21.727318
#
# number of rings (size 3 to 8) (size 9 to 14) (size 15 to 20)
#    0.000    0.750    6.250    0.750    1.750    3.000 
#    0.000    2.500    0.000    0.000    0.000    0.000 
#    0.000    0.000    0.000    0.000    0.000    0.000 
#
# Total GULP energy -89278.136681 kJ/mol
# GULP energy per Si atom -5579.883543 kJ/mol
# Density = 2.167787 g / cm^3
# Si number density = 21.727318 Si / 1000 Ang^3
#
#
#
# Elastic Constant Matrix: (Units=GPa)
#
#
# Indices 1 2 3 4 5 6 
#
# 1 -8.5257 5.7837 -12.5582 -6.6500 -10.4674 10.8325
# 2 5.7837 85.2177 10.4916 2.3374 -3.1926 0.1904
# 3 -12.5582 10.4916 30.6909 14.2981 4.1917 6.6495
# 4 -6.6500 2.3374 14.2981 37.0523 2.9040 5.0270
# 5 -10.4674 -3.1926 4.1917 2.9040 19.6928 11.6473
# 6 10.8325 0.1904 6.6495 5.0270 11.6473 33.4229
#
#
#
# Elastic Compliance Matrix: (Units=1/GPa)
#
#
# Indices 1 2 3 4 5 6 
#
# 1 -0.031672 0.002952 -0.014695 -0.001191 -0.026387 0.022546
# 2 0.002952 0.012175 -0.003699 0.001077 0.005592 -0.002401
# 3 -0.014695 -0.003699 0.036295 -0.015864 -0.017341 0.005992
# 4 -0.001191 0.001077 -0.015864 0.033067 -0.001395 -0.000951
# 5 -0.026387 0.005592 -0.017341 -0.001395 0.043272 -0.002899
# 6 0.022546 -0.002401 0.005992 -0.000951 -0.002899 0.022587
#
#
# Mechanical properties :
#
#
# Convention : Reuss Voigt Hill
#
# Bulk Modulus (GPa) = -70.99894 12.75747 -29.12074
# Shear Modulus (GPa) = 35.23264 24.94468 30.08866
#
# Velocity S-wave (km/s) = 4.03126 3.39201 3.72537
# Velocity P-wave (km/s) = 3.32869 4.60709 2.25224
#
# Compressibility (1/GPa) = -0.01408472
#
# Stress axis : x y z
#
# Youngs Moduli (GPa) = -31.57394 82.13558 27.55184
#
# Poissons Ratio (x) = -0.24250 0.40487
# Poissons Ratio (y) = 0.09322 0.10192
# Poissons Ratio (z) = -0.46398 0.30382
#
# Static dielectric constant tensor:
#      x y z
#    x 1.760050 0.019710 0.006260 
#    y 0.019710 1.838760 0.029260 
#    z 0.006260 0.029260 1.866000 
# 
# From -- ./inp_files/279253.got.cif
#   From: 2010.05.17/outbox.ucp.g08.bks.cvg/sg2_140_cif.got.tgz:279253.got - 2010.06.11 11:32:03.
