data_PCOD9075391
_publ_section_title
;
Structure prediction by ZEFSAII (Michael W. Deem and Ramdas Pophale) SiO2 
 PCOD9075391
Probable space group: P -1
;
_chemical_formula_sum "Si O2"
_cell_formula_units_Z 16
_cell_length_a 9.000000
_cell_length_b 12.000000
_cell_length_c 30.000000
_cell_angle_alpha 30.000000
_cell_angle_beta 150.000000
_cell_angle_gamma 130.000000
_cell_volume 731.734496
_symmetry_space_group_name_H-M "P -1"
_symmetry_group_IT_number 2
_symmetry_cell_setting 'triclinic'
loop_
_space_group_symop_operation_xyz
x,y,z
-x,-y,-z
loop_
_atom_site_type_symbol
_atom_site_label
_atom_site_fract_x
_atom_site_fract_y
_atom_site_fract_z
Si Si1 0.367872 0.227785 0.421582
Si Si2 0.644818 0.997509 0.410028
Si Si3 0.188165 0.523652 0.084535
Si Si4 0.599245 0.247743 0.639445
Si Si5 0.299992 0.482133 0.892106
Si Si6 0.389022 0.358894 0.648286
Si Si7 0.327980 0.208264 0.076592
Si Si8 0.636927 0.119280 0.032005
O O1 0.483999 0.444966 0.367637
O O2 0.981731 0.353420 0.270559
O O3 0.500000 0.000000 0.500000
O O4 0.421364 0.138658 0.517519
O O5 0.355101 0.272483 0.240820
O O6 0.596872 0.885902 0.389625
O O7 0.000000 0.000000 0.500000
O O8 0.449229 0.613792 0.104328
O O9 0.000000 0.500000 0.000000
O O10 0.947190 0.748817 0.973414
O O11 0.500000 0.500000 0.500000
O O12 0.504939 0.309887 0.644371
O O13 0.983895 0.067933 0.798253
O O14 0.461123 0.659229 0.891240
O O15 0.160757 0.391452 0.929192
O O16 0.514736 0.219586 0.015158
O O17 0.000000 0.500000 0.500000
O O18 0.502797 0.078999 0.793186
O O19 0.500000 0.000000 0.000000
#
# Coordination Sequence:
#
# PCOD9075391 Si02
#       8
#     2   2   2   2   2   2   2   2
#     4  12  27  48  67 105 150 185 236 295 354 428
#     4  12  27  44  75 107 141 189 237 289 366 424
#     4  12  22  45  72 100 138 182 236 290 343 419
#     4  12  26  48  71 104 145 183 236 297 354 427
#     4  11  25  45  73 101 141 184 237 294 356 425
#     4  12  27  46  72 100 142 189 236 292 356 420
#     4  11  24  46  72 101 135 188 239 290 358 415
#     4  12  26  45  72 103 142 183 234 293 354 418
#
# _framework density 21.865853999999999
#
# number of rings (size 3 to 8) (size 9 to 14) (size 15 to 20)
#    0.000    0.250    5.000    3.000    7.000    2.500 
#    2.250    0.000    0.000    0.000    0.000    0.000 
#    0.000    0.000    0.000    0.000    0.000    0.000 
#
# Total GULP energy -89187.507904 kJ/mol
# GULP energy per Si atom -5574.219244 kJ/mol
# Density = 2.181609 g / cm^3
# Si number density = 21.865854 Si / 1000 Ang^3
#
#
#
# Elastic Constant Matrix: (Units=GPa)
#
#
# Indices 1 2 3 4 5 6 
#
# 1 60.9546 10.9657 28.8908 -16.6507 7.6536 -5.0137
# 2 10.9657 152.8812 34.0561 -11.0343 6.8717 -13.5121
# 3 28.8908 34.0561 130.5809 -16.4280 4.1676 -1.7468
# 4 -16.6507 -11.0343 -16.4280 30.7522 -5.9397 4.9809
# 5 7.6536 6.8717 4.1676 -5.9397 42.8300 -9.6235
# 6 -5.0137 -13.5121 -1.7468 4.9809 -9.6235 20.4986
#
#
#
# Elastic Compliance Matrix: (Units=1/GPa)
#
#
# Indices 1 2 3 4 5 6 
#
# 1 0.020803 0.000164 -0.003453 0.008826 -0.001749 0.001936
# 2 0.000164 0.007400 -0.001773 0.001083 0.000132 0.004566
# 3 -0.003453 -0.001773 0.009201 0.002710 -0.000047 -0.001910
# 4 0.008826 0.001083 0.002710 0.040498 0.002334 -0.005641
# 5 -0.001749 0.000132 -0.000047 0.002334 0.026565 0.011560
# 6 0.001936 0.004566 -0.001910 -0.005641 0.011560 0.058902
#
#
# Mechanical properties :
#
#
# Convention : Reuss Voigt Hill
#
# Bulk Modulus (GPa) = 36.65779 54.69352 45.67566
# Shear Modulus (GPa) = 27.38423 36.84977 32.11700
#
# Velocity S-wave (km/s) = 3.54273 4.10965 3.83668
# Velocity P-wave (km/s) = 5.79101 6.89830 6.36876
#
# Compressibility (1/GPa) = 0.02727933
#
# Stress axis : x y z
#
# Youngs Moduli (GPa) = 48.07054 135.13503 108.67916
#
# Poissons Ratio (x) = -0.02215 0.37529
# Poissons Ratio (y) = -0.00788 0.19270
# Poissons Ratio (z) = 0.16600 0.23961
#
# Static dielectric constant tensor:
#      x y z
#    x 1.538950 -0.167670 0.245340 
#    y -0.167670 1.803180 0.182450 
#    z 0.245340 0.182450 1.529900 
# 
# From -- ./inp_files/562081.got.cif
#   From: 2010.05.17/outbox.ucp.g08.bks.cvg/sg2_282_cif.got.tgz:562081.got - 2010.06.11 11:32:03.
