data_PCOD9075399
_publ_section_title
;
Structure prediction by ZEFSAII (Michael W. Deem and Ramdas Pophale) SiO2 
 PCOD9075399
Probable space group: P -1
;
_chemical_formula_sum "Si O2"
_cell_formula_units_Z 16
_cell_length_a 9.000000
_cell_length_b 12.000000
_cell_length_c 18.000000
_cell_angle_alpha 140.000000
_cell_angle_beta 100.000000
_cell_angle_gamma 50.000000
_cell_volume 729.599496
_symmetry_space_group_name_H-M "P -1"
_symmetry_group_IT_number 2
_symmetry_cell_setting 'triclinic'
loop_
_space_group_symop_operation_xyz
x,y,z
-x,-y,-z
loop_
_atom_site_type_symbol
_atom_site_label
_atom_site_fract_x
_atom_site_fract_y
_atom_site_fract_z
Si Si1 0.568961 0.075115 0.443766
Si Si2 0.179255 0.504150 0.215515
Si Si3 0.443458 0.124137 0.289760
Si Si4 0.638977 0.271874 0.675338
Si Si5 0.882054 0.185407 0.010365
Si Si6 0.338415 0.829069 0.142209
Si Si7 0.114465 0.222262 0.467907
Si Si8 0.669321 0.979021 0.091560
O O1 0.514461 0.133810 0.381139
O O2 0.535285 0.281273 0.594800
O O3 0.345774 0.136979 0.472139
O O4 0.871580 0.754172 0.320043
O O5 0.252097 0.634918 0.269918
O O6 0.389284 0.271079 0.179759
O O7 0.267490 0.280138 0.049118
O O8 0.147164 0.437193 0.400972
O O9 0.483537 0.877060 0.162453
O O10 0.625911 0.049038 0.209634
O O11 0.399345 0.484286 0.820779
O O12 0.877895 0.931637 0.547150
O O13 0.840642 0.068877 0.888244
O O14 0.091615 0.130460 0.972918
O O15 0.000000 0.000000 0.000000
O O16 0.187547 0.040079 0.308682
O O17 0.500000 0.500000 0.000000
#
# Coordination Sequence:
#
# PCOD9075399 Si02
#       8
#     2   2   2   2   2   2   2   2
#     4  11  25  45  72 105 144 187 241 289 365 423
#     4  11  25  44  69 106 143 185 239 300 355 426
#     4  11  27  47  72 107 150 192 234 301 362 429
#     4  12  24  45  72 107 143 189 243 298 352 434
#     4  12  26  45  77 108 139 186 247 301 356 429
#     4  11  24  46  73 108 145 186 246 293 358 428
#     4  11  25  46  74 105 146 194 236 296 360 430
#     4  11  26  46  70 104 146 190 237 295 372 418
#
# _framework density 21.929839999999999
#
# number of rings (size 3 to 8) (size 9 to 14) (size 15 to 20)
#    0.000    0.750    2.500    4.500    7.000    1.500 
#    0.000    1.875    0.000    0.000    0.000    0.000 
#    0.000    0.000    0.000    0.000    0.000    0.000 
#
# Total GULP energy -89225.726684 kJ/mol
# GULP energy per Si atom -5576.607918 kJ/mol
# Density = 2.187993 g / cm^3
# Si number density = 21.929840 Si / 1000 Ang^3
#
#
#
# Elastic Constant Matrix: (Units=GPa)
#
#
# Indices 1 2 3 4 5 6 
#
# 1 125.6514 51.1343 70.7094 -15.9157 14.1515 -10.9584
# 2 51.1343 97.5801 41.9302 -16.1559 7.1826 -10.4391
# 3 70.7094 41.9302 95.1973 3.4001 1.9347 1.5874
# 4 -15.9157 -16.1559 3.4001 49.7468 -9.1061 5.1694
# 5 14.1515 7.1826 1.9347 -9.1061 38.8773 -0.7634
# 6 -10.9584 -10.4391 1.5874 5.1694 -0.7634 43.4485
#
#
#
# Elastic Compliance Matrix: (Units=1/GPa)
#
#
# Indices 1 2 3 4 5 6 
#
# 1 0.016682 -0.002465 -0.011433 0.004228 -0.003990 0.003460
# 2 -0.002465 0.014539 -0.004742 0.003881 -0.000593 0.002572
# 3 -0.011433 -0.004742 0.021307 -0.005765 0.002547 -0.004071
# 4 0.004228 0.003881 -0.005765 0.023826 0.003601 -0.000562
# 5 -0.003990 -0.000593 0.002547 0.003601 0.027977 -0.001179
# 6 0.003460 0.002572 -0.004071 -0.000562 -0.001179 0.024701
#
#
# Mechanical properties :
#
#
# Convention : Reuss Voigt Hill
#
# Bulk Modulus (GPa) = 65.58271 71.77517 68.67894
# Shear Modulus (GPa) = 29.17227 36.72485 32.94856
#
# Velocity S-wave (km/s) = 3.65122 4.09669 3.88035
# Velocity P-wave (km/s) = 6.90984 7.42817 7.17369
#
# Compressibility (1/GPa) = 0.01524792
#
# Stress axis : x y z
#
# Youngs Moduli (GPa) = 59.94464 68.78048 46.93308
#
# Poissons Ratio (x) = 0.16957 0.53657
# Poissons Ratio (y) = 0.14779 0.22256
# Poissons Ratio (z) = 0.68532 0.32616
#
# Static dielectric constant tensor:
#      x y z
#    x 1.784510 0.077130 -0.051670 
#    y 0.077130 1.882210 -0.003060 
#    z -0.051670 -0.003060 1.852320 
# 
# From -- ./inp_files/560040.got.cif
#   From: 2010.05.17/outbox.ucp.g08.bks.cvg/sg2_281_cif.got.tgz:560040.got - 2010.06.11 11:32:03.
