data_PCOD9075339
_publ_section_title
;
Structure prediction by ZEFSAII (Michael W. Deem and Ramdas Pophale) SiO2 
 PCOD9075339
Probable space group: P -1
;
_chemical_formula_sum "Si O2"
_cell_formula_units_Z 12
_cell_length_a 12.000000
_cell_length_b 9.000000
_cell_length_c 12.000000
_cell_angle_alpha 120.000000
_cell_angle_beta 40.000000
_cell_angle_gamma 140.000000
_cell_volume 523.519695
_symmetry_space_group_name_H-M "P -1"
_symmetry_group_IT_number 2
_symmetry_cell_setting 'triclinic'
loop_
_space_group_symop_operation_xyz
x,y,z
-x,-y,-z
loop_
_atom_site_type_symbol
_atom_site_label
_atom_site_fract_x
_atom_site_fract_y
_atom_site_fract_z
Si Si1 0.192337 0.275161 0.576337
Si Si2 0.564625 0.488168 0.765485
Si Si3 0.305146 0.958495 0.712623
Si Si4 0.707063 0.079474 0.793854
Si Si5 0.537220 0.239923 0.341453
Si Si6 0.198048 0.471819 0.174985
O O1 0.314295 0.389202 0.402081
O O2 0.289452 0.178434 0.538219
O O3 0.268937 0.488096 0.673145
O O4 0.913645 0.106453 0.701725
O O5 0.747136 0.549388 0.747152
O O6 0.387685 0.206118 0.771318
O O7 0.409369 0.534108 0.959347
O O8 0.345092 0.859034 0.748721
O O9 0.049614 0.766002 0.777065
O O10 0.500000 0.000000 0.500000
O O11 0.810215 0.325223 0.751114
O O12 0.554768 0.860890 0.746553
O O13 0.500000 0.000000 0.000000
#
# Coordination Sequence:
#
# PCOD9075339 Si02
#       6
#     2   2   2   2   2   2
#     4  11  25  46  69  99 132 176 223 275 328 393
#     4  11  24  45  70  98 136 174 224 271 331 391
#     4  12  23  44  69 101 131 176 221 272 334 393
#     4  12  25  45  67 100 135 175 223 270 336 394
#     4  11  24  44  67  98 133 173 223 269 331 390
#     4  11  25  43  68 101 136 175 219 278 325 393
#
# _framework density 22.921773999999999
#
# number of rings (size 3 to 8) (size 9 to 14) (size 15 to 20)
#    0.000    0.667    5.000    2.000    2.333    2.000 
#    9.000    0.000    0.000    0.000    0.000    0.000 
#    0.000    0.000    0.000    0.000    0.000    0.000 
#
# Total GULP energy -66914.530604 kJ/mol
# GULP energy per Si atom -5576.210884 kJ/mol
# Density = 2.286960 g / cm^3
# Si number density = 22.921774 Si / 1000 Ang^3
#
#
#
# Elastic Constant Matrix: (Units=GPa)
#
#
# Indices 1 2 3 4 5 6 
#
# 1 114.3991 84.2630 -19.2621 -17.9823 -46.5889 42.8391
# 2 84.2630 45.2821 64.5430 16.1652 54.6017 12.0368
# 3 -19.2621 64.5430 23.8391 -3.8418 -36.8282 22.5045
# 4 -17.9823 16.1652 -3.8418 35.7186 6.0965 -9.0119
# 5 -46.5889 54.6017 -36.8282 6.0965 -19.3535 13.2695
# 6 42.8391 12.0368 22.5045 -9.0119 13.2695 56.9379
#
#
#
# Elastic Compliance Matrix: (Units=1/GPa)
#
#
# Indices 1 2 3 4 5 6 
#
# 1 0.006242 0.000501 -0.003916 0.003195 -0.006071 -0.001334
# 2 0.000501 0.008364 0.001764 -0.007129 0.012129 -0.006797
# 3 -0.003916 0.001764 0.014438 0.000961 -0.012770 -0.000005
# 4 0.003195 -0.007129 0.000961 0.037024 -0.012783 0.007563
# 5 -0.006071 0.012129 -0.012770 -0.012783 0.018007 0.000831
# 6 -0.001334 -0.006797 -0.000005 0.007563 0.000831 0.021009
#
#
# Mechanical properties :
#
#
# Convention : Reuss Voigt Hill
#
# Bulk Modulus (GPa) = 38.84671 49.17867 44.01269
# Shear Modulus (GPa) = 42.74683 18.25904 30.50294
#
# Velocity S-wave (km/s) = 4.32313 2.82544 3.65189
# Velocity P-wave (km/s) = 6.47330 5.66972 6.08479
#
# Compressibility (1/GPa) = 0.02574220
#
# Stress axis : x y z
#
# Youngs Moduli (GPa) = 160.19237 119.56020 69.26110
#
# Poissons Ratio (x) = -0.05985 0.27124
# Poissons Ratio (y) = -0.08019 -0.12221
# Poissons Ratio (z) = 0.62735 -0.21096
#
# Static dielectric constant tensor:
#      x y z
#    x 1.722050 0.032500 0.048250 
#    y 0.032500 1.812420 -0.077030 
#    z 0.048250 -0.077030 1.808130 
# 
# From -- ./inp_files/173840.got.cif
#   From: 2010.05.17/outbox.ucp.g08.bks.cvg/sg2_87_cif.got.tgz:173840.got - 2010.06.11 11:32:03.
