data_PCOD9075557
_publ_section_title
;
Structure prediction by ZEFSAII (Michael W. Deem and Ramdas Pophale) SiO2 
 PCOD9075557
Probable space group: P -1
;
_chemical_formula_sum "Si O2"
_cell_formula_units_Z 16
_cell_length_a 21.000000
_cell_length_b 9.000000
_cell_length_c 9.000000
_cell_angle_alpha 60.000000
_cell_angle_beta 150.000000
_cell_angle_gamma 120.000000
_cell_volume 727.687525
_symmetry_space_group_name_H-M "P -1"
_symmetry_group_IT_number 2
_symmetry_cell_setting 'triclinic'
loop_
_space_group_symop_operation_xyz
x,y,z
-x,-y,-z
loop_
_atom_site_type_symbol
_atom_site_label
_atom_site_fract_x
_atom_site_fract_y
_atom_site_fract_z
Si Si1 0.249937 0.802574 0.664532
Si Si2 0.467829 0.728165 0.635480
Si Si3 0.133165 0.118100 0.743193
Si Si4 0.510823 0.827105 0.332684
Si Si5 0.723615 0.850172 0.279529
Si Si6 0.342281 0.394159 0.449233
Si Si7 0.141369 0.459997 0.782382
Si Si8 0.726389 0.130843 0.646984
O O1 0.201229 0.611862 0.718740
O O2 0.204233 0.820124 0.393597
O O3 0.223568 0.956786 0.646315
O O4 0.401633 0.815029 0.995009
O O5 0.469508 0.809603 0.431424
O O6 0.461855 0.526246 0.690331
O O7 0.333141 0.727073 0.450530
O O8 0.586140 0.816737 0.930439
O O9 0.186205 0.188190 0.654956
O O10 0.132281 0.274743 0.777101
O O11 0.000000 0.000000 0.500000
O O12 0.213360 0.985900 0.054049
O O13 0.599963 0.687508 0.537808
O O14 0.600133 0.006741 0.399118
O O15 0.708059 0.735039 0.454625
O O16 0.224133 0.471143 0.096125
O O17 0.000000 0.500000 0.500000
#
# Coordination Sequence:
#
# PCOD9075557 Si02
#       8
#     2   2   2   2   2   2   2   2
#     4  12  25  43  73 100 139 181 218 275 338 408
#     4  12  24  38  72 107 141 175 219 277 334 404
#     4  12  28  48  72  97 132 178 231 283 332 394
#     4  12  21  43  68 104 139 180 214 271 342 409
#     4  12  24  45  69 103 140 178 220 275 341 398
#     4  12  26  43  69 102 142 178 223 275 336 406
#     4  12  28  49  70  97 132 180 233 279 332 396
#     4  12  24  45  70 102 140 176 225 270 342 404
#
# _framework density 21.987459999999999
#
# number of rings (size 3 to 8) (size 9 to 14) (size 15 to 20)
#    0.000    0.000    6.250    3.750    5.250    1.000 
#    0.000    3.750    0.000    0.000    0.000    0.000 
#    0.000    0.000    0.000    0.000    0.000    0.000 
#
# Total GULP energy -89219.476706 kJ/mol
# GULP energy per Si atom -5576.217294 kJ/mol
# Density = 2.193742 g / cm^3
# Si number density = 21.987460 Si / 1000 Ang^3
#
#
#
# Elastic Constant Matrix: (Units=GPa)
#
#
# Indices 1 2 3 4 5 6 
#
# 1 75.8574 3.3107 46.1537 0.6643 -33.1404 -15.7837
# 2 3.3107 58.6458 -8.5418 13.8966 -9.1516 -2.7425
# 3 46.1537 -8.5418 -23.0504 2.1034 -6.5107 4.1606
# 4 0.6643 13.8966 2.1034 20.8721 3.2299 -4.6876
# 5 -33.1404 -9.1516 -6.5107 3.2299 33.9881 -6.9148
# 6 -15.7837 -2.7425 4.1606 -4.6876 -6.9148 33.4588
#
#
#
# Elastic Compliance Matrix: (Units=1/GPa)
#
#
# Indices 1 2 3 4 5 6 
#
# 1 0.012519 0.007229 0.017352 -0.008388 0.019748 0.007246
# 2 0.007229 0.023666 0.000621 -0.017188 0.016447 0.006264
# 3 0.017352 0.000621 -0.011384 0.000460 0.017577 0.013349
# 4 -0.008388 -0.017188 0.000460 0.062351 -0.018759 -0.000565
# 5 0.019748 0.016447 0.017577 -0.018759 0.062055 0.018675
# 6 0.007246 0.006264 0.013349 -0.000565 0.018675 0.035940
#
#
# Mechanical properties :
#
#
# Convention : Reuss Voigt Hill
#
# Bulk Modulus (GPa) = 13.29726 21.47755 17.38740
# Shear Modulus (GPa) = 31.28662 22.36582 26.82622
#
# Velocity S-wave (km/s) = 3.77627 3.19283 3.49674
# Velocity P-wave (km/s) = 5.00743 4.83544 4.92219
#
# Compressibility (1/GPa) = 0.07520349
#
# Stress axis : x y z
#
# Youngs Moduli (GPa) = 79.88141 42.25441 -87.84619
#
# Poissons Ratio (x) = -0.30545 1.52427
# Poissons Ratio (y) = -0.57745 0.05453
# Poissons Ratio (z) = -1.38607 -0.02623
#
# Static dielectric constant tensor:
#      x y z
#    x 1.895650 -0.042590 0.043590 
#    y -0.042590 1.847780 -0.061000 
#    z 0.043590 -0.061000 1.808710 
# 
# From -- ./inp_files/208146.got.cif
#   From: 2010.05.17/outbox.ucp.g08.bks.cvg/sg2_105_cif.got.tgz:208146.got - 2010.06.11 11:32:03.
