data_PCOD9075059
_publ_section_title
;
Structure prediction by ZEFSAII (Michael W. Deem and Ramdas Pophale) SiO2 
 PCOD9075059
Probable space group: P -1
;
_chemical_formula_sum "Si O2"
_cell_formula_units_Z 16
_cell_length_a 15.000000
_cell_length_b 9.000000
_cell_length_c 15.000000
_cell_angle_alpha 140.000000
_cell_angle_beta 40.000000
_cell_angle_gamma 140.000000
_cell_volume 753.872439
_symmetry_space_group_name_H-M "P -1"
_symmetry_group_IT_number 2
_symmetry_cell_setting 'triclinic'
loop_
_space_group_symop_operation_xyz
x,y,z
-x,-y,-z
loop_
_atom_site_type_symbol
_atom_site_label
_atom_site_fract_x
_atom_site_fract_y
_atom_site_fract_z
Si Si1 0.200008 0.935224 0.270841
Si Si2 0.845819 0.050986 0.161788
Si Si3 0.823894 0.373962 0.042360
Si Si4 0.347043 0.121142 0.943542
Si Si5 0.322276 0.848644 0.310293
Si Si6 0.196773 0.099205 0.673338
Si Si7 0.875703 0.591334 0.453498
Si Si8 0.853870 0.657704 0.703510
O O1 0.323950 0.936765 0.247948
O O2 0.040594 0.783666 0.376616
O O3 0.217220 0.228011 0.390262
O O4 0.192316 0.774453 0.110636
O O5 0.850393 0.338262 0.297597
O O6 0.736204 0.894387 0.093677
O O7 0.782428 0.960054 0.267398
O O8 0.000000 0.000000 0.000000
O O9 0.777506 0.607988 0.200198
O O10 0.721919 0.160080 0.091289
O O11 0.000000 0.500000 0.000000
O O12 0.524173 0.195457 0.820232
O O13 0.284189 0.263920 0.129629
O O14 0.178234 0.570188 0.306911
O O15 0.294196 0.030756 0.490648
O O16 0.015383 0.910965 0.704912
O O17 0.858510 0.535315 0.547376
#
# Coordination Sequence:
#
# PCOD9075059 Si02
#       8
#     2   2   2   2   2   2   2   2
#     4  11  24  41  71 104 137 181 231 289 345 406
#     4  12  24  43  71 102 134 182 237 289 344 408
#     4  12  24  46  71 103 140 180 240 287 338 411
#     4  12  28  46  69 102 146 186 224 291 356 409
#     4  12  28  46  67 106 147 182 227 287 357 415
#     4  12  24  43  75 101 135 184 236 288 342 412
#     4  11  22  42  72 102 131 178 243 289 328 408
#     4  12  22  48  71 102 138 184 235 287 336 419
#
# _framework density 21.223749999999999
#
# number of rings (size 3 to 8) (size 9 to 14) (size 15 to 20)
#    0.000    0.250    6.250    3.000    5.250    1.500 
#    0.000    0.000    0.000    0.000    0.000    0.000 
#    0.000    0.000    0.000    0.000    0.000    0.000 
#
# Total GULP energy -89101.514753 kJ/mol
# GULP energy per Si atom -5568.844672 kJ/mol
# Density = 2.117544 g / cm^3
# Si number density = 21.223750 Si / 1000 Ang^3
#
#
#
# Elastic Constant Matrix: (Units=GPa)
#
#
# Indices 1 2 3 4 5 6 
#
# 1 85.8174 3.7531 34.8476 -13.4931 6.1591 4.7937
# 2 3.7531 68.4187 11.8117 7.8683 -8.5816 -10.9607
# 3 34.8476 11.8117 184.3533 2.1540 6.1469 12.7990
# 4 -13.4931 7.8683 2.1540 43.1847 -5.9548 -6.3191
# 5 6.1591 -8.5816 6.1469 -5.9548 45.9289 -2.0021
# 6 4.7937 -10.9607 12.7990 -6.3191 -2.0021 25.3455
#
#
#
# Elastic Compliance Matrix: (Units=1/GPa)
#
#
# Indices 1 2 3 4 5 6 
#
# 1 0.013487 -0.001088 -0.002433 0.004251 -0.001171 -0.000825
# 2 -0.001088 0.016899 -0.001547 -0.001642 0.003654 0.008175
# 3 -0.002433 -0.001547 0.006309 -0.001520 -0.001173 -0.003866
# 4 0.004251 -0.001642 -0.001520 0.026150 0.002979 0.006009
# 5 -0.001171 0.003654 -0.001173 0.002979 0.023373 0.004983
# 6 -0.000825 0.008175 -0.003866 0.006009 0.004983 0.046990
#
#
# Mechanical properties :
#
#
# Convention : Reuss Voigt Hill
#
# Bulk Modulus (GPa) = 37.65249 48.82381 43.23815
# Shear Modulus (GPa) = 32.85222 42.10361 37.47792
#
# Velocity S-wave (km/s) = 3.93860 4.45882 4.20676
# Velocity P-wave (km/s) = 6.20183 7.04005 6.63419
#
# Compressibility (1/GPa) = 0.02655867
#
# Stress axis : x y z
#
# Youngs Moduli (GPa) = 74.14688 59.17373 158.51093
#
# Poissons Ratio (x) = 0.06437 0.38566
# Poissons Ratio (y) = 0.08065 0.24527
# Poissons Ratio (z) = 0.18040 0.09156
#
# Static dielectric constant tensor:
#      x y z
#    x 1.900520 -0.030550 -0.076370 
#    y -0.030550 1.847100 0.046580 
#    z -0.076370 0.046580 1.746940 
# 
# From -- ./inp_files/308519.got.cif
#   From: 2010.05.17/outbox.ucp.g08.bks.cvg/sg2_155_cif.got.tgz:308519.got - 2010.06.11 11:32:03.
