data_PCOD9075362
_publ_section_title
;
Structure prediction by ZEFSAII (Michael W. Deem and Ramdas Pophale) SiO2 
 PCOD9075362
Probable space group: P -1
;
_chemical_formula_sum "Si O2"
_cell_formula_units_Z 16
_cell_length_a 12.000000
_cell_length_b 15.000000
_cell_length_c 9.000000
_cell_angle_alpha 110.000000
_cell_angle_beta 60.000000
_cell_angle_gamma 60.000000
_cell_volume 745.925389
_symmetry_space_group_name_H-M "P -1"
_symmetry_group_IT_number 2
_symmetry_cell_setting 'triclinic'
loop_
_space_group_symop_operation_xyz
x,y,z
-x,-y,-z
loop_
_atom_site_type_symbol
_atom_site_label
_atom_site_fract_x
_atom_site_fract_y
_atom_site_fract_z
Si Si1 0.665966 0.174755 0.774298
Si Si2 0.104680 0.800411 0.175679
Si Si3 0.534322 0.586189 0.236364
Si Si4 0.250881 0.350166 0.820579
Si Si5 0.921715 0.156833 0.132245
Si Si6 0.305867 0.315499 0.322812
Si Si7 0.864582 0.675842 0.822411
Si Si8 0.393026 0.970565 0.787574
O O1 0.788502 0.170837 0.806150
O O2 0.569123 0.302293 0.781070
O O3 0.470826 0.248654 0.045503
O O4 0.836914 0.986290 0.497610
O O5 0.261143 0.616570 0.026237
O O6 0.119163 0.790316 0.981805
O O7 0.641607 0.612560 0.261631
O O8 0.311286 0.685229 0.530414
O O9 0.431718 0.162138 0.536505
O O10 0.220834 0.348881 0.014031
O O11 0.000000 0.500000 0.000000
O O12 0.000000 0.000000 0.000000
O O13 0.146242 0.071681 0.995610
O O14 0.142987 0.341163 0.358421
O O15 0.459735 0.166329 0.254280
O O16 0.136783 0.505988 0.586117
O O17 0.691497 0.869525 0.062380
#
# Coordination Sequence:
#
# PCOD9075362 Si02
#       8
#     2   2   2   2   2   2   2   2
#     4  11  24  45  68  99 140 178 225 281 337 406
#     4  11  26  42  71 101 135 182 225 279 342 407
#     4  12  26  47  70 102 139 179 231 282 342 409
#     4  12  25  46  72 100 140 177 226 289 339 403
#     4  12  24  46  71 102 140 176 225 287 346 399
#     4  11  25  46  68  99 140 180 225 287 332 409
#     4  11  26  47  70 101 134 184 233 278 343 400
#     4  12  26  44  74 101 137 181 230 283 342 408
#
# _framework density 21.449866
#
# number of rings (size 3 to 8) (size 9 to 14) (size 15 to 20)
#    0.000    0.500    5.000    2.250    5.250    2.000 
#    0.000    0.000    0.000    0.000    0.000    0.000 
#    0.000    0.000    0.000    0.000    0.000    0.000 
#
# Total GULP energy -89177.458892 kJ/mol
# GULP energy per Si atom -5573.591181 kJ/mol
# Density = 2.140105 g / cm^3
# Si number density = 21.449866 Si / 1000 Ang^3
#
#
#
# Elastic Constant Matrix: (Units=GPa)
#
#
# Indices 1 2 3 4 5 6 
#
# 1 58.9799 21.6626 8.6505 6.9671 -8.1420 -21.1793
# 2 21.6626 125.3455 67.0951 24.2189 -4.2166 -26.1217
# 3 8.6505 67.0951 170.9210 24.4460 -1.6721 -0.3042
# 4 6.9671 24.2189 24.4460 56.7770 2.6749 8.4548
# 5 -8.1420 -4.2166 -1.6721 2.6749 29.7261 13.0779
# 6 -21.1793 -26.1217 -0.3042 8.4548 13.0779 27.3004
#
#
#
# Elastic Compliance Matrix: (Units=1/GPa)
#
#
# Indices 1 2 3 4 5 6 
#
# 1 0.026498 0.003678 -0.001603 -0.008191 -0.004148 0.028582
# 2 0.003678 0.017103 -0.005677 -0.008733 -0.007244 0.025330
# 3 -0.001603 -0.005677 0.008149 0.000163 0.002684 -0.007921
# 4 -0.008191 -0.008733 0.000163 0.025781 0.005310 -0.025237
# 5 -0.004148 -0.007244 0.002684 0.005310 0.046025 -0.033812
# 6 0.028582 0.025330 -0.007921 -0.025237 -0.033812 0.106964
#
#
# Mechanical properties :
#
#
# Convention : Reuss Voigt Hill
#
# Bulk Modulus (GPa) = 22.44832 61.11810 41.78321
# Shear Modulus (GPa) = 19.79624 39.94991 29.87307
#
# Velocity S-wave (km/s) = 3.04123 4.32033 3.73593
# Velocity P-wave (km/s) = 4.77706 7.31042 6.17506
#
# Compressibility (1/GPa) = 0.04454677
#
# Stress axis : x y z
#
# Youngs Moduli (GPa) = 37.73926 58.46770 122.71234
#
# Poissons Ratio (x) = -0.21506 0.19673
# Poissons Ratio (y) = -0.13881 0.69661
# Poissons Ratio (z) = 0.06050 0.33191
#
# Static dielectric constant tensor:
#      x y z
#    x 1.928480 -0.016750 -0.006360 
#    y -0.016750 1.779150 0.013400 
#    z -0.006360 0.013400 1.803570 
# 
# From -- ./inp_files/273616.got.cif
#   From: 2010.05.17/outbox.ucp.g08.bks.cvg/sg2_137_cif.got.tgz:273616.got - 2010.06.11 11:32:03.
