data_PCOD9075835
_publ_section_title
;
Structure prediction by ZEFSAII (Michael W. Deem and Ramdas Pophale) SiO2 
 PCOD9075835
Probable space group: P -1
;
_chemical_formula_sum "Si O2"
_cell_formula_units_Z 14
_cell_length_a 8.830638
_cell_length_b 8.672702
_cell_length_c 13.139503
_cell_angle_alpha 135.463916
_cell_angle_beta 75.501961
_cell_angle_gamma 112.468332
_cell_volume 651.820728
_symmetry_space_group_name_H-M "P -1"
_symmetry_group_IT_number 2
_symmetry_cell_setting 'triclinic'
loop_
_space_group_symop_operation_xyz
x,y,z
-x,-y,-z
loop_
_atom_site_type_symbol
_atom_site_label
_atom_site_fract_x
_atom_site_fract_y
_atom_site_fract_z
Si Si1 0.274202 0.971112 0.095156
Si Si2 0.640882 0.500139 0.167161
Si Si3 0.482824 0.958693 0.733762
Si Si4 0.687207 0.761019 0.994164
Si Si5 0.571548 0.259264 0.565373
Si Si6 0.782856 0.345632 0.757062
Si Si7 0.986762 0.731225 0.165646
O O1 0.426933 0.084336 0.198668
O O2 0.109987 0.926862 0.169117
O O3 0.273618 0.119366 0.065990
O O4 0.299685 0.727824 0.938965
O O5 0.495871 0.416801 0.070560
O O6 0.552905 0.597220 0.317079
O O7 0.797150 0.702520 0.198540
O O8 0.627013 0.164655 0.753121
O O9 0.421643 0.763506 0.567423
O O10 0.333516 0.051327 0.835802
O O11 0.801203 0.600916 0.917246
O O12 0.736397 0.352643 0.649583
O O13 0.500000 0.000000 0.500000
O O14 0.935063 0.269076 0.734939
O O15 0.000000 0.500000 0.000000
#
# Coordination Sequence:
#
# PCOD9075835 Si02
#       7
#     2   2   2   2   2   2   2
#     4   9  18  33  52  80 105 131 169 213 255 303
#     4   9  17  32  52  75 102 133 167 208 252 301
#     4   9  16  29  50  78 102 130 171 213 250 298
#     4  10  18  32  56  81 101 129 173 218 251 292
#     4   9  18  31  50  79 103 130 175 216 247 293
#     4   9  18  32  50  75 105 133 167 214 253 297
#     4   9  18  33  54  76 103 136 169 206 259 308
#
# _framework density 21.478300000000001
#
# number of rings (size 3 to 8) (size 9 to 14) (size 15 to 20)
#    0.000    2.857    0.000    3.000    0.000    5.714 
#    0.000   15.714    0.000   10.286    0.000   19.000 
#    0.000    0.000    0.000    0.000    0.000    0.000 
#
# Total GULP energy -78046.713954 kJ/mol
# GULP energy per Si atom -5574.765282 kJ/mol
# Density = 2.142941 g / cm^3
# Si number density = 21.478300 Si / 1000 Ang^3
#
#
#
# Elastic Constant Matrix: (Units=GPa)
#
#
# Indices 1 2 3 4 5 6 
#
# 1 69.7553 50.8784 29.2230 -15.4915 1.8129 -1.4931
# 2 50.8784 70.1005 18.2760 -12.8879 0.7608 -11.4971
# 3 29.2230 18.2760 137.9619 -17.0895 7.4808 -1.5261
# 4 -15.4915 -12.8879 -17.0895 21.1096 -5.3988 0.3344
# 5 1.8129 0.7608 7.4808 -5.3988 16.7031 -1.9124
# 6 -1.4931 -11.4971 -1.5261 0.3344 -1.9124 20.9463
#
#
#
# Elastic Compliance Matrix: (Units=1/GPa)
#
#
# Indices 1 2 3 4 5 6 
#
# 1 0.036125 -0.025789 -0.003348 0.008259 0.000055 -0.011951
# 2 -0.025789 0.036650 0.001228 0.005280 0.004426 0.018688
# 3 -0.003348 0.001228 0.008484 0.004665 -0.001892 0.000806
# 4 0.008259 0.005280 0.004665 0.065045 0.018308 0.004460
# 5 0.000055 0.004426 -0.001892 0.018308 0.067360 0.008153
# 6 -0.011951 0.018688 0.000806 0.004460 0.008153 0.057879
#
#
# Mechanical properties :
#
#
# Convention : Reuss Voigt Hill
#
# Bulk Modulus (GPa) = 39.30374 52.73029 46.01701
# Shear Modulus (GPa) = 14.88798 23.71448 19.30123
#
# Velocity S-wave (km/s) = 2.63566 3.32642 3.00098
# Velocity P-wave (km/s) = 5.25369 6.27354 5.78613
#
# Compressibility (1/GPa) = 0.02544287
#
# Stress axis : x y z
#
# Youngs Moduli (GPa) = 27.68134 27.28503 117.86675
#
# Poissons Ratio (x) = 0.70365 0.39460
# Poissons Ratio (y) = 0.71387 -0.14478
# Poissons Ratio (z) = 0.09267 -0.03352
#
# Static dielectric constant tensor:
#      x y z
#    x 1.846310 -0.014840 0.035490 
#    y -0.014840 1.834220 -0.010910 
#    z 0.035490 -0.010910 1.828850 
# 
# From -- ./inp_files/154601.got.cif
#   From: 2010.05.17/outbox.cif.g08.bks.cpg/sg2_78_cif.got.tgz:154601.got - 2010.06.03 11:33:40.
