data_PCOD9075956
_publ_section_title
;
Structure prediction by ZEFSAII (Michael W. Deem and Ramdas Pophale) SiO2 
 PCOD9075956
Probable space group: P -1
;
_chemical_formula_sum "Si O2"
_cell_formula_units_Z 14
_cell_length_a 7.686344
_cell_length_b 9.689534
_cell_length_c 10.358896
_cell_angle_alpha 77.378877
_cell_angle_beta 90.287494
_cell_angle_gamma 47.644972
_cell_volume 543.813067
_symmetry_space_group_name_H-M "P -1"
_symmetry_group_IT_number 2
_symmetry_cell_setting 'triclinic'
loop_
_space_group_symop_operation_xyz
x,y,z
-x,-y,-z
loop_
_atom_site_type_symbol
_atom_site_label
_atom_site_fract_x
_atom_site_fract_y
_atom_site_fract_z
Si Si1 0.141564 0.294137 0.682169
Si Si2 0.342165 0.981911 0.262727
Si Si3 0.542151 0.130578 0.313173
Si Si4 0.384510 0.458615 0.406895
Si Si5 0.778916 0.196729 0.844164
Si Si6 0.913173 0.759400 0.019937
Si Si7 0.591067 0.608901 0.989039
O O1 0.879127 0.463356 0.588407
O O2 0.392700 0.233114 0.670058
O O3 0.221821 0.091603 0.676142
O O4 0.122111 0.305841 0.835365
O O5 0.343542 0.114360 0.334859
O O6 0.308943 0.088951 0.106392
O O7 0.167235 0.948609 0.239114
O O8 0.553965 0.235018 0.407304
O O9 0.475527 0.263008 0.162402
O O10 0.500000 0.500000 0.500000
O O11 0.324574 0.601817 0.261387
O O12 0.561047 0.255785 0.916743
O O13 0.987071 0.145704 0.945791
O O14 0.121971 0.571161 0.972597
O O15 0.500000 0.500000 0.000000
#
# Coordination Sequence:
#
# PCOD9075956 Si02
#       7
#     2   2   2   2   2   2   2
#     4   9  21  37  60  88 125 149 204 234 299 354
#     4  10  22  34  58  89 129 159 184 243 302 356
#     4  10  21  38  59  89 122 151 196 235 307 349
#     4  11  23  45  67  81 111 162 209 252 293 344
#     4  10  21  38  56  93 122 156 202 240 287 359
#     4  10  18  34  57  90 129 163 186 229 295 367
#     4  10  18  32  57  88 128 149 196 235 288 361
#
# _framework density 25.744139000000001
#
# number of rings (size 3 to 8) (size 9 to 14) (size 15 to 20)
#    0.857    1.143    4.286    1.714    2.000    5.714 
#    0.000    1.429    0.000    0.000    0.000    0.000 
#    0.000    0.000    0.000    0.000    0.000    0.000 
#
# Total GULP energy -78046.992086 kJ/mol
# GULP energy per Si atom -5574.785149 kJ/mol
# Density = 2.568554 g / cm^3
# Si number density = 25.744139 Si / 1000 Ang^3
#
#
#
# Elastic Constant Matrix: (Units=GPa)
#
#
# Indices 1 2 3 4 5 6 
#
# 1 118.1618 15.5009 22.3033 21.2370 21.5210 23.0385
# 2 15.5009 106.6845 25.3973 18.2475 19.6718 6.4460
# 3 22.3033 25.3973 75.2063 -0.5105 19.2038 -7.9162
# 4 21.2370 18.2475 -0.5105 33.2338 1.5189 23.6431
# 5 21.5210 19.6718 19.2038 1.5189 45.2301 7.0571
# 6 23.0385 6.4460 -7.9162 23.6431 7.0571 48.1992
#
#
#
# Elastic Compliance Matrix: (Units=1/GPa)
#
#
# Indices 1 2 3 4 5 6 
#
# 1 0.011114 0.000912 -0.002933 -0.005628 -0.003846 -0.002592
# 2 0.000912 0.012158 -0.003026 -0.008830 -0.004520 0.002435
# 3 -0.002933 -0.003026 0.017120 0.000304 -0.005388 0.005258
# 4 -0.005628 -0.008830 0.000304 0.055663 0.008359 -0.024608
# 5 -0.003846 -0.004520 -0.005388 0.008359 0.028971 -0.006784
# 6 -0.002592 0.002435 0.005258 -0.024608 -0.006784 0.035588
#
#
# Mechanical properties :
#
#
# Convention : Reuss Voigt Hill
#
# Bulk Modulus (GPa) = 33.00495 47.38395 40.19445
# Shear Modulus (GPa) = 27.65373 41.12268 34.38821
#
# Velocity S-wave (km/s) = 3.28102 4.00104 3.65878
# Velocity P-wave (km/s) = 5.21552 6.30794 5.78756
#
# Compressibility (1/GPa) = 0.03029849
#
# Stress axis : x y z
#
# Youngs Moduli (GPa) = 89.97322 82.25070 58.41258
#
# Poissons Ratio (x) = -0.07500 0.17132
# Poissons Ratio (y) = -0.08204 0.17673
# Poissons Ratio (z) = 0.26389 0.24885
#
# Static dielectric constant tensor:
#      x y z
#    x 2.068520 0.016700 -0.041740 
#    y 0.016700 2.049900 0.030930 
#    z -0.041740 0.030930 2.099490 
# 
# From -- ./inp_files/384864.got.cif
#   From: 2010.05.17/outbox.cif.g08.bks.cpg/sg2_193_cif.got.tgz:384864.got - 2010.06.03 11:33:40.
