data_PCOD9075142
_publ_section_title
;
Structure prediction by ZEFSAII (Michael W. Deem and Ramdas Pophale) SiO2 
 PCOD9075142
Probable space group: P -1
;
_chemical_formula_sum "Si O2"
_cell_formula_units_Z 12
_cell_length_a 15.000000
_cell_length_b 15.000000
_cell_length_c 9.000000
_cell_angle_alpha 60.000000
_cell_angle_beta 120.000000
_cell_angle_gamma 160.000000
_cell_volume 596.685034
_symmetry_space_group_name_H-M "P -1"
_symmetry_group_IT_number 2
_symmetry_cell_setting 'triclinic'
loop_
_space_group_symop_operation_xyz
x,y,z
-x,-y,-z
loop_
_atom_site_type_symbol
_atom_site_label
_atom_site_fract_x
_atom_site_fract_y
_atom_site_fract_z
Si Si1 0.791056 0.532775 0.374505
Si Si2 0.887914 0.065502 0.137154
Si Si3 0.574973 0.072045 0.178150
Si Si4 0.027874 0.637701 0.210315
Si Si5 0.736605 0.989017 0.423000
Si Si6 0.585177 0.483831 0.975037
O O1 0.944228 0.583866 0.359167
O O2 0.676496 0.487721 0.174593
O O3 0.018827 0.801004 0.434423
O O4 0.543256 0.291984 0.486974
O O5 0.912920 0.201718 0.966935
O O6 0.169866 0.275342 0.139671
O O7 0.656175 0.786842 0.095660
O O8 0.809876 0.009105 0.298755
O O9 0.716925 0.093714 0.300440
O O10 0.783693 0.352537 0.166817
O O11 0.306053 0.834447 0.249740
O O12 0.500000 0.000000 0.000000
O O13 0.500000 0.500000 0.000000
#
# Coordination Sequence:
#
# PCOD9075142 Si02
#       6
#     2   2   2   2   2   2
#     4  11  25  42  63  94 134 163 209 271 330 361
#     4  11  23  42  70  94 128 170 214 254 325 383
#     4  12  24  37  64  93 130 172 232 250 292 373
#     4  11  23  41  63  90 129 181 218 254 300 376
#     4  12  25  40  63  98 134 169 206 272 316 356
#     4  11  24  47  73  94 120 167 215 259 320 410
#
# _framework density 20.111113
#
# number of rings (size 3 to 8) (size 9 to 14) (size 15 to 20)
#    0.000    0.667    1.667    8.000    2.333    4.000 
#    0.000    5.000    0.000    0.000    0.000    0.000 
#    0.000    0.000    0.000    0.000    0.000    0.000 
#
# Total GULP energy -66864.365558 kJ/mol
# GULP energy per Si atom -5572.030463 kJ/mol
# Density = 2.006534 g / cm^3
# Si number density = 20.111113 Si / 1000 Ang^3
#
#
#
# Elastic Constant Matrix: (Units=GPa)
#
#
# Indices 1 2 3 4 5 6 
#
# 1 161.9712 66.0467 28.1286 -0.8672 -52.3167 9.8332
# 2 66.0467 200.3318 31.5428 7.3617 -35.9518 4.5805
# 3 28.1286 31.5428 68.4274 -2.0640 -46.9783 -1.9743
# 4 -0.8672 7.3617 -2.0640 37.5365 4.3372 -20.2776
# 5 -52.3167 -35.9518 -46.9783 4.3372 53.2350 -2.5421
# 6 9.8332 4.5805 -1.9743 -20.2776 -2.5421 46.7151
#
#
#
# Elastic Compliance Matrix: (Units=1/GPa)
#
#
# Indices 1 2 3 4 5 6 
#
# 1 0.010860 -0.001756 0.007098 -0.001772 0.015813 -0.001722
# 2 -0.001756 0.006124 -0.001169 -0.002072 0.001495 -0.001098
# 3 0.007098 -0.001169 0.042250 -0.001079 0.043669 0.002314
# 4 -0.001772 -0.002072 -0.001079 0.036283 -0.006288 0.015938
# 5 0.015813 0.001495 0.043669 -0.006288 0.074369 -0.000312
# 6 -0.001722 -0.001098 0.002314 0.015938 -0.000312 0.028876
#
#
# Mechanical properties :
#
#
# Convention : Reuss Voigt Hill
#
# Bulk Modulus (GPa) = 14.79702 75.79629 45.29666
# Shear Modulus (GPa) = 23.48067 47.83147 35.65607
#
# Velocity S-wave (km/s) = 3.42065 4.88213 4.21521
# Velocity P-wave (km/s) = 4.79319 8.33972 6.80168
#
# Compressibility (1/GPa) = 0.06758119
#
# Stress axis : x y z
#
# Youngs Moduli (GPa) = 92.08300 163.28653 23.66871
#
# Poissons Ratio (x) = 0.28667 -0.16801
# Poissons Ratio (y) = 0.16167 0.02767
# Poissons Ratio (z) = -0.65362 0.19086
#
# Static dielectric constant tensor:
#      x y z
#    x 1.807320 0.031570 0.047800 
#    y 0.031570 1.725140 -0.000990 
#    z 0.047800 -0.000990 1.748240 
# 
# From -- ./inp_files/87361.got.cif
#   From: 2010.05.17/outbox.ucp.g08.bks.cvg/sg2_44_cif.got.tgz:87361.got - 2010.06.11 11:32:03.
