data_PCOD9075349
_publ_section_title
;
Structure prediction by ZEFSAII (Michael W. Deem and Ramdas Pophale) SiO2 
 PCOD9075349
Probable space group: P -1
;
_chemical_formula_sum "Si O2"
_cell_formula_units_Z 15
_cell_length_a 9.000000
_cell_length_b 12.000000
_cell_length_c 18.000000
_cell_angle_alpha 30.000000
_cell_angle_beta 130.000000
_cell_angle_gamma 110.000000
_cell_volume 616.684141
_symmetry_space_group_name_H-M "P -1"
_symmetry_group_IT_number 2
_symmetry_cell_setting 'triclinic'
loop_
_space_group_symop_operation_xyz
x,y,z
-x,-y,-z
loop_
_atom_site_type_symbol
_atom_site_label
_atom_site_fract_x
_atom_site_fract_y
_atom_site_fract_z
Si Si1 0.261423 0.932682 0.623541
Si Si2 0.194255 0.029249 0.081114
Si Si3 0.831824 0.507772 0.765527
Si Si4 0.667444 0.286321 0.539308
Si Si5 0.000000 0.500000 0.500000
Si Si6 0.592849 0.326462 0.028091
Si Si7 0.985512 0.765308 0.863638
Si Si8 0.553070 0.992127 0.107695
O O1 0.437790 0.641340 0.812439
O O2 0.243362 0.185522 0.433708
O O3 0.376855 0.864364 0.783147
O O4 0.000000 0.000000 0.500000
O O5 0.274990 0.857323 0.280192
O O6 0.396725 0.943239 0.138115
O O7 0.057693 0.342663 0.880363
O O8 0.000000 0.000000 0.000000
O O9 0.608647 0.517942 0.660600
O O10 0.895844 0.332179 0.961386
O O11 0.804523 0.426892 0.491864
O O12 0.750933 0.054734 0.636833
O O13 0.172115 0.217548 0.674224
O O14 0.855993 0.224337 0.152953
O O15 0.490156 0.277944 0.950259
O O16 0.000000 0.500000 0.000000
O O17 0.500000 0.000000 0.000000
#
# Coordination Sequence:
#
# PCOD9075349 Si02
#       8
#     2   2   2   2   1   2   2   2
#     4  11  24  44  72 105 139 189 241 297 367 432
#     4  11  25  46  70 101 144 189 233 301 357 419
#     4  11  25  45  74 106 139 193 243 289 368 436
#     4  11  25  45  70 104 145 185 247 295 353 435
#     4  12  26  44  70 104 138 194 244 288 360 428
#     4  11  25  44  68 103 145 180 234 302 356 419
#     4  11  24  45  69 103 144 184 230 301 363 423
#     4  12  27  45  70 102 146 189 239 297 359 434
#
# _framework density 24.323634999999999
#
# number of rings (size 3 to 8) (size 9 to 14) (size 15 to 20)
#    0.000    0.800    1.333    4.800    3.733   13.867 
#    0.000    0.000    0.000    0.000    0.000    0.000 
#    0.000    0.000    0.000    0.000    0.000    0.000 
#
# Total GULP energy -83556.589737 kJ/mol
# GULP energy per Si atom -5570.439316 kJ/mol
# Density = 2.426827 g / cm^3
# Si number density = 24.323635 Si / 1000 Ang^3
#
#
#
# Elastic Constant Matrix: (Units=GPa)
#
#
# Indices 1 2 3 4 5 6 
#
# 1 123.4276 27.0061 35.8060 15.5902 28.6207 8.4369
# 2 27.0061 90.0787 19.7105 -4.0872 4.8380 -8.5559
# 3 35.8060 19.7105 87.3590 -8.9445 17.4832 -11.9583
# 4 15.5902 -4.0872 -8.9445 20.5864 7.4330 -4.5129
# 5 28.6207 4.8380 17.4832 7.4330 34.9982 -8.0430
# 6 8.4369 -8.5559 -11.9583 -4.5129 -8.0430 37.7247
#
#
#
# Elastic Compliance Matrix: (Units=1/GPa)
#
#
# Indices 1 2 3 4 5 6 
#
# 1 0.015297 -0.004332 -0.006595 -0.014674 -0.007777 -0.009907
# 2 -0.004332 0.013112 -0.000179 0.006313 0.001625 0.004988
# 3 -0.006595 -0.000179 0.018014 0.016427 -0.005233 0.007994
# 4 -0.014674 0.006313 0.016427 0.075093 -0.009130 0.016957
# 5 -0.007777 0.001625 -0.005233 -0.009130 0.041128 0.008125
# 6 -0.009907 0.004988 0.007994 0.016957 0.008125 0.036150
#
#
# Mechanical properties :
#
#
# Convention : Reuss Voigt Hill
#
# Bulk Modulus (GPa) = 41.30274 51.76783 46.53529
# Shear Modulus (GPa) = 21.82689 33.21803 27.52246
#
# Velocity S-wave (km/s) = 2.99884 3.69950 3.36744
# Velocity P-wave (km/s) = 5.38591 6.29107 5.85601
#
# Compressibility (1/GPa) = 0.02421147
#
# Stress axis : x y z
#
# Youngs Moduli (GPa) = 65.37325 76.26438 55.51328
#
# Poissons Ratio (x) = 0.33039 0.36608
# Poissons Ratio (y) = 0.28321 0.00993
# Poissons Ratio (z) = 0.43110 0.01364
#
# Static dielectric constant tensor:
#      x y z
#    x 1.879920 -0.002250 -0.001500 
#    y -0.002250 2.068250 -0.011040 
#    z -0.001500 -0.011040 1.906670 
# 
# From -- ./inp_files/462285.got.cif
#   From: 2010.05.17/outbox.ucp.g08.bks.cvg/sg2_232_cif.got.tgz:462285.got - 2010.06.11 11:32:03.
