data_PCOD9075549
_publ_section_title
;
Structure prediction by ZEFSAII (Michael W. Deem and Ramdas Pophale) SiO2 
 PCOD9075549
Probable space group: P -1
;
_chemical_formula_sum "Si O2"
_cell_formula_units_Z 14
_cell_length_a 30.000000
_cell_length_b 12.000000
_cell_length_c 15.000000
_cell_angle_alpha 150.000000
_cell_angle_beta 160.000000
_cell_angle_gamma 20.000000
_cell_volume 624.976433
_symmetry_space_group_name_H-M "P -1"
_symmetry_group_IT_number 2
_symmetry_cell_setting 'triclinic'
loop_
_space_group_symop_operation_xyz
x,y,z
-x,-y,-z
loop_
_atom_site_type_symbol
_atom_site_label
_atom_site_fract_x
_atom_site_fract_y
_atom_site_fract_z
Si Si1 0.104680 0.197677 0.553453
Si Si2 0.037070 0.460382 0.805281
Si Si3 0.075850 0.912688 0.981389
Si Si4 0.475088 0.287638 0.262644
Si Si5 0.533323 0.904309 0.600996
Si Si6 0.481931 0.433280 0.171259
Si Si7 0.703416 0.634383 0.352674
O O1 0.045266 0.339423 0.638978
O O2 0.000000 0.500000 0.500000
O O3 0.046226 0.027994 0.288941
O O4 0.331142 0.902286 0.758894
O O5 0.926847 0.423143 0.634336
O O6 0.249727 0.283514 0.102730
O O7 0.906181 0.847772 0.832931
O O8 0.258563 0.521591 0.050225
O O9 0.000000 0.000000 0.000000
O O10 0.500000 0.500000 0.500000
O O11 0.475513 0.323795 0.181428
O O12 0.607095 0.932190 0.307022
O O13 0.502504 0.673892 0.393363
O O14 0.500000 0.000000 0.500000
O O15 0.402239 0.193353 0.631092
O O16 0.320050 0.565920 0.886471
#
# Coordination Sequence:
#
# PCOD9075549 Si02
#       7
#     2   2   2   2   2   2   2
#     4  12  22  35  65 102 138 179 217 263 343 426
#     4  12  24  43  67  98 136 179 230 284 340 406
#     4  12  21  36  60  94 143 185 221 264 333 418
#     4  12  21  38  66 103 145 184 213 272 351 425
#     4  12  28  51  73  95 132 188 246 297 339 390
#     4  12  24  44  68 102 145 179 225 284 345 415
#     4  12  25  45  69 105 141 177 230 284 349 419
#
# _framework density 22.400845
#
# number of rings (size 3 to 8) (size 9 to 14) (size 15 to 20)
#    0.000    0.000    7.143    4.714    0.000    1.143 
#    0.000    0.714    0.000    0.000    0.000    0.000 
#    0.000    0.000    0.000    0.000    0.000    0.000 
#
# Total GULP energy -78146.139988 kJ/mol
# GULP energy per Si atom -5581.867142 kJ/mol
# Density = 2.234986 g / cm^3
# Si number density = 22.400845 Si / 1000 Ang^3
#
#
#
# Elastic Constant Matrix: (Units=GPa)
#
#
# Indices 1 2 3 4 5 6 
#
# 1 129.2325 22.5119 34.9824 1.5295 -19.0558 -19.8864
# 2 22.5119 36.5128 23.4077 10.0528 -2.4896 -23.3606
# 3 34.9824 23.4077 152.7669 23.3981 -2.0024 -21.3693
# 4 1.5295 10.0528 23.3981 31.3698 -15.0612 -6.5710
# 5 -19.0558 -2.4896 -2.0024 -15.0612 35.1009 1.1037
# 6 -19.8864 -23.3606 -21.3693 -6.5710 1.1037 31.0350
#
#
#
# Elastic Compliance Matrix: (Units=1/GPa)
#
#
# Indices 1 2 3 4 5 6 
#
# 1 0.010834 -0.004670 -0.002368 0.007471 0.008525 0.003075
# 2 -0.004670 0.057842 -0.000718 -0.012249 -0.004913 0.037634
# 3 -0.002368 -0.000718 0.008649 -0.007603 -0.004182 0.002437
# 4 0.007471 -0.012249 -0.007603 0.053630 0.025741 0.000772
# 5 0.008525 -0.004913 -0.004182 0.025741 0.043487 0.002788
# 6 0.003075 0.037634 0.002437 0.000772 0.002788 0.064262
#
#
# Mechanical properties :
#
#
# Convention : Reuss Voigt Hill
#
# Bulk Modulus (GPa) = 16.17745 53.36846 34.77295
# Shear Modulus (GPa) = 18.19371 35.34183 26.76777
#
# Velocity S-wave (km/s) = 2.85298 3.97634 3.46055
# Velocity P-wave (km/s) = 4.25325 6.70505 5.61462
#
# Compressibility (1/GPa) = 0.06181443
#
# Stress axis : x y z
#
# Youngs Moduli (GPa) = 92.29977 17.28838 115.62625
#
# Poissons Ratio (x) = 0.08074 0.27378
# Poissons Ratio (y) = 0.43104 0.08296
# Poissons Ratio (z) = 0.21855 0.01240
#
# Static dielectric constant tensor:
#      x y z
#    x 1.783110 -0.006070 0.127680 
#    y -0.006070 1.745520 0.078320 
#    z 0.127680 0.078320 1.818060 
# 
# From -- ./inp_files/267339.got.cif
#   From: 2010.05.17/outbox.ucp.g08.bks.cvg/sg2_134_cif.got.tgz:267339.got - 2010.06.11 11:32:03.
