data_PCOD9075682
_publ_section_title
;
Structure prediction by ZEFSAII (Michael W. Deem and Ramdas Pophale) SiO2 
 PCOD9075682
Probable space group: P -1
;
_chemical_formula_sum "Si O2"
_cell_formula_units_Z 15
_cell_length_a 12.000000
_cell_length_b 9.000000
_cell_length_c 9.000000
_cell_angle_alpha 40.000000
_cell_angle_beta 80.000000
_cell_angle_gamma 80.000000
_cell_volume 614.029152
_symmetry_space_group_name_H-M "P -1"
_symmetry_group_IT_number 2
_symmetry_cell_setting 'triclinic'
loop_
_space_group_symop_operation_xyz
x,y,z
-x,-y,-z
loop_
_atom_site_type_symbol
_atom_site_label
_atom_site_fract_x
_atom_site_fract_y
_atom_site_fract_z
Si Si1 0.106973 0.371941 0.651453
Si Si2 0.247871 0.729483 0.215653
Si Si3 0.178835 0.920279 0.791977
Si Si4 0.907534 0.673996 0.969212
Si Si5 0.498630 0.424349 0.729574
Si Si6 0.689840 0.862375 0.908288
Si Si7 0.000000 0.000000 0.500000
Si Si8 0.607222 0.129467 0.429248
O O1 0.201017 0.558512 0.479490
O O2 0.153302 0.162385 0.698306
O O3 0.000000 0.500000 0.500000
O O4 0.069288 0.316045 0.869395
O O5 0.372793 0.640759 0.208667
O O6 0.252381 0.974855 0.109206
O O7 0.177338 0.744768 0.066789
O O8 0.085937 0.924666 0.679998
O O9 0.298959 0.884940 0.710424
O O10 0.773740 0.633354 0.031853
O O11 0.900272 0.904007 0.695242
O O12 0.000000 0.500000 0.000000
O O13 0.500000 0.500000 0.500000
O O14 0.442330 0.620739 0.697746
O O15 0.422839 0.210258 0.931851
O O16 0.656751 0.000489 0.662781
O O17 0.500000 0.000000 0.500000
#
# Coordination Sequence:
#
# PCOD9075682 Si02
#       8
#     2   2   2   2   2   2   1   2
#     4  12  28  48  77 116 154 205 260 320 393 470
#     4  12  27  50  81 115 156 205 264 324 395 470
#     4  12  28  48  77 111 160 203 261 320 394 466
#     4  12  28  46  78 111 154 196 265 312 393 462
#     4  12  27  48  83 114 155 205 263 324 391 471
#     4  12  27  48  80 113 153 207 262 319 396 463
#     4  12  28  50  76 108 156 208 258 324 388 460
#     4  12  28  48  77 115 159 204 257 324 393 463
#
# _framework density 24.428808
#
# number of rings (size 3 to 8) (size 9 to 14) (size 15 to 20)
#    0.000    0.000    4.000    4.400    7.467    4.267 
#    0.000    0.000    0.000    0.000    0.000    0.000 
#    0.000    0.000    0.000    0.000    0.000    0.000 
#
# Total GULP energy -83601.868387 kJ/mol
# GULP energy per Si atom -5573.457892 kJ/mol
# Density = 2.437321 g / cm^3
# Si number density = 24.428808 Si / 1000 Ang^3
#
#
#
# Elastic Constant Matrix: (Units=GPa)
#
#
# Indices 1 2 3 4 5 6 
#
# 1 152.5853 65.6725 43.1818 1.0732 12.1282 -9.4526
# 2 65.6725 163.3660 58.1506 17.7511 3.2605 -34.1471
# 3 43.1818 58.1506 135.1481 49.0273 6.2546 0.2977
# 4 1.0732 17.7511 49.0273 39.4713 1.6917 13.7613
# 5 12.1282 3.2605 6.2546 1.6917 46.2843 6.1334
# 6 -9.4526 -34.1471 0.2977 13.7613 6.1334 40.9303
#
#
#
# Elastic Compliance Matrix: (Units=1/GPa)
#
#
# Indices 1 2 3 4 5 6 
#
# 1 0.009158 -0.003756 -0.004013 0.007653 -0.001429 -0.003348
# 2 -0.003756 0.011087 -0.000697 -0.007873 -0.000895 0.011169
# 3 -0.004013 -0.000697 0.017613 -0.023671 -0.001277 0.006513
# 4 0.007653 -0.007873 -0.023671 0.067639 0.002961 -0.027814
# 5 -0.001429 -0.000895 -0.001277 0.002961 0.022834 -0.005485
# 6 -0.003348 0.011169 0.006513 -0.027814 -0.005485 0.043102
#
#
# Mechanical properties :
#
#
# Convention : Reuss Voigt Hill
#
# Bulk Modulus (GPa) = 47.78770 87.23436 67.51103
# Shear Modulus (GPa) = 25.59606 44.27679 34.93643
#
# Velocity S-wave (km/s) = 3.24046 4.26195 3.78581
# Velocity P-wave (km/s) = 5.79700 7.74636 6.84147
#
# Compressibility (1/GPa) = 0.02092588
#
# Stress axis : x y z
#
# Youngs Moduli (GPa) = 109.19009 90.19335 56.77527
#
# Poissons Ratio (x) = 0.33878 0.22783
# Poissons Ratio (y) = 0.41014 0.03960
# Poissons Ratio (z) = 0.43817 0.06290
#
# Static dielectric constant tensor:
#      x y z
#    x 2.054550 0.007550 -0.056050 
#    y 0.007550 1.940120 -0.094500 
#    z -0.056050 -0.094500 2.008530 
# 
# From -- ./inp_files/241793.got.cif
#   From: 2010.05.17/outbox.ucp.g08.bks.cvg/sg2_121_cif.got.tgz:241793.got - 2010.06.11 11:32:03.
