data_PCOD9075096
_publ_section_title
;
Structure prediction by ZEFSAII (Michael W. Deem and Ramdas Pophale) SiO2 
 PCOD9075096
Probable space group: P -1
;
_chemical_formula_sum "Si O2"
_cell_formula_units_Z 16
_cell_length_a 15.000000
_cell_length_b 9.000000
_cell_length_c 9.000000
_cell_angle_alpha 70.000000
_cell_angle_beta 40.000000
_cell_angle_gamma 70.000000
_cell_volume 727.419504
_symmetry_space_group_name_H-M "P -1"
_symmetry_group_IT_number 2
_symmetry_cell_setting 'triclinic'
loop_
_space_group_symop_operation_xyz
x,y,z
-x,-y,-z
loop_
_atom_site_type_symbol
_atom_site_label
_atom_site_fract_x
_atom_site_fract_y
_atom_site_fract_z
Si Si1 0.231115 0.191641 0.549640
Si Si2 0.971279 0.498036 0.363651
Si Si3 0.719463 0.135416 0.230023
Si Si4 0.865348 0.252049 0.409532
Si Si5 0.173211 0.060885 0.087480
Si Si6 0.396980 0.255222 0.578503
Si Si7 0.785956 0.460660 0.165530
Si Si8 0.331611 0.002004 0.214034
O O1 0.101099 0.330151 0.663942
O O2 0.357558 0.256160 0.455126
O O3 0.216409 0.017961 0.700699
O O4 0.275791 0.146173 0.343277
O O5 0.873294 0.360949 0.506572
O O6 0.000000 0.500000 0.500000
O O7 0.113084 0.455618 0.100456
O O8 0.549364 0.157977 0.442278
O O9 0.752207 0.303826 0.182442
O O10 0.791904 0.103348 0.989690
O O11 0.865811 0.385130 0.235107
O O12 0.728946 0.160777 0.601097
O O13 0.009260 0.128072 0.267297
O O14 0.246629 0.038341 0.159067
O O15 0.271984 0.168832 0.836320
O O16 0.355635 0.428992 0.641952
O O17 0.500000 0.000000 0.000000
#
# Coordination Sequence:
#
# PCOD9075096 Si02
#       8
#     2   2   2   2   2   2   2   2
#     4  11  23  44  70  99 137 184 236 289 347 429
#     4  12  27  46  70 104 144 185 236 296 358 424
#     4  11  24  41  70 105 138 188 242 289 350 429
#     4  12  25  47  71 104 141 190 242 289 358 429
#     4  11  24  42  72 100 142 187 237 296 356 414
#     4  11  22  45  68 100 145 188 234 291 355 423
#     4  12  24  44  72 101 145 183 238 293 354 419
#     4  12  26  46  71 105 148 182 232 303 365 421
#
# _framework density 21.995560999999999
#
# number of rings (size 3 to 8) (size 9 to 14) (size 15 to 20)
#    0.000    0.500    3.750    6.375    3.500    1.000 
#    0.000    0.625    0.000    0.000    0.000    0.000 
#    0.000    0.000    0.000    0.000    0.000    0.000 
#
# Total GULP energy -89297.848705 kJ/mol
# GULP energy per Si atom -5581.115544 kJ/mol
# Density = 2.194550 g / cm^3
# Si number density = 21.995561 Si / 1000 Ang^3
#
#
#
# Elastic Constant Matrix: (Units=GPa)
#
#
# Indices 1 2 3 4 5 6 
#
# 1 70.7563 19.6650 30.6435 0.3235 18.9749 7.7223
# 2 19.6650 104.7908 15.5722 10.2888 11.5060 18.2005
# 3 30.6435 15.5722 52.1190 -6.0480 -2.0932 9.9675
# 4 0.3235 10.2888 -6.0480 22.9398 15.3348 3.4412
# 5 18.9749 11.5060 -2.0932 15.3348 34.7708 5.0141
# 6 7.7223 18.2005 9.9675 3.4412 5.0141 44.5644
#
#
#
# Elastic Compliance Matrix: (Units=1/GPa)
#
#
# Indices 1 2 3 4 5 6 
#
# 1 0.025608 -0.001651 -0.014458 0.008622 -0.018224 0.000855
# 2 -0.001651 0.011311 -0.002347 -0.004953 -0.000310 -0.003391
# 3 -0.014458 -0.002347 0.030055 0.003438 0.009624 -0.004607
# 4 0.008622 -0.004953 0.003438 0.068931 -0.032993 -0.001851
# 5 -0.018224 -0.000310 0.009624 -0.032993 0.054288 -0.002428
# 6 0.000855 -0.003391 -0.004607 -0.001851 -0.002428 0.025123
#
#
# Mechanical properties :
#
#
# Convention : Reuss Voigt Hill
#
# Bulk Modulus (GPa) = 33.26549 39.93638 36.60094
# Shear Modulus (GPa) = 19.06588 31.24070 25.15329
#
# Velocity S-wave (km/s) = 2.94735 3.77280 3.38533
# Velocity P-wave (km/s) = 5.17098 6.09710 5.65304
#
# Compressibility (1/GPa) = 0.03006118
#
# Stress axis : x y z
#
# Youngs Moduli (GPa) = 39.05034 88.41137 33.27203
#
# Poissons Ratio (x) = 0.14598 0.48104
# Poissons Ratio (y) = 0.06448 0.07810
# Poissons Ratio (z) = 0.56459 0.20753
#
# Static dielectric constant tensor:
#      x y z
#    x 1.933710 0.036340 0.082240 
#    y 0.036340 1.874000 -0.032640 
#    z 0.082240 -0.032640 1.883660 
# 
# From -- ./inp_files/206471.got.cif
#   From: 2010.05.17/outbox.ucp.g08.bks.cvg/sg2_104_cif.got.tgz:206471.got - 2010.06.11 11:32:03.
