data_PCOD9075934
_publ_section_title
;
Structure prediction by ZEFSAII (Michael W. Deem and Ramdas Pophale) SiO2 
 PCOD9075934
Probable space group: P -1
;
_chemical_formula_sum "Si O2"
_cell_formula_units_Z 16
_cell_length_a 17.203958
_cell_length_b 9.406423
_cell_length_c 8.072869
_cell_angle_alpha 92.791735
_cell_angle_beta 126.371097
_cell_angle_gamma 47.196181
_cell_volume 617.628788
_symmetry_space_group_name_H-M "P -1"
_symmetry_group_IT_number 2
_symmetry_cell_setting 'triclinic'
loop_
_space_group_symop_operation_xyz
x,y,z
-x,-y,-z
loop_
_atom_site_type_symbol
_atom_site_label
_atom_site_fract_x
_atom_site_fract_y
_atom_site_fract_z
Si Si1 0.676714 0.681015 0.386632
Si Si2 0.838036 0.055499 0.801151
Si Si3 0.151361 0.009317 0.805918
Si Si4 0.174242 0.605957 0.136232
Si Si5 0.609899 0.498970 0.079290
Si Si6 0.531705 0.219874 0.398498
Si Si7 0.883217 0.506020 0.336918
Si Si8 0.668456 0.915342 0.869991
O O1 0.791579 0.547290 0.684135
O O2 0.666685 0.531390 0.299545
O O3 0.749463 0.678431 0.323938
O O4 0.497103 0.932609 0.238694
O O5 0.836054 0.224655 0.783137
O O6 0.654359 0.210336 0.563353
O O7 0.888634 0.966567 0.051040
O O8 0.981352 0.818441 0.852694
O O9 0.993640 0.238803 0.509105
O O10 0.244305 0.758791 0.844723
O O11 0.267102 0.013494 0.962442
O O12 0.346625 0.431343 0.248580
O O13 0.500000 0.500000 0.000000
O O14 0.508613 0.726626 0.844109
O O15 0.628150 0.999159 0.633275
O O16 0.000000 0.500000 0.500000
O O17 0.796201 0.636250 0.057232
#
# Coordination Sequence:
#
# PCOD9075934 Si02
#       8
#     2   2   2   2   2   2   2   2
#     4  11  21  36  60  94 119 159 200 254 308 370
#     4  10  18  32  57  85 122 156 204 246 299 358
#     4  10  19  36  58  92 123 156 191 255 307 365
#     4  10  19  33  57  88 120 152 211 249 293 365
#     4  12  23  37  59  95 134 161 186 239 338 386
#     4  10  21  36  60  87 122 165 198 253 304 364
#     4  10  21  39  60  86 118 154 214 263 290 340
#     4   9  20  37  64  86 108 163 216 250 287 339
#
# _framework density 25.905528
#
# number of rings (size 3 to 8) (size 9 to 14) (size 15 to 20)
#    0.000    1.750    3.750    1.500    1.750    0.500 
#    0.000    1.875    0.000    0.750    3.250    0.000 
#    0.000    0.000    0.000    0.000    0.000    0.000 
#
# Total GULP energy -89333.939730 kJ/mol
# GULP energy per Si atom -5583.371233 kJ/mol
# Density = 2.584657 g / cm^3
# Si number density = 25.905528 Si / 1000 Ang^3
#
#
#
# Elastic Constant Matrix: (Units=GPa)
#
#
# Indices 1 2 3 4 5 6 
#
# 1 124.8788 -0.4829 32.6807 -0.7191 0.5675 -6.0666
# 2 -0.4829 66.7223 17.8708 -10.0429 12.4746 7.1966
# 3 32.6807 17.8708 120.1060 -8.3874 -30.3135 0.5215
# 4 -0.7191 -10.0429 -8.3874 26.3013 0.7168 -2.8593
# 5 0.5675 12.4746 -30.3135 0.7168 67.9672 0.6555
# 6 -6.0666 7.1966 0.5215 -2.8593 0.6555 29.8606
#
#
#
# Elastic Compliance Matrix: (Units=1/GPa)
#
#
# Indices 1 2 3 4 5 6 
#
# 1 0.008877 0.000964 -0.002976 -0.000116 -0.001593 0.001647
# 2 0.000964 0.018181 -0.003852 0.005500 -0.005087 -0.003480
# 3 -0.002976 -0.003852 0.011292 0.001912 0.005746 0.000184
# 4 -0.000116 0.005500 0.001912 0.041023 -0.000613 0.002559
# 5 -0.001593 -0.005087 0.005746 -0.000613 0.018226 0.000343
# 6 0.001647 -0.003480 0.000184 0.002559 0.000343 0.034897
#
#
# Mechanical properties :
#
#
# Convention : Reuss Voigt Hill
#
# Bulk Modulus (GPa) = 37.56433 45.76047 41.66240
# Shear Modulus (GPa) = 32.65900 42.26839 37.46370
#
# Velocity S-wave (km/s) = 3.55448 4.04373 3.80697
# Velocity P-wave (km/s) = 5.60159 6.28531 5.95327
#
# Compressibility (1/GPa) = 0.02662100
#
# Stress axis : x y z
#
# Youngs Moduli (GPa) = 112.65147 55.00341 88.55832
#
# Poissons Ratio (x) = -0.05303 0.26357
# Poissons Ratio (y) = -0.10862 0.34115
# Poissons Ratio (z) = 0.33527 0.21189
#
# Static dielectric constant tensor:
#      x y z
#    x 1.987260 0.043770 0.016750 
#    y 0.043770 2.343920 -0.028000 
#    z 0.016750 -0.028000 2.058950 
# 
# From -- ./inp_files/271833.got.cif
#   From: 2010.05.17/outbox.cif.g08.bks.cpg/sg2_136_cif.got.tgz:271833.got - 2010.06.03 11:33:40.
