data_PCOD9075177
_publ_section_title
;
Structure prediction by ZEFSAII (Michael W. Deem and Ramdas Pophale) SiO2 
 PCOD9075177
Probable space group: P -1
;
_chemical_formula_sum "Si O2"
_cell_formula_units_Z 10
_cell_length_a 6.464094
_cell_length_b 7.082713
_cell_length_c 17.110998
_cell_angle_alpha 56.283131
_cell_angle_beta 87.819096
_cell_angle_gamma 43.752167
_cell_volume 349.621099
_symmetry_space_group_name_H-M "P -1"
_symmetry_group_IT_number 2
_symmetry_cell_setting 'triclinic'
loop_
_space_group_symop_operation_xyz
x,y,z
-x,-y,-z
loop_
_atom_site_type_symbol
_atom_site_label
_atom_site_fract_x
_atom_site_fract_y
_atom_site_fract_z
Si Si1 0.641965 0.722349 0.134830
Si Si2 0.556682 0.486428 0.911885
Si Si3 0.436410 0.841242 0.480566
Si Si4 0.454954 0.159188 0.288180
Si Si5 0.452794 0.487082 0.684549
O O1 0.718502 0.419486 0.156449
O O2 0.394243 0.857289 0.181198
O O3 0.004399 0.520746 0.207813
O O4 0.500000 0.000000 0.000000
O O5 0.464349 0.822768 0.803785
O O6 0.500000 0.500000 0.000000
O O7 0.000000 0.000000 0.000000
O O8 0.601352 0.463151 0.606593
O O9 0.500000 0.000000 0.500000
O O10 0.610010 0.782447 0.410550
O O11 0.987234 0.191132 0.396306
O O12 0.531952 0.301370 0.310075
#
# Coordination Sequence:
#
# PCOD9075177 Si02
#       5
#     2   2   2   2   2
#     4  10  18  32  53  81 117 155 197 241 296 354
#     4  11  23  39  58  86 121 157 201 248 296 355
#     4   8  13  25  44  75 112 151 196 241 295 350
#     4   9  17  31  51  78 114 151 196 242 296 348
#     4   8  15  24  45  77 113 151 195 244 293 350
#
# _framework density 28.602394
#
# number of rings (size 3 to 8) (size 9 to 14) (size 15 to 20)
#    0.000    2.800    2.000    0.000    0.000    0.800 
#    0.000    0.000    0.000    0.000    0.000   36.400 
#    0.000    6.000    0.000    0.000    0.000    3.200 
#
# Total GULP energy -55830.361052 kJ/mol
# GULP energy per Si atom -5583.036105 kJ/mol
# Density = 2.853729 g / cm^3
# Si number density = 28.602394 Si / 1000 Ang^3
#
#
#
# Elastic Constant Matrix: (Units=GPa)
#
#
# Indices 1 2 3 4 5 6 
#
# 1 240.4410 55.5671 87.3080 12.4288 -4.9754 2.0318
# 2 55.5671 103.8460 56.9034 23.9010 -0.5639 -16.8999
# 3 87.3080 56.9034 243.5907 34.0548 -83.8030 -34.4097
# 4 12.4288 23.9010 34.0548 40.2222 -35.8401 -3.3232
# 5 -4.9754 -0.5639 -83.8030 -35.8401 113.7025 15.4874
# 6 2.0318 -16.8999 -34.4097 -3.3232 15.4874 43.8870
#
#
#
# Elastic Compliance Matrix: (Units=1/GPa)
#
#
# Indices 1 2 3 4 5 6 
#
# 1 0.005431 -0.002261 -0.002127 0.000510 -0.000847 -0.002453
# 2 -0.002261 0.015890 -0.002707 -0.011764 -0.006472 0.005494
# 3 -0.002127 -0.002707 0.007697 0.000811 0.005379 0.003254
# 4 0.000510 -0.011764 0.000811 0.044137 0.015287 -0.005971
# 5 -0.000847 -0.006472 0.005379 0.015287 0.017975 -0.003421
# 6 -0.002453 0.005494 0.003254 -0.005971 -0.003421 0.028322
#
#
# Mechanical properties :
#
#
# Convention : Reuss Voigt Hill
#
# Bulk Modulus (GPa) = 67.45014 109.71497 88.58256
# Shear Modulus (GPa) = 36.07910 65.43563 50.75736
#
# Velocity S-wave (km/s) = 3.55547 4.78825 4.21715
# Velocity P-wave (km/s) = 6.36305 8.30733 7.39933
#
# Compressibility (1/GPa) = 0.01482577
#
# Stress axis : x y z
#
# Youngs Moduli (GPa) = 184.12849 62.93400 129.92249
#
# Poissons Ratio (x) = 0.14232 0.27639
# Poissons Ratio (y) = 0.41639 0.35172
# Poissons Ratio (z) = 0.39171 0.17037
#
# Static dielectric constant tensor:
#      x y z
#    x 2.132500 -0.040400 -0.024300 
#    y -0.040400 2.554890 -0.045140 
#    z -0.024300 -0.045140 2.399220 
# 
# From -- ./inp_files/2460.got.cif
#   From: 2010.05.17/outbox.cif.g08.bks.cpg/sg2_2_cif.got.tgz:2460.got - 2010.06.03 11:33:40.
