data_PCOD9075033
_publ_section_title
;
Structure prediction by ZEFSAII (Michael W. Deem and Ramdas Pophale) SiO2 
 PCOD9075033
Probable space group: P -1
;
_chemical_formula_sum "Si O2"
_cell_formula_units_Z 14
_cell_length_a 12.000000
_cell_length_b 12.000000
_cell_length_c 9.000000
_cell_angle_alpha 140.000000
_cell_angle_beta 60.000000
_cell_angle_gamma 130.000000
_cell_volume 638.079485
_symmetry_space_group_name_H-M "P -1"
_symmetry_group_IT_number 2
_symmetry_cell_setting 'triclinic'
loop_
_space_group_symop_operation_xyz
x,y,z
-x,-y,-z
loop_
_atom_site_type_symbol
_atom_site_label
_atom_site_fract_x
_atom_site_fract_y
_atom_site_fract_z
Si Si1 0.948743 0.580140 0.408543
Si Si2 0.663188 0.528223 0.396718
Si Si3 0.298828 0.242082 0.879662
Si Si4 0.408676 0.654272 0.053048
Si Si5 0.997995 0.221015 0.121896
Si Si6 0.865267 0.979007 0.673932
Si Si7 0.783214 0.145211 0.650753
O O1 0.776682 0.510445 0.421713
O O2 0.023993 0.745617 0.656538
O O3 0.982794 0.403016 0.245968
O O4 0.050262 0.689669 0.314335
O O5 0.500000 0.500000 0.500000
O O6 0.635312 0.387567 0.132072
O O7 0.755401 0.751964 0.516387
O O8 0.353968 0.445789 0.959632
O O9 0.257506 0.060607 0.612336
O O10 0.420586 0.246097 0.916834
O O11 0.154130 0.226429 0.032715
O O12 0.322636 0.777055 0.272676
O O13 0.911295 0.050714 0.885800
O O14 0.784251 0.092685 0.769746
O O15 0.000000 0.000000 0.500000
#
# Coordination Sequence:
#
# PCOD9075033 Si02
#       7
#     2   2   2   2   2   2   2
#     4  11  25  41  70 102 138 183 227 291 351 401
#     4  12  25  45  67 101 143 186 224 288 357 402
#     4  11  22  41  67  96 137 181 227 285 341 411
#     4  11  24  41  66  99 139 182 228 287 340 410
#     4  11  23  44  66 103 137 177 234 291 339 414
#     4  12  23  43  73 100 133 179 240 278 333 418
#     4  12  23  43  72 103 133 183 241 279 340 415
#
# _framework density 21.940840000000001
#
# number of rings (size 3 to 8) (size 9 to 14) (size 15 to 20)
#    0.000    0.571    5.714    2.143    0.000    4.571 
#    0.000    2.857    0.000    0.000    0.000    0.000 
#    0.000    0.000    0.000    0.000    0.000    0.000 
#
# Total GULP energy -78048.601321 kJ/mol
# GULP energy per Si atom -5574.900094 kJ/mol
# Density = 2.189090 g / cm^3
# Si number density = 21.940840 Si / 1000 Ang^3
#
#
#
# Elastic Constant Matrix: (Units=GPa)
#
#
# Indices 1 2 3 4 5 6 
#
# 1 180.6924 31.6448 35.9406 15.1431 -15.1726 -2.0565
# 2 31.6448 47.5682 14.0943 14.4489 -13.0192 4.7416
# 3 35.9406 14.0943 82.0539 3.9694 -2.6999 1.1220
# 4 15.1431 14.4489 3.9694 9.3647 -6.2453 2.4209
# 5 -15.1726 -13.0192 -2.6999 -6.2453 54.5077 3.0418
# 6 -2.0565 4.7416 1.1220 2.4209 3.0418 37.4019
#
#
#
# Elastic Compliance Matrix: (Units=1/GPa)
#
#
# Indices 1 2 3 4 5 6 
#
# 1 0.006999 -0.001507 -0.002422 -0.007923 0.000498 0.001121
# 2 -0.001507 0.041629 -0.003571 -0.057963 0.002802 -0.001729
# 3 -0.002422 -0.003571 0.013686 0.003400 -0.000444 -0.000275
# 4 -0.007923 -0.057963 0.003400 0.215827 0.009289 -0.007915
# 5 0.000498 0.002802 -0.000444 0.009289 0.020340 -0.002570
# 6 0.001121 -0.001729 -0.000275 -0.007915 -0.002570 0.027747
#
#
# Mechanical properties :
#
#
# Convention : Reuss Voigt Hill
#
# Bulk Modulus (GPa) = 21.13560 52.63044 36.88302
# Shear Modulus (GPa) = 14.00568 35.49717 24.75143
#
# Velocity S-wave (km/s) = 2.52928 4.02662 3.36236
# Velocity P-wave (km/s) = 4.26422 6.75705 5.64984
#
# Compressibility (1/GPa) = 0.04731353
#
# Stress axis : x y z
#
# Youngs Moduli (GPa) = 142.88734 24.02200 73.06696
#
# Poissons Ratio (x) = 0.03620 0.17699
# Poissons Ratio (y) = 0.21533 0.26089
# Poissons Ratio (z) = 0.34611 0.08577
#
# Static dielectric constant tensor:
#      x y z
#    x 1.804460 0.031420 -0.053340 
#    y 0.031420 1.838420 -0.054070 
#    z -0.053340 -0.054070 1.885270 
# 
# From -- ./inp_files/263716.got.cif
#   From: 2010.05.17/outbox.ucp.g08.bks.cvg/sg2_132_cif.got.tgz:263716.got - 2010.06.11 11:32:03.
