data_PCOD9075442
_publ_section_title
;
Structure prediction by ZEFSAII (Michael W. Deem and Ramdas Pophale) SiO2 
 PCOD9075442
Probable space group: P -1
;
_chemical_formula_sum "Si O2"
_cell_formula_units_Z 14
_cell_length_a 9.000000
_cell_length_b 6.000000
_cell_length_c 15.000000
_cell_angle_alpha 50.000000
_cell_angle_beta 90.000000
_cell_angle_gamma 90.000000
_cell_volume 620.495999
_symmetry_space_group_name_H-M "P -1"
_symmetry_group_IT_number 2
_symmetry_cell_setting 'triclinic'
loop_
_space_group_symop_operation_xyz
x,y,z
-x,-y,-z
loop_
_atom_site_type_symbol
_atom_site_label
_atom_site_fract_x
_atom_site_fract_y
_atom_site_fract_z
Si Si1 0.777659 0.704835 0.439017
Si Si2 0.938823 0.703261 0.120019
Si Si3 0.429083 0.604508 0.176559
Si Si4 0.935913 0.301580 0.680535
Si Si5 0.653647 0.723380 0.013312
Si Si6 0.619562 0.243401 0.406753
Si Si7 0.821409 0.678274 0.849895
O O1 0.835026 0.545358 0.570308
O O2 0.691514 0.452945 0.436113
O O3 0.926182 0.765419 0.367287
O O4 0.714521 0.022398 0.394994
O O5 0.989123 0.654015 0.234102
O O6 0.014995 0.449939 0.128042
O O7 0.764957 0.730250 0.096106
O O8 0.000000 0.000000 0.000000
O O9 0.525316 0.472886 0.289459
O O10 0.273431 0.445579 0.200628
O O11 0.399584 0.949664 0.094022
O O12 0.516411 0.549118 0.097651
O O13 0.831915 0.021995 0.759785
O O14 0.746149 0.595350 0.964623
O O15 0.500000 0.000000 0.500000
#
# Coordination Sequence:
#
# PCOD9075442 Si02
#       7
#     2   2   2   2   2   2   2
#     4  11  29  50  75 114 144 199 250 310 371 434
#     4  12  24  43  69 106 141 186 246 303 374 440
#     4  11  26  44  71 103 152 191 248 307 372 447
#     4  11  27  45  76 101 151 185 248 311 371 442
#     4  11  25  45  67 106 148 194 244 305 376 449
#     4  12  28  50  79 108 149 197 254 304 374 442
#     4  12  24  42  72 103 144 197 240 306 368 447
#
# _framework density 22.562595000000002
#
# number of rings (size 3 to 8) (size 9 to 14) (size 15 to 20)
#    0.000    0.571    2.857    3.000   12.000    1.143 
#    0.000    0.000    0.000    0.000    0.000    0.000 
#    0.000    0.000    0.000    0.000    0.000    0.000 
#
# Total GULP energy -78069.769805 kJ/mol
# GULP energy per Si atom -5576.412129 kJ/mol
# Density = 2.251124 g / cm^3
# Si number density = 22.562595 Si / 1000 Ang^3
#
#
#
# Elastic Constant Matrix: (Units=GPa)
#
#
# Indices 1 2 3 4 5 6 
#
# 1 89.4996 11.1964 48.6414 -2.0460 20.0630 3.1836
# 2 11.1964 70.7608 24.5718 10.2807 27.2031 -3.5312
# 3 48.6414 24.5718 123.3973 21.2176 38.5270 -0.3472
# 4 -2.0460 10.2807 21.2176 28.7681 0.4368 1.5053
# 5 20.0630 27.2031 38.5270 0.4368 52.2794 1.7366
# 6 3.1836 -3.5312 -0.3472 1.5053 1.7366 51.1626
#
#
#
# Elastic Compliance Matrix: (Units=1/GPa)
#
#
# Indices 1 2 3 4 5 6 
#
# 1 0.015291 -0.000916 -0.006868 0.006550 -0.000344 -0.001242
# 2 -0.000916 0.019104 0.001139 -0.007677 -0.010429 0.001963
# 3 -0.006868 0.001139 0.015662 -0.012371 -0.009439 0.001297
# 4 0.006550 -0.007677 -0.012371 0.047082 0.010296 -0.002756
# 5 -0.000344 -0.010429 -0.009439 0.010296 0.031628 -0.002139
# 6 -0.001242 0.001963 0.001297 -0.002756 -0.002139 0.019921
#
#
# Mechanical properties :
#
#
# Convention : Reuss Voigt Hill
#
# Bulk Modulus (GPa) = 27.19780 50.27521 38.73651
# Shear Modulus (GPa) = 28.69699 39.72524 34.21111
#
# Velocity S-wave (km/s) = 3.57022 4.20058 3.89816
# Velocity P-wave (km/s) = 5.39220 6.77181 6.12100
#
# Compressibility (1/GPa) = 0.03676767
#
# Stress axis : x y z
#
# Youngs Moduli (GPa) = 65.39682 52.34385 63.84871
#
# Poissons Ratio (x) = 0.04796 0.43848
# Poissons Ratio (y) = 0.05991 -0.07270
# Poissons Ratio (z) = 0.44911 -0.05960
#
# Static dielectric constant tensor:
#      x y z
#    x 1.963500 -0.012720 -0.048800 
#    y -0.012720 1.877480 0.014150 
#    z -0.048800 0.014150 1.902640 
# 
# From -- ./inp_files/53487.got.cif
#   From: 2010.05.17/outbox.ucp.g08.bks.cvg/sg2_27_cif.got.tgz:53487.got - 2010.06.11 11:32:03.
