data_PCOD9075841
_publ_section_title
;
Structure prediction by ZEFSAII (Michael W. Deem and Ramdas Pophale) SiO2 
 PCOD9075841
Probable space group: P -1
;
_chemical_formula_sum "Si O2"
_cell_formula_units_Z 16
_cell_length_a 8.767695
_cell_length_b 9.005346
_cell_length_c 11.407320
_cell_angle_alpha 90.342334
_cell_angle_beta 47.741023
_cell_angle_gamma 88.356604
_cell_volume 665.940419
_symmetry_space_group_name_H-M "P -1"
_symmetry_group_IT_number 2
_symmetry_cell_setting 'triclinic'
loop_
_space_group_symop_operation_xyz
x,y,z
-x,-y,-z
loop_
_atom_site_type_symbol
_atom_site_label
_atom_site_fract_x
_atom_site_fract_y
_atom_site_fract_z
Si Si1 0.459636 0.837592 0.870270
Si Si2 0.229352 0.560457 0.363701
Si Si3 0.607429 0.694970 0.573535
Si Si4 0.972426 0.143868 0.594408
Si Si5 0.745631 0.439837 0.907428
Si Si6 0.192215 0.066666 0.138598
Si Si7 0.816147 0.612823 0.247534
Si Si8 0.960355 0.677275 0.928045
O O1 0.453057 0.794011 0.736126
O O2 0.677557 0.853379 0.826532
O O3 0.354730 0.700820 0.986852
O O4 0.344515 0.994787 0.961075
O O5 0.368095 0.471855 0.386187
O O6 0.193375 0.738030 0.376896
O O7 0.323349 0.519842 0.187283
O O8 0.000000 0.500000 0.500000
O O9 0.623856 0.673736 0.424209
O O10 0.812548 0.780017 0.503494
O O11 0.904758 0.073398 0.751142
O O12 0.000000 0.000000 0.500000
O O13 0.769871 0.582924 0.976571
O O14 0.989218 0.393576 0.764433
O O15 0.034262 0.181964 0.157609
O O16 0.842334 0.439924 0.187890
O O17 0.894613 0.705019 0.096151
#
# Coordination Sequence:
#
# PCOD9075841 Si02
#       8
#     2   2   2   2   2   2   2   2
#     4  11  23  36  53  88 122 150 172 233 291 353
#     4  10  18  32  56  81 111 145 180 230 281 325
#     4  11  21  35  56  84 115 150 187 230 278 333
#     4  11  20  33  52  84 118 144 184 232 277 336
#     4  10  18  37  57  82 113 140 191 229 279 331
#     4  11  22  38  55  84 123 149 181 223 297 338
#     4   9  19  39  63  81 105 142 208 238 258 322
#     4   9  20  38  66  78 105 150 198 239 267 322
#
# _framework density 24.026174000000001
#
# number of rings (size 3 to 8) (size 9 to 14) (size 15 to 20)
#    0.750    1.000    5.000    0.750    3.500    2.000 
#    0.000    3.750    0.000    0.000    0.000    0.000 
#    0.000    0.000    0.000    0.000    0.000    0.000 
#
# Total GULP energy -89206.155421 kJ/mol
# GULP energy per Si atom -5575.384714 kJ/mol
# Density = 2.397149 g / cm^3
# Si number density = 24.026174 Si / 1000 Ang^3
#
#
#
# Elastic Constant Matrix: (Units=GPa)
#
#
# Indices 1 2 3 4 5 6 
#
# 1 42.2270 16.2573 2.3998 2.4274 4.4440 6.7834
# 2 16.2573 117.0384 27.6989 0.9028 9.6308 -5.3431
# 3 2.3998 27.6989 124.1180 17.6825 27.1640 2.4036
# 4 2.4274 0.9028 17.6825 41.3780 5.3879 2.0325
# 5 4.4440 9.6308 27.1640 5.3879 18.5978 2.9539
# 6 6.7834 -5.3431 2.4036 2.0325 2.9539 30.5252
#
#
#
# Elastic Compliance Matrix: (Units=1/GPa)
#
#
# Indices 1 2 3 4 5 6 
#
# 1 0.026774 -0.003969 0.001944 -0.001252 -0.005843 -0.006149
# 2 -0.003969 0.009834 -0.001824 0.000944 -0.002214 0.002899
# 3 0.001944 -0.001824 0.012612 -0.003254 -0.017017 0.000119
# 4 -0.001252 0.000944 -0.003254 0.026020 -0.002855 -0.000757
# 5 -0.005843 -0.002214 -0.017017 -0.002855 0.082881 -0.005579
# 6 -0.006149 0.002899 0.000119 -0.000757 -0.005579 0.035215
#
#
# Mechanical properties :
#
#
# Convention : Reuss Voigt Hill
#
# Bulk Modulus (GPa) = 24.08360 41.78836 32.93598
# Shear Modulus (GPa) = 23.26942 33.90205 28.58573
#
# Velocity S-wave (km/s) = 3.11545 3.76046 3.45305
# Velocity P-wave (km/s) = 4.79448 6.02374 5.44392
#
# Compressibility (1/GPa) = 0.04152203
#
# Stress axis : x y z
#
# Youngs Moduli (GPa) = 37.34970 101.68295 79.29020
#
# Poissons Ratio (x) = 0.40363 -0.15417
# Poissons Ratio (y) = 0.14826 0.14463
# Poissons Ratio (z) = -0.07262 0.18547
#
# Static dielectric constant tensor:
#      x y z
#    x 1.995490 0.021260 -0.048050 
#    y 0.021260 1.894640 0.055520 
#    z -0.048050 0.055520 2.023970 
# 
# From -- ./inp_files/414894.got.cif
#   From: 2010.05.17/outbox.cif.g08.bks.cpg/sg2_208_cif.got.tgz:414894.got - 2010.06.03 11:33:40.
