data_PCOD9075579
_publ_section_title
;
Structure prediction by ZEFSAII (Michael W. Deem and Ramdas Pophale) SiO2 
 PCOD9075579
Probable space group: P -1
;
_chemical_formula_sum "Si O2"
_cell_formula_units_Z 16
_cell_length_a 27.000000
_cell_length_b 27.000000
_cell_length_c 12.000000
_cell_angle_alpha 150.000000
_cell_angle_beta 150.000000
_cell_angle_gamma 10.000000
_cell_volume 750.765935
_symmetry_space_group_name_H-M "P -1"
_symmetry_group_IT_number 2
_symmetry_cell_setting 'triclinic'
loop_
_space_group_symop_operation_xyz
x,y,z
-x,-y,-z
loop_
_atom_site_type_symbol
_atom_site_label
_atom_site_fract_x
_atom_site_fract_y
_atom_site_fract_z
Si Si1 0.412176 0.695281 0.243345
Si Si2 0.966195 0.251295 0.340428
Si Si3 0.416782 0.013025 0.472069
Si Si4 0.407299 0.751191 0.612636
Si Si5 0.140101 0.588894 0.815608
Si Si6 0.125895 0.772839 0.341814
Si Si7 0.039053 0.355707 0.846375
Si Si8 0.454914 0.160278 0.003938
O O1 0.660463 0.528198 0.345315
O O2 0.390915 0.733767 0.413402
O O3 0.500000 0.500000 0.000000
O O4 0.136443 0.994538 0.218759
O O5 0.926140 0.305617 0.234269
O O6 0.103662 0.218024 0.604615
O O7 0.617258 0.727373 0.334828
O O8 0.500000 0.000000 0.500000
O O9 0.382410 0.130933 0.730929
O O10 0.121535 0.232755 0.304143
O O11 0.586461 0.506331 0.563946
O O12 0.520471 0.758786 0.856576
O O13 0.103631 0.044500 0.655472
O O14 0.168238 0.655024 0.089311
O O15 0.000000 0.000000 0.500000
O O16 0.000000 0.500000 0.000000
O O17 0.749513 0.614146 0.854570
O O18 0.264339 0.134582 0.954648
#
# Coordination Sequence:
#
# PCOD9075579 Si02
#       8
#     2   2   2   2   2   2   2   2
#     4  12  27  45  75 102 138 187 225 290 349 406
#     4  12  24  47  68 106 145 177 229 282 348 416
#     4  12  25  45  69 101 139 186 235 279 344 407
#     4  12  25  48  72 104 137 176 241 281 340 416
#     4  12  27  46  69 105 142 183 230 286 345 412
#     4  12  28  47  74 100 137 185 231 290 343 401
#     4  12  23  40  65 100 136 180 222 267 340 403
#     4  12  23  42  68  98 134 179 222 281 335 399
#
# _framework density 21.311568999999999
#
# number of rings (size 3 to 8) (size 9 to 14) (size 15 to 20)
#    0.000    0.000    2.500    8.250    3.500    0.000 
#    0.000    0.000    0.000    0.000    0.000    0.000 
#    0.000    0.000    0.000    0.000    0.000    0.000 
#
# Total GULP energy -89177.101842 kJ/mol
# GULP energy per Si atom -5573.568865 kJ/mol
# Density = 2.126306 g / cm^3
# Si number density = 21.311569 Si / 1000 Ang^3
#
#
#
# Elastic Constant Matrix: (Units=GPa)
#
#
# Indices 1 2 3 4 5 6 
#
# 1 122.4325 0.2875 33.0038 7.0557 -16.9710 10.2223
# 2 0.2875 74.6284 -6.8946 16.2332 1.0637 11.0111
# 3 33.0038 -6.8946 151.0558 32.4293 -14.7063 10.3554
# 4 7.0557 16.2332 32.4293 39.4162 6.7926 6.1813
# 5 -16.9710 1.0637 -14.7063 6.7926 53.8452 3.1288
# 6 10.2223 11.0111 10.3554 6.1813 3.1288 48.9519
#
#
#
# Elastic Compliance Matrix: (Units=1/GPa)
#
#
# Indices 1 2 3 4 5 6 
#
# 1 0.009112 0.000200 -0.001453 -0.000707 0.002660 -0.001721
# 2 0.000200 0.016085 0.003023 -0.008958 0.001892 -0.003289
# 3 -0.001453 0.003023 0.009449 -0.009101 0.003295 -0.001437
# 4 -0.000707 -0.008958 -0.009101 0.037971 -0.007308 -0.000240
# 5 0.002660 0.001892 0.003295 -0.007308 0.021318 -0.002118
# 6 -0.001721 -0.003289 -0.001437 -0.000240 -0.002118 0.021997
#
#
# Mechanical properties :
#
#
# Convention : Reuss Voigt Hill
#
# Bulk Modulus (GPa) = 26.18666 44.54557 35.36611
# Shear Modulus (GPa) = 39.96179 49.89065 44.92622
#
# Velocity S-wave (km/s) = 4.33497 4.84365 4.59635
# Velocity P-wave (km/s) = 6.11311 7.22694 6.69324
#
# Compressibility (1/GPa) = 0.03818739
#
# Stress axis : x y z
#
# Youngs Moduli (GPa) = 109.74306 62.16912 105.83519
#
# Poissons Ratio (x) = -0.01246 0.15378
# Poissons Ratio (y) = -0.02200 -0.31997
# Poissons Ratio (z) = 0.15946 -0.18795
#
# Static dielectric constant tensor:
#      x y z
#    x 1.771130 -0.058180 0.042170 
#    y -0.058180 1.920390 -0.055070 
#    z 0.042170 -0.055070 1.786220 
# 
# From -- ./inp_files/477245.got.cif
#   From: 2010.05.17/outbox.ucp.g08.bks.cvg/sg2_239_cif.got.tgz:477245.got - 2010.06.11 11:32:03.
