data_PCOD9075857
_publ_section_title
;
Structure prediction by ZEFSAII (Michael W. Deem and Ramdas Pophale) SiO2 
 PCOD9075857
Probable space group: P -1
;
_chemical_formula_sum "Si O2"
_cell_formula_units_Z 16
_cell_length_a 13.692478
_cell_length_b 14.245908
_cell_length_c 7.797235
_cell_angle_alpha 136.971654
_cell_angle_beta 109.947733
_cell_angle_gamma 45.519892
_cell_volume 693.290130
_symmetry_space_group_name_H-M "P -1"
_symmetry_group_IT_number 2
_symmetry_cell_setting 'triclinic'
loop_
_space_group_symop_operation_xyz
x,y,z
-x,-y,-z
loop_
_atom_site_type_symbol
_atom_site_label
_atom_site_fract_x
_atom_site_fract_y
_atom_site_fract_z
Si Si1 0.293886 0.643490 0.435285
Si Si2 0.022309 0.510985 0.282797
Si Si3 0.665143 0.708665 0.924620
Si Si4 0.047356 0.221078 0.132952
Si Si5 0.630841 0.302153 0.096871
Si Si6 0.798940 0.305948 0.913460
Si Si7 0.646182 0.013388 0.900998
Si Si8 0.269633 0.315959 0.712382
O O1 0.462798 0.507230 0.293437
O O2 0.279429 0.730921 0.725724
O O3 0.194355 0.759830 0.363637
O O4 0.281645 0.495337 0.280651
O O5 0.995964 0.406399 0.253301
O O6 0.984694 0.698775 0.584327
O O7 0.888740 0.591379 0.186207
O O8 0.195504 0.346534 0.141235
O O9 0.512192 0.844561 0.916063
O O10 0.630357 0.796449 0.211125
O O11 0.221332 0.052915 0.993572
O O12 0.949193 0.193339 0.957130
O O13 0.699193 0.303375 0.970095
O O14 0.633042 0.135629 0.899880
O O15 0.732129 0.523004 0.133448
O O16 0.689968 0.823947 0.602940
#
# Coordination Sequence:
#
# PCOD9075857 Si02
#       8
#     2   2   2   2   2   2   2   2
#     4   9  20  35  55  85 110 142 195 233 262 334
#     4   9  17  32  54  78 108 149 188 224 274 335
#     4  10  18  32  56  83 112 145 185 234 281 327
#     4   9  19  34  51  78 112 145 187 229 273 335
#     4  10  20  37  58  80 113 149 183 229 283 331
#     4  10  19  36  61  78 105 154 193 222 271 335
#     4  10  21  35  52  82 118 145 178 233 290 330
#     4   9  19  35  56  85 112 140 188 236 275 332
#
# _framework density 23.078358999999999
#
# number of rings (size 3 to 8) (size 9 to 14) (size 15 to 20)
#    0.000    2.500    0.000    2.625    0.000    1.000 
#    0.000    4.375    0.000    0.000    0.000    0.000 
#    0.000    0.000    0.000    0.000    0.000    0.000 
#
# Total GULP energy -89097.677583 kJ/mol
# GULP energy per Si atom -5568.604849 kJ/mol
# Density = 2.302583 g / cm^3
# Si number density = 23.078359 Si / 1000 Ang^3
#
#
#
# Elastic Constant Matrix: (Units=GPa)
#
#
# Indices 1 2 3 4 5 6 
#
# 1 98.0487 11.6360 12.6815 1.0726 -1.3381 -5.7196
# 2 11.6360 59.5420 -1.8651 -2.1969 -0.1133 -17.4044
# 3 12.6815 -1.8651 38.5485 0.8466 10.1175 14.3828
# 4 1.0726 -2.1969 0.8466 20.1555 -8.8166 -0.0223
# 5 -1.3381 -0.1133 10.1175 -8.8166 18.6359 3.7651
# 6 -5.7196 -17.4044 14.3828 -0.0223 3.7651 31.9379
#
#
#
# Elastic Compliance Matrix: (Units=1/GPa)
#
#
# Indices 1 2 3 4 5 6 
#
# 1 0.011426 -0.001293 -0.006311 0.001321 0.004117 0.003700
# 2 -0.001293 0.020711 -0.003509 0.002807 0.000730 0.012551
# 3 -0.006311 -0.003509 0.041894 -0.013004 -0.025551 -0.018906
# 4 0.001321 0.002807 -0.013004 0.067156 0.038306 0.003154
# 5 0.004117 0.000730 -0.025551 0.038306 0.085430 0.002598
# 6 0.003700 0.012551 -0.018906 0.003154 0.002598 0.047023
#
#
# Mechanical properties :
#
#
# Convention : Reuss Voigt Hill
#
# Bulk Modulus (GPa) = 19.30305 26.78264 23.04285
# Shear Modulus (GPa) = 15.96762 25.72498 20.84630
#
# Velocity S-wave (km/s) = 2.63323 3.34230 3.00873
# Velocity P-wave (km/s) = 4.19851 5.15024 4.69853
#
# Compressibility (1/GPa) = 0.05180529
#
# Stress axis : x y z
#
# Youngs Moduli (GPa) = 87.51758 48.28290 23.86997
#
# Poissons Ratio (x) = 0.06241 0.15065
# Poissons Ratio (y) = 0.11313 0.08376
# Poissons Ratio (z) = 0.55235 0.16942
#
# Static dielectric constant tensor:
#      x y z
#    x 1.869220 -0.021380 -0.001750 
#    y -0.021380 1.988930 -0.039090 
#    z -0.001750 -0.039090 1.910290 
# 
# From -- ./inp_files/186669.got.cif
#   From: 2010.05.17/outbox.cif.g08.bks.cpg/sg2_94_cif.got.tgz:186669.got - 2010.06.03 11:33:40.
