data_PCOD9075658
_publ_section_title
;
Structure prediction by ZEFSAII (Michael W. Deem and Ramdas Pophale) SiO2 
 PCOD9075658
Probable space group: P -1
;
_chemical_formula_sum "Si O2"
_cell_formula_units_Z 14
_cell_length_a 15.000000
_cell_length_b 9.000000
_cell_length_c 12.000000
_cell_angle_alpha 120.000000
_cell_angle_beta 50.000000
_cell_angle_gamma 150.000000
_cell_volume 613.666794
_symmetry_space_group_name_H-M "P -1"
_symmetry_group_IT_number 2
_symmetry_cell_setting 'triclinic'
loop_
_space_group_symop_operation_xyz
x,y,z
-x,-y,-z
loop_
_atom_site_type_symbol
_atom_site_label
_atom_site_fract_x
_atom_site_fract_y
_atom_site_fract_z
Si Si1 0.134821 0.301878 0.567635
Si Si2 0.852345 0.291855 0.834079
Si Si3 0.594072 0.440881 0.356373
Si Si4 0.227788 0.740219 0.364975
Si Si5 0.072227 0.238033 0.949770
Si Si6 0.327734 0.144093 0.985553
Si Si7 0.468030 0.814045 0.356798
O O1 0.207782 0.356307 0.652985
O O2 0.352409 0.537472 0.419658
O O3 0.026656 0.359994 0.683410
O O4 0.000000 0.000000 0.500000
O O5 0.762454 0.241102 0.768535
O O6 0.914902 0.550002 0.935079
O O7 0.708966 0.019633 0.936833
O O8 0.500000 0.500000 0.500000
O O9 0.700577 0.544623 0.190304
O O10 0.407846 0.085262 0.387057
O O11 0.295740 0.656182 0.345801
O O12 0.000000 0.500000 0.500000
O O13 0.000000 0.000000 0.000000
O O14 0.886442 0.024732 0.931133
O O15 0.368446 0.071732 0.815423
O O16 0.500000 0.500000 0.000000
O O17 0.500000 0.000000 0.500000
#
# Coordination Sequence:
#
# PCOD9075658 Si02
#       7
#     2   2   2   2   2   2   2
#     4  12  25  47  78 113 158 210 267 329 403 489
#     4  12  27  53  82 112 168 215 272 337 410 487
#     4  12  29  48  76 113 160 208 271 334 405 482
#     4  12  28  47  80 116 154 207 273 332 408 481
#     4  12  31  50  79 117 164 213 271 339 411 482
#     4  12  29  50  82 117 161 214 274 338 409 488
#     4  12  26  47  77 112 154 210 267 329 406 479
#
# _framework density 22.813683000000001
#
# number of rings (size 3 to 8) (size 9 to 14) (size 15 to 20)
#    0.000    0.000    4.286    3.857    8.000    1.143 
#    0.000    0.000    0.000    0.000    0.000    0.000 
#    0.000    0.000    0.000    0.000    0.000    0.000 
#
# Total GULP energy -77976.368376 kJ/mol
# GULP energy per Si atom -5569.740598 kJ/mol
# Density = 2.276176 g / cm^3
# Si number density = 22.813683 Si / 1000 Ang^3
#
#
#
# Elastic Constant Matrix: (Units=GPa)
#
#
# Indices 1 2 3 4 5 6 
#
# 1 99.5491 35.3242 39.5934 -6.1798 8.1118 3.9539
# 2 35.3242 143.2339 54.6284 7.6711 13.1011 6.7345
# 3 39.5934 54.6284 162.7345 -25.7103 -1.2124 -3.5273
# 4 -6.1798 7.6711 -25.7103 41.1039 -0.8609 0.8948
# 5 8.1118 13.1011 -1.2124 -0.8609 48.4122 -5.6201
# 6 3.9539 6.7345 -3.5273 0.8948 -5.6201 34.5089
#
#
#
# Elastic Compliance Matrix: (Units=1/GPa)
#
#
# Indices 1 2 3 4 5 6 
#
# 1 0.011826 -0.001912 -0.002157 0.000783 -0.001678 -0.001496
# 2 -0.001912 0.009312 -0.003385 -0.004148 -0.002621 -0.002264
# 3 -0.002157 -0.003385 0.008777 0.005793 0.001827 0.001952
# 4 0.000783 -0.004148 0.005793 0.028862 0.001748 0.000848
# 5 -0.001678 -0.002621 0.001827 0.001748 0.022242 0.004467
# 6 -0.001496 -0.002264 0.001952 0.000848 0.004467 0.030496
#
#
# Mechanical properties :
#
#
# Convention : Reuss Voigt Hill
#
# Bulk Modulus (GPa) = 66.62846 73.84553 70.23699
# Shear Modulus (GPa) = 38.04405 43.20309 40.62357
#
# Velocity S-wave (km/s) = 4.08805 4.35643 4.22437
# Velocity P-wave (km/s) = 7.17996 7.59894 7.39242
#
# Compressibility (1/GPa) = 0.01500860
#
# Stress axis : x y z
#
# Youngs Moduli (GPa) = 84.55701 107.38302 113.93252
#
# Poissons Ratio (x) = 0.20534 0.24570
# Poissons Ratio (y) = 0.16169 0.38564
# Poissons Ratio (z) = 0.18235 0.36347
#
# Static dielectric constant tensor:
#      x y z
#    x 1.694310 0.093640 -0.090820 
#    y 0.093640 1.813430 0.040730 
#    z -0.090820 0.040730 1.890660 
# 
# From -- ./inp_files/448011.got.cif
#   From: 2010.05.17/outbox.ucp.g08.bks.cvg/sg2_225_cif.got.tgz:448011.got - 2010.06.11 11:32:03.
