data_PCOD9075451
_publ_section_title
;
Structure prediction by ZEFSAII (Michael W. Deem and Ramdas Pophale) SiO2 
 PCOD9075451
Probable space group: P -1
;
_chemical_formula_sum "Si O2"
_cell_formula_units_Z 16
_cell_length_a 18.000000
_cell_length_b 9.000000
_cell_length_c 15.000000
_cell_angle_alpha 140.000000
_cell_angle_beta 30.000000
_cell_angle_gamma 140.000000
_cell_volume 740.097418
_symmetry_space_group_name_H-M "P -1"
_symmetry_group_IT_number 2
_symmetry_cell_setting 'triclinic'
loop_
_space_group_symop_operation_xyz
x,y,z
-x,-y,-z
loop_
_atom_site_type_symbol
_atom_site_label
_atom_site_fract_x
_atom_site_fract_y
_atom_site_fract_z
Si Si1 0.191238 0.078883 0.837980
Si Si2 0.852108 0.035235 0.727624
Si Si3 0.862958 0.259758 0.560637
Si Si4 0.421287 0.427743 0.148248
Si Si5 0.394065 0.930490 0.409489
Si Si6 0.301566 0.630648 0.049951
Si Si7 0.043317 0.229964 0.771231
Si Si8 0.244152 0.770884 0.807067
O O1 0.283779 0.042634 0.635710
O O2 0.239906 0.904792 0.779025
O O3 0.251305 0.365720 0.933603
O O4 0.000000 0.000000 0.000000
O O5 0.749204 0.782541 0.767196
O O6 0.715821 0.142401 0.883953
O O7 0.948588 0.250920 0.791243
O O8 0.000000 0.000000 0.500000
O O9 0.707097 0.169256 0.620179
O O10 0.820531 0.354527 0.741059
O O11 0.000000 0.500000 0.500000
O O12 0.914894 0.018051 0.397503
O O13 0.407110 0.677733 0.319120
O O14 0.500000 0.500000 0.000000
O O15 0.538900 0.346469 0.052734
O O16 0.575425 0.105746 0.289334
O O17 0.192259 0.474939 0.732730
O O18 0.907559 0.189817 0.967848
#
# Coordination Sequence:
#
# PCOD9075451 Si02
#       8
#     2   2   2   2   2   2   2   2
#     4  12  26  45  73 104 150 192 248 304 374 447
#     4  12  27  45  74 111 148 190 246 315 374 435
#     4  12  25  44  73 109 144 196 254 304 379 449
#     4  12  26  48  76 109 148 198 249 305 378 445
#     4  12  26  45  77 105 144 196 252 310 358 459
#     4  12  26  45  71 109 145 191 244 309 368 441
#     4  11  25  45  73  99 153 193 240 313 376 446
#     4  11  25  47  70 105 142 199 250 298 380 446
#
# _framework density 21.618776
#
# number of rings (size 3 to 8) (size 9 to 14) (size 15 to 20)
#    0.000    0.250    3.750    5.250    3.500    1.500 
#    2.250    0.000    0.000    0.000    0.000    0.000 
#    0.000    0.000    0.000    0.000    0.000    0.000 
#
# Total GULP energy -89197.809443 kJ/mol
# GULP energy per Si atom -5574.863090 kJ/mol
# Density = 2.156957 g / cm^3
# Si number density = 21.618776 Si / 1000 Ang^3
#
#
#
# Elastic Constant Matrix: (Units=GPa)
#
#
# Indices 1 2 3 4 5 6 
#
# 1 64.5892 28.5439 4.7582 -0.1328 -19.4053 6.5960
# 2 28.5439 174.6762 58.7097 -5.0998 -4.4174 22.4228
# 3 4.7582 58.7097 118.3615 22.2987 -2.7520 1.1296
# 4 -0.1328 -5.0998 22.2987 43.9367 3.5261 -12.6935
# 5 -19.4053 -4.4174 -2.7520 3.5261 48.9569 0.0063
# 6 6.5960 22.4228 1.1296 -12.6935 0.0063 31.9376
#
#
#
# Elastic Compliance Matrix: (Units=1/GPa)
#
#
# Indices 1 2 3 4 5 6 
#
# 1 0.019357 -0.003175 0.001469 -0.002480 0.007648 -0.002808
# 2 -0.003175 0.008277 -0.004338 0.002011 -0.000900 -0.004203
# 3 0.001469 -0.004338 0.011841 -0.006716 0.001340 -0.000346
# 4 -0.002480 0.002011 -0.006716 0.029905 -0.003335 0.011224
# 5 0.007648 -0.000900 0.001340 -0.003335 0.023692 -0.002325
# 6 -0.002808 -0.004203 -0.000346 0.011224 -0.002325 0.039315
#
#
# Mechanical properties :
#
#
# Convention : Reuss Voigt Hill
#
# Bulk Modulus (GPa) = 36.51424 60.18338 48.34881
# Shear Modulus (GPa) = 32.55120 42.67392 37.61256
#
# Velocity S-wave (km/s) = 3.88453 4.44771 4.17563
# Velocity P-wave (km/s) = 6.08656 7.36716 6.75727
#
# Compressibility (1/GPa) = 0.02738657
#
# Stress axis : x y z
#
# Youngs Moduli (GPa) = 51.66135 120.81573 84.45296
#
# Poissons Ratio (x) = 0.38364 -0.12404
# Poissons Ratio (y) = 0.16404 0.36632
# Poissons Ratio (z) = -0.07588 0.52404
#
# Static dielectric constant tensor:
#      x y z
#    x 1.913790 0.017410 -0.002320 
#    y 0.017410 1.678870 0.007200 
#    z -0.002320 0.007200 1.837820 
# 
# From -- ./inp_files/537671.got.cif
#   From: 2010.05.17/outbox.ucp.g08.bks.cvg/sg2_269_cif.got.tgz:537671.got - 2010.06.11 11:32:03.
