data_PCOD9075192
_publ_section_title
;
Structure prediction by ZEFSAII (Michael W. Deem and Ramdas Pophale) SiO2 
 PCOD9075192
Probable space group: P -1
;
_chemical_formula_sum "Si O2"
_cell_formula_units_Z 14
_cell_length_a 9.000000
_cell_length_b 9.000000
_cell_length_c 9.000000
_cell_angle_alpha 100.000000
_cell_angle_beta 60.000000
_cell_angle_gamma 90.000000
_cell_volume 618.510989
_symmetry_space_group_name_H-M "P -1"
_symmetry_group_IT_number 2
_symmetry_cell_setting 'triclinic'
loop_
_space_group_symop_operation_xyz
x,y,z
-x,-y,-z
loop_
_atom_site_type_symbol
_atom_site_label
_atom_site_fract_x
_atom_site_fract_y
_atom_site_fract_z
Si Si1 0.488683 0.027005 0.191398
Si Si2 0.362148 0.746126 0.134426
Si Si3 0.733904 0.689814 0.501357
Si Si4 0.838068 0.932536 0.135248
Si Si5 0.006384 0.127838 0.641126
Si Si6 0.533074 0.539245 0.798602
Si Si7 0.814762 0.598586 0.110766
O O1 0.427649 0.863816 0.237960
O O2 0.672453 0.032577 0.174870
O O3 0.363504 0.155394 0.356283
O O4 0.500000 0.000000 0.000000
O O5 0.179038 0.822672 0.186055
O O6 0.351058 0.588309 0.193663
O O7 0.501337 0.698020 0.929155
O O8 0.632444 0.563439 0.604220
O O9 0.747485 0.648634 0.316071
O O10 0.930072 0.722675 0.441443
O O11 0.831739 0.759441 0.052289
O O12 0.866531 0.927407 0.297657
O O13 0.000000 0.000000 0.000000
O O14 0.000000 0.000000 0.500000
O O15 0.340685 0.490479 0.882016
O O16 0.000000 0.500000 0.000000
#
# Coordination Sequence:
#
# PCOD9075192 Si02
#       7
#     2   2   2   2   2   2   2
#     4  12  23  44  73 102 139 182 236 294 342 418
#     4  11  23  43  71  96 140 184 224 290 348 414
#     4  11  25  41  72 101 134 187 234 285 355 415
#     4  11  26  44  71 104 135 188 237 283 358 415
#     4  11  24  45  66 103 143 176 233 297 343 407
#     4  11  23  43  67 102 136 183 233 277 358 417
#     4  11  25  47  66  99 147 181 231 297 350 420
#
# _framework density 22.635006000000001
#
# number of rings (size 3 to 8) (size 9 to 14) (size 15 to 20)
#    0.000    0.857    4.286    3.000    2.000    4.000 
#    2.571    0.000    0.000    0.000    0.000    0.000 
#    0.000    0.000    0.000    0.000    0.000    0.000 
#
# Total GULP energy -77935.882992 kJ/mol
# GULP energy per Si atom -5566.848785 kJ/mol
# Density = 2.258349 g / cm^3
# Si number density = 22.635006 Si / 1000 Ang^3
#
#
#
# Elastic Constant Matrix: (Units=GPa)
#
#
# Indices 1 2 3 4 5 6 
#
# 1 101.6615 13.1464 40.6349 -7.4388 2.3786 3.1753
# 2 13.1464 52.2564 56.3286 0.3032 9.7600 23.5792
# 3 40.6349 56.3286 118.5573 -3.4780 -1.2740 -9.9577
# 4 -7.4388 0.3032 -3.4780 34.7769 15.1151 -9.5202
# 5 2.3786 9.7600 -1.2740 15.1151 25.9117 3.4018
# 6 3.1753 23.5792 -9.9577 -9.5202 3.4018 32.0918
#
#
#
# Elastic Compliance Matrix: (Units=1/GPa)
#
#
# Indices 1 2 3 4 5 6 
#
# 1 0.008673 -0.023766 0.010481 0.009094 0.000411 0.022510
# 2 -0.023766 -0.180684 0.110772 0.046055 0.025126 0.180479
# 3 0.010481 0.110772 -0.057694 -0.026744 -0.015930 -0.106573
# 4 0.009094 0.046055 -0.026744 0.035696 -0.036569 -0.028571
# 5 0.000411 0.025126 -0.015930 -0.036569 0.054906 -0.040113
# 6 0.022510 0.180479 -0.106573 -0.028571 -0.040113 -0.140964
#
#
# Mechanical properties :
#
#
# Convention : Reuss Voigt Hill
#
# Bulk Modulus (GPa) = -28.79165 54.74388 12.97611
# Shear Modulus (GPa) = -10.27501 29.38043 9.55271
#
# Velocity S-wave (km/s) = -2.13291 3.60670 2.05657
# Velocity P-wave (km/s) = 4.33743 6.44844 3.37410
#
# Compressibility (1/GPa) = -0.03473229
#
# Stress axis : x y z
#
# Youngs Moduli (GPa) = 115.29516 -5.53451 -17.33286
#
# Poissons Ratio (x) = -0.13153 0.18166
# Poissons Ratio (y) = 2.74011 1.91999
# Poissons Ratio (z) = -1.20838 0.61307
#
# Static dielectric constant tensor:
#      x y z
#    x 2.055290 0.147930 0.193080 
#    y 0.147930 2.093390 0.087060 
#    z 0.193080 0.087060 2.461770 
# 
# From -- ./inp_files/159064.got.cif
#   From: 2010.05.17/outbox.ucp.g08.bks.cvg/sg2_80_cif.got.tgz:159064.got - 2010.06.11 11:32:03.
