data_PCOD9075206
_publ_section_title
;
Structure prediction by ZEFSAII (Michael W. Deem and Ramdas Pophale) SiO2 
 PCOD9075206
Probable space group: P -1
;
_chemical_formula_sum "Si O2"
_cell_formula_units_Z 16
_cell_length_a 12.000000
_cell_length_b 30.000000
_cell_length_c 18.000000
_cell_angle_alpha 20.000000
_cell_angle_beta 20.000000
_cell_angle_gamma 30.000000
_cell_volume 749.971719
_symmetry_space_group_name_H-M "P -1"
_symmetry_group_IT_number 2
_symmetry_cell_setting 'triclinic'
loop_
_space_group_symop_operation_xyz
x,y,z
-x,-y,-z
loop_
_atom_site_type_symbol
_atom_site_label
_atom_site_fract_x
_atom_site_fract_y
_atom_site_fract_z
Si Si1 0.381668 0.895030 0.607372
Si Si2 0.719325 0.686127 0.804501
Si Si3 0.637439 0.039435 0.656774
Si Si4 0.455071 0.748225 0.263595
Si Si5 0.191781 0.207633 0.760823
Si Si6 0.403112 0.809312 0.945312
Si Si7 0.289448 0.357816 0.865835
Si Si8 0.404473 0.615013 0.662379
O O1 0.569161 0.771477 0.702334
O O2 0.367503 0.911691 0.501595
O O3 0.561758 0.035096 0.305508
O O4 0.042163 0.871977 0.904423
O O5 0.654825 0.767483 0.791442
O O6 0.101363 0.675685 0.572816
O O7 0.562917 0.534101 0.146784
O O8 0.489275 0.137169 0.653037
O O9 0.000000 0.000000 0.500000
O O10 0.424387 0.899175 0.029413
O O11 0.739352 0.704902 0.100765
O O12 0.482986 0.707944 0.395093
O O13 0.343503 0.338856 0.502210
O O14 0.952966 0.230510 0.806476
O O15 0.496634 0.734671 0.076776
O O16 0.500000 0.500000 0.500000
O O17 0.955169 0.368851 0.103378
#
# Coordination Sequence:
#
# PCOD9075206 Si02
#       8
#     2   2   2   2   2   2   2   2
#     4  11  25  46  70 102 141 179 233 288 340 412
#     4  11  23  43  72  99 137 184 234 277 345 412
#     4  12  26  43  69 104 138 181 231 283 353 409
#     4  12  23  41  72  99 135 183 227 288 337 404
#     4  11  27  44  69 102 142 184 224 289 349 398
#     4  11  23  46  71 103 137 179 236 282 339 417
#     4  12  24  42  72 103 137 179 232 282 341 409
#     4  12  26  46  67 105 142 183 230 283 345 410
#
# _framework density 21.334137999999999
#
# number of rings (size 3 to 8) (size 9 to 14) (size 15 to 20)
#    0.000    0.500    3.750    5.625    1.750    4.000 
#    0.000    3.750    0.000    0.000    0.000    0.000 
#    0.000    0.000    0.000    0.000    0.000    0.000 
#
# Total GULP energy -89386.256532 kJ/mol
# GULP energy per Si atom -5586.641033 kJ/mol
# Density = 2.128558 g / cm^3
# Si number density = 21.334138 Si / 1000 Ang^3
#
#
#
# Elastic Constant Matrix: (Units=GPa)
#
#
# Indices 1 2 3 4 5 6 
#
# 1 93.2498 19.5926 25.2855 7.6533 8.4972 1.2578
# 2 19.5926 79.9261 -1.3455 7.6962 3.7593 6.4963
# 3 25.2855 -1.3455 46.9328 5.1904 -2.7592 -3.4570
# 4 7.6533 7.6962 5.1904 30.5768 2.8931 0.9128
# 5 8.4972 3.7593 -2.7592 2.8931 13.1776 10.0569
# 6 1.2578 6.4963 -3.4570 0.9128 10.0569 32.9131
#
#
#
# Elastic Compliance Matrix: (Units=1/GPa)
#
#
# Indices 1 2 3 4 5 6 
#
# 1 0.014930 -0.003429 -0.008631 -0.000294 -0.012763 0.003108
# 2 -0.003429 0.013842 0.002478 -0.003111 0.001545 -0.002727
# 3 -0.008631 0.002478 0.027140 -0.004193 0.012153 -0.000906
# 4 -0.000294 -0.003111 -0.004193 0.035066 -0.008996 0.001961
# 5 -0.012763 0.001545 0.012153 -0.008996 0.113316 -0.032916
# 6 0.003108 -0.002727 -0.000906 0.001961 -0.032916 0.040711
#
#
# Mechanical properties :
#
#
# Convention : Reuss Voigt Hill
#
# Bulk Modulus (GPa) = 27.21182 34.13043 30.67112
# Shear Modulus (GPa) = 18.08862 27.10524 22.59693
#
# Velocity S-wave (km/s) = 2.91498 3.56829 3.25805
# Velocity P-wave (km/s) = 4.91042 5.74540 5.34425
#
# Compressibility (1/GPa) = 0.03674873
#
# Stress axis : x y z
#
# Youngs Moduli (GPa) = 66.97949 72.24170 36.84654
#
# Poissons Ratio (x) = 0.24773 0.31802
# Poissons Ratio (y) = 0.22968 -0.09132
# Poissons Ratio (z) = 0.57809 -0.17904
#
# Static dielectric constant tensor:
#      x y z
#    x 1.784370 0.010830 -0.032760 
#    y 0.010830 1.757180 -0.006880 
#    z -0.032760 -0.006880 1.909040 
# 
# From -- ./inp_files/278874.got.cif
#   From: 2010.05.17/outbox.ucp.g08.bks.cvg/sg2_140_cif.got.tgz:278874.got - 2010.06.11 11:32:03.
