data_PCOD9075756
_publ_section_title
;
Structure prediction by ZEFSAII (Michael W. Deem and Ramdas Pophale) SiO2 
 PCOD9075756
Probable space group: P -1
;
_chemical_formula_sum "Si O2"
_cell_formula_units_Z 16
_cell_length_a 21.613857
_cell_length_b 9.882106
_cell_length_c 7.320127
_cell_angle_alpha 47.855069
_cell_angle_beta 148.224519
_cell_angle_gamma 134.665599
_cell_volume 574.214618
_symmetry_space_group_name_H-M "P -1"
_symmetry_group_IT_number 2
_symmetry_cell_setting 'triclinic'
loop_
_space_group_symop_operation_xyz
x,y,z
-x,-y,-z
loop_
_atom_site_type_symbol
_atom_site_label
_atom_site_fract_x
_atom_site_fract_y
_atom_site_fract_z
Si Si1 0.348633 0.068300 0.444371
Si Si2 0.095913 0.864231 0.071117
Si Si3 0.587883 0.378104 0.278006
Si Si4 0.581766 0.002440 0.916541
Si Si5 0.637999 0.524505 0.902847
Si Si6 0.839909 0.157978 0.323219
Si Si7 0.099647 0.297119 0.754645
Si Si8 0.160578 0.274013 0.349169
O O1 0.360056 0.079514 0.686748
O O2 0.327375 0.256413 0.135857
O O3 0.221847 0.886647 0.255020
O O4 0.481072 0.076049 0.694824
O O5 0.123401 0.819482 0.389989
O O6 0.953203 0.732754 0.793424
O O7 0.092043 0.083779 0.859137
O O8 0.722245 0.531799 0.522744
O O9 0.500000 0.500000 0.000000
O O10 0.490737 0.162934 0.257650
O O11 0.608251 0.362741 0.125821
O O12 0.699448 0.162882 0.968682
O O13 0.500000 0.500000 0.500000
O O14 0.768557 0.541888 0.117479
O O15 0.958263 0.301686 0.379645
O O16 0.820662 0.936482 0.410784
O O17 0.115130 0.279568 0.024596
#
# Coordination Sequence:
#
# PCOD9075756 Si02
#       8
#     2   2   2   2   2   2   2   2
#     4   9  18  34  54  78 102 136 180 213 246 305
#     4   7  13  26  49  74  98 132 175 208 246 299
#     4  12  22  32  51  82 110 133 168 216 269 307
#     4  10  18  32  55  80 103 138 174 210 255 308
#     4  11  20  34  53  80 105 132 173 219 260 298
#     4   8  13  27  50  75  98 134 176 211 240 301
#     4   8  15  29  52  76  98 131 178 216 245 293
#     4   9  15  28  49  76 102 134 169 215 253 301
#
# _framework density 27.864145000000001
#
# number of rings (size 3 to 8) (size 9 to 14) (size 15 to 20)
#    0.000    2.750    2.500    3.000    0.000    0.000 
#    0.000    6.875    0.000    0.750    3.250    0.000 
#    0.000    0.000    0.000    0.000    0.000    0.000 
#
# Total GULP energy -89226.838553 kJ/mol
# GULP energy per Si atom -5576.677410 kJ/mol
# Density = 2.780072 g / cm^3
# Si number density = 27.864145 Si / 1000 Ang^3
#
#
#
# Elastic Constant Matrix: (Units=GPa)
#
#
# Indices 1 2 3 4 5 6 
#
# 1 95.3903 26.6527 39.5893 20.2886 42.5320 33.5751
# 2 26.6527 115.8385 39.0761 29.3696 27.0082 16.9777
# 3 39.5893 39.0761 101.3780 58.1486 44.0698 9.9065
# 4 20.2886 29.3696 58.1486 56.9675 24.9104 16.2211
# 5 42.5320 27.0082 44.0698 24.9104 63.4308 22.1487
# 6 33.5751 16.9777 9.9065 16.2211 22.1487 43.9396
#
#
#
# Elastic Compliance Matrix: (Units=1/GPa)
#
#
# Indices 1 2 3 4 5 6 
#
# 1 0.019381 -0.000486 -0.008058 0.007728 -0.005774 -0.012747
# 2 -0.000486 0.010509 -0.001687 -0.002412 -0.001438 -0.001693
# 3 -0.008058 -0.001687 0.035640 -0.032213 -0.011788 0.016608
# 4 0.007728 -0.002412 -0.032213 0.052523 0.004333 -0.019284
# 5 -0.005774 -0.001438 -0.011788 0.004333 0.029895 -0.009044
# 6 -0.012747 -0.001693 0.016608 -0.019284 -0.009044 0.041087
#
#
# Mechanical properties :
#
#
# Convention : Reuss Voigt Hill
#
# Bulk Modulus (GPa) = 22.18878 58.13810 40.16344
# Shear Modulus (GPa) = 22.27000 46.68682 34.47841
#
# Velocity S-wave (km/s) = 2.83014 4.09775 3.52145
# Velocity P-wave (km/s) = 4.31973 6.58019 5.56592
#
# Compressibility (1/GPa) = 0.04506782
#
# Stress axis : x y z
#
# Youngs Moduli (GPa) = 51.59775 95.16101 28.05863
#
# Poissons Ratio (x) = 0.04623 0.22610
# Poissons Ratio (y) = 0.02507 0.04732
# Poissons Ratio (z) = 0.41578 0.16050
#
# Static dielectric constant tensor:
#      x y z
#    x 2.224240 -0.020670 0.030110 
#    y -0.020670 1.987650 0.425010 
#    z 0.030110 0.425010 1.654170 
# 
# From -- ./inp_files/259639.got.cif
#   From: 2010.05.17/outbox.cif.g08.bks.cpg/sg2_130_cif.got.tgz:259639.got - 2010.06.03 11:33:40.
