data_PCOD9075470
_publ_section_title
;
Structure prediction by ZEFSAII (Michael W. Deem and Ramdas Pophale) SiO2 
 PCOD9075470
Probable space group: P -1
;
_chemical_formula_sum "Si O2"
_cell_formula_units_Z 16
_cell_length_a 15.000000
_cell_length_b 12.000000
_cell_length_c 9.000000
_cell_angle_alpha 80.000000
_cell_angle_beta 30.000000
_cell_angle_gamma 70.000000
_cell_volume 734.803614
_symmetry_space_group_name_H-M "P -1"
_symmetry_group_IT_number 2
_symmetry_cell_setting 'triclinic'
loop_
_space_group_symop_operation_xyz
x,y,z
-x,-y,-z
loop_
_atom_site_type_symbol
_atom_site_label
_atom_site_fract_x
_atom_site_fract_y
_atom_site_fract_z
Si Si1 0.826110 0.701481 0.274684
Si Si2 0.393617 0.456595 0.796475
Si Si3 0.949877 0.555179 0.851649
Si Si4 0.177235 0.038918 0.168154
Si Si5 0.831085 0.966476 0.176662
Si Si6 0.546272 0.196797 0.023109
Si Si7 0.545197 0.825322 0.180034
Si Si8 0.309396 0.600149 0.184073
O O1 0.855813 0.828086 0.218006
O O2 0.644186 0.715387 0.635629
O O3 0.992749 0.575076 0.116578
O O4 0.815015 0.666193 0.126967
O O5 0.500000 0.500000 0.500000
O O6 0.484127 0.306087 0.721349
O O7 0.177356 0.463420 0.089059
O O8 0.355206 0.558757 0.956884
O O9 0.127713 0.582267 0.524993
O O10 0.157216 0.037989 0.019027
O O11 0.252435 0.150627 0.083340
O O12 0.000000 0.000000 0.500000
O O13 0.361810 0.923289 0.983470
O O14 0.626476 0.069001 0.505590
O O15 0.000000 0.000000 0.000000
O O16 0.493805 0.162548 0.944390
O O17 0.691488 0.268010 0.800000
O O18 0.500000 0.500000 0.000000
#
# Coordination Sequence:
#
# PCOD9075470 Si02
#       8
#     2   2   2   2   2   2   2   2
#     4  11  25  46  74 105 147 188 248 297 367 421
#     4  12  28  46  75 111 149 193 250 302 370 440
#     4  11  26  45  76 106 149 197 243 302 361 438
#     4  12  29  49  75 110 146 198 248 305 373 443
#     4  12  29  47  75 108 147 190 244 307 374 441
#     4  12  26  48  77 104 152 198 248 305 369 439
#     4  12  27  50  76 108 152 196 247 307 372 442
#     4  12  25  47  71 108 145 192 243 303 364 434
#
# _framework density 21.774525000000001
#
# number of rings (size 3 to 8) (size 9 to 14) (size 15 to 20)
#    0.000    0.250    3.750    3.375   14.000    0.000 
#    0.000    0.000    0.000    0.000    0.000    0.000 
#    0.000    0.000    0.000    0.000    0.000    0.000 
#
# Total GULP energy -89151.239882 kJ/mol
# GULP energy per Si atom -5571.952493 kJ/mol
# Density = 2.172497 g / cm^3
# Si number density = 21.774525 Si / 1000 Ang^3
#
#
#
# Elastic Constant Matrix: (Units=GPa)
#
#
# Indices 1 2 3 4 5 6 
#
# 1 122.4361 28.7250 44.1013 -15.2431 13.6466 31.5610
# 2 28.7250 138.7850 0.5203 -17.6251 0.7541 12.3408
# 3 44.1013 0.5203 81.3269 -20.1910 13.2099 18.2982
# 4 -15.2431 -17.6251 -20.1910 45.7442 8.2406 -5.5144
# 5 13.6466 0.7541 13.2099 8.2406 38.6389 -0.2637
# 6 31.5610 12.3408 18.2982 -5.5144 -0.2637 36.7946
#
#
#
# Elastic Compliance Matrix: (Units=1/GPa)
#
#
# Indices 1 2 3 4 5 6 
#
# 1 0.012694 -0.001703 -0.004172 0.001368 -0.003370 -0.008062
# 2 -0.001703 0.008188 0.002396 0.003620 -0.001163 -0.001943
# 3 -0.004172 0.002396 0.019008 0.008513 -0.006925 -0.005452
# 4 0.001368 0.003620 0.008513 0.028923 -0.009649 -0.002355
# 5 -0.003370 -0.001163 -0.006925 -0.009649 0.031557 0.005505
# 6 -0.008062 -0.001943 -0.005452 -0.002355 0.005505 0.037142
#
#
# Mechanical properties :
#
#
# Convention : Reuss Voigt Hill
#
# Bulk Modulus (GPa) = 30.36598 54.36016 42.36307
# Shear Modulus (GPa) = 32.16564 42.18230 37.17397
#
# Velocity S-wave (km/s) = 3.84762 4.40617 4.13634
# Velocity P-wave (km/s) = 5.80645 7.13478 6.50461
#
# Compressibility (1/GPa) = 0.03293159
#
# Stress axis : x y z
#
# Youngs Moduli (GPa) = 78.77929 122.13559 52.61001
#
# Poissons Ratio (x) = 0.20797 0.21947
# Poissons Ratio (y) = 0.13414 -0.12604
# Poissons Ratio (z) = 0.32864 -0.29260
#
# Static dielectric constant tensor:
#      x y z
#    x 2.156200 -0.030180 -0.008370 
#    y -0.030180 1.795660 -0.016370 
#    z -0.008370 -0.016370 1.775050 
# 
# From -- ./inp_files/307234.got.cif
#   From: 2010.05.17/outbox.ucp.g08.bks.cvg/sg2_154_cif.got.tgz:307234.got - 2010.06.11 11:32:03.
