data_PCOD9075721
_publ_section_title
;
Structure prediction by ZEFSAII (Michael W. Deem and Ramdas Pophale) SiO2 
 PCOD9075721
Probable space group: P -1
;
_chemical_formula_sum "Si O2"
_cell_formula_units_Z 16
_cell_length_a 8.012185
_cell_length_b 7.875703
_cell_length_c 14.766492
_cell_angle_alpha 95.916810
_cell_angle_beta 114.007293
_cell_angle_gamma 113.636122
_cell_volume 739.274841
_symmetry_space_group_name_H-M "P -1"
_symmetry_group_IT_number 2
_symmetry_cell_setting 'triclinic'
loop_
_space_group_symop_operation_xyz
x,y,z
-x,-y,-z
loop_
_atom_site_type_symbol
_atom_site_label
_atom_site_fract_x
_atom_site_fract_y
_atom_site_fract_z
Si Si1 0.000755 0.779249 0.244069
Si Si2 0.282179 0.545803 0.716129
Si Si3 0.896462 0.637015 0.507353
Si Si4 0.530266 0.592126 0.109932
Si Si5 0.705097 0.308851 0.806136
Si Si6 0.608779 0.839961 0.576542
Si Si7 0.323699 0.914113 0.641879
Si Si8 0.642397 0.491608 0.629432
O O1 0.119898 0.755008 0.181160
O O2 0.925721 0.584376 0.277487
O O3 0.775675 0.768022 0.176592
O O4 0.170849 0.966919 0.347405
O O5 0.246081 0.405036 0.614398
O O6 0.461351 0.554103 0.820757
O O7 0.313450 0.751954 0.702080
O O8 0.790674 0.563841 0.576726
O O9 0.000000 0.500000 0.500000
O O10 0.085650 0.855130 0.568049
O O11 0.342399 0.629717 0.103350
O O12 0.500000 0.500000 0.000000
O O13 0.729638 0.459343 0.739958
O O14 0.480369 0.122320 0.725663
O O15 0.428394 0.886329 0.572206
O O16 0.601974 0.676313 0.635451
O O17 0.540242 0.719737 0.460957
#
# Coordination Sequence:
#
# PCOD9075721 Si02
#       8
#     2   2   2   2   2   2   2   2
#     4   9  23  39  61  86 122 152 199 247 295 347
#     4   9  19  39  58  86 123 163 190 252 292 341
#     4  10  18  32  54  87 123 162 192 223 286 353
#     4  10  24  44  65  85 113 152 205 262 307 342
#     4  11  23  37  63  91 117 159 199 238 303 354
#     4  10  21  34  52  86 128 159 198 231 282 352
#     4  10  20  35  58  87 127 158 193 232 290 363
#     4  11  22  34  55  92 125 168 194 227 286 360
#
# _framework density 21.64283
#
# number of rings (size 3 to 8) (size 9 to 14) (size 15 to 20)
#    0.750    1.250    2.500    2.250    5.250    1.500 
#    0.000    2.500    0.000    6.750    0.000    0.000 
#    0.000    0.000    0.000    0.000    0.000    0.000 
#
# Total GULP energy -89114.958539 kJ/mol
# GULP energy per Si atom -5569.684909 kJ/mol
# Density = 2.159357 g / cm^3
# Si number density = 21.642830 Si / 1000 Ang^3
#
#
#
# Elastic Constant Matrix: (Units=GPa)
#
#
# Indices 1 2 3 4 5 6 
#
# 1 104.4617 15.1286 29.9784 2.9169 -32.2164 15.8501
# 2 15.1286 59.8117 -1.2016 1.4023 -2.7052 15.8898
# 3 29.9784 -1.2016 61.0555 -2.5836 -26.0381 9.4805
# 4 2.9169 1.4023 -2.5836 13.5465 -0.9686 3.0293
# 5 -32.2164 -2.7052 -26.0381 -0.9686 36.1735 0.0402
# 6 15.8501 15.8898 9.4805 3.0293 0.0402 33.1825
#
#
#
# Elastic Compliance Matrix: (Units=1/GPa)
#
#
# Indices 1 2 3 4 5 6 
#
# 1 0.014846 -0.001650 -0.001274 -0.001091 0.012158 -0.005852
# 2 -0.001650 0.020013 0.004151 0.001559 0.003068 -0.010127
# 3 -0.001274 0.004151 0.027038 0.008567 0.018878 -0.009909
# 4 -0.001091 0.001559 0.008567 0.078255 0.007418 -0.009826
# 5 0.012158 0.003068 0.018878 0.007418 0.052505 -0.013411
# 6 -0.005852 -0.010127 -0.009909 -0.009826 -0.013411 0.041525
#
#
# Mechanical properties :
#
#
# Convention : Reuss Voigt Hill
#
# Bulk Modulus (GPa) = 15.54022 34.79328 25.16675
# Shear Modulus (GPa) = 19.74891 28.67538 24.21215
#
# Velocity S-wave (km/s) = 3.02403 3.64392 3.34835
# Velocity P-wave (km/s) = 4.40328 5.81508 5.15772
#
# Compressibility (1/GPa) = 0.06434914
#
# Stress axis : x y z
#
# Youngs Moduli (GPa) = 67.35974 49.96865 36.98499
#
# Poissons Ratio (x) = 0.08247 0.04712
# Poissons Ratio (y) = 0.11117 -0.15352
# Poissons Ratio (z) = 0.08582 -0.20742
#
# Static dielectric constant tensor:
#      x y z
#    x 1.999500 0.001020 0.012720 
#    y 0.001020 1.829660 0.007130 
#    z 0.012720 0.007130 1.794780 
# 
# From -- ./inp_files/491160.got.cif
#   From: 2010.05.17/outbox.cif.g08.bks.cpg/sg2_246_cif.got.tgz:491160.got - 2010.06.03 11:33:40.
