data_PCOD9075015
_publ_section_title
;
Structure prediction by ZEFSAII (Michael W. Deem and Ramdas Pophale) SiO2 
 PCOD9075015
Probable space group: P -1
;
_chemical_formula_sum "Si O2"
_cell_formula_units_Z 14
_cell_length_a 9.000000
_cell_length_b 15.000000
_cell_length_c 15.000000
_cell_angle_alpha 30.000000
_cell_angle_beta 50.000000
_cell_angle_gamma 70.000000
_cell_volume 642.379314
_symmetry_space_group_name_H-M "P -1"
_symmetry_group_IT_number 2
_symmetry_cell_setting 'triclinic'
loop_
_space_group_symop_operation_xyz
x,y,z
-x,-y,-z
loop_
_atom_site_type_symbol
_atom_site_label
_atom_site_fract_x
_atom_site_fract_y
_atom_site_fract_z
Si Si1 0.762819 0.097057 0.341664
Si Si2 0.801772 0.241864 0.401178
Si Si3 0.568804 0.113871 0.028370
Si Si4 0.236044 0.326746 0.273919
Si Si5 0.848185 0.582798 0.216382
Si Si6 0.714358 0.921708 0.009834
Si Si7 0.053847 0.439987 0.408021
O O1 0.814216 0.226211 0.303280
O O2 0.500000 0.000000 0.500000
O O3 0.809255 0.908554 0.496022
O O4 0.908291 0.240653 0.077092
O O5 0.747613 0.406850 0.325824
O O6 0.046505 0.306386 0.295310
O O7 0.605788 0.001882 0.721134
O O8 0.433882 0.119939 0.987709
O O9 0.787184 0.355235 0.763813
O O10 0.610541 0.931411 0.135997
O O11 0.216738 0.432838 0.278732
O O12 0.500000 0.500000 0.000000
O O13 0.884609 0.482805 0.377995
O O14 0.755229 0.730459 0.154257
O O15 0.911494 0.184011 0.709052
#
# Coordination Sequence:
#
# PCOD9075015 Si02
#       7
#     2   2   2   2   2   2   2
#     4  12  23  38  63  98 134 170 222 269 327 400
#     4  11  23  43  64  97 137 173 221 272 330 396
#     4  11  23  44  71  95 133 178 217 276 332 385
#     4  11  22  40  65  93 132 175 215 273 330 390
#     4  11  23  43  66  95 137 169 219 275 322 396
#     4  11  24  46  67  99 131 174 228 269 328 393
#     4  11  23  46  65  98 138 168 223 274 327 391
#
# _framework density 21.793977000000002
#
# number of rings (size 3 to 8) (size 9 to 14) (size 15 to 20)
#    0.000    0.857    4.286    4.714    0.000    3.429 
#    2.571    0.000    0.000    0.000    0.000    0.000 
#    0.000    0.000    0.000    0.000    0.000    0.000 
#
# Total GULP energy -77995.503717 kJ/mol
# GULP energy per Si atom -5571.107408 kJ/mol
# Density = 2.174437 g / cm^3
# Si number density = 21.793977 Si / 1000 Ang^3
#
#
#
# Elastic Constant Matrix: (Units=GPa)
#
#
# Indices 1 2 3 4 5 6 
#
# 1 58.7284 44.5971 16.6888 -15.2322 -6.1720 1.7499
# 2 44.5971 144.1412 6.6354 -38.5798 -9.7904 -10.0267
# 3 16.6888 6.6354 82.4468 -6.6715 -10.7536 -11.7179
# 4 -15.2322 -38.5798 -6.6715 53.9925 3.6030 0.1534
# 5 -6.1720 -9.7904 -10.7536 3.6030 26.5994 -19.4470
# 6 1.7499 -10.0267 -11.7179 0.1534 -19.4470 42.8532
#
#
#
# Elastic Compliance Matrix: (Units=1/GPa)
#
#
# Indices 1 2 3 4 5 6 
#
# 1 0.024576 -0.007816 -0.005721 0.000942 -0.004237 -0.006323
# 2 -0.007816 0.012058 0.003494 0.006202 0.009241 0.008267
# 3 -0.005721 0.003494 0.017127 0.001882 0.016185 0.013073
# 4 0.000942 0.006202 0.001882 0.023298 0.002177 0.002832
# 5 -0.004237 0.009241 0.016185 0.002177 0.076620 0.041524
# 6 -0.006323 0.008267 0.013073 0.002832 0.041524 0.047936
#
#
# Mechanical properties :
#
#
# Convention : Reuss Voigt Hill
#
# Bulk Modulus (GPa) = 29.69509 46.79548 38.24529
# Shear Modulus (GPa) = 21.46615 39.18201 30.32408
#
# Velocity S-wave (km/s) = 3.14181 4.24469 3.73419
# Velocity P-wave (km/s) = 5.17844 6.74845 6.01489
#
# Compressibility (1/GPa) = 0.03367560
#
# Stress axis : x y z
#
# Youngs Moduli (GPa) = 40.69039 82.93344 58.38707
#
# Poissons Ratio (x) = 0.64819 0.33401
# Poissons Ratio (y) = 0.31803 -0.20400
# Poissons Ratio (z) = 0.23278 -0.28976
#
# Static dielectric constant tensor:
#      x y z
#    x 1.788590 -0.070980 -0.026240 
#    y -0.070980 1.867120 0.152900 
#    z -0.026240 0.152900 2.038680 
# 
# From -- ./inp_files/289539.got.cif
#   From: 2010.05.17/outbox.ucp.g08.bks.cvg/sg2_145_cif.got.tgz:289539.got - 2010.06.11 11:32:03.
