data_PCOD9075993
_publ_section_title
;
Structure prediction by ZEFSAII (Michael W. Deem and Ramdas Pophale) SiO2 
 PCOD9075993
Probable space group: P -1
;
_chemical_formula_sum "Si O2"
_cell_formula_units_Z 16
_cell_length_a 13.741167
_cell_length_b 10.008942
_cell_length_c 16.998566
_cell_angle_alpha 81.812026
_cell_angle_beta 155.416162
_cell_angle_gamma 81.095396
_cell_volume 696.434364
_symmetry_space_group_name_H-M "P -1"
_symmetry_group_IT_number 2
_symmetry_cell_setting 'triclinic'
loop_
_space_group_symop_operation_xyz
x,y,z
-x,-y,-z
loop_
_atom_site_type_symbol
_atom_site_label
_atom_site_fract_x
_atom_site_fract_y
_atom_site_fract_z
Si Si1 0.575152 0.006999 0.144196
Si Si2 0.883080 0.651132 0.488191
Si Si3 0.486017 0.882962 0.330486
Si Si4 0.376669 0.372810 0.996720
Si Si5 0.190031 0.076288 0.316789
Si Si6 0.094172 0.668730 0.318024
Si Si7 0.780286 0.202796 0.729819
Si Si8 0.481236 0.470270 0.776642
O O1 0.838370 0.800647 0.389293
O O2 0.618818 0.151556 0.173910
O O3 0.237865 0.114761 0.932835
O O4 0.500000 0.000000 0.000000
O O5 0.638370 0.773080 0.371360
O O6 0.732710 0.573212 0.348450
O O7 0.229964 0.492801 0.798353
O O8 0.709553 0.914665 0.523947
O O9 0.449792 0.775681 0.376512
O O10 0.123289 0.082493 0.035839
O O11 0.064945 0.415566 0.798286
O O12 0.478787 0.437268 0.132459
O O13 0.500000 0.000000 0.500000
O O14 0.171876 0.929263 0.291814
O O15 0.839629 0.281440 0.028470
O O16 0.283083 0.641715 0.382999
O O17 0.297098 0.596899 0.553231
#
# Coordination Sequence:
#
# PCOD9075993 Si02
#       8
#     2   2   2   2   2   2   2   2
#     4  10  22  43  66  92 123 153 201 257 312 371
#     4  11  20  40  68  85 119 169 198 243 314 356
#     4  10  18  32  58  84 114 156 206 245 282 359
#     4   9  22  40  62  92 122 157 204 248 306 360
#     4  10  20  32  57  85 116 158 210 246 290 353
#     4   9  21  38  59  84 122 160 196 248 310 345
#     4  10  19  34  56  84 116 156 208 243 286 356
#     4  11  20  39  62  84 128 160 202 253 298 363
#
# _framework density 22.974167000000001
#
# number of rings (size 3 to 8) (size 9 to 14) (size 15 to 20)
#    0.750    1.250    3.750    0.000    0.000    2.500 
#    2.250    6.250    5.500    0.000    0.000    0.000 
#    0.000    0.000    0.000    0.000    0.000    0.000 
#
# Total GULP energy -89287.663499 kJ/mol
# GULP energy per Si atom -5580.478969 kJ/mol
# Density = 2.292188 g / cm^3
# Si number density = 22.974167 Si / 1000 Ang^3
#
#
#
# Elastic Constant Matrix: (Units=GPa)
#
#
# Indices 1 2 3 4 5 6 
#
# 1 94.3803 37.7711 38.3155 -5.4818 -20.3838 2.8898
# 2 37.7711 121.9159 69.5899 12.8880 -11.1284 -4.6699
# 3 38.3155 69.5899 132.5377 9.7624 -7.4897 17.7945
# 4 -5.4818 12.8880 9.7624 45.6795 -0.9499 -4.4835
# 5 -20.3838 -11.1284 -7.4897 -0.9499 35.1542 -12.9828
# 6 2.8898 -4.6699 17.7945 -4.4835 -12.9828 19.2976
#
#
#
# Elastic Compliance Matrix: (Units=1/GPa)
#
#
# Indices 1 2 3 4 5 6 
#
# 1 0.015571 -0.000713 -0.005344 0.004603 0.012080 0.011620
# 2 -0.000713 0.016009 -0.010322 -0.000219 0.009868 0.020087
# 3 -0.005344 -0.010322 0.017869 -0.004566 -0.013022 -0.027997
# 4 0.004603 -0.000219 -0.004566 0.025056 0.007631 0.014423
# 5 0.012080 0.009868 -0.013022 0.007631 0.054966 0.051339
# 6 0.011620 0.020087 -0.027997 0.014423 0.051339 0.118647
#
#
# Mechanical properties :
#
#
# Convention : Reuss Voigt Hill
#
# Bulk Modulus (GPa) = 59.91385 71.13185 65.52285
# Shear Modulus (GPa) = 17.45573 33.57009 25.51291
#
# Velocity S-wave (km/s) = 2.75943 3.82672 3.33604
# Velocity P-wave (km/s) = 6.02396 7.11013 6.58946
#
# Compressibility (1/GPa) = 0.01669063
#
# Stress axis : x y z
#
# Youngs Moduli (GPa) = 64.22365 62.46661 55.96279
#
# Poissons Ratio (x) = 0.04452 0.29905
# Poissons Ratio (y) = 0.04577 0.57767
# Poissons Ratio (z) = 0.34319 0.64481
#
# Static dielectric constant tensor:
#      x y z
#    x 1.900320 -0.013900 0.015430 
#    y -0.013900 1.953500 -0.028340 
#    z 0.015430 -0.028340 1.888570 
# 
# From -- ./inp_files/531844.got.cif
#   From: 2010.05.17/outbox.cif.g08.bks.cpg/sg2_266_cif.got.tgz:531844.got - 2010.06.03 11:33:40.
