data_PCOD9075421
_publ_section_title
;
Structure prediction by ZEFSAII (Michael W. Deem and Ramdas Pophale) SiO2 
 PCOD9075421
Probable space group: P -1
;
_chemical_formula_sum "Si O2"
_cell_formula_units_Z 15
_cell_length_a 9.000000
_cell_length_b 12.000000
_cell_length_c 9.000000
_cell_angle_alpha 90.000000
_cell_angle_beta 50.000000
_cell_angle_gamma 100.000000
_cell_volume 725.212580
_symmetry_space_group_name_H-M "P -1"
_symmetry_group_IT_number 2
_symmetry_cell_setting 'triclinic'
loop_
_space_group_symop_operation_xyz
x,y,z
-x,-y,-z
loop_
_atom_site_type_symbol
_atom_site_label
_atom_site_fract_x
_atom_site_fract_y
_atom_site_fract_z
Si Si1 0.435575 0.776184 0.562234
Si Si2 0.079260 0.761265 0.554513
Si Si3 0.000000 0.000000 0.500000
Si Si4 0.500633 0.059652 0.194567
Si Si5 0.213411 0.099804 0.882243
Si Si6 0.328201 0.724274 0.110384
Si Si7 0.268531 0.329976 0.021333
Si Si8 0.768904 0.441966 0.107436
O O1 0.263303 0.784856 0.553857
O O2 0.445094 0.863134 0.692215
O O3 0.652326 0.830787 0.342522
O O4 0.361494 0.646120 0.683725
O O5 0.170221 0.723472 0.343691
O O6 0.993677 0.873200 0.572349
O O7 0.896454 0.668407 0.745078
O O8 0.741204 0.975718 0.664367
O O9 0.629326 0.962443 0.135593
O O10 0.596755 0.146268 0.000788
O O11 0.175311 0.209411 0.996578
O O12 0.000000 0.000000 0.000000
O O13 0.521890 0.684512 0.047518
O O14 0.240569 0.640618 0.030255
O O15 0.306125 0.444347 0.895519
O O16 0.000000 0.500000 0.000000
#
# Coordination Sequence:
#
# PCOD9075421 Si02
#       8
#     2   2   1   2   2   2   2   2
#     4  11  24  49  71 109 148 197 250 309 365 445
#     4  12  25  45  72 108 150 194 244 302 378 446
#     4  12  24  40  74 108 154 194 236 312 374 450
#     4  11  25  44  73 111 152 190 251 306 376 450
#     4  12  27  43  76 112 154 195 245 303 380 450
#     4  11  26  48  72 108 147 195 247 304 377 451
#     4  12  25  48  74 108 149 199 244 310 373 437
#     4  11  26  50  77 103 146 192 259 316 362 439
#
# _framework density 20.683589999999999
#
# number of rings (size 3 to 8) (size 9 to 14) (size 15 to 20)
#    0.000    0.533    5.333    1.600    5.600    2.133 
#    0.000    0.000    0.000    0.000    0.000    0.000 
#    0.000    0.000    0.000    0.000    0.000    0.000 
#
# Total GULP energy -83508.130177 kJ/mol
# GULP energy per Si atom -5567.208678 kJ/mol
# Density = 2.063651 g / cm^3
# Si number density = 20.683590 Si / 1000 Ang^3
#
#
#
# Elastic Constant Matrix: (Units=GPa)
#
#
# Indices 1 2 3 4 5 6 
#
# 1 117.6739 48.0947 45.4234 -5.4989 -5.9775 -9.2886
# 2 48.0947 129.6770 48.5011 -29.2392 5.2886 -10.4906
# 3 45.4234 48.5011 150.8421 -15.9787 -3.0874 -5.3126
# 4 -5.4989 -29.2392 -15.9787 41.2001 4.7655 4.5103
# 5 -5.9775 5.2886 -3.0874 4.7655 37.2039 -4.6855
# 6 -9.2886 -10.4906 -5.3126 4.5103 -4.6855 47.3706
#
#
#
# Elastic Compliance Matrix: (Units=1/GPa)
#
#
# Indices 1 2 3 4 5 6 
#
# 1 0.011077 -0.003826 -0.002271 -0.002599 0.002667 0.001581
# 2 -0.003826 0.011672 -0.001867 0.007365 -0.003297 0.000598
# 3 -0.002271 -0.001867 0.008075 0.001466 0.000376 -0.000056
# 4 -0.002599 0.007365 0.001466 0.030599 -0.005536 -0.002175
# 5 0.002667 -0.003297 0.000376 -0.005536 0.028922 0.003223
# 6 0.001581 0.000598 -0.000056 -0.002175 0.003223 0.022072
#
#
# Mechanical properties :
#
#
# Convention : Reuss Voigt Hill
#
# Bulk Modulus (GPa) = 67.12953 75.80350 71.46651
# Shear Modulus (GPa) = 37.50657 42.23315 39.86986
#
# Velocity S-wave (km/s) = 4.26296 4.52361 4.39522
# Velocity P-wave (km/s) = 7.53368 8.00079 7.77075
#
# Compressibility (1/GPa) = 0.01489657
#
# Stress axis : x y z
#
# Youngs Moduli (GPa) = 90.27654 85.67364 123.84558
#
# Poissons Ratio (x) = 0.32778 0.28119
# Poissons Ratio (y) = 0.34539 0.23124
# Poissons Ratio (z) = 0.20497 0.15997
#
# Static dielectric constant tensor:
#      x y z
#    x 1.764160 0.006130 0.023380 
#    y 0.006130 1.748360 0.005720 
#    z 0.023380 0.005720 1.820920 
# 
# From -- ./inp_files/187351.got.cif
#   From: 2010.05.17/outbox.ucp.g08.bks.cvg/sg2_94_cif.got.tgz:187351.got - 2010.06.11 11:32:03.
