data_PCOD9075394
_publ_section_title
;
Structure prediction by ZEFSAII (Michael W. Deem and Ramdas Pophale) SiO2 
 PCOD9075394
Probable space group: P -1
;
_chemical_formula_sum "Si O2"
_cell_formula_units_Z 14
_cell_length_a 12.000000
_cell_length_b 18.000000
_cell_length_c 18.000000
_cell_angle_alpha 30.000000
_cell_angle_beta 30.000000
_cell_angle_gamma 20.000000
_cell_volume 633.120058
_symmetry_space_group_name_H-M "P -1"
_symmetry_group_IT_number 2
_symmetry_cell_setting 'triclinic'
loop_
_space_group_symop_operation_xyz
x,y,z
-x,-y,-z
loop_
_atom_site_type_symbol
_atom_site_label
_atom_site_fract_x
_atom_site_fract_y
_atom_site_fract_z
Si Si1 0.093776 0.716656 0.062014
Si Si2 0.727418 0.220242 0.868259
Si Si3 0.198571 0.101164 0.330305
Si Si4 0.109449 0.292651 0.655109
Si Si5 0.674527 0.617356 0.189030
Si Si6 0.241852 0.911056 0.325514
Si Si7 0.081179 0.677258 0.930257
O O1 0.039271 0.642381 0.230953
O O2 0.500000 0.500000 0.000000
O O3 0.988151 0.733004 0.023173
O O4 0.915822 0.963368 0.978181
O O5 0.557519 0.321200 0.797654
O O6 0.430819 0.415404 0.931309
O O7 0.994871 0.212844 0.739663
O O8 0.026770 0.347944 0.214945
O O9 0.892227 0.152468 0.490252
O O10 0.489947 0.929603 0.370553
O O11 0.344597 0.976494 0.274122
O O12 0.000000 0.500000 0.500000
O O13 0.496374 0.711500 0.290958
O O14 0.783179 0.732213 0.016457
O O15 0.950827 0.144533 0.243118
#
# Coordination Sequence:
#
# PCOD9075394 Si02
#       7
#     2   2   2   2   2   2   2
#     4  12  27  47  75 103 145 192 240 294 357 424
#     4  12  26  47  74 105 148 188 235 301 360 423
#     4  11  26  45  73 101 145 188 235 292 363 418
#     4  12  28  50  74 104 150 196 235 292 364 428
#     4  12  25  43  75 106 137 185 240 296 357 419
#     4  11  24  46  72 104 141 183 238 302 351 422
#     4  12  24  45  74 104 142 182 243 297 353 421
#
# _framework density 22.11271
#
# number of rings (size 3 to 8) (size 9 to 14) (size 15 to 20)
#    0.000    0.286    4.286    4.286    6.000    0.000 
#    2.571    1.429    0.000    0.000    0.000    0.000 
#    0.000    0.000    0.000    0.000    0.000    0.000 
#
# Total GULP energy -78102.951152 kJ/mol
# GULP energy per Si atom -5578.782225 kJ/mol
# Density = 2.206238 g / cm^3
# Si number density = 22.112710 Si / 1000 Ang^3
#
#
#
# Elastic Constant Matrix: (Units=GPa)
#
#
# Indices 1 2 3 4 5 6 
#
# 1 152.5580 50.2595 42.1880 -19.7222 3.2455 16.7570
# 2 50.2595 108.2563 -3.7805 -18.7255 1.9041 14.8664
# 3 42.1880 -3.7805 64.8909 -25.8530 11.6229 4.6980
# 4 -19.7222 -18.7255 -25.8530 29.9921 -0.5010 11.4245
# 5 3.2455 1.9041 11.6229 -0.5010 30.2670 0.4612
# 6 16.7570 14.8664 4.6980 11.4245 0.4612 47.2749
#
#
#
# Elastic Compliance Matrix: (Units=1/GPa)
#
#
# Indices 1 2 3 4 5 6 
#
# 1 0.010636 -0.006604 -0.010517 -0.006478 0.003193 0.000886
# 2 -0.006604 0.020164 0.019798 0.030215 -0.007462 -0.013197
# 3 -0.010517 0.019798 0.051033 0.057208 -0.018445 -0.021214
# 4 -0.006478 0.030215 0.057208 0.112063 -0.020714 -0.039769
# 5 0.003193 -0.007462 -0.018445 -0.020714 0.039790 0.007665
# 6 0.000886 -0.013197 -0.021214 -0.039769 0.007665 0.036633
#
#
# Mechanical properties :
#
#
# Convention : Reuss Voigt Hill
#
# Bulk Modulus (GPa) = 11.46939 55.89326 33.68133
# Shear Modulus (GPa) = 17.00532 37.30934 27.15733
#
# Velocity S-wave (km/s) = 2.77615 4.11205 3.50827
# Velocity P-wave (km/s) = 3.93370 6.91930 5.62809
#
# Compressibility (1/GPa) = 0.08718859
#
# Stress axis : x y z
#
# Youngs Moduli (GPa) = 94.02160 49.59231 19.59522
#
# Poissons Ratio (x) = 0.32749 0.20607
# Poissons Ratio (y) = 0.62088 -0.38794
# Poissons Ratio (z) = 0.98878 -0.98182
#
# Static dielectric constant tensor:
#      x y z
#    x 1.836910 -0.074020 -0.046210 
#    y -0.074020 1.844640 0.055910 
#    z -0.046210 0.055910 1.847550 
# 
# From -- ./inp_files/349742.got.cif
#   From: 2010.05.17/outbox.ucp.g08.bks.cvg/sg2_175_cif.got.tgz:349742.got - 2010.06.11 11:32:03.
