data_PCOD9075428
_publ_section_title
;
Structure prediction by ZEFSAII (Michael W. Deem and Ramdas Pophale) SiO2 
 PCOD9075428
Probable space group: P -1
;
_chemical_formula_sum "Si O2"
_cell_formula_units_Z 16
_cell_length_a 15.000000
_cell_length_b 15.000000
_cell_length_c 6.000000
_cell_angle_alpha 120.000000
_cell_angle_beta 110.000000
_cell_angle_gamma 40.000000
_cell_volume 749.463735
_symmetry_space_group_name_H-M "P -1"
_symmetry_group_IT_number 2
_symmetry_cell_setting 'triclinic'
loop_
_space_group_symop_operation_xyz
x,y,z
-x,-y,-z
loop_
_atom_site_type_symbol
_atom_site_label
_atom_site_fract_x
_atom_site_fract_y
_atom_site_fract_z
Si Si1 0.593861 0.700728 0.080444
Si Si2 0.617598 0.909814 0.169766
Si Si3 0.439000 0.444084 0.490943
Si Si4 0.871355 0.456015 0.299619
Si Si5 0.369368 0.859343 0.428253
Si Si6 0.100570 0.395760 0.156349
Si Si7 0.927111 0.997225 0.633499
Si Si8 0.153113 0.742319 0.824038
O O1 0.590489 0.825956 0.181071
O O2 0.726673 0.586215 0.211312
O O3 0.446351 0.782037 0.160771
O O4 0.618157 0.597047 0.779649
O O5 0.610976 0.032796 0.399112
O O6 0.767677 0.771740 0.019739
O O7 0.500000 0.000000 0.000000
O O8 0.500000 0.500000 0.500000
O O9 0.549066 0.287707 0.529107
O O10 0.310544 0.588464 0.706870
O O11 0.852101 0.533404 0.609821
O O12 0.900473 0.312609 0.153939
O O13 0.006194 0.403574 0.248465
O O14 0.207955 0.965511 0.469220
O O15 0.000000 0.500000 0.000000
O O16 0.866204 0.134829 0.914589
O O17 0.000000 0.000000 0.500000
O O18 0.051409 0.833133 0.640892
#
# Coordination Sequence:
#
# PCOD9075428 Si02
#       8
#     2   2   2   2   2   2   2   2
#     4  12  25  46  73 103 147 189 236 297 355 422
#     4  12  25  46  70 102 149 185 234 296 355 425
#     4  12  26  45  74 102 139 188 243 291 354 424
#     4  11  25  42  73 103 135 187 236 290 349 423
#     4  12  27  44  72 107 139 189 241 288 363 422
#     4  11  25  44  69 103 140 182 237 282 353 420
#     4  11  28  47  70 104 142 185 235 300 363 412
#     4  11  26  46  70  99 141 178 239 290 351 429
#
# _framework density 21.348597999999999
#
# number of rings (size 3 to 8) (size 9 to 14) (size 15 to 20)
#    0.000    0.500    3.750    3.375    7.000    3.000 
#    0.000    0.000    0.000    0.000    0.000    0.000 
#    0.000    0.000    0.000    0.000    0.000    0.000 
#
# Total GULP energy -89251.401342 kJ/mol
# GULP energy per Si atom -5578.212584 kJ/mol
# Density = 2.130001 g / cm^3
# Si number density = 21.348598 Si / 1000 Ang^3
#
#
#
# Elastic Constant Matrix: (Units=GPa)
#
#
# Indices 1 2 3 4 5 6 
#
# 1 140.4221 26.0163 15.4421 -4.2825 -0.2042 10.9462
# 2 26.0163 125.7714 9.3773 -3.7331 -0.5040 15.9193
# 3 15.4421 9.3773 31.9526 6.4698 0.1669 2.4423
# 4 -4.2825 -3.7331 6.4698 31.0816 -4.1781 1.3268
# 5 -0.2042 -0.5040 0.1669 -4.1781 30.2163 16.5911
# 6 10.9462 15.9193 2.4423 1.3268 16.5911 46.0397
#
#
#
# Elastic Compliance Matrix: (Units=1/GPa)
#
#
# Indices 1 2 3 4 5 6 
#
# 1 0.007945 -0.001058 -0.003803 0.002023 0.001364 -0.001872
# 2 -0.001058 0.008855 -0.002199 0.001851 0.002390 -0.003608
# 3 -0.003803 -0.002199 0.035446 -0.008436 -0.001795 0.000674
# 4 0.002023 0.001851 -0.008436 0.035614 0.007416 -0.004372
# 5 0.001364 0.002390 -0.001795 0.007416 0.043479 -0.016938
# 6 -0.001872 -0.003608 0.000674 -0.004372 -0.016938 0.029607
#
#
# Mechanical properties :
#
#
# Convention : Reuss Voigt Hill
#
# Bulk Modulus (GPa) = 26.22845 44.42417 35.32631
# Shear Modulus (GPa) = 26.62777 37.95486 32.29131
#
# Velocity S-wave (km/s) = 3.53552 4.22104 3.89340
# Velocity P-wave (km/s) = 5.38322 6.67910 6.06586
#
# Compressibility (1/GPa) = 0.03812653
#
# Stress axis : x y z
#
# Youngs Moduli (GPa) = 125.86391 112.93231 28.21220
#
# Poissons Ratio (x) = 0.11943 0.10729
# Poissons Ratio (y) = 0.13311 0.06204
# Poissons Ratio (z) = 0.47866 0.24834
#
# Static dielectric constant tensor:
#      x y z
#    x 1.755550 -0.049860 -0.080390 
#    y -0.049860 1.670820 -0.070210 
#    z -0.080390 -0.070210 1.844990 
# 
# From -- ./inp_files/97578.got.cif
#   From: 2010.05.17/outbox.ucp.g08.bks.cvg/sg2_49_cif.got.tgz:97578.got - 2010.06.11 11:32:03.
