data_PCOD9075186
_publ_section_title
;
Structure prediction by ZEFSAII (Michael W. Deem and Ramdas Pophale) SiO2 
 PCOD9075186
Probable space group: P -1
;
_chemical_formula_sum "Si O2"
_cell_formula_units_Z 14
_cell_length_a 15.000000
_cell_length_b 15.000000
_cell_length_c 12.000000
_cell_angle_alpha 50.000000
_cell_angle_beta 20.000000
_cell_angle_gamma 50.000000
_cell_volume 699.621350
_symmetry_space_group_name_H-M "P -1"
_symmetry_group_IT_number 2
_symmetry_cell_setting 'triclinic'
loop_
_space_group_symop_operation_xyz
x,y,z
-x,-y,-z
loop_
_atom_site_type_symbol
_atom_site_label
_atom_site_fract_x
_atom_site_fract_y
_atom_site_fract_z
Si Si1 0.333451 0.755708 0.720237
Si Si2 0.699669 0.566831 0.560689
Si Si3 0.808837 0.719598 0.510045
Si Si4 0.477730 0.007821 0.384113
Si Si5 0.277022 0.414643 0.054886
Si Si6 0.550589 0.243911 0.668259
Si Si7 0.894450 0.908767 0.783124
O O1 0.611206 0.689290 0.497745
O O2 0.321173 0.898081 0.624969
O O3 0.355338 0.713648 0.598731
O O4 0.088152 0.725719 0.110015
O O5 0.670632 0.625578 0.672900
O O6 0.002514 0.495161 0.266956
O O7 0.492450 0.486882 0.808808
O O8 0.819825 0.666345 0.665973
O O9 0.656932 0.855357 0.586539
O O10 0.500000 0.000000 0.500000
O O11 0.737660 0.973846 0.024273
O O12 0.422282 0.337409 0.841009
O O13 0.830169 0.173436 0.440933
O O14 0.321585 0.163260 0.966640
O O15 0.000000 0.000000 0.500000
#
# Coordination Sequence:
#
# PCOD9075186 Si02
#       7
#     2   2   2   2   2   2   2
#     4  11  26  45  73 103 147 180 232 290 355 415
#     4  12  26  47  72 103 142 185 238 292 341 410
#     4  12  25  46  72 105 141 183 235 292 350 413
#     4  11  23  42  73 106 139 181 229 285 356 419
#     4  12  28  46  74 102 139 190 239 286 344 412
#     4  11  26  47  68 104 143 182 235 287 347 417
#     4  11  24  45  71 102 144 184 230 287 348 417
#
# _framework density 20.010824
#
# number of rings (size 3 to 8) (size 9 to 14) (size 15 to 20)
#    0.000    0.571    2.857    4.286    4.000    4.571 
#    0.000    0.000    0.000    0.000    0.000    0.000 
#    0.000    0.000    0.000    0.000    0.000    0.000 
#
# Total GULP energy -77998.073318 kJ/mol
# GULP energy per Si atom -5571.290951 kJ/mol
# Density = 1.996528 g / cm^3
# Si number density = 20.010824 Si / 1000 Ang^3
#
#
#
# Elastic Constant Matrix: (Units=GPa)
#
#
# Indices 1 2 3 4 5 6 
#
# 1 138.1912 59.0558 48.4803 22.6986 8.2374 10.0142
# 2 59.0558 152.9797 56.8269 36.9727 -2.4619 9.5979
# 3 48.4803 56.8269 145.1847 18.1362 1.7924 6.3124
# 4 22.6986 36.9727 18.1362 52.1119 2.9538 -5.0187
# 5 8.2374 -2.4619 1.7924 2.9538 59.8937 8.5947
# 6 10.0142 9.5979 6.3124 -5.0187 8.5947 54.7327
#
#
#
# Elastic Compliance Matrix: (Units=1/GPa)
#
#
# Indices 1 2 3 4 5 6 
#
# 1 0.009373 -0.002449 -0.001897 -0.001725 -0.001097 -0.001053
# 2 -0.002449 0.009730 -0.002274 -0.005282 0.001307 -0.001686
# 3 -0.001897 -0.002274 0.008491 -0.000542 -0.000020 -0.000280
# 4 -0.001725 -0.005282 -0.000542 0.024340 -0.001710 0.003805
# 5 -0.001097 0.001307 -0.000020 -0.001710 0.017404 -0.002916
# 6 -0.001053 -0.001686 -0.000280 0.003805 -0.002916 0.019598
#
#
# Mechanical properties :
#
#
# Convention : Reuss Voigt Hill
#
# Bulk Modulus (GPa) = 69.65738 85.00908 77.33323
# Shear Modulus (GPa) = 46.74643 51.48051 49.11347
#
# Velocity S-wave (km/s) = 4.83852 5.07762 4.95951
# Velocity P-wave (km/s) = 8.13022 8.77212 8.45726
#
# Compressibility (1/GPa) = 0.01435598
#
# Stress axis : x y z
#
# Youngs Moduli (GPa) = 106.68831 102.77428 117.76857
#
# Poissons Ratio (x) = 0.25165 0.22338
# Poissons Ratio (y) = 0.26124 0.26779
# Poissons Ratio (z) = 0.20236 0.23369
#
# Static dielectric constant tensor:
#      x y z
#    x 1.753570 -0.013100 -0.012560 
#    y -0.013100 1.751010 -0.032210 
#    z -0.012560 -0.032210 1.746940 
# 
# From -- ./inp_files/454585.got.cif
#   From: 2010.05.17/outbox.ucp.g08.bks.cvg/sg2_228_cif.got.tgz:454585.got - 2010.06.11 11:32:03.
