data_PCOD9075050
_publ_section_title
;
Structure prediction by ZEFSAII (Michael W. Deem and Ramdas Pophale) SiO2 
 PCOD9075050
Probable space group: P -1
;
_chemical_formula_sum "Si O2"
_cell_formula_units_Z 14
_cell_length_a 12.000000
_cell_length_b 18.000000
_cell_length_c 9.000000
_cell_angle_alpha 100.000000
_cell_angle_beta 90.000000
_cell_angle_gamma 20.000000
_cell_volume 572.817632
_symmetry_space_group_name_H-M "P -1"
_symmetry_group_IT_number 2
_symmetry_cell_setting 'triclinic'
loop_
_space_group_symop_operation_xyz
x,y,z
-x,-y,-z
loop_
_atom_site_type_symbol
_atom_site_label
_atom_site_fract_x
_atom_site_fract_y
_atom_site_fract_z
Si Si1 0.290775 0.752639 0.980575
Si Si2 0.240171 0.530703 0.850504
Si Si3 0.317218 0.042597 0.368291
Si Si4 0.220078 0.039559 0.855794
Si Si5 0.350784 0.604503 0.370583
Si Si6 0.747425 0.713849 0.973117
Si Si7 0.806215 0.706563 0.517117
O O1 0.490706 0.565961 0.797133
O O2 0.554856 0.625277 0.050357
O O3 0.078195 0.832199 0.119931
O O4 0.000000 0.000000 0.000000
O O5 0.509373 0.403643 0.693688
O O6 0.969530 0.770361 0.992102
O O7 0.987024 0.621154 0.848319
O O8 0.099242 0.264828 0.439455
O O9 0.073993 0.138042 0.491729
O O10 0.442109 0.945037 0.167112
O O11 0.703646 0.785767 0.371893
O O12 0.416760 0.948845 0.686441
O O13 0.529203 0.806382 0.883866
O O14 0.500000 0.500000 0.500000
O O15 0.000000 0.500000 0.000000
O O16 0.000000 0.500000 0.500000
#
# Coordination Sequence:
#
# PCOD9075050 Si02
#       7
#     2   2   2   2   2   2   2
#     4  11  24  42  69  98 133 177 231 276 336 421
#     4  11  23  44  68  97 133 184 224 277 343 413
#     4  11  24  44  66  98 139 170 224 289 332 407
#     4  11  22  42  66  93 133 176 223 269 338 410
#     4  11  25  44  69  94 138 180 221 284 353 395
#     4  12  25  43  70 101 135 176 228 279 344 413
#     4  11  24  39  68  98 132 174 227 278 342 396
#
# _framework density 24.440588000000002
#
# number of rings (size 3 to 8) (size 9 to 14) (size 15 to 20)
#    0.000    0.857    1.429    7.286    6.000    0.000 
#    0.000    1.429    0.000    0.000    0.000    0.000 
#    0.000    0.000    0.000    0.000    0.000    0.000 
#
# Total GULP energy -77941.347635 kJ/mol
# GULP energy per Si atom -5567.239117 kJ/mol
# Density = 2.438496 g / cm^3
# Si number density = 24.440588 Si / 1000 Ang^3
#
#
#
# Elastic Constant Matrix: (Units=GPa)
#
#
# Indices 1 2 3 4 5 6 
#
# 1 89.0402 -5.4474 26.9819 12.0262 -32.9490 5.4345
# 2 -5.4474 108.2507 11.3398 -18.3438 4.1950 4.8576
# 3 26.9819 11.3398 90.2630 -14.3447 -30.9297 -14.7617
# 4 12.0262 -18.3438 -14.3447 34.9479 4.9434 5.2285
# 5 -32.9490 4.1950 -30.9297 4.9434 40.1483 -5.1757
# 6 5.4345 4.8576 -14.7617 5.2285 -5.1757 45.5011
#
#
#
# Elastic Compliance Matrix: (Units=1/GPa)
#
#
# Indices 1 2 3 4 5 6 
#
# 1 0.018719 -0.001179 -0.001707 -0.009979 0.015430 0.000238
# 2 -0.001179 0.010808 -0.002189 0.006331 -0.004951 -0.003014
# 3 -0.001707 -0.002189 0.018300 0.003941 0.013400 0.007446
# 4 -0.009979 0.006331 0.003941 0.039160 -0.011150 -0.003974
# 5 0.015430 -0.004951 0.013400 -0.011150 0.051089 0.010125
# 6 0.000238 -0.003014 0.007446 -0.003974 0.010125 0.026295
#
#
# Mechanical properties :
#
#
# Convention : Reuss Voigt Hill
#
# Bulk Modulus (GPa) = 26.54129 39.25584 32.89856
# Shear Modulus (GPa) = 26.72662 41.09812 33.91237
#
# Velocity S-wave (km/s) = 3.31045 4.10512 3.72901
# Velocity P-wave (km/s) = 5.04928 6.21015 5.65956
#
# Compressibility (1/GPa) = 0.03767715
#
# Stress axis : x y z
#
# Youngs Moduli (GPa) = 53.42120 92.52629 54.64577
#
# Poissons Ratio (x) = 0.10907 0.09330
# Poissons Ratio (y) = 0.06297 0.11959
# Poissons Ratio (z) = 0.09121 0.20250
#
# Static dielectric constant tensor:
#      x y z
#    x 15.320780 -32.341120 7.191210 
#    y -32.341120 80.020480 -17.341430 
#    z 7.191210 -17.341430 5.852350 
# 
# From -- ./inp_files/277993.got.cif
#   From: 2010.05.17/outbox.ucp.g08.bks.cvg/sg2_139_cif.got.tgz:277993.got - 2010.06.11 11:32:03.
