data_PCOD9075862
_publ_section_title
;
Structure prediction by ZEFSAII (Michael W. Deem and Ramdas Pophale) SiO2 
 PCOD9075862
Probable space group: P -1
;
_chemical_formula_sum "Si O2"
_cell_formula_units_Z 15
_cell_length_a 6.808666
_cell_length_b 9.759277
_cell_length_c 15.923852
_cell_angle_alpha 132.229862
_cell_angle_beta 121.312066
_cell_angle_gamma 92.686696
_cell_volume 521.852240
_symmetry_space_group_name_H-M "P -1"
_symmetry_group_IT_number 2
_symmetry_cell_setting 'triclinic'
loop_
_space_group_symop_operation_xyz
x,y,z
-x,-y,-z
loop_
_atom_site_type_symbol
_atom_site_label
_atom_site_fract_x
_atom_site_fract_y
_atom_site_fract_z
Si Si1 0.960855 0.504017 0.393731
Si Si2 0.979026 0.056931 0.865880
Si Si3 0.688245 0.227122 0.968481
Si Si4 0.725214 0.859943 0.549126
Si Si5 0.753402 0.068685 0.483566
Si Si6 0.500000 0.000000 0.000000
Si Si7 0.320307 0.561874 0.096196
Si Si8 0.210373 0.393202 0.270552
O O1 0.000000 0.500000 0.500000
O O2 0.205469 0.490498 0.399402
O O3 0.048674 0.744410 0.469273
O O4 0.669114 0.272518 0.190468
O O5 0.896684 0.948835 0.710656
O O6 0.980445 0.888422 0.863830
O O7 0.720134 0.063092 0.847528
O O8 0.253422 0.333123 0.028831
O O9 0.608678 0.366570 0.955947
O O10 0.469990 0.079351 0.934140
O O11 0.002351 0.386940 0.152837
O O12 0.899712 0.047574 0.589281
O O13 0.542183 0.573415 0.384740
O O14 0.454843 0.868816 0.506468
O O15 0.539533 0.798520 0.294321
O O16 0.000000 0.500000 0.000000
#
# Coordination Sequence:
#
# PCOD9075862 Si02
#       8
#     2   2   2   2   2   1   2   2
#     4  10  22  39  63  85 115 156 203 244 286 347
#     4  11  21  33  58  87 120 150 184 241 305 353
#     4  10  20  36  56  85 110 151 196 240 282 347
#     4  10  19  31  53  82 119 147 183 238 293 347
#     4  10  19  33  55  86 113 148 199 241 282 339
#     4  10  22  36  60  84 112 150 204 244 282 336
#     4  10  18  32  56  84 113 149 194 234 291 348
#     4  10  22  36  55  88 119 149 187 242 303 349
#
# _framework density 28.743769
#
# number of rings (size 3 to 8) (size 9 to 14) (size 15 to 20)
#    0.000    1.867    2.667    3.200    7.467    0.000 
#    0.000    0.000    0.000    9.600    0.000    0.000 
#    0.000    0.000    0.000    0.000    0.000    0.000 
#
# Total GULP energy -83715.544464 kJ/mol
# GULP energy per Si atom -5581.036298 kJ/mol
# Density = 2.867835 g / cm^3
# Si number density = 28.743769 Si / 1000 Ang^3
#
#
#
# Elastic Constant Matrix: (Units=GPa)
#
#
# Indices 1 2 3 4 5 6 
#
# 1 46.7558 37.2647 2.2127 1.1906 0.2505 -2.2880
# 2 37.2647 245.8623 84.0788 9.0643 -20.8821 23.0007
# 3 2.2127 84.0788 179.5785 16.7403 -0.9774 3.8826
# 4 1.1906 9.0643 16.7403 69.9555 -1.4328 -0.9598
# 5 0.2505 -20.8821 -0.9774 -1.4328 24.7562 4.8427
# 6 -2.2880 23.0007 3.8826 -0.9598 4.8427 51.8769
#
#
#
# Elastic Compliance Matrix: (Units=1/GPa)
#
#
# Indices 1 2 3 4 5 6 
#
# 1 0.025899 -0.005500 0.002169 -0.000308 -0.005603 0.003936
# 2 -0.005500 0.006813 -0.003010 0.000012 0.006395 -0.003635
# 3 0.002169 -0.003010 0.007040 -0.001369 -0.002581 0.001119
# 4 -0.000308 0.000012 -0.001369 0.014645 0.000751 0.000284
# 5 -0.005603 0.006395 -0.002581 0.000751 0.047211 -0.007283
# 6 0.003936 -0.003635 0.001119 0.000284 -0.007283 0.021663
#
#
# Mechanical properties :
#
#
# Convention : Reuss Voigt Hill
#
# Bulk Modulus (GPa) = 36.93975 79.92322 58.43149
# Shear Modulus (GPa) = 34.48814 52.56043 43.52428
#
# Velocity S-wave (km/s) = 3.46764 4.28084 3.89551
# Velocity P-wave (km/s) = 5.37699 7.23186 6.37228
#
# Compressibility (1/GPa) = 0.02707111
#
# Stress axis : x y z
#
# Youngs Moduli (GPa) = 38.61137 146.77830 142.03592
#
# Poissons Ratio (x) = 0.80728 -0.30809
# Poissons Ratio (y) = 0.21236 0.42750
# Poissons Ratio (z) = -0.08375 0.44178
#
# Static dielectric constant tensor:
#      x y z
#    x 2.179500 0.114540 -0.102670 
#    y 0.114540 2.273820 0.093650 
#    z -0.102670 0.093650 2.195350 
# 
# From -- ./inp_files/177970.got.cif
#   From: 2010.05.17/outbox.cif.g08.bks.cpg/sg2_89_cif.got.tgz:177970.got - 2010.06.03 11:33:40.
