data_PCOD9075811
_publ_section_title
;
Structure prediction by ZEFSAII (Michael W. Deem and Ramdas Pophale) SiO2 
 PCOD9075811
Probable space group: P -1
;
_chemical_formula_sum "Si O2"
_cell_formula_units_Z 16
_cell_length_a 9.518596
_cell_length_b 6.692324
_cell_length_c 12.346716
_cell_angle_alpha 82.803689
_cell_angle_beta 53.887256
_cell_angle_gamma 95.083251
_cell_volume 617.298290
_symmetry_space_group_name_H-M "P -1"
_symmetry_group_IT_number 2
_symmetry_cell_setting 'triclinic'
loop_
_space_group_symop_operation_xyz
x,y,z
-x,-y,-z
loop_
_atom_site_type_symbol
_atom_site_label
_atom_site_fract_x
_atom_site_fract_y
_atom_site_fract_z
Si Si1 0.872316 0.285630 0.036178
Si Si2 0.558609 0.773589 0.012328
Si Si3 0.282303 0.749932 0.313925
Si Si4 0.731381 0.253337 0.429955
Si Si5 0.359994 0.248120 0.497690
Si Si6 0.036288 0.179312 0.167415
Si Si7 0.546375 0.765108 0.776504
Si Si8 0.006884 0.735592 0.263828
O O1 0.662680 0.256225 0.152725
O O2 0.933202 0.129407 0.104432
O O3 0.906899 0.269068 0.893872
O O4 0.000000 0.500000 0.000000
O O5 0.757043 0.752787 0.956541
O O6 0.542951 0.680592 0.905439
O O7 0.441439 0.694604 0.174815
O O8 0.500000 0.000000 0.000000
O O9 0.253930 0.690231 0.454993
O O10 0.113957 0.667369 0.319285
O O11 0.345403 0.999196 0.277537
O O12 0.556431 0.308205 0.452967
O O13 0.920051 0.315914 0.276833
O O14 0.687822 0.001818 0.459191
O O15 0.366414 0.310639 0.364296
O O16 0.205283 0.326072 0.627912
O O17 0.038354 0.981870 0.252480
#
# Coordination Sequence:
#
# PCOD9075811 Si02
#       8
#     2   2   2   2   2   2   2   2
#     4  12  26  42  59  84 122 162 203 250 295 353
#     4  10  18  32  55  91 118 150 189 245 291 345
#     4  10  19  32  57  93 126 145 186 253 297 345
#     4   9  19  31  51  92 128 147 186 247 304 347
#     4   9  19  31  54  89 122 152 190 242 295 354
#     4  11  21  37  63  89 117 158 202 242 303 349
#     4  10  18  37  57  80 122 155 189 244 297 341
#     4  11  21  36  62  93 116 155 198 244 302 351
#
# _framework density 25.919397
#
# number of rings (size 3 to 8) (size 9 to 14) (size 15 to 20)
#    0.000    1.750    5.000    1.125    5.250    1.500 
#    0.000    1.250    0.000    0.750    0.000    0.000 
#    0.000    0.000    0.000    0.000    0.000    0.000 
#
# Total GULP energy -89407.559976 kJ/mol
# GULP energy per Si atom -5587.972498 kJ/mol
# Density = 2.586040 g / cm^3
# Si number density = 25.919397 Si / 1000 Ang^3
#
#
#
# Elastic Constant Matrix: (Units=GPa)
#
#
# Indices 1 2 3 4 5 6 
#
# 1 76.1462 8.8014 42.6361 17.5455 -16.4957 34.6769
# 2 8.8014 63.5225 23.8781 9.5433 -12.3157 4.1821
# 3 42.6361 23.8781 186.5312 34.0468 -8.9652 -3.1644
# 4 17.5455 9.5433 34.0468 58.1844 -3.5674 0.1519
# 5 -16.4957 -12.3157 -8.9652 -3.5674 57.4841 -2.2808
# 6 34.6769 4.1821 -3.1644 0.1519 -2.2808 28.9639
#
#
#
# Elastic Compliance Matrix: (Units=1/GPa)
#
#
# Indices 1 2 3 4 5 6 
#
# 1 0.052982 0.004830 -0.011616 -0.009110 0.011304 -0.064460
# 2 0.004830 0.017903 -0.002890 -0.002417 0.004290 -0.008333
# 3 -0.011616 -0.002890 0.008786 -0.001331 -0.002064 0.015129
# 4 -0.009110 -0.002417 -0.001331 0.020982 -0.001606 0.010874
# 5 0.011304 0.004290 -0.002064 -0.001606 0.020632 -0.012745
# 6 -0.064460 -0.008333 0.015129 0.010874 -0.012745 0.113496
#
#
# Mechanical properties :
#
#
# Convention : Reuss Voigt Hill
#
# Bulk Modulus (GPa) = 16.57845 52.98121 34.77983
# Shear Modulus (GPa) = 18.23227 45.65209 31.94218
#
# Velocity S-wave (km/s) = 2.65509 4.20135 3.51432
# Velocity P-wave (km/s) = 3.97610 6.63478 5.46944
#
# Compressibility (1/GPa) = 0.06031927
#
# Stress axis : x y z
#
# Youngs Moduli (GPa) = 18.87449 55.85646 113.81317
#
# Poissons Ratio (x) = -0.26977 1.32203
# Poissons Ratio (y) = -0.09116 0.32889
# Poissons Ratio (z) = 0.21924 0.16141
#
# Static dielectric constant tensor:
#      x y z
#    x 1.989840 -0.040520 -0.016830 
#    y -0.040520 2.270240 -0.055590 
#    z -0.016830 -0.055590 1.976990 
# 
# From -- ./inp_files/333043.got.cif
#   From: 2010.05.17/outbox.cif.g08.bks.cpg/sg2_167_cif.got.tgz:333043.got - 2010.06.03 11:33:40.
