data_PCOD9075188
_publ_section_title
;
Structure prediction by ZEFSAII (Michael W. Deem and Ramdas Pophale) SiO2 
 PCOD9075188
Probable space group: P -1
;
_chemical_formula_sum "Si O2"
_cell_formula_units_Z 14
_cell_length_a 9.000000
_cell_length_b 21.000000
_cell_length_c 12.000000
_cell_angle_alpha 150.000000
_cell_angle_beta 120.000000
_cell_angle_gamma 40.000000
_cell_volume 627.666119
_symmetry_space_group_name_H-M "P -1"
_symmetry_group_IT_number 2
_symmetry_cell_setting 'triclinic'
loop_
_space_group_symop_operation_xyz
x,y,z
-x,-y,-z
loop_
_atom_site_type_symbol
_atom_site_label
_atom_site_fract_x
_atom_site_fract_y
_atom_site_fract_z
Si Si1 0.664485 0.082318 0.975866
Si Si2 0.693587 0.172797 0.686767
Si Si3 0.007324 0.350199 0.489486
Si Si4 0.341788 0.093341 0.699269
Si Si5 0.287717 0.472124 0.564618
Si Si6 0.583582 0.314717 0.117351
Si Si7 0.239136 0.483320 0.828169
O O1 0.462824 0.120213 0.875933
O O2 0.506880 0.242776 0.259944
O O3 0.759554 0.137292 0.006694
O O4 0.867194 0.859464 0.757867
O O5 0.499303 0.360245 0.814830
O O6 0.621319 0.067840 0.486895
O O7 0.644761 0.233505 0.891057
O O8 0.000000 0.000000 0.500000
O O9 0.969763 0.403326 0.423718
O O10 0.722851 0.524547 0.711410
O O11 0.184835 0.363170 0.622233
O O12 0.500000 0.000000 0.500000
O O13 0.024894 0.304038 0.892659
O O14 0.371815 0.560823 0.681012
O O15 0.258145 0.506282 0.738051
#
# Coordination Sequence:
#
# PCOD9075188 Si02
#       7
#     2   2   2   2   2   2   2
#     4  11  23  42  74 104 134 183 236 290 340 415
#     4  12  28  46  69 106 142 188 236 287 360 417
#     4  11  23  43  75 103 137 184 235 290 349 413
#     4  12  24  45  73 105 140 182 242 288 344 422
#     4  11  26  45  67 108 147 184 231 285 356 420
#     4  11  25  46  69 101 146 181 237 292 345 420
#     4  12  26  46  73 103 146 188 228 298 350 414
#
# _framework density 22.304852
#
# number of rings (size 3 to 8) (size 9 to 14) (size 15 to 20)
#    0.000    0.571    5.714    3.000    2.000    9.714 
#    0.000    0.000    0.000    0.000    0.000    0.000 
#    0.000    0.000    0.000    0.000    0.000    0.000 
#
# Total GULP energy -78216.048151 kJ/mol
# GULP energy per Si atom -5586.860582 kJ/mol
# Density = 2.225409 g / cm^3
# Si number density = 22.304852 Si / 1000 Ang^3
#
#
#
# Elastic Constant Matrix: (Units=GPa)
#
#
# Indices 1 2 3 4 5 6 
#
# 1 101.3327 35.3643 43.1455 12.1878 -4.3132 25.5272
# 2 35.3643 119.7206 52.7189 26.4367 -29.2839 31.4799
# 3 43.1455 52.7189 152.5256 18.1841 -7.5984 31.9350
# 4 12.1878 26.4367 18.1841 41.5663 9.5581 7.5040
# 5 -4.3132 -29.2839 -7.5984 9.5581 59.7118 -8.7420
# 6 25.5272 31.4799 31.9350 7.5040 -8.7420 31.1030
#
#
#
# Elastic Compliance Matrix: (Units=1/GPa)
#
#
# Indices 1 2 3 4 5 6 
#
# 1 0.012989 -0.001061 -0.001576 -0.000809 -0.000825 -0.008005
# 2 -0.001061 0.015572 -0.001806 -0.008937 0.007476 -0.008778
# 3 -0.001576 -0.001806 0.008986 -0.001110 -0.000556 -0.005993
# 4 -0.000809 -0.008937 -0.001110 0.032675 -0.009781 0.000217
# 5 -0.000825 0.007476 -0.000556 -0.009781 0.022182 0.002276
# 6 -0.008005 -0.008778 -0.005993 0.000217 0.002276 0.054345
#
#
# Mechanical properties :
#
#
# Convention : Reuss Voigt Hill
#
# Bulk Modulus (GPa) = 34.89282 70.67071 52.78176
# Shear Modulus (GPa) = 30.26858 42.63290 36.45074
#
# Velocity S-wave (km/s) = 3.68780 4.37667 4.04692
# Velocity P-wave (km/s) = 5.81470 7.56922 6.74921
#
# Compressibility (1/GPa) = 0.02865920
#
# Stress axis : x y z
#
# Youngs Moduli (GPa) = 76.99108 64.21955 111.28571
#
# Poissons Ratio (x) = 0.06814 0.17539
# Poissons Ratio (y) = 0.08169 0.20102
# Poissons Ratio (z) = 0.12134 0.11600
#
# Static dielectric constant tensor:
#      x y z
#    x 1.828360 -0.063770 0.084370 
#    y -0.063770 1.908190 -0.018350 
#    z 0.084370 -0.018350 1.775460 
# 
# From -- ./inp_files/283403.got.cif
#   From: 2010.05.17/outbox.ucp.g08.bks.cvg/sg2_142_cif.got.tgz:283403.got - 2010.06.11 11:32:03.
