data_PCOD9075369
_publ_section_title
;
Structure prediction by ZEFSAII (Michael W. Deem and Ramdas Pophale) SiO2 
 PCOD9075369
Probable space group: P -1
;
_chemical_formula_sum "Si O2"
_cell_formula_units_Z 15
_cell_length_a 12.000000
_cell_length_b 9.000000
_cell_length_c 9.000000
_cell_angle_alpha 100.000000
_cell_angle_beta 80.000000
_cell_angle_gamma 140.000000
_cell_volume 614.029152
_symmetry_space_group_name_H-M "P -1"
_symmetry_group_IT_number 2
_symmetry_cell_setting 'triclinic'
loop_
_space_group_symop_operation_xyz
x,y,z
-x,-y,-z
loop_
_atom_site_type_symbol
_atom_site_label
_atom_site_fract_x
_atom_site_fract_y
_atom_site_fract_z
Si Si1 0.483802 0.655540 0.993539
Si Si2 0.795921 0.764920 0.501564
Si Si3 0.000000 0.500000 0.500000
Si Si4 0.612420 0.312856 0.282690
Si Si5 0.343150 0.052073 0.539634
Si Si6 0.311145 0.551619 0.290906
Si Si7 0.767194 0.178904 0.059457
Si Si8 0.097343 0.568552 0.217540
O O1 0.324723 0.558449 0.111819
O O2 0.651807 0.915979 0.051282
O O3 0.500000 0.500000 0.000000
O O4 0.453885 0.651925 0.829487
O O5 0.729123 0.547785 0.391941
O O6 0.707659 0.826393 0.467773
O O7 0.741606 0.659302 0.662141
O O8 0.000000 0.000000 0.500000
O O9 0.989585 0.398964 0.647921
O O10 0.822508 0.216110 0.430336
O O11 0.449612 0.096377 0.381902
O O12 0.692650 0.247666 0.174659
O O13 0.500655 0.215541 0.650463
O O14 0.163766 0.533848 0.339866
O O15 0.959326 0.346406 0.106918
O O16 0.773353 0.227420 0.892253
#
# Coordination Sequence:
#
# PCOD9075369 Si02
#       8
#     2   2   1   2   2   2   2   2
#     4  12  24  44  72 105 142 189 245 298 366 442
#     4  11  25  48  72 105 152 190 245 303 373 437
#     4  12  26  42  74 106 142 190 246 300 362 424
#     4  11  24  47  78 105 143 204 238 302 381 429
#     4  11  25  45  73 106 150 189 247 301 369 442
#     4  11  24  45  71 105 141 188 248 302 354 440
#     4  11  26  49  71 105 154 190 244 304 373 436
#     4  11  26  45  71 105 145 189 249 305 360 431
#
# _framework density 24.428808
#
# number of rings (size 3 to 8) (size 9 to 14) (size 15 to 20)
#    0.000    0.800    1.333    6.000    7.467    1.600 
#    2.400    1.333    0.000    0.000    0.000    0.000 
#    0.000    0.000    0.000    0.000    0.000    0.000 
#
# Total GULP energy -83691.224256 kJ/mol
# GULP energy per Si atom -5579.414950 kJ/mol
# Density = 2.437321 g / cm^3
# Si number density = 24.428808 Si / 1000 Ang^3
#
#
#
# Elastic Constant Matrix: (Units=GPa)
#
#
# Indices 1 2 3 4 5 6 
#
# 1 132.7043 58.1050 14.0300 -2.3677 18.3494 -5.6651
# 2 58.1050 173.0879 36.9928 -10.4636 -6.2819 2.5687
# 3 14.0300 36.9928 121.8386 -31.4886 9.5302 4.8051
# 4 -2.3677 -10.4636 -31.4886 34.4107 -2.2532 4.5478
# 5 18.3494 -6.2819 9.5302 -2.2532 32.2454 2.2623
# 6 -5.6651 2.5687 4.8051 4.5478 2.2623 42.8804
#
#
#
# Elastic Compliance Matrix: (Units=1/GPa)
#
#
# Indices 1 2 3 4 5 6 
#
# 1 0.010187 -0.003794 0.000170 -0.001009 -0.006799 0.002020
# 2 -0.003794 0.007699 -0.002037 0.000639 0.004378 -0.001033
# 3 0.000170 -0.002037 0.011781 0.010246 -0.003112 -0.002098
# 4 -0.001009 0.000639 0.010246 0.039346 0.000808 -0.005535
# 5 -0.006799 0.004378 -0.003112 0.000808 0.036910 -0.002845
# 6 0.002020 -0.001033 -0.002098 -0.005535 -0.002845 0.024622
#
#
# Mechanical properties :
#
#
# Convention : Reuss Voigt Hill
#
# Bulk Modulus (GPa) = 54.51070 71.76516 63.13793
# Shear Modulus (GPa) = 33.78794 43.14082 38.46438
#
# Velocity S-wave (km/s) = 3.72306 4.20692 3.97236
# Velocity P-wave (km/s) = 6.39094 7.28276 6.85138
#
# Compressibility (1/GPa) = 0.01834502
#
# Stress axis : x y z
#
# Youngs Moduli (GPa) = 98.16466 129.88254 84.88360
#
# Poissons Ratio (x) = 0.49275 -0.01444
# Poissons Ratio (y) = 0.37242 0.17294
# Poissons Ratio (z) = -0.01670 0.26462
#
# Static dielectric constant tensor:
#      x y z
#    x 1.386700 -0.107840 0.443920 
#    y -0.107840 1.825830 0.113560 
#    z 0.443920 0.113560 1.762580 
# 
# From -- ./inp_files/244555.got.cif
#   From: 2010.05.17/outbox.ucp.g08.bks.cvg/sg2_123_cif.got.tgz:244555.got - 2010.06.11 11:32:03.
