data_PCOD9075330
_publ_section_title
;
Structure prediction by ZEFSAII (Michael W. Deem and Ramdas Pophale) SiO2 
 PCOD9075330
Probable space group: P -1
;
_chemical_formula_sum "Si O2"
_cell_formula_units_Z 16
_cell_length_a 7.434831
_cell_length_b 13.184747
_cell_length_c 21.438956
_cell_angle_alpha 24.905829
_cell_angle_beta 118.062125
_cell_angle_gamma 125.935300
_cell_volume 704.702918
_symmetry_space_group_name_H-M "P -1"
_symmetry_group_IT_number 2
_symmetry_cell_setting 'triclinic'
loop_
_space_group_symop_operation_xyz
x,y,z
-x,-y,-z
loop_
_atom_site_type_symbol
_atom_site_label
_atom_site_fract_x
_atom_site_fract_y
_atom_site_fract_z
Si Si1 0.309334 0.720138 0.599629
Si Si2 0.496972 0.824551 0.871965
Si Si3 0.977816 0.878623 0.894727
Si Si4 0.313024 0.185645 0.675404
Si Si5 0.451816 0.399109 0.200756
Si Si6 0.019644 0.070589 0.572225
Si Si7 0.186042 0.466270 0.593396
Si Si8 0.196727 0.682775 0.782595
O O1 0.396982 0.519500 0.757205
O O2 0.287925 0.683555 0.542199
O O3 0.500000 0.000000 0.500000
O O4 0.075625 0.723191 0.582530
O O5 0.714843 0.818545 0.877818
O O6 0.517884 0.111369 0.736621
O O7 0.292675 0.725936 0.844834
O O8 0.445685 0.639731 0.026881
O O9 0.120278 0.938120 0.821053
O O10 0.980899 0.630194 0.071508
O O11 0.078541 0.178799 0.771482
O O12 0.189148 0.202942 0.582884
O O13 0.357691 0.429344 0.593400
O O14 0.202791 0.176201 0.298296
O O15 0.598506 0.294152 0.240088
O O16 0.118911 0.916614 0.628853
O O17 0.000000 0.500000 0.500000
#
# Coordination Sequence:
#
# PCOD9075330 Si02
#       8
#     2   2   2   2   2   2   2   2
#     4  10  21  38  59  81 110 151 186 222 282 333
#     4  10  18  32  53  87 113 145 185 225 273 329
#     4   9  18  31  53  78 115 137 179 228 274 317
#     4   9  18  31  58  79 110 140 186 227 271 315
#     4  10  20  32  55  78 116 144 182 227 275 318
#     4  10  18  33  57  81 109 148 187 227 267 327
#     4  10  20  37  61  80 111 148 184 227 279 325
#     4  10  19  31  55  87 111 144 190 225 271 322
#
# _framework density 22.704602999999999
#
# number of rings (size 3 to 8) (size 9 to 14) (size 15 to 20)
#    0.750    1.500    1.250    3.750    0.000    2.500 
#    0.000    3.750   11.000    0.000    0.000    0.000 
#    0.000    0.000    0.000    0.000    0.000    0.000 
#
# Total GULP energy -89166.065341 kJ/mol
# GULP energy per Si atom -5572.879084 kJ/mol
# Density = 2.265293 g / cm^3
# Si number density = 22.704603 Si / 1000 Ang^3
#
#
#
# Elastic Constant Matrix: (Units=GPa)
#
#
# Indices 1 2 3 4 5 6 
#
# 1 71.5429 11.3750 9.1872 -4.2239 14.8937 -7.1122
# 2 11.3750 111.7824 28.3750 2.3121 14.8478 -11.2283
# 3 9.1872 28.3750 66.9891 1.6813 6.9732 3.7484
# 4 -4.2239 2.3121 1.6813 34.1797 -0.4387 8.0281
# 5 14.8937 14.8478 6.9732 -0.4387 42.9275 -10.8017
# 6 -7.1122 -11.2283 3.7484 8.0281 -10.8017 22.0154
#
#
#
# Elastic Compliance Matrix: (Units=1/GPa)
#
#
# Indices 1 2 3 4 5 6 
#
# 1 0.015482 -0.000348 -0.001698 0.001382 -0.004337 0.002482
# 2 -0.000348 0.011072 -0.004814 -0.002092 -0.001321 0.006469
# 3 -0.001698 -0.004814 0.017871 0.001006 -0.002570 -0.007674
# 4 0.001382 -0.002092 0.001006 0.032846 -0.003191 -0.014335
# 5 -0.004337 -0.001321 -0.002570 -0.003191 0.029117 0.013813
# 6 0.002482 0.006469 -0.007674 -0.014335 0.013813 0.062835
#
#
# Mechanical properties :
#
#
# Convention : Reuss Voigt Hill
#
# Bulk Modulus (GPa) = 32.56735 38.68765 35.62750
# Shear Modulus (GPa) = 25.88288 33.24966 29.56627
#
# Velocity S-wave (km/s) = 3.38003 3.83096 3.61254
# Velocity P-wave (km/s) = 5.44131 6.05350 5.75555
#
# Compressibility (1/GPa) = 0.03070560
#
# Stress axis : x y z
#
# Youngs Moduli (GPa) = 64.59078 90.31952 55.95513
#
# Poissons Ratio (x) = 0.03140 0.09502
# Poissons Ratio (y) = 0.02245 0.26937
# Poissons Ratio (z) = 0.10968 0.43481
#
# Static dielectric constant tensor:
#      x y z
#    x 1.869790 -0.009320 -0.008660 
#    y -0.009320 1.861060 -0.016220 
#    z -0.008660 -0.016220 1.974800 
# 
# From -- ./inp_files/588878.got.cif
#   From: 2010.05.17/outbox.cif.g08.bks.cpg/sg2_295_cif.got.tgz:588878.got - 2010.06.03 11:33:40.
