data_PCOD9075712
_publ_section_title
;
Structure prediction by ZEFSAII (Michael W. Deem and Ramdas Pophale) SiO2 
 PCOD9075712
Probable space group: P -1
;
_chemical_formula_sum "Si O2"
_cell_formula_units_Z 14
_cell_length_a 7.514474
_cell_length_b 8.601396
_cell_length_c 12.912189
_cell_angle_alpha 109.719881
_cell_angle_beta 54.640666
_cell_angle_gamma 99.087639
_cell_volume 639.957218
_symmetry_space_group_name_H-M "P -1"
_symmetry_group_IT_number 2
_symmetry_cell_setting 'triclinic'
loop_
_space_group_symop_operation_xyz
x,y,z
-x,-y,-z
loop_
_atom_site_type_symbol
_atom_site_label
_atom_site_fract_x
_atom_site_fract_y
_atom_site_fract_z
Si Si1 0.388757 0.172241 0.682863
Si Si2 0.826697 0.402540 0.816643
Si Si3 0.021535 0.596877 0.621692
Si Si4 0.423174 0.800230 0.587191
Si Si5 0.796684 0.075857 0.653025
Si Si6 0.581360 0.767873 0.745252
Si Si7 0.356194 0.501323 0.888561
O O1 0.398940 0.181806 0.558043
O O2 0.638417 0.160789 0.639122
O O3 0.296012 0.342024 0.804467
O O4 0.317681 0.985556 0.689585
O O5 0.000456 0.488441 0.706514
O O6 0.868964 0.208208 0.741522
O O7 0.589615 0.449137 0.853464
O O8 0.808349 0.461580 0.953424
O O9 0.804668 0.714233 0.715073
O O10 0.000000 0.500000 0.500000
O O11 0.237752 0.692979 0.579332
O O12 0.533854 0.714887 0.631056
O O13 0.636136 0.957431 0.743383
O O14 0.000000 0.000000 0.500000
O O15 0.400069 0.670890 0.848979
#
# Coordination Sequence:
#
# PCOD9075712 Si02
#       7
#     2   2   2   2   2   2   2
#     4   9  19  34  55  79 112 148 181 227 282 332
#     4   9  19  34  56  79 113 151 179 228 284 327
#     4  11  21  36  57  84 112 142 184 230 279 334
#     4  10  20  36  56  83 112 143 183 234 281 320
#     4  10  18  32  54  85 113 142 186 232 278 330
#     4  10  21  34  57  84 109 145 189 231 273 329
#     4   9  18  36  55  79 110 149 190 222 275 341
#
# _framework density 21.876463999999999
#
# number of rings (size 3 to 8) (size 9 to 14) (size 15 to 20)
#    0.000    2.286    0.000    4.286    0.000    2.857 
#    0.000    5.714    0.000    0.000    0.000    0.000 
#    0.000    0.000    0.000    0.000    0.000    0.000 
#
# Total GULP energy -77990.025636 kJ/mol
# GULP energy per Si atom -5570.716117 kJ/mol
# Density = 2.182667 g / cm^3
# Si number density = 21.876464 Si / 1000 Ang^3
#
#
#
# Elastic Constant Matrix: (Units=GPa)
#
#
# Indices 1 2 3 4 5 6 
#
# 1 56.6834 23.1017 3.6179 2.2043 2.0448 6.6462
# 2 23.1017 127.1581 75.6647 -5.4293 12.0368 20.8092
# 3 3.6179 75.6647 119.1847 -0.0655 21.4219 1.4665
# 4 2.2043 -5.4293 -0.0655 28.3232 -2.8815 9.0482
# 5 2.0448 12.0368 21.4219 -2.8815 27.8055 -0.1027
# 6 6.6462 20.8092 1.4665 9.0482 -0.1027 31.7552
#
#
#
# Elastic Compliance Matrix: (Units=1/GPa)
#
#
# Indices 1 2 3 4 5 6 
#
# 1 0.019830 -0.005458 0.003192 -0.002792 -0.001844 0.000068
# 2 -0.005458 0.017721 -0.011332 0.007920 0.002236 -0.012197
# 3 0.003192 -0.011332 0.017009 -0.005716 -0.008997 0.007572
# 4 -0.002792 0.007920 -0.005716 0.042879 0.005563 -0.016541
# 5 -0.001844 0.002236 -0.008997 0.005563 0.042632 -0.002111
# 6 0.000068 -0.012197 0.007572 -0.016541 -0.002111 0.043826
#
#
# Mechanical properties :
#
#
# Convention : Reuss Voigt Hill
#
# Bulk Modulus (GPa) = 36.54526 56.42164 46.48345
# Shear Modulus (GPa) = 22.70520 30.95290 26.82905
#
# Velocity S-wave (km/s) = 3.22511 3.76559 3.50578
# Velocity P-wave (km/s) = 5.53263 6.68979 6.13854
#
# Compressibility (1/GPa) = 0.02736333
#
# Stress axis : x y z
#
# Youngs Moduli (GPa) = 50.42981 56.42884 58.79376
#
# Poissons Ratio (x) = 0.30798 -0.18767
# Poissons Ratio (y) = 0.27523 0.66627
# Poissons Ratio (z) = -0.16097 0.63947
#
# Static dielectric constant tensor:
#      x y z
#    x 1.888010 -0.010360 -0.036870 
#    y -0.010360 1.914410 0.007420 
#    z -0.036870 0.007420 1.818380 
# 
# From -- ./inp_files/213777.got.cif
#   From: 2010.05.17/outbox.cif.g08.bks.cpg/sg2_107_cif.got.tgz:213777.got - 2010.06.03 11:33:40.
