data_PCOD9075969
_publ_section_title
;
Structure prediction by ZEFSAII (Michael W. Deem and Ramdas Pophale) SiO2 
 PCOD9075969
Probable space group: P -1
;
_chemical_formula_sum "Si O2"
_cell_formula_units_Z 14
_cell_length_a 10.016448
_cell_length_b 8.314205
_cell_length_c 14.520817
_cell_angle_alpha 54.601861
_cell_angle_beta 40.565638
_cell_angle_gamma 41.546084
_cell_volume 521.407182
_symmetry_space_group_name_H-M "P -1"
_symmetry_group_IT_number 2
_symmetry_cell_setting 'triclinic'
loop_
_space_group_symop_operation_xyz
x,y,z
-x,-y,-z
loop_
_atom_site_type_symbol
_atom_site_label
_atom_site_fract_x
_atom_site_fract_y
_atom_site_fract_z
Si Si1 0.848671 0.537075 0.811504
Si Si2 0.076828 0.029147 0.850491
Si Si3 0.828481 0.111064 0.437582
Si Si4 0.387222 0.160743 0.413724
Si Si5 0.302495 0.511976 0.484283
Si Si6 0.800580 0.462702 0.077906
Si Si7 0.628930 0.025091 0.833398
O O1 0.109396 0.490851 0.656720
O O2 0.647152 0.830184 0.816080
O O3 0.816685 0.487620 0.950864
O O4 0.879424 0.303122 0.824909
O O5 0.359775 0.953553 0.738887
O O6 0.118466 0.802578 0.850731
O O7 0.000000 0.000000 0.000000
O O8 0.584764 0.322952 0.437679
O O9 0.779508 0.223596 0.528648
O O10 0.802142 0.889119 0.515723
O O11 0.084423 0.060283 0.280519
O O12 0.286786 0.423505 0.419996
O O13 0.500000 0.000000 0.500000
O O14 0.541423 0.684607 0.184022
O O15 0.000000 0.500000 0.000000
O O16 0.500000 0.000000 0.000000
#
# Coordination Sequence:
#
# PCOD9075969 Si02
#       7
#     2   2   2   2   2   2   2
#     4   9  17  37  61  82 119 150 202 253 290 354
#     4  10  20  36  57  86 123 158 192 253 300 364
#     4   9  17  30  56  84 119 152 192 257 302 333
#     4  10  18  32  57  93 118 154 211 244 292 370
#     4   9  17  31  58  93 114 147 205 253 292 352
#     4  10  22  37  59  83 122 164 198 243 319 372
#     4   9  19  36  58  85 119 159 205 250 297 364
#
# _framework density 26.850415999999999
#
# number of rings (size 3 to 8) (size 9 to 14) (size 15 to 20)
#    0.000    2.571    2.857    0.000    0.000    8.000 
#    0.000    1.429   22.000    4.286    0.000    0.000 
#    0.000    0.000    0.000    0.000    0.000    0.000 
#
# Total GULP energy -78166.139206 kJ/mol
# GULP energy per Si atom -5583.295658 kJ/mol
# Density = 2.678930 g / cm^3
# Si number density = 26.850416 Si / 1000 Ang^3
#
#
#
# Elastic Constant Matrix: (Units=GPa)
#
#
# Indices 1 2 3 4 5 6 
#
# 1 72.8706 55.0634 36.4102 -7.7364 2.2789 31.3177
# 2 55.0634 241.7826 27.8006 15.2387 -6.9139 52.9251
# 3 36.4102 27.8006 176.7847 34.8310 5.7272 8.7559
# 4 -7.7364 15.2387 34.8310 47.6459 9.9088 -5.7993
# 5 2.2789 -6.9139 5.7272 9.9088 31.2048 -12.5229
# 6 31.3177 52.9251 8.7559 -5.7993 -12.5229 42.2931
#
#
#
# Elastic Compliance Matrix: (Units=1/GPa)
#
#
# Indices 1 2 3 4 5 6 
#
# 1 0.028169 -0.002657 -0.006072 0.010144 -0.012173 -0.018490
# 2 -0.002657 0.006354 0.000607 -0.003716 0.000016 -0.006614
# 3 -0.006072 0.000607 0.008107 -0.007338 0.002091 0.001671
# 4 0.010144 -0.003716 -0.007338 0.031298 -0.010182 -0.000065
# 5 -0.012173 0.000016 0.002091 -0.010182 0.043877 0.020157
# 6 -0.018490 -0.006614 0.001671 -0.000065 0.020157 0.051226
#
#
# Mechanical properties :
#
#
# Convention : Reuss Voigt Hill
#
# Bulk Modulus (GPa) = 37.89939 81.10959 59.50449
# Shear Modulus (GPa) = 25.76393 49.03966 37.40180
#
# Velocity S-wave (km/s) = 3.10100 4.27828 3.73630
# Velocity P-wave (km/s) = 5.19300 7.39449 6.38927
#
# Compressibility (1/GPa) = 0.02638565
#
# Stress axis : x y z
#
# Youngs Moduli (GPa) = 35.50031 157.39081 123.34976
#
# Poissons Ratio (x) = 0.41818 0.74900
# Poissons Ratio (y) = 0.09432 -0.07490
# Poissons Ratio (z) = 0.21556 -0.09557
#
# Static dielectric constant tensor:
#      x y z
#    x 2.071140 0.100590 0.081340 
#    y 0.100590 2.292290 0.099540 
#    z 0.081340 0.099540 2.361370 
# 
# From -- ./inp_files/566478.got.cif
#   From: 2010.05.17/outbox.cif.g08.bks.cpg/sg2_284_cif.got.tgz:566478.got - 2010.06.03 11:33:40.
