data_PCOD9075170
_publ_section_title
;
Structure prediction by ZEFSAII (Michael W. Deem and Ramdas Pophale) SiO2 
 PCOD9075170
Probable space group: P -1
;
_chemical_formula_sum "Si O2"
_cell_formula_units_Z 16
_cell_length_a 9.000000
_cell_length_b 12.000000
_cell_length_c 21.000000
_cell_angle_alpha 140.000000
_cell_angle_beta 40.000000
_cell_angle_gamma 110.000000
_cell_volume 754.890988
_symmetry_space_group_name_H-M "P -1"
_symmetry_group_IT_number 2
_symmetry_cell_setting 'triclinic'
loop_
_space_group_symop_operation_xyz
x,y,z
-x,-y,-z
loop_
_atom_site_type_symbol
_atom_site_label
_atom_site_fract_x
_atom_site_fract_y
_atom_site_fract_z
Si Si1 0.107684 0.945574 0.218373
Si Si2 0.346790 0.240988 0.125933
Si Si3 0.771446 0.969852 0.217697
Si Si4 0.267879 0.657133 0.402082
Si Si5 0.658556 0.137897 0.654603
Si Si6 0.851783 0.409135 0.167937
Si Si7 0.783653 0.305887 0.286665
Si Si8 0.245532 0.537078 0.058479
O O1 0.076408 0.776557 0.191063
O O2 0.907458 0.012345 0.251142
O O3 0.434332 0.810090 0.025832
O O4 0.018147 0.146702 0.381195
O O5 0.291069 0.446924 0.274878
O O6 0.044058 0.297353 0.229002
O O7 0.500000 0.000000 0.000000
O O8 0.486677 0.989381 0.342388
O O9 0.750872 0.118336 0.232729
O O10 0.006953 0.738695 0.006836
O O11 0.337006 0.768368 0.373694
O O12 0.519423 0.573661 0.333361
O O13 0.428024 0.352123 0.864631
O O14 0.000000 0.000000 0.500000
O O15 0.844243 0.309713 0.193520
O O16 0.033203 0.506424 0.154071
O O17 0.500000 0.500000 0.500000
O O18 0.500000 0.500000 0.000000
#
# Coordination Sequence:
#
# PCOD9075170 Si02
#       8
#     2   2   2   2   2   2   2   2
#     4  12  24  45  75 106 146 191 242 303 372 432
#     4  12  26  51  74 106 153 191 246 306 361 440
#     4  11  24  47  69 104 145 193 244 300 373 432
#     4  12  26  46  76 113 139 195 246 302 372 438
#     4  11  25  43  73 107 146 190 246 309 364 441
#     4  11  24  45  73 103 144 194 247 301 367 442
#     4  12  27  46  71 105 147 197 242 307 364 440
#     4  11  23  42  69 104 148 190 238 304 375 430
#
# _framework density 21.195112999999999
#
# number of rings (size 3 to 8) (size 9 to 14) (size 15 to 20)
#    0.000    0.500    3.750    3.375    1.750    7.500 
#    2.250    0.000    0.000    0.000    0.000    0.000 
#    0.000    0.000    0.000    0.000    0.000    0.000 
#
# Total GULP energy -89221.025608 kJ/mol
# GULP energy per Si atom -5576.314101 kJ/mol
# Density = 2.114687 g / cm^3
# Si number density = 21.195113 Si / 1000 Ang^3
#
#
#
# Elastic Constant Matrix: (Units=GPa)
#
#
# Indices 1 2 3 4 5 6 
#
# 1 83.0551 40.7205 31.0450 -8.3764 -3.4323 1.8159
# 2 40.7205 148.9718 24.3672 -6.6246 0.4821 1.5384
# 3 31.0450 24.3672 131.2195 -10.5986 11.4247 13.1205
# 4 -8.3764 -6.6246 -10.5986 34.0277 5.1453 -3.2321
# 5 -3.4323 0.4821 11.4247 5.1453 40.7300 -4.6377
# 6 1.8159 1.5384 13.1205 -3.2321 -4.6377 37.7483
#
#
#
# Elastic Compliance Matrix: (Units=1/GPa)
#
#
# Indices 1 2 3 4 5 6 
#
# 1 0.015190 -0.003587 -0.003043 0.001869 0.002041 0.000884
# 2 -0.003587 0.007805 -0.000537 0.000520 -0.000304 0.000048
# 3 -0.003043 -0.000537 0.009256 0.002247 -0.003504 -0.003287
# 4 0.001869 0.000520 0.002247 0.031420 -0.004304 0.001269
# 5 0.002041 -0.000304 -0.003504 -0.004304 0.026715 0.004046
# 6 0.000884 0.000048 -0.003287 0.001269 0.004046 0.028195
#
#
# Mechanical properties :
#
#
# Convention : Reuss Voigt Hill
#
# Bulk Modulus (GPa) = 55.81439 61.72353 58.76896
# Shear Modulus (GPa) = 36.00094 40.30879 38.15486
#
# Velocity S-wave (km/s) = 4.12582 4.36569 4.24745
# Velocity P-wave (km/s) = 7.00623 7.38899 7.20015
#
# Compressibility (1/GPa) = 0.01791653
#
# Stress axis : x y z
#
# Youngs Moduli (GPa) = 65.83461 128.12993 108.04186
#
# Poissons Ratio (x) = 0.45959 0.32874
# Poissons Ratio (y) = 0.23614 0.05802
# Poissons Ratio (z) = 0.20031 0.06881
#
# Static dielectric constant tensor:
#      x y z
#    x 1.842930 -0.036680 0.033280 
#    y -0.036680 1.812580 0.043690 
#    z 0.033280 0.043690 1.907900 
# 
# From -- ./inp_files/589602.got.cif
#   From: 2010.05.17/outbox.ucp.g08.bks.cvg/sg2_295_cif.got.tgz:589602.got - 2010.06.11 11:32:03.
