data_PCOD9075887
_publ_section_title
;
Structure prediction by ZEFSAII (Michael W. Deem and Ramdas Pophale) SiO2 
 PCOD9075887
Probable space group: P -1
;
_chemical_formula_sum "Si O2"
_cell_formula_units_Z 14
_cell_length_a 5.583907
_cell_length_b 16.604714
_cell_length_c 10.215169
_cell_angle_alpha 52.078719
_cell_angle_beta 90.646809
_cell_angle_gamma 121.761524
_cell_volume 562.245860
_symmetry_space_group_name_H-M "P -1"
_symmetry_group_IT_number 2
_symmetry_cell_setting 'triclinic'
loop_
_space_group_symop_operation_xyz
x,y,z
-x,-y,-z
loop_
_atom_site_type_symbol
_atom_site_label
_atom_site_fract_x
_atom_site_fract_y
_atom_site_fract_z
Si Si1 0.619733 0.709727 0.883671
Si Si2 0.938033 0.246589 0.541382
Si Si3 0.976319 0.924901 0.905313
Si Si4 0.864259 0.574151 0.395023
Si Si5 0.055407 0.667321 0.005787
Si Si6 0.511678 0.068875 0.099237
Si Si7 0.613323 0.784707 0.526894
O O1 0.794637 0.807634 0.912412
O O2 0.754215 0.375751 0.007173
O O3 0.700630 0.794560 0.668767
O O4 0.774218 0.640485 0.948269
O O5 0.752363 0.280252 0.421856
O O6 0.951614 0.300544 0.629397
O O7 0.280403 0.294444 0.455981
O O8 0.716788 0.084448 0.699196
O O9 0.697245 0.904026 0.001025
O O10 0.206336 0.910805 0.991976
O O11 0.186926 0.070101 0.689469
O O12 0.500000 0.500000 0.500000
O O13 0.929422 0.610883 0.206781
O O14 0.000000 0.500000 0.500000
O O15 0.329395 0.830144 0.874980
#
# Coordination Sequence:
#
# PCOD9075887 Si02
#       7
#     2   2   2   2   2   2   2
#     4  10  18  32  56  87 123 153 183 227 280 343
#     4  10  21  37  59  88 117 151 192 232 284 338
#     4   8  15  26  46  81 122 159 182 206 265 346
#     4  12  26  45  66  81 106 152 202 248 284 336
#     4  10  21  37  59  88 117 151 192 232 284 338
#     4   8  16  31  53  84 118 146 179 231 284 332
#     4  10  18  32  56  87 123 153 183 227 280 343
#
# _framework density 24.900138999999999
#
# number of rings (size 3 to 8) (size 9 to 14) (size 15 to 20)
#    0.000    2.286    0.000    3.000    0.000    0.571 
#    0.000    8.571    0.000   29.143    0.000    0.000 
#    0.000    0.000    0.000    0.000    0.000    0.000 
#
# Total GULP energy -78164.703049 kJ/mol
# GULP energy per Si atom -5583.193075 kJ/mol
# Density = 2.484346 g / cm^3
# Si number density = 24.900139 Si / 1000 Ang^3
#
#
#
# Elastic Constant Matrix: (Units=GPa)
#
#
# Indices 1 2 3 4 5 6 
#
# 1 305.3095 17.3894 31.2646 5.3101 20.1334 19.8283
# 2 17.3894 48.7689 23.6731 -9.8682 3.6511 3.9690
# 3 31.2646 23.6731 76.3133 10.3192 10.2627 8.0019
# 4 5.3101 -9.8682 10.3192 16.8285 2.7108 4.6228
# 5 20.1334 3.6511 10.2627 2.7108 28.4463 13.4992
# 6 19.8283 3.9690 8.0019 4.6228 13.4992 28.8603
#
#
#
# Elastic Compliance Matrix: (Units=1/GPa)
#
#
# Indices 1 2 3 4 5 6 
#
# 1 0.003597 -0.000739 -0.000846 -0.000435 -0.001445 -0.001390
# 2 -0.000739 0.033924 -0.013817 0.029977 0.000939 -0.005567
# 3 -0.000846 -0.013817 0.020859 -0.020487 -0.004102 0.001898
# 4 -0.000435 0.029977 -0.020487 0.093245 0.001507 -0.013784
# 5 -0.001445 0.000939 -0.004102 0.001507 0.046987 -0.020218
# 6 -0.001390 -0.005567 0.001898 -0.013784 -0.020218 0.047509
#
#
# Mechanical properties :
#
#
# Convention : Reuss Voigt Hill
#
# Bulk Modulus (GPa) = 36.26129 63.89400 50.07764
# Shear Modulus (GPa) = 17.47544 38.69798 28.08671
#
# Velocity S-wave (km/s) = 2.65206 3.94652 3.36218
# Velocity P-wave (km/s) = 4.89614 6.81781 5.93526
#
# Compressibility (1/GPa) = 0.02757762
#
# Stress axis : x y z
#
# Youngs Moduli (GPa) = 277.99689 29.47796 47.94030
#
# Poissons Ratio (x) = 0.02178 0.04053
# Poissons Ratio (y) = 0.20544 0.66238
# Poissons Ratio (z) = 0.23505 0.40729
#
# Static dielectric constant tensor:
#      x y z
#    x 2.071510 0.023170 -0.027110 
#    y 0.023170 1.955370 -0.062720 
#    z -0.027110 -0.062720 1.905680 
# 
# From -- ./inp_files/93332.got.cif
#   From: 2010.05.17/outbox.cif.g08.bks.cpg/sg2_47_cif.got.tgz:93332.got - 2010.06.03 11:33:40.
