data_PCOD9075485
_publ_section_title
;
Structure prediction by ZEFSAII (Michael W. Deem and Ramdas Pophale) SiO2 
 PCOD9075485
Probable space group: P -1
;
_chemical_formula_sum "Si O2"
_cell_formula_units_Z 14
_cell_length_a 9.000000
_cell_length_b 27.000000
_cell_length_c 6.000000
_cell_angle_alpha 120.000000
_cell_angle_beta 70.000000
_cell_angle_gamma 150.000000
_cell_volume 617.235917
_symmetry_space_group_name_H-M "P -1"
_symmetry_group_IT_number 2
_symmetry_cell_setting 'triclinic'
loop_
_space_group_symop_operation_xyz
x,y,z
-x,-y,-z
loop_
_atom_site_type_symbol
_atom_site_label
_atom_site_fract_x
_atom_site_fract_y
_atom_site_fract_z
Si Si1 0.864275 0.221504 0.218242
Si Si2 0.571394 0.741499 0.509734
Si Si3 0.819445 0.094360 0.665685
Si Si4 0.613676 0.263189 0.911773
Si Si5 0.313688 0.065339 0.433705
Si Si6 0.372856 0.368408 0.643957
Si Si7 0.809409 0.591632 0.832652
O O1 0.515073 0.127774 0.247305
O O2 0.054801 0.263463 0.437512
O O3 0.002554 0.321501 0.266202
O O4 0.893770 0.176636 0.936059
O O5 0.456515 0.730561 0.291039
O O6 0.487577 0.648839 0.389654
O O7 0.928353 0.847162 0.509079
O O8 0.516832 0.753173 0.814506
O O9 0.500000 0.000000 0.500000
O O10 0.773115 0.027389 0.704667
O O11 0.524098 0.168253 0.722988
O O12 0.970579 0.372093 0.022010
O O13 0.000000 0.000000 0.500000
O O14 0.582375 0.471566 0.605376
O O15 0.333616 0.398654 0.941988
#
# Coordination Sequence:
#
# PCOD9075485 Si02
#       7
#     2   2   2   2   2   2   2
#     4  12  24  50  76 109 154 194 260 315 375 456
#     4  12  27  49  74 109 160 197 252 312 380 455
#     4  12  26  44  72 108 144 205 249 312 372 448
#     4  12  27  50  72 111 159 198 250 314 377 459
#     4  12  26  44  72 110 144 204 247 308 376 448
#     4  11  25  47  77 109 145 197 255 314 381 450
#     4  11  25  47  78 108 145 197 253 318 380 448
#
# _framework density 22.681764999999999
#
# number of rings (size 3 to 8) (size 9 to 14) (size 15 to 20)
#    0.000    0.286    4.286    4.286    2.000    1.714 
#    0.000    0.000    0.000    0.000    0.000    0.000 
#    0.000    0.000    0.000    0.000    0.000    0.000 
#
# Total GULP energy -78024.322819 kJ/mol
# GULP energy per Si atom -5573.165916 kJ/mol
# Density = 2.263014 g / cm^3
# Si number density = 22.681765 Si / 1000 Ang^3
#
#
#
# Elastic Constant Matrix: (Units=GPa)
#
#
# Indices 1 2 3 4 5 6 
#
# 1 97.8672 38.2408 26.6371 -5.4775 4.2322 -10.0295
# 2 38.2408 122.3965 16.7978 -12.4599 -16.1634 -23.4506
# 3 26.6371 16.7978 99.5476 -13.8204 -12.8175 2.9962
# 4 -5.4775 -12.4599 -13.8204 43.3181 5.6224 2.7478
# 5 4.2322 -16.1634 -12.8175 5.6224 39.8222 -0.4825
# 6 -10.0295 -23.4506 2.9962 2.7478 -0.4825 47.3401
#
#
#
# Elastic Compliance Matrix: (Units=1/GPa)
#
#
# Indices 1 2 3 4 5 6 
#
# 1 0.012939 -0.003939 -0.003360 -0.000107 -0.004029 0.000968
# 2 -0.003939 0.011099 -0.000109 0.001757 0.004696 0.004617
# 3 -0.003360 -0.000109 0.011901 0.002965 0.003705 -0.001654
# 4 -0.000107 0.001757 0.002965 0.024811 -0.001834 -0.000799
# 5 -0.004029 0.004696 0.003705 -0.001834 0.028917 0.001640
# 6 0.000968 0.004617 -0.001654 -0.000799 0.001640 0.023783
#
#
# Mechanical properties :
#
#
# Convention : Reuss Voigt Hill
#
# Bulk Modulus (GPa) = 47.34200 53.68474 50.51337
# Shear Modulus (GPa) = 36.95220 41.97179 39.46200
#
# Velocity S-wave (km/s) = 4.04066 4.30637 4.17563
# Velocity P-wave (km/s) = 6.53352 6.96035 6.75031
#
# Compressibility (1/GPa) = 0.02112289
#
# Stress axis : x y z
#
# Youngs Moduli (GPa) = 77.28562 90.09501 84.02334
#
# Poissons Ratio (x) = 0.35487 0.28235
# Poissons Ratio (y) = 0.30442 0.00918
# Poissons Ratio (z) = 0.25971 0.00984
#
# Static dielectric constant tensor:
#      x y z
#    x 1.903270 0.035330 0.065090 
#    y 0.035330 2.012730 0.051040 
#    z 0.065090 0.051040 1.885590 
# 
# From -- ./inp_files/26868.got.cif
#   From: 2010.05.17/outbox.ucp.g08.bks.cvg/sg2_14_cif.got.tgz:26868.got - 2010.06.11 11:32:03.
