data_PCOD9075353
_publ_section_title
;
Structure prediction by ZEFSAII (Michael W. Deem and Ramdas Pophale) SiO2 
 PCOD9075353
Probable space group: P -1
;
_chemical_formula_sum "Si O2"
_cell_formula_units_Z 16
_cell_length_a 9.000000
_cell_length_b 18.000000
_cell_length_c 12.000000
_cell_angle_alpha 40.000000
_cell_angle_beta 140.000000
_cell_angle_gamma 140.000000
_cell_volume 723.717541
_symmetry_space_group_name_H-M "P -1"
_symmetry_group_IT_number 2
_symmetry_cell_setting 'triclinic'
loop_
_space_group_symop_operation_xyz
x,y,z
-x,-y,-z
loop_
_atom_site_type_symbol
_atom_site_label
_atom_site_fract_x
_atom_site_fract_y
_atom_site_fract_z
Si Si1 0.386179 0.960031 0.258169
Si Si2 0.589830 0.636106 0.958394
Si Si3 0.394284 0.675889 0.174882
Si Si4 0.114261 0.294646 0.717348
Si Si5 0.136570 0.797443 0.720645
Si Si6 0.167464 0.127593 0.347767
Si Si7 0.308254 0.057257 0.865144
Si Si8 0.974840 0.392878 0.317544
O O1 0.587514 0.894408 0.441237
O O2 0.112149 0.849581 0.263710
O O3 0.587863 0.087635 0.291800
O O4 0.296126 0.015945 0.035240
O O5 0.721266 0.749691 0.812318
O O6 0.315210 0.627563 0.850801
O O7 0.500000 0.500000 0.000000
O O8 0.788323 0.666226 0.143526
O O9 0.629458 0.681197 0.230440
O O10 0.532419 0.787653 0.218945
O O11 0.204370 0.532981 0.267450
O O12 0.217957 0.716132 0.947744
O O13 0.994584 0.371434 0.485789
O O14 0.997883 0.710865 0.633102
O O15 0.977860 0.848927 0.654408
O O16 0.955054 0.013560 0.277018
O O17 0.500000 0.000000 0.000000
#
# Coordination Sequence:
#
# PCOD9075353 Si02
#       8
#     2   2   2   2   2   2   2   2
#     4  11  25  44  71 111 145 187 244 295 364 426
#     4  12  28  48  76 104 150 194 239 306 363 434
#     4  11  25  46  73 104 147 192 246 303 358 432
#     4  12  27  48  72 110 143 193 244 298 367 432
#     4  11  25  45  79 107 145 196 237 301 362 434
#     4  12  24  48  74 111 149 189 243 302 365 427
#     4  11  24  44  73 106 141 194 242 299 360 430
#     4  12  27  51  71 109 148 195 246 294 367 435
#
# _framework density 22.108073000000001
#
# number of rings (size 3 to 8) (size 9 to 14) (size 15 to 20)
#    0.000    0.500    6.250    1.875    3.500    4.000 
#    2.250    0.000    0.000    0.000    0.000    0.000 
#    0.000    0.000    0.000    0.000    0.000    0.000 
#
# Total GULP energy -89297.429934 kJ/mol
# GULP energy per Si atom -5581.089371 kJ/mol
# Density = 2.205775 g / cm^3
# Si number density = 22.108073 Si / 1000 Ang^3
#
#
#
# Elastic Constant Matrix: (Units=GPa)
#
#
# Indices 1 2 3 4 5 6 
#
# 1 58.3213 54.0638 15.6079 3.3209 -8.5379 8.1211
# 2 54.0638 213.2384 48.9518 -5.7269 -26.1167 15.6041
# 3 15.6079 48.9518 109.1651 20.9248 -10.0254 4.2658
# 4 3.3209 -5.7269 20.9248 41.5223 11.3760 -7.7013
# 5 -8.5379 -26.1167 -10.0254 11.3760 28.3873 -1.7515
# 6 8.1211 15.6041 4.2658 -7.7013 -1.7515 53.3500
#
#
#
# Elastic Compliance Matrix: (Units=1/GPa)
#
#
# Indices 1 2 3 4 5 6 
#
# 1 0.023229 -0.005463 0.000376 -0.004257 0.003647 -0.002463
# 2 -0.005463 0.007132 -0.002371 0.001544 0.003418 -0.000730
# 3 0.000376 -0.002371 0.012333 -0.008346 0.005548 -0.001373
# 4 -0.004257 0.001544 -0.008346 0.034264 -0.016213 0.005278
# 5 0.003647 0.003418 0.005548 -0.016213 0.047754 -0.002771
# 6 -0.002463 -0.000730 -0.001373 0.005278 -0.002771 0.020113
#
#
# Mechanical properties :
#
#
# Convention : Reuss Voigt Hill
#
# Bulk Modulus (GPa) = 35.99951 68.66356 52.33154
# Shear Modulus (GPa) = 29.58555 42.12532 35.85543
#
# Velocity S-wave (km/s) = 3.66214 4.36986 4.03156
# Velocity P-wave (km/s) = 5.84812 7.52239 6.73747
#
# Compressibility (1/GPa) = 0.02777816
#
# Stress axis : x y z
#
# Youngs Moduli (GPa) = 43.04884 140.20501 81.08502
#
# Poissons Ratio (x) = 0.76597 -0.03046
# Poissons Ratio (y) = 0.23518 0.19223
# Poissons Ratio (z) = -0.01617 0.33238
#
# Static dielectric constant tensor:
#      x y z
#    x 1.884010 -0.035830 -0.000760 
#    y -0.035830 1.816900 -0.060040 
#    z -0.000760 -0.060040 1.882820 
# 
# From -- ./inp_files/402911.got.cif
#   From: 2010.05.17/outbox.ucp.g08.bks.cvg/sg2_202_cif.got.tgz:402911.got - 2010.06.11 11:32:03.
