data_PCOD9075840
_publ_section_title
;
Structure prediction by ZEFSAII (Michael W. Deem and Ramdas Pophale) SiO2 
 PCOD9075840
Probable space group: P -1
;
_chemical_formula_sum "Si O2"
_cell_formula_units_Z 16
_cell_length_a 16.438809
_cell_length_b 15.992312
_cell_length_c 17.575427
_cell_angle_alpha 156.049633
_cell_angle_beta 24.827111
_cell_angle_gamma 153.532929
_cell_volume 726.590624
_symmetry_space_group_name_H-M "P -1"
_symmetry_group_IT_number 2
_symmetry_cell_setting 'triclinic'
loop_
_space_group_symop_operation_xyz
x,y,z
-x,-y,-z
loop_
_atom_site_type_symbol
_atom_site_label
_atom_site_fract_x
_atom_site_fract_y
_atom_site_fract_z
Si Si1 0.846543 0.182791 0.652388
Si Si2 0.433593 0.958037 0.355566
Si Si3 0.839523 0.642704 0.974545
Si Si4 0.747879 0.096710 0.084181
Si Si5 0.511332 0.129565 0.020928
Si Si6 0.705073 0.566429 0.541591
Si Si7 0.273451 0.517375 0.216016
Si Si8 0.362973 0.584874 0.361588
O O1 0.732708 0.010607 0.537311
O O2 0.090361 0.242414 0.509423
O O3 0.852026 0.415625 0.806160
O O4 0.706349 0.139344 0.810798
O O5 0.314385 0.761522 0.350956
O O6 0.591371 0.916985 0.126406
O O7 0.590069 0.164329 0.442070
O O8 0.603348 0.614901 0.167532
O O9 0.874773 0.652157 0.861299
O O10 0.018092 0.836926 0.029279
O O11 0.695112 0.322570 0.321925
O O12 0.689288 0.003481 0.972663
O O13 0.494414 0.368329 0.248770
O O14 0.500000 0.000000 0.000000
O O15 0.731001 0.565334 0.610228
O O16 0.229375 0.504941 0.332315
O O17 0.500000 0.500000 0.000000
#
# Coordination Sequence:
#
# PCOD9075840 Si02
#       8
#     2   2   2   2   2   2   2   2
#     4   9  19  38  58  82 118 149 191 237 279 353
#     4   9  18  33  52  80 114 151 192 237 280 333
#     4   9  17  35  55  79 115 153 189 238 281 332
#     4   9  21  38  59  85 117 148 195 236 283 354
#     4  11  23  40  64  89 115 148 187 241 296 350
#     4  10  21  39  61  85 116 159 190 230 299 339
#     4   9  18  31  51  79 116 153 192 241 278 319
#     4  10  18  32  56  81 110 157 197 231 285 334
#
# _framework density 22.020652999999999
#
# number of rings (size 3 to 8) (size 9 to 14) (size 15 to 20)
#    0.000    2.500    1.250    0.375    3.500    1.000 
#    0.000   16.250    0.000    0.000    0.000    0.000 
#    0.000    0.000    0.000    0.000    0.000    0.000 
#
# Total GULP energy -89207.190973 kJ/mol
# GULP energy per Si atom -5575.449436 kJ/mol
# Density = 2.197053 g / cm^3
# Si number density = 22.020653 Si / 1000 Ang^3
#
#
#
# Elastic Constant Matrix: (Units=GPa)
#
#
# Indices 1 2 3 4 5 6 
#
# 1 63.6682 17.4265 10.8228 -1.6970 10.6828 -9.5871
# 2 17.4265 62.7062 5.2650 -13.3236 0.4880 7.2618
# 3 10.8228 5.2650 65.1508 -7.2142 2.6841 -7.2580
# 4 -1.6970 -13.3236 -7.2142 20.1198 -1.2259 1.6777
# 5 10.6828 0.4880 2.6841 -1.2259 16.6263 -1.2587
# 6 -9.5871 7.2618 -7.2580 1.6777 -1.2587 37.0511
#
#
#
# Elastic Compliance Matrix: (Units=1/GPa)
#
#
# Indices 1 2 3 4 5 6 
#
# 1 0.021082 -0.007409 -0.002256 -0.005244 -0.012876 0.006265
# 2 -0.007409 0.021865 0.000161 0.014754 0.004675 -0.006680
# 3 -0.002256 0.000161 0.016625 0.005641 -0.000645 0.002364
# 4 -0.005244 0.014754 0.005641 0.061906 0.006156 -0.005738
# 5 -0.012876 0.004675 -0.000645 0.006156 0.068664 -0.002320
# 6 0.006265 -0.006680 0.002364 -0.005738 -0.002320 0.030564
#
#
# Mechanical properties :
#
#
# Convention : Reuss Voigt Hill
#
# Bulk Modulus (GPa) = 24.65206 28.72818 26.69012
# Shear Modulus (GPa) = 19.74444 25.29351 22.51897
#
# Velocity S-wave (km/s) = 2.99763 3.39282 3.20133
# Velocity P-wave (km/s) = 4.81667 5.33129 5.08050
#
# Compressibility (1/GPa) = 0.04056456
#
# Stress axis : x y z
#
# Youngs Moduli (GPa) = 47.43406 45.73520 60.14931
#
# Poissons Ratio (x) = 0.33885 0.13567
# Poissons Ratio (y) = 0.35144 -0.00967
# Poissons Ratio (z) = 0.10699 -0.00735
#
# Static dielectric constant tensor:
#      x y z
#    x 1.814010 0.055820 -0.015400 
#    y 0.055820 1.846600 0.005460 
#    z -0.015400 0.005460 1.923560 
# 
# From -- ./inp_files/197413.got.cif
#   From: 2010.05.17/outbox.cif.g08.bks.cpg/sg2_99_cif.got.tgz:197413.got - 2010.06.03 11:33:40.
