data_PCOD9075815
_publ_section_title
;
Structure prediction by ZEFSAII (Michael W. Deem and Ramdas Pophale) SiO2 
 PCOD9075815
Probable space group: P -1
;
_chemical_formula_sum "Si O2"
_cell_formula_units_Z 16
_cell_length_a 11.402869
_cell_length_b 13.640341
_cell_length_c 9.985752
_cell_angle_alpha 46.383664
_cell_angle_beta 116.621065
_cell_angle_gamma 82.003499
_cell_volume 725.192532
_symmetry_space_group_name_H-M "P -1"
_symmetry_group_IT_number 2
_symmetry_cell_setting 'triclinic'
loop_
_space_group_symop_operation_xyz
x,y,z
-x,-y,-z
loop_
_atom_site_type_symbol
_atom_site_label
_atom_site_fract_x
_atom_site_fract_y
_atom_site_fract_z
Si Si1 0.424331 0.008424 0.309794
Si Si2 0.137809 0.907424 0.032740
Si Si3 0.182764 0.281995 0.294652
Si Si4 0.738131 0.266426 0.248772
Si Si5 0.367151 0.581753 0.638391
Si Si6 0.136971 0.083027 0.253618
Si Si7 0.043061 0.227386 0.508067
Si Si8 0.177114 0.440012 0.713560
O O1 0.262691 0.018114 0.248101
O O2 0.500000 0.000000 0.500000
O O3 0.608442 0.816764 0.519778
O O4 0.327924 0.213447 0.011239
O O5 0.319822 0.719587 0.367391
O O6 0.048377 0.860804 0.930634
O O7 0.000000 0.000000 0.000000
O O8 0.128847 0.061811 0.815746
O O9 0.134533 0.224573 0.195351
O O10 0.184987 0.198329 0.513749
O O11 0.000000 0.500000 0.000000
O O12 0.698605 0.327433 0.329870
O O13 0.917941 0.222176 0.354822
O O14 0.761298 0.090438 0.429921
O O15 0.579495 0.416231 0.927050
O O16 0.267043 0.509592 0.627670
O O17 0.907597 0.434586 0.311313
O O18 0.000000 0.500000 0.500000
#
# Coordination Sequence:
#
# PCOD9075815 Si02
#       8
#     2   2   2   2   2   2   2   2
#     4  10  21  37  63  89 116 163 214 256 299 366
#     4  11  19  37  61  96 124 156 205 264 314 369
#     4  11  24  42  60  92 133 165 211 259 312 376
#     4   9  19  33  60  91 118 156 207 259 311 353
#     4  10  18  32  55  93 123 149 203 263 303 362
#     4  10  20  38  66  89 120 162 213 259 311 367
#     4  10  22  40  62  93 128 163 205 259 321 366
#     4  11  21  36  62  90 123 163 208 252 306 377
#
# _framework density 22.063108
#
# number of rings (size 3 to 8) (size 9 to 14) (size 15 to 20)
#    0.000    1.750    3.750    3.750    0.000    4.000 
#    0.000    0.625    0.000   11.250    0.000    0.000 
#    0.000    0.000    0.000    0.000    0.000    0.000 
#
# Total GULP energy -89205.666930 kJ/mol
# GULP energy per Si atom -5575.354183 kJ/mol
# Density = 2.201289 g / cm^3
# Si number density = 22.063108 Si / 1000 Ang^3
#
#
#
# Elastic Constant Matrix: (Units=GPa)
#
#
# Indices 1 2 3 4 5 6 
#
# 1 69.3927 12.8103 30.4972 -7.5449 1.8137 -6.1234
# 2 12.8103 53.0042 26.9082 -11.7326 7.4593 12.8345
# 3 30.4972 26.9082 179.4087 -0.4757 -1.8945 2.8232
# 4 -7.5449 -11.7326 -0.4757 28.7522 -5.3060 -2.7300
# 5 1.8137 7.4593 -1.8945 -5.3060 19.7395 0.3870
# 6 -6.1234 12.8345 2.8232 -2.7300 0.3870 23.1032
#
#
#
# Elastic Compliance Matrix: (Units=1/GPa)
#
#
# Indices 1 2 3 4 5 6 
#
# 1 0.017274 -0.004029 -0.002435 0.003664 0.000539 0.007538
# 2 -0.004029 0.028011 -0.003345 0.007348 -0.008262 -0.015213
# 3 -0.002435 -0.003345 0.006500 -0.001566 0.001687 0.000205
# 4 0.003664 0.007348 -0.001566 0.040266 0.007526 0.001712
# 5 0.000539 -0.008262 0.001687 0.007526 0.055830 0.004481
# 6 0.007538 -0.015213 0.000205 0.001712 0.004481 0.053836
#
#
# Mechanical properties :
#
#
# Convention : Reuss Voigt Hill
#
# Bulk Modulus (GPa) = 31.08692 49.13744 40.11218
# Shear Modulus (GPa) = 21.54649 29.75831 25.65240
#
# Velocity S-wave (km/s) = 3.12843 3.67656 3.41351
# Velocity P-wave (km/s) = 5.21248 6.35157 5.81001
#
# Compressibility (1/GPa) = 0.03216787
#
# Stress axis : x y z
#
# Youngs Moduli (GPa) = 57.88971 35.69999 153.84766
#
# Poissons Ratio (x) = 0.14382 0.37468
# Poissons Ratio (y) = 0.23322 0.51458
# Poissons Ratio (z) = 0.14098 0.11941
#
# Static dielectric constant tensor:
#      x y z
#    x 1.847160 -0.021470 0.002410 
#    y -0.021470 1.864180 -0.051300 
#    z 0.002410 -0.051300 1.865160 
# 
# From -- ./inp_files/433731.got.cif
#   From: 2010.05.17/outbox.cif.g08.bks.cpg/sg2_217_cif.got.tgz:433731.got - 2010.06.03 11:33:40.
