data_PCOD9075287
_publ_section_title
;
Structure prediction by ZEFSAII (Michael W. Deem and Ramdas Pophale) SiO2 
 PCOD9075287
Probable space group: P -1
;
_chemical_formula_sum "Si O2"
_cell_formula_units_Z 14
_cell_length_a 12.291879
_cell_length_b 7.079269
_cell_length_c 11.641190
_cell_angle_alpha 99.152015
_cell_angle_beta 124.832221
_cell_angle_gamma 123.776505
_cell_volume 494.562080
_symmetry_space_group_name_H-M "P -1"
_symmetry_group_IT_number 2
_symmetry_cell_setting 'triclinic'
loop_
_space_group_symop_operation_xyz
x,y,z
-x,-y,-z
loop_
_atom_site_type_symbol
_atom_site_label
_atom_site_fract_x
_atom_site_fract_y
_atom_site_fract_z
Si Si1 0.146527 0.945707 0.207742
Si Si2 0.720729 0.314705 0.233329
Si Si3 0.315824 0.145924 0.565548
Si Si4 0.950096 0.276691 0.223737
Si Si5 0.747120 0.778681 0.224447
Si Si6 0.251739 0.501447 0.239765
Si Si7 0.539742 0.822907 0.752202
O O1 0.208650 0.232164 0.231592
O O2 0.514355 0.237464 0.654982
O O3 0.340307 0.032108 0.283940
O O4 0.919082 0.643760 0.978589
O O5 0.903600 0.384861 0.300516
O O6 0.783041 0.604365 0.268794
O O7 0.633826 0.229153 0.303675
O O8 0.500000 0.000000 0.000000
O O9 0.249500 0.073971 0.651165
O O10 0.418033 0.478337 0.646981
O O11 0.909691 0.037233 0.248990
O O12 0.138803 0.920520 0.336325
O O13 0.169478 0.521974 0.304107
O O14 0.747713 0.051854 0.988073
O O15 0.500000 0.500000 0.000000
#
# Coordination Sequence:
#
# PCOD9075287 Si02
#       7
#     2   2   2   2   2   2   2
#     4   9  17  29  52  83 110 146 197 232 281 342
#     4   9  16  28  50  80 110 146 188 234 281 340
#     4  10  18  32  55  82 112 150 190 239 283 342
#     4  10  18  32  53  84 110 145 192 236 284 340
#     4  11  19  32  56  84 111 149 194 231 289 346
#     4   9  18  32  56  81 113 150 192 234 285 348
#     4   8  14  26  47  75  99 138 182 221 267 327
#
# _framework density 28.307870999999999
#
# number of rings (size 3 to 8) (size 9 to 14) (size 15 to 20)
#    0.000    2.571    4.286    2.571    0.000    0.000 
#    0.000    0.714    0.000   14.571    0.000    0.000 
#    0.000    1.143    0.000    0.000    0.000    0.000 
#
# Total GULP energy -78521.873845 kJ/mol
# GULP energy per Si atom -5608.705275 kJ/mol
# Density = 2.824344 g / cm^3
# Si number density = 28.307871 Si / 1000 Ang^3
#
#
#
# Elastic Constant Matrix: (Units=GPa)
#
#
# Indices 1 2 3 4 5 6 
#
# 1 283.5913 61.0324 94.5210 -12.4166 5.2520 12.6176
# 2 61.0324 123.8973 16.0383 0.2417 -4.1149 6.4731
# 3 94.5210 16.0383 131.5086 0.8490 -4.7260 15.9915
# 4 -12.4166 0.2417 0.8490 23.5866 2.9162 -9.5454
# 5 5.2520 -4.1149 -4.7260 2.9162 58.1927 -11.4451
# 6 12.6176 6.4731 15.9915 -9.5454 -11.4451 55.2808
#
#
#
# Elastic Compliance Matrix: (Units=1/GPa)
#
#
# Indices 1 2 3 4 5 6 
#
# 1 0.005389 -0.002239 -0.003715 0.003309 -0.001020 0.000467
# 2 -0.002239 0.009168 0.000639 -0.001753 0.000817 -0.000881
# 3 -0.003715 0.000639 0.010582 -0.003553 0.000883 -0.002718
# 4 0.003309 -0.001753 -0.003553 0.047882 -0.001450 0.008445
# 5 -0.001020 0.000817 0.000883 -0.001450 0.018145 0.003388
# 6 0.000467 -0.000881 -0.002718 0.008445 0.003388 0.021032
#
#
# Mechanical properties :
#
#
# Convention : Reuss Voigt Hill
#
# Bulk Modulus (GPa) = 68.92537 98.02006 83.47272
# Shear Modulus (GPa) = 39.16527 51.90572 45.53550
#
# Velocity S-wave (km/s) = 3.72364 4.28672 4.01506
# Velocity P-wave (km/s) = 6.54894 7.69434 7.14463
#
# Compressibility (1/GPa) = 0.01450845
#
# Stress axis : x y z
#
# Youngs Moduli (GPa) = 185.55354 109.07709 94.50219
#
# Poissons Ratio (x) = 0.24418 0.35110
# Poissons Ratio (y) = 0.41538 -0.06036
# Poissons Ratio (z) = 0.68939 -0.06966
#
# Static dielectric constant tensor:
#      x y z
#    x 2.159420 -0.044580 0.028340 
#    y -0.044580 2.228500 0.009680 
#    z 0.028340 0.009680 2.168540 
# 
# From -- ./inp_files/473744.got.cif
#   From: 2010.05.17/outbox.cif.g08.bks.cpg/sg2_237_cif.got.tgz:473744.got - 2010.06.03 11:33:40.
