data_PCOD9075121
_publ_section_title
;
Structure prediction by ZEFSAII (Michael W. Deem and Ramdas Pophale) SiO2 
 PCOD9075121
Probable space group: P -1
;
_chemical_formula_sum "Si O2"
_cell_formula_units_Z 10
_cell_length_a 11.652622
_cell_length_b 15.730499
_cell_length_c 10.380066
_cell_angle_alpha 116.572604
_cell_angle_beta 27.029129
_cell_angle_gamma 128.898801
_cell_volume 638.277173
_symmetry_space_group_name_H-M "P -1"
_symmetry_group_IT_number 2
_symmetry_cell_setting 'triclinic'
loop_
_space_group_symop_operation_xyz
x,y,z
-x,-y,-z
loop_
_atom_site_type_symbol
_atom_site_label
_atom_site_fract_x
_atom_site_fract_y
_atom_site_fract_z
Si Si1 0.908908 0.439303 0.187586
Si Si2 0.135239 0.923494 0.804975
Si Si3 0.855124 0.403404 0.691386
Si Si4 0.184267 0.289504 0.189922
Si Si5 0.779823 0.686525 0.123332
O O1 0.544027 0.362445 0.521028
O O2 0.050805 0.533895 0.223399
O O3 0.000000 0.500000 0.000000
O O4 0.043141 0.362422 0.021928
O O5 0.016638 0.844430 0.741099
O O6 0.500000 0.000000 0.500000
O O7 0.987398 0.824928 0.996745
O O8 0.000000 0.000000 0.000000
O O9 0.000000 0.500000 0.500000
O O10 0.991382 0.327709 0.481969
O O11 0.491777 0.327708 0.981576
O O12 0.276447 0.350963 0.997548
#
# Coordination Sequence:
#
# PCOD9075121 Si02
#       5
#     2   2   2   2   2
#     4  12  23  34  51  78 112 150 171 198 257 322
#     4  10  18  32  53  81 106 127 168 232 277 290
#     4  12  17  33  51  74 106 140 166 219 254 304
#     4  10  20  29  53  78 102 129 174 208 272 297
#     4  10  20  35  50  79 109 130 183 211 254 313
#
# _framework density 15.667176
#
# number of rings (size 3 to 8) (size 9 to 14) (size 15 to 20)
#    1.200    0.000    4.000    4.800    0.000    0.000 
#    0.000    0.000    0.000    0.000    0.000   28.000 
#    0.000    0.000    0.000    0.000    0.000    0.000 
#
# Total GULP energy -55746.238773 kJ/mol
# GULP energy per Si atom -5574.623877 kJ/mol
# Density = 1.563152 g / cm^3
# Si number density = 15.667176 Si / 1000 Ang^3
#
#
#
# Elastic Constant Matrix: (Units=GPa)
#
#
# Indices 1 2 3 4 5 6 
#
# 1 90.0885 60.9024 71.6399 1.3328 4.5890 -5.4277
# 2 60.9024 140.4738 92.0555 7.2045 -20.0993 1.0438
# 3 71.6399 92.0555 168.9544 1.8946 -38.7172 -9.5383
# 4 1.3328 7.2045 1.8946 28.6594 -6.2300 -6.4377
# 5 4.5890 -20.0993 -38.7172 -6.2300 29.2585 -0.5823
# 6 -5.4277 1.0438 -9.5383 -6.4377 -0.5823 25.3209
#
#
#
# Elastic Compliance Matrix: (Units=1/GPa)
#
#
# Indices 1 2 3 4 5 6 
#
# 1 0.031042 -0.006563 -0.017368 -0.006444 -0.033773 -0.002033
# 2 -0.006563 0.013039 -0.003382 -0.002526 0.004899 -0.003748
# 3 -0.017368 -0.003382 0.023051 0.009149 0.033015 0.008185
# 4 -0.006444 -0.002526 0.009149 0.042772 0.020759 0.013521
# 5 -0.033773 0.004899 0.033015 0.020759 0.091194 0.012370
# 6 -0.002033 -0.003748 0.008185 0.013521 0.012370 0.046017
#
#
# Mechanical properties :
#
#
# Convention : Reuss Voigt Hill
#
# Bulk Modulus (GPa) = 79.96877 94.30138 87.13507
# Shear Modulus (GPa) = 16.34467 28.30902 22.32684
#
# Velocity S-wave (km/s) = 3.23343 4.25538 3.77911
# Velocity P-wave (km/s) = 8.06803 9.19051 8.64750
#
# Compressibility (1/GPa) = 0.01250488
#
# Stress axis : x y z
#
# Youngs Moduli (GPa) = 32.21490 76.69376 43.38217
#
# Poissons Ratio (x) = 0.50335 0.75346
# Poissons Ratio (y) = 0.21143 0.14672
# Poissons Ratio (z) = 0.55951 0.25939
#
# Static dielectric constant tensor:
#      x y z
#    x 1.502150 0.006800 -0.006150 
#    y 0.006800 1.523310 0.000220 
#    z -0.006150 0.000220 1.509920 
# 
# From -- ./inp_files/425.got.cif
#   From: 2010.05.17/outbox.cif.g08.bks.cpg/sg2_1_cif.got.tgz:425.got - 2010.06.03 11:33:40.
