data_PCOD9075041
_publ_section_title
;
Structure prediction by ZEFSAII (Michael W. Deem and Ramdas Pophale) SiO2 
 PCOD9075041
Probable space group: P -1
;
_chemical_formula_sum "Si O2"
_cell_formula_units_Z 16
_cell_length_a 18.000000
_cell_length_b 9.000000
_cell_length_c 12.000000
_cell_angle_alpha 40.000000
_cell_angle_beta 50.000000
_cell_angle_gamma 80.000000
_cell_volume 729.599496
_symmetry_space_group_name_H-M "P -1"
_symmetry_group_IT_number 2
_symmetry_cell_setting 'triclinic'
loop_
_space_group_symop_operation_xyz
x,y,z
-x,-y,-z
loop_
_atom_site_type_symbol
_atom_site_label
_atom_site_fract_x
_atom_site_fract_y
_atom_site_fract_z
Si Si1 0.536466 0.322018 0.308356
Si Si2 0.063554 0.801823 0.835578
Si Si3 0.065630 0.082896 0.268268
Si Si4 0.659937 0.350126 0.397080
Si Si5 0.641189 0.779073 0.753077
Si Si6 0.863378 0.268110 0.707483
Si Si7 0.679601 0.713486 0.362479
Si Si8 0.116648 0.341110 0.716009
O O1 0.593131 0.367494 0.348165
O O2 0.414457 0.302600 0.453144
O O3 0.500000 0.000000 0.500000
O O4 0.635915 0.602835 0.968063
O O5 0.033815 0.993179 0.687429
O O6 0.220400 0.032812 0.553938
O O7 0.000000 0.500000 0.000000
O O8 0.962840 0.629312 0.135249
O O9 0.116714 0.906131 0.299921
O O10 0.191849 0.421834 0.917128
O O11 0.000000 0.000000 0.500000
O O12 0.618051 0.453456 0.478263
O O13 0.631595 0.040556 0.631973
O O14 0.500000 0.500000 0.000000
O O15 0.833503 0.443680 0.561795
O O16 0.000000 0.500000 0.500000
O O17 0.761074 0.031231 0.033638
O O18 0.776055 0.672783 0.342397
O O19 0.000000 0.000000 0.000000
#
# Coordination Sequence:
#
# PCOD9075041 Si02
#       8
#     2   2   2   2   2   2   2   2
#     4  12  28  48  74 105 144 200 247 306 377 444
#     4  12  23  45  73 108 150 185 243 306 361 447
#     4  11  22  41  72 105 144 191 239 302 364 432
#     4  11  24  49  70 107 146 189 255 301 367 441
#     4  12  27  46  74 109 151 197 249 304 372 439
#     4  11  23  42  67 104 144 186 238 298 373 427
#     4  11  26  48  71 106 148 189 253 306 366 453
#     4  12  24  42  71 106 145 192 240 305 369 432
#
# _framework density 21.929839999999999
#
# number of rings (size 3 to 8) (size 9 to 14) (size 15 to 20)
#    0.000    0.500    6.250    1.875    1.750    7.500 
#    0.000    0.000    0.000    0.000    0.000    0.000 
#    0.000    0.000    0.000    0.000    0.000    0.000 
#
# Total GULP energy -89105.077764 kJ/mol
# GULP energy per Si atom -5569.067360 kJ/mol
# Density = 2.187993 g / cm^3
# Si number density = 21.929840 Si / 1000 Ang^3
#
#
#
# Elastic Constant Matrix: (Units=GPa)
#
#
# Indices 1 2 3 4 5 6 
#
# 1 104.2363 13.0975 24.1831 -7.2956 9.9113 -6.3698
# 2 13.0975 78.9184 41.5964 -4.7965 -7.3682 -8.7854
# 3 24.1831 41.5964 124.9512 2.4806 14.7843 -15.6780
# 4 -7.2956 -4.7965 2.4806 40.8549 -10.8071 -3.0380
# 5 9.9113 -7.3682 14.7843 -10.8071 54.2961 1.1044
# 6 -6.3698 -8.7854 -15.6780 -3.0380 1.1044 22.8331
#
#
#
# Elastic Compliance Matrix: (Units=1/GPa)
#
#
# Indices 1 2 3 4 5 6 
#
# 1 0.010373 -0.000813 -0.001369 0.001627 -0.001346 0.001923
# 2 -0.000813 0.016757 -0.005722 0.003587 0.004643 0.002544
# 3 -0.001369 -0.005722 0.011355 -0.002334 -0.004187 0.005105
# 4 0.001627 0.003587 -0.002334 0.027227 0.006172 0.003556
# 5 -0.001346 0.004643 -0.004187 0.006172 0.021696 -0.001692
# 6 0.001923 0.002544 0.005105 0.003556 -0.001692 0.049372
#
#
# Mechanical properties :
#
#
# Convention : Reuss Voigt Hill
#
# Bulk Modulus (GPa) = 44.09724 51.76220 47.92972
# Shear Modulus (GPa) = 31.22119 38.87874 35.04996
#
# Velocity S-wave (km/s) = 3.77727 4.21511 4.00218
# Velocity P-wave (km/s) = 6.25905 6.88072 6.57723
#
# Compressibility (1/GPa) = 0.02267715
#
# Stress axis : x y z
#
# Youngs Moduli (GPa) = 96.40755 59.67608 88.06423
#
# Poissons Ratio (x) = 0.04851 0.12053
# Poissons Ratio (y) = 0.07837 0.50394
# Poissons Ratio (z) = 0.13195 0.34149
#
# Static dielectric constant tensor:
#      x y z
#    x 1.814380 -0.034950 -0.025110 
#    y -0.034950 1.814750 -0.040540 
#    z -0.025110 -0.040540 1.762020 
# 
# From -- ./inp_files/461805.got.cif
#   From: 2010.05.17/outbox.ucp.g08.bks.cvg/sg2_231_cif.got.tgz:461805.got - 2010.06.11 11:32:03.
