data_PCOD9075861
_publ_section_title
;
Structure prediction by ZEFSAII (Michael W. Deem and Ramdas Pophale) SiO2 
 PCOD9075861
Probable space group: P -1
;
_chemical_formula_sum "Si O2"
_cell_formula_units_Z 16
_cell_length_a 20.785709
_cell_length_b 7.771239
_cell_length_c 12.014329
_cell_angle_alpha 124.151557
_cell_angle_beta 129.702207
_cell_angle_gamma 26.071362
_cell_volume 655.766197
_symmetry_space_group_name_H-M "P -1"
_symmetry_group_IT_number 2
_symmetry_cell_setting 'triclinic'
loop_
_space_group_symop_operation_xyz
x,y,z
-x,-y,-z
loop_
_atom_site_type_symbol
_atom_site_label
_atom_site_fract_x
_atom_site_fract_y
_atom_site_fract_z
Si Si1 0.777557 0.275393 0.703864
Si Si2 0.443645 0.836517 0.506122
Si Si3 0.021458 0.993360 0.726070
Si Si4 0.526587 0.685503 0.985701
Si Si5 0.562890 0.498724 0.290658
Si Si6 0.842870 0.729002 0.459451
Si Si7 0.745836 0.438632 0.977271
Si Si8 0.252049 0.574951 0.675267
O O1 0.590087 0.682969 0.631478
O O2 0.810015 0.270030 0.863982
O O3 0.819696 0.942029 0.613161
O O4 0.861763 0.240422 0.691133
O O5 0.500000 0.500000 0.500000
O O6 0.434753 0.833052 0.362431
O O7 0.297549 0.250980 0.556446
O O8 0.114427 0.599047 0.637684
O O9 0.074737 0.014019 0.682647
O O10 0.114702 0.876843 0.894501
O O11 0.632923 0.588755 0.156401
O O12 0.349142 0.144503 0.968715
O O13 0.517065 0.456959 0.882546
O O14 0.607580 0.574867 0.916049
O O15 0.683194 0.417762 0.350170
O O16 0.683130 0.099929 0.347260
O O17 0.000000 0.500000 0.500000
#
# Coordination Sequence:
#
# PCOD9075861 Si02
#       8
#     2   2   2   2   2   2   2   2
#     4  10  19  33  55  83 109 144 186 239 285 324
#     4  11  22  37  60  86 115 146 193 243 281 335
#     4  10  20  35  56  82 112 148 190 235 280 341
#     4  10  20  33  56  86 114 146 192 237 285 336
#     4  11  21  36  58  84 115 153 186 237 294 336
#     4   9  19  35  54  80 108 144 193 232 275 336
#     4  10  18  32  56  84 110 141 195 241 280 325
#     4  11  22  37  56  86 119 150 188 234 290 347
#
# _framework density 24.398941000000001
#
# number of rings (size 3 to 8) (size 9 to 14) (size 15 to 20)
#    0.000    1.750    2.500    3.375    1.750    0.000 
#    0.000    5.625    0.000    3.750    0.000    0.000 
#    0.000    0.000    0.000    0.000    0.000    0.000 
#
# Total GULP energy -89098.945706 kJ/mol
# GULP energy per Si atom -5568.684107 kJ/mol
# Density = 2.434341 g / cm^3
# Si number density = 24.398941 Si / 1000 Ang^3
#
#
#
# Elastic Constant Matrix: (Units=GPa)
#
#
# Indices 1 2 3 4 5 6 
#
# 1 58.9151 23.2501 29.3315 23.8814 -26.4906 -24.1655
# 2 23.2501 54.3206 21.9801 5.9523 -9.7752 -31.4015
# 3 29.3315 21.9801 142.4492 17.2159 -20.5354 -19.4415
# 4 23.8814 5.9523 17.2159 27.5259 -9.5966 -11.0375
# 5 -26.4906 -9.7752 -20.5354 -9.5966 32.5835 14.1304
# 6 -24.1655 -31.4015 -19.4415 -11.0375 14.1304 38.5845
#
#
#
# Elastic Compliance Matrix: (Units=1/GPa)
#
#
# Indices 1 2 3 4 5 6 
#
# 1 0.042893 -0.009277 -0.000571 -0.025567 0.022729 0.003388
# 2 -0.009277 0.037951 -0.002230 0.010581 -0.007307 0.029654
# 3 -0.000571 -0.002230 0.008315 -0.003125 0.003209 -0.000053
# 4 -0.025567 0.010581 -0.003125 0.060179 -0.006455 0.010603
# 5 0.022729 -0.007307 0.003209 -0.006455 0.051836 -0.010924
# 6 0.003388 0.029654 -0.000053 0.010603 -0.010924 0.059180
#
#
# Mechanical properties :
#
#
# Convention : Reuss Voigt Hill
#
# Bulk Modulus (GPa) = 15.38470 44.97871 30.18170
# Shear Modulus (GPa) = 16.33038 31.81366 24.07202
#
# Velocity S-wave (km/s) = 2.58990 3.61487 3.14443
# Velocity P-wave (km/s) = 3.90674 5.99147 5.05769
#
# Compressibility (1/GPa) = 0.06499964
#
# Stress axis : x y z
#
# Youngs Moduli (GPa) = 23.31406 26.35001 120.26497
#
# Poissons Ratio (x) = 0.24446 0.06873
# Poissons Ratio (y) = 0.21629 0.26825
# Poissons Ratio (z) = 0.01332 0.05877
#
# Static dielectric constant tensor:
#      x y z
#    x 2.336350 0.125710 0.097730 
#    y 0.125710 1.932940 0.033030 
#    z 0.097730 0.033030 2.009050 
# 
# From -- ./inp_files/285637.got.cif
#   From: 2010.05.17/outbox.cif.g08.bks.cpg/sg2_143_cif.got.tgz:285637.got - 2010.06.03 11:33:40.
