data_PCOD9075561
_publ_section_title
;
Structure prediction by ZEFSAII (Michael W. Deem and Ramdas Pophale) SiO2 
 PCOD9075561
Probable space group: P -1
;
_chemical_formula_sum "Si O2"
_cell_formula_units_Z 16
_cell_length_a 27.000000
_cell_length_b 15.000000
_cell_length_c 24.000000
_cell_angle_alpha 30.000000
_cell_angle_beta 10.000000
_cell_angle_gamma 30.000000
_cell_volume 834.184372
_symmetry_space_group_name_H-M "P -1"
_symmetry_group_IT_number 2
_symmetry_cell_setting 'triclinic'
loop_
_space_group_symop_operation_xyz
x,y,z
-x,-y,-z
loop_
_atom_site_type_symbol
_atom_site_label
_atom_site_fract_x
_atom_site_fract_y
_atom_site_fract_z
Si Si1 0.576372 0.532311 0.505999
Si Si2 0.088849 0.399289 0.788579
Si Si3 0.320367 0.208120 0.456472
Si Si4 0.224783 0.880267 0.525130
Si Si5 0.375363 0.136210 0.116874
Si Si6 0.804544 0.405230 0.552232
Si Si7 0.767802 0.025671 0.150288
Si Si8 0.549996 0.923283 0.260289
O O1 0.704280 0.555598 0.414207
O O2 0.732925 0.338482 0.414041
O O3 0.576816 0.724632 0.368967
O O4 0.240543 0.511097 0.886708
O O5 0.160700 0.474823 0.607203
O O6 0.092300 0.181996 0.903722
O O7 0.280912 0.426981 0.397434
O O8 0.595893 0.124118 0.234684
O O9 0.398502 0.096878 0.371034
O O10 0.006275 0.138380 0.851800
O O11 0.389007 0.912655 0.384266
O O12 0.320542 0.995748 0.303659
O O13 0.883134 0.946479 0.872217
O O14 0.089987 0.271728 0.333883
O O15 0.584047 0.269078 0.844803
O O16 0.500000 0.000000 0.000000
O O17 0.500000 0.000000 0.500000
#
# Coordination Sequence:
#
# PCOD9075561 Si02
#       8
#     2   2   2   2   2   2   2   2
#     4  12  24  42  67 105 139 179 223 277 347 416
#     4  12  22  38  66 104 141 176 218 273 348 410
#     4  12  25  42  66 101 146 181 221 279 339 410
#     4  12  26  46  71  95 133 182 236 286 336 399
#     4  12  27  51  73 100 131 176 233 292 343 393
#     4  12  26  43  71 103 137 180 231 282 338 403
#     4  12  22  38  63  98 148 186 215 269 342 412
#     4  12  24  45  68 101 138 183 223 277 344 412
#
# _framework density 19.180412
#
# number of rings (size 3 to 8) (size 9 to 14) (size 15 to 20)
#    0.000    0.000    3.750    7.500    1.750    0.000 
#    0.000    3.750    0.000    0.000    0.000    0.000 
#    0.000    0.000    0.000    0.000    0.000    0.000 
#
# Total GULP energy -89126.923739 kJ/mol
# GULP energy per Si atom -5570.432734 kJ/mol
# Density = 1.913676 g / cm^3
# Si number density = 19.180412 Si / 1000 Ang^3
#
#
#
# Elastic Constant Matrix: (Units=GPa)
#
#
# Indices 1 2 3 4 5 6 
#
# 1 159.6664 55.1684 38.2036 -0.5593 -19.0587 -3.2949
# 2 55.1684 160.0742 34.8384 5.8883 -2.7882 17.1873
# 3 38.2036 34.8384 108.9677 1.7160 -18.3067 3.7244
# 4 -0.5593 5.8883 1.7160 44.2868 -1.0916 -3.6177
# 5 -19.0587 -2.7882 -18.3067 -1.0916 49.2786 1.9033
# 6 -3.2949 17.1873 3.7244 -3.6177 1.9033 51.5843
#
#
#
# Elastic Compliance Matrix: (Units=1/GPa)
#
#
# Indices 1 2 3 4 5 6 
#
# 1 0.007805 -0.002471 -0.001629 0.000660 0.002234 0.001403
# 2 -0.002471 0.007781 -0.001690 -0.001245 -0.001067 -0.002676
# 3 -0.001629 -0.001690 0.010865 -0.000173 0.003325 -0.000460
# 4 0.000660 -0.001245 -0.000173 0.022942 0.000549 0.002058
# 5 0.002234 -0.001067 0.003325 0.000549 0.022364 -0.000528
# 6 0.001403 -0.002676 -0.000460 0.002058 -0.000528 0.020564
#
#
# Mechanical properties :
#
#
# Convention : Reuss Voigt Hill
#
# Bulk Modulus (GPa) = 67.24486 76.12547 71.68516
# Shear Modulus (GPa) = 45.93099 49.06313 47.49706
#
# Velocity S-wave (km/s) = 4.89886 5.06314 4.98167
# Velocity P-wave (km/s) = 8.19351 8.59976 8.39909
#
# Compressibility (1/GPa) = 0.01487103
#
# Stress axis : x y z
#
# Youngs Moduli (GPa) = 128.12793 128.51647 92.03522
#
# Poissons Ratio (x) = 0.31760 0.14995
# Poissons Ratio (y) = 0.31664 0.15550
# Poissons Ratio (z) = 0.20875 0.21713
#
# Static dielectric constant tensor:
#      x y z
#    x 1.698410 0.023880 0.049680 
#    y 0.023880 1.691190 0.021060 
#    z 0.049680 0.021060 1.738030 
# 
# From -- ./inp_files/614420.got.cif
#   From: 2010.05.17/outbox.ucp.g08.bks.cvg/sg2_308_cif.got.tgz:614420.got - 2010.06.11 11:32:03.
