data_PCOD9075327
_publ_section_title
;
Structure prediction by ZEFSAII (Michael W. Deem and Ramdas Pophale) SiO2 
 PCOD9075327
Probable space group: P -1
;
_chemical_formula_sum "Si O2"
_cell_formula_units_Z 16
_cell_length_a 24.000000
_cell_length_b 9.000000
_cell_length_c 9.000000
_cell_angle_alpha 150.000000
_cell_angle_beta 50.000000
_cell_angle_gamma 130.000000
_cell_volume 725.531033
_symmetry_space_group_name_H-M "P -1"
_symmetry_group_IT_number 2
_symmetry_cell_setting 'triclinic'
loop_
_space_group_symop_operation_xyz
x,y,z
-x,-y,-z
loop_
_atom_site_type_symbol
_atom_site_label
_atom_site_fract_x
_atom_site_fract_y
_atom_site_fract_z
Si Si1 0.674293 0.077406 0.773014
Si Si2 0.443182 0.671325 0.313923
Si Si3 0.816447 0.123238 0.780870
Si Si4 0.575914 0.452592 0.407093
Si Si5 0.944883 0.281242 0.274251
Si Si6 0.093968 0.228335 0.863510
Si Si7 0.195348 0.820895 0.796028
Si Si8 0.297045 0.487286 0.189973
O O1 0.736739 0.074399 0.790933
O O2 0.698493 0.301335 0.783499
O O3 0.643137 0.729036 0.478031
O O4 0.601669 0.161240 0.045494
O O5 0.424452 0.576628 0.437197
O O6 0.374036 0.586588 0.240496
O O7 0.500000 0.000000 0.500000
O O8 0.500000 0.500000 0.000000
O O9 0.864392 0.883470 0.441621
O O10 0.861483 0.432232 0.894318
O O11 0.818489 0.150898 0.979559
O O12 0.500000 0.500000 0.500000
O O13 0.876037 0.300357 0.297419
O O14 0.000000 0.500000 0.500000
O O15 0.905553 0.991111 0.187659
O O16 0.006800 0.225108 0.002323
O O17 0.240274 0.562824 0.473541
O O18 0.256045 0.135193 0.917094
#
# Coordination Sequence:
#
# PCOD9075327 Si02
#       8
#     2   2   2   2   2   2   2   2
#     4  12  24  42  68  93 132 171 221 270 329 391
#     4  12  24  43  69  98 138 176 220 272 331 396
#     4  12  24  44  65 100 130 173 216 279 335 391
#     4  12  24  42  65  97 131 172 220 271 325 389
#     4  11  25  46  69  98 130 179 223 275 335 400
#     4  11  24  43  69  92 133 167 224 263 338 394
#     4  12  27  43  69  97 137 172 225 277 334 399
#     4  12  25  45  67 100 132 179 224 271 336 395
#
# _framework density 22.052813
#
# number of rings (size 3 to 8) (size 9 to 14) (size 15 to 20)
#    0.000    0.250    1.250    8.625    3.500    1.000 
#    0.000    0.000    0.000    0.000    0.000    0.000 
#    0.000    0.000    0.000    0.000    0.000    0.000 
#
# Total GULP energy -89092.928989 kJ/mol
# GULP energy per Si atom -5568.308062 kJ/mol
# Density = 2.200262 g / cm^3
# Si number density = 22.052813 Si / 1000 Ang^3
#
#
#
# Elastic Constant Matrix: (Units=GPa)
#
#
# Indices 1 2 3 4 5 6 
#
# 1 178.8463 24.6159 22.9028 -12.4473 4.1230 16.8367
# 2 24.6159 95.4359 -1.7303 8.7639 1.8230 -1.9147
# 3 22.9028 -1.7303 94.8958 -5.5650 -9.8233 16.7722
# 4 -12.4473 8.7639 -5.5650 44.2686 10.7008 -4.7531
# 5 4.1230 1.8230 -9.8233 10.7008 24.1224 -8.0593
# 6 16.8367 -1.9147 16.7722 -4.7531 -8.0593 21.3899
#
#
#
# Elastic Compliance Matrix: (Units=1/GPa)
#
#
# Indices 1 2 3 4 5 6 
#
# 1 0.006851 -0.002063 -0.000955 0.002683 -0.004586 -0.005960
# 2 -0.002063 0.011301 0.000284 -0.002939 0.001723 0.002408
# 3 -0.000955 0.000284 0.012455 -0.000262 0.002639 -0.008052
# 4 0.002683 -0.002939 -0.000262 0.026827 -0.012558 -0.000940
# 5 -0.004586 0.001723 0.002639 -0.012558 0.055356 0.019761
# 6 -0.005960 0.002408 -0.008052 -0.000940 0.019761 0.065209
#
#
# Mechanical properties :
#
#
# Convention : Reuss Voigt Hill
#
# Bulk Modulus (GPa) = 39.77839 51.19496 45.48668
# Shear Modulus (GPa) = 26.06252 39.51548 32.78900
#
# Velocity S-wave (km/s) = 3.44149 4.23763 3.86014
# Velocity P-wave (km/s) = 5.81969 6.87084 6.36699
#
# Compressibility (1/GPa) = 0.02513928
#
# Stress axis : x y z
#
# Youngs Moduli (GPa) = 145.96058 88.48939 80.29142
#
# Poissons Ratio (x) = 0.18254 0.07668
# Poissons Ratio (y) = 0.30109 -0.02282
# Poissons Ratio (z) = 0.13940 -0.02515
#
# Static dielectric constant tensor:
#      x y z
#    x 1.787590 -0.005720 -0.014600 
#    y -0.005720 1.788700 0.000670 
#    z -0.014600 0.000670 1.942480 
# 
# From -- ./inp_files/352503.got.cif
#   From: 2010.05.17/outbox.ucp.g08.bks.cvg/sg2_177_cif.got.tgz:352503.got - 2010.06.11 11:32:03.
