data_PCOD9075754
_publ_section_title
;
Structure prediction by ZEFSAII (Michael W. Deem and Ramdas Pophale) SiO2 
 PCOD9075754
Probable space group: P -1
;
_chemical_formula_sum "Si O2"
_cell_formula_units_Z 16
_cell_length_a 18.508333
_cell_length_b 12.999400
_cell_length_c 6.820219
_cell_angle_alpha 101.222263
_cell_angle_beta 126.367419
_cell_angle_gamma 38.871142
_cell_volume 703.989479
_symmetry_space_group_name_H-M "P -1"
_symmetry_group_IT_number 2
_symmetry_cell_setting 'triclinic'
loop_
_space_group_symop_operation_xyz
x,y,z
-x,-y,-z
loop_
_atom_site_type_symbol
_atom_site_label
_atom_site_fract_x
_atom_site_fract_y
_atom_site_fract_z
Si Si1 0.692106 0.102847 0.401726
Si Si2 0.983353 0.941180 0.723577
Si Si3 0.413956 0.245108 0.961128
Si Si4 0.878715 0.990152 0.154508
Si Si5 0.918200 0.746799 0.874823
Si Si6 0.380839 0.106668 0.539588
Si Si7 0.469415 0.641546 0.391264
Si Si8 0.777260 0.467042 0.882314
O O1 0.605367 0.210599 0.506459
O O2 0.791090 0.110473 0.518322
O O3 0.830346 0.879282 0.584181
O O4 0.546141 0.200103 0.074406
O O5 0.049478 0.992876 0.869886
O O6 0.101463 0.747450 0.954624
O O7 0.986788 0.900467 0.487631
O O8 0.354398 0.235974 0.678006
O O9 0.284291 0.425752 0.968169
O O10 0.519201 0.067967 0.214358
O O11 0.685409 0.211448 0.951427
O O12 0.898757 0.855175 0.050111
O O13 0.798603 0.768530 0.747289
O O14 0.112183 0.555147 0.061887
O O15 0.500000 0.000000 0.500000
O O16 0.500000 0.500000 0.500000
O O17 0.630486 0.551030 0.560743
#
# Coordination Sequence:
#
# PCOD9075754 Si02
#       8
#     2   2   2   2   2   2   2   2
#     4   8  18  33  55  79 110 159 194 225 301 359
#     4  10  20  35  56  83 122 164 189 241 303 345
#     4   9  20  40  61  89 121 152 201 251 299 371
#     4  10  21  35  53  85 123 156 204 238 287 363
#     4   9  20  36  58  86 114 154 204 242 293 358
#     4  10  21  40  66  89 114 161 200 245 314 371
#     4  10  18  32  55  79 112 157 200 237 280 344
#     4  10  20  38  60  86 122 155 195 248 300 348
#
# _framework density 22.727613000000002
#
# number of rings (size 3 to 8) (size 9 to 14) (size 15 to 20)
#    0.000    2.500    1.250    0.750    3.500    2.000 
#    2.250    2.500    0.000    0.000    0.000    0.000 
#    0.000    0.000    0.000    0.000    0.000    0.000 
#
# Total GULP energy -89113.287446 kJ/mol
# GULP energy per Si atom -5569.580465 kJ/mol
# Density = 2.267588 g / cm^3
# Si number density = 22.727613 Si / 1000 Ang^3
#
#
#
# Elastic Constant Matrix: (Units=GPa)
#
#
# Indices 1 2 3 4 5 6 
#
# 1 88.9015 17.0446 63.3327 -3.1709 35.2566 -10.2210
# 2 17.0446 76.5091 50.5934 10.9022 10.1505 -6.5732
# 3 63.3327 50.5934 130.7536 13.0723 44.7236 -1.3524
# 4 -3.1709 10.9022 13.0723 35.6778 -1.3915 9.5618
# 5 35.2566 10.1505 44.7236 -1.3915 47.7362 -4.2279
# 6 -10.2210 -6.5732 -1.3524 9.5618 -4.2279 18.4908
#
#
#
# Elastic Compliance Matrix: (Units=1/GPa)
#
#
# Indices 1 2 3 4 5 6 
#
# 1 0.020925 0.002760 -0.008929 0.001453 -0.006784 0.009592
# 2 0.002760 0.020160 -0.009745 -0.005300 0.003674 0.011560
# 3 -0.008929 -0.009745 0.019571 -0.003351 -0.010442 -0.007623
# 4 0.001453 -0.005300 -0.003351 0.036340 0.002522 -0.019541
# 5 -0.006784 0.003674 -0.010442 0.002522 0.035351 0.003571
# 6 0.009592 0.011560 -0.007623 -0.019541 0.003571 0.073857
#
#
# Mechanical properties :
#
#
# Convention : Reuss Voigt Hill
#
# Bulk Modulus (GPa) = 34.68679 62.01174 48.34926
# Shear Modulus (GPa) = 20.19035 31.39387 25.79211
#
# Velocity S-wave (km/s) = 2.98377 3.72063 3.37239
# Velocity P-wave (km/s) = 5.21207 6.76768 6.04016
#
# Compressibility (1/GPa) = 0.02882942
#
# Stress axis : x y z
#
# Youngs Moduli (GPa) = 47.78905 49.60209 51.09482
#
# Poissons Ratio (x) = -0.13690 0.45622
# Poissons Ratio (y) = -0.13189 0.49792
# Poissons Ratio (z) = 0.42670 0.48337
#
# Static dielectric constant tensor:
#      x y z
#    x 1.979730 -0.006190 0.029070 
#    y -0.006190 1.839480 -0.028030 
#    z 0.029070 -0.028030 1.944490 
# 
# From -- ./inp_files/347008.got.cif
#   From: 2010.05.17/outbox.cif.g08.bks.cpg/sg2_174_cif.got.tgz:347008.got - 2010.06.03 11:33:40.
