data_PCOD9075836
_publ_section_title
;
Structure prediction by ZEFSAII (Michael W. Deem and Ramdas Pophale) SiO2 
 PCOD9075836
Probable space group: P -1
;
_chemical_formula_sum "Si O2"
_cell_formula_units_Z 16
_cell_length_a 13.611159
_cell_length_b 12.695333
_cell_length_c 23.391598
_cell_angle_alpha 21.102716
_cell_angle_beta 151.961892
_cell_angle_gamma 142.422550
_cell_volume 672.565915
_symmetry_space_group_name_H-M "P -1"
_symmetry_group_IT_number 2
_symmetry_cell_setting 'triclinic'
loop_
_space_group_symop_operation_xyz
x,y,z
-x,-y,-z
loop_
_atom_site_type_symbol
_atom_site_label
_atom_site_fract_x
_atom_site_fract_y
_atom_site_fract_z
Si Si1 0.737367 0.298855 0.730316
Si Si2 0.282996 0.813668 0.893227
Si Si3 0.024793 0.570279 0.543298
Si Si4 0.746783 0.200027 0.659188
Si Si5 0.238459 0.489192 0.144643
Si Si6 0.611194 0.190293 0.838411
Si Si7 0.043937 0.196162 0.368869
Si Si8 0.627796 0.076660 0.423295
O O1 0.500000 0.500000 0.500000
O O2 0.798992 0.141342 0.782091
O O3 0.749907 0.271738 0.920682
O O4 0.895783 0.516720 0.716874
O O5 0.152503 0.732269 0.812465
O O6 0.130325 0.112140 0.686930
O O7 0.490086 0.929592 0.922105
O O8 0.277988 0.880643 0.129139
O O9 0.934127 0.313681 0.662372
O O10 0.000000 0.500000 0.500000
O O11 0.252528 0.651499 0.637038
O O12 0.564648 0.502726 0.411424
O O13 0.622150 0.939140 0.706683
O O14 0.338487 0.584872 0.089562
O O15 0.319905 0.165873 0.376285
O O16 0.000000 0.500000 0.000000
O O17 0.244588 0.051289 0.504761
O O18 0.000000 0.000000 0.500000
#
# Coordination Sequence:
#
# PCOD9075836 Si02
#       8
#     2   2   2   2   2   2   2   2
#     4  10  14  26  42  65  96 124 145 183 235 298
#     4  10  20  30  45  69  97 129 151 194 234 280
#     4  10  20  33  46  67  94 126 170 200 228 268
#     4   9  18  30  46  68  98 128 155 191 238 283
#     4  11  16  30  45  66  99 125 152 182 237 294
#     4   9  17  27  42  68  96 124 148 184 236 290
#     4  11  17  25  42  66  96 128 152 180 233 291
#     4  10  19  32  48  70  99 130 150 195 238 282
#
# _framework density 23.789489
#
# number of rings (size 3 to 8) (size 9 to 14) (size 15 to 20)
#    0.000    2.000    6.250    3.375    0.000    0.500 
#    0.000    0.000    0.000    0.000    0.000    0.875 
#    0.000    2.000    0.000    0.000    0.000    0.000 
#
# Total GULP energy -89396.551008 kJ/mol
# GULP energy per Si atom -5587.284438 kJ/mol
# Density = 2.373534 g / cm^3
# Si number density = 23.789489 Si / 1000 Ang^3
#
#
#
# Elastic Constant Matrix: (Units=GPa)
#
#
# Indices 1 2 3 4 5 6 
#
# 1 169.3993 95.7692 63.4109 6.2295 -51.3604 28.7109
# 2 95.7692 210.2334 51.2100 44.7414 -17.2599 18.4060
# 3 63.4109 51.2100 91.7512 1.7204 -19.9556 -9.4590
# 4 6.2295 44.7414 1.7204 33.9884 -13.3724 -9.9726
# 5 -51.3604 -17.2599 -19.9556 -13.3724 42.6660 -3.3469
# 6 28.7109 18.4060 -9.4590 -9.9726 -3.3469 45.4548
#
#
#
# Elastic Compliance Matrix: (Units=1/GPa)
#
#
# Indices 1 2 3 4 5 6 
#
# 1 0.019811 -0.009190 -0.004346 0.016397 0.022890 -0.004414
# 2 -0.009190 0.016387 -0.007160 -0.029501 -0.017821 -0.010105
# 3 -0.004346 -0.007160 0.020751 0.016397 0.007825 0.014136
# 4 0.016397 -0.029501 0.016397 0.090911 0.046191 0.028348
# 5 0.022890 -0.017821 0.007825 0.046191 0.062637 0.009132
# 6 -0.004414 -0.010105 0.014136 0.028348 0.009132 0.038713
#
#
# Mechanical properties :
#
#
# Convention : Reuss Voigt Hill
#
# Bulk Modulus (GPa) = 64.27924 99.12934 81.70429
# Shear Modulus (GPa) = 16.90413 41.82144 29.36278
#
# Velocity S-wave (km/s) = 2.66855 4.19738 3.51704
# Velocity P-wave (km/s) = 6.04761 8.07778 7.13526
#
# Compressibility (1/GPa) = 0.01555712
#
# Stress axis : x y z
#
# Youngs Moduli (GPa) = 50.47790 61.02486 48.19107
#
# Poissons Ratio (x) = 0.56080 0.20945
# Poissons Ratio (y) = 0.46388 0.34503
# Poissons Ratio (z) = 0.21939 0.43691
#
# Static dielectric constant tensor:
#      x y z
#    x 1.558010 -0.082650 0.405150 
#    y -0.082650 1.869550 0.067830 
#    z 0.405150 0.067830 1.562360 
# 
# From -- ./inp_files/597802.got.cif
#   From: 2010.05.17/outbox.cif.g08.bks.cpg/sg2_299_cif.got.tgz:597802.got - 2010.06.03 11:33:40.
