data_PCOD9075551
_publ_section_title
;
Structure prediction by ZEFSAII (Michael W. Deem and Ramdas Pophale) SiO2 
 PCOD9075551
Probable space group: P -1
;
_chemical_formula_sum "Si O2"
_cell_formula_units_Z 16
_cell_length_a 15.000000
_cell_length_b 15.000000
_cell_length_c 15.000000
_cell_angle_alpha 140.000000
_cell_angle_beta 140.000000
_cell_angle_gamma 20.000000
_cell_volume 725.414092
_symmetry_space_group_name_H-M "P -1"
_symmetry_group_IT_number 2
_symmetry_cell_setting 'triclinic'
loop_
_space_group_symop_operation_xyz
x,y,z
-x,-y,-z
loop_
_atom_site_type_symbol
_atom_site_label
_atom_site_fract_x
_atom_site_fract_y
_atom_site_fract_z
Si Si1 0.945335 0.383854 0.848164
Si Si2 0.479119 0.218087 0.743274
Si Si3 0.401157 0.831838 0.873845
Si Si4 0.640448 0.816617 0.199960
Si Si5 0.774344 0.593615 0.684427
Si Si6 0.005592 0.006671 0.221333
Si Si7 0.384895 0.408874 0.627270
Si Si8 0.052428 0.802061 0.925939
O O1 0.688378 0.553098 0.837535
O O2 0.849433 0.446503 0.719846
O O3 0.222290 0.078673 0.859147
O O4 0.000000 0.500000 0.000000
O O5 0.382477 0.183134 0.710745
O O6 0.417780 0.274711 0.634097
O O7 0.323331 0.489271 0.869493
O O8 0.794580 0.946367 0.798168
O O9 0.195811 0.882468 0.774138
O O10 0.487537 0.834164 0.034815
O O11 0.957824 0.541188 0.218172
O O12 0.491560 0.085853 0.264142
O O13 0.731308 0.550510 0.524275
O O14 0.826245 0.292685 0.272582
O O15 0.310827 0.794074 0.310967
O O16 0.039581 0.849874 0.057489
O O17 0.000000 0.000000 0.000000
#
# Coordination Sequence:
#
# PCOD9075551 Si02
#       8
#     2   2   2   2   2   2   2   2
#     4  12  23  44  71 100 129 164 221 279 340 385
#     4  12  24  38  66 101 134 171 220 272 326 383
#     4  12  24  41  70 108 126 157 220 295 335 368
#     4  12  24  41  68 103 130 166 221 285 330 379
#     4  12  27  45  68  93 135 180 222 265 332 407
#     4  12  25  42  68  98 139 172 220 274 324 387
#     4  12  26  46  63  94 140 191 215 249 328 411
#     4  12  21  37  64  98 128 173 223 267 317 378
#
# _framework density 22.056367999999999
#
# number of rings (size 3 to 8) (size 9 to 14) (size 15 to 20)
#    0.000    0.000    6.250    4.500    1.750    1.000 
#    0.000    3.750    0.000    0.000    0.000    0.000 
#    0.000    0.000    0.000    0.000    0.000    0.000 
#
# Total GULP energy -89347.654721 kJ/mol
# GULP energy per Si atom -5584.228420 kJ/mol
# Density = 2.200617 g / cm^3
# Si number density = 22.056368 Si / 1000 Ang^3
#
#
#
# Elastic Constant Matrix: (Units=GPa)
#
#
# Indices 1 2 3 4 5 6 
#
# 1 85.9116 3.6555 17.9078 -20.9231 -18.3779 -2.6415
# 2 3.6555 126.2575 24.1652 -24.5785 -1.9360 -2.4299
# 3 17.9078 24.1652 69.8033 -27.3426 -34.5997 8.3261
# 4 -20.9231 -24.5785 -27.3426 37.6939 5.3979 -2.6504
# 5 -18.3779 -1.9360 -34.5997 5.3979 31.8643 -8.3019
# 6 -2.6415 -2.4299 8.3261 -2.6504 -8.3019 47.3265
#
#
#
# Elastic Compliance Matrix: (Units=1/GPa)
#
#
# Indices 1 2 3 4 5 6 
#
# 1 0.017598 0.000798 0.011063 0.015629 0.020487 0.003546
# 2 0.000798 0.009403 -0.003209 0.004740 -0.003041 0.000824
# 3 0.011063 -0.003209 0.059335 0.038017 0.065102 0.003563
# 4 0.015629 0.004740 0.038017 0.060259 0.041708 0.005118
# 5 0.020487 -0.003041 0.065102 0.041708 0.109527 0.011083
# 6 0.003546 0.000824 0.003563 0.005118 0.011083 0.022974
#
#
# Mechanical properties :
#
#
# Convention : Reuss Voigt Hill
#
# Bulk Modulus (GPa) = 9.64882 41.49217 25.57049
# Shear Modulus (GPa) = 16.87255 39.12654 27.99954
#
# Velocity S-wave (km/s) = 2.76882 4.21638 3.56680
# Velocity P-wave (km/s) = 3.82177 6.52354 5.34614
#
# Compressibility (1/GPa) = 0.10363959
#
# Stress axis : x y z
#
# Youngs Moduli (GPa) = 56.82548 106.34440 16.85355
#
# Poissons Ratio (x) = -0.08486 -0.18645
# Poissons Ratio (y) = -0.04534 0.05409
# Poissons Ratio (z) = -0.62867 0.34128
#
# Static dielectric constant tensor:
#      x y z
#    x 1.974060 -0.005310 0.032610 
#    y -0.005310 1.766450 0.009500 
#    z 0.032610 0.009500 1.863530 
# 
# From -- ./inp_files/454748.got.cif
#   From: 2010.05.17/outbox.ucp.g08.bks.cvg/sg2_228_cif.got.tgz:454748.got - 2010.06.11 11:32:03.
