data_PCOD9075950
_publ_section_title
;
Structure prediction by ZEFSAII (Michael W. Deem and Ramdas Pophale) SiO2 
 PCOD9075950
Probable space group: P -1
;
_chemical_formula_sum "Si O2"
_cell_formula_units_Z 16
_cell_length_a 17.943134
_cell_length_b 8.340061
_cell_length_c 8.794214
_cell_angle_alpha 68.700488
_cell_angle_beta 51.209251
_cell_angle_gamma 42.395112
_cell_volume 679.120788
_symmetry_space_group_name_H-M "P -1"
_symmetry_group_IT_number 2
_symmetry_cell_setting 'triclinic'
loop_
_space_group_symop_operation_xyz
x,y,z
-x,-y,-z
loop_
_atom_site_type_symbol
_atom_site_label
_atom_site_fract_x
_atom_site_fract_y
_atom_site_fract_z
Si Si1 0.031695 0.781215 0.739890
Si Si2 0.223960 0.064015 0.936498
Si Si3 0.323590 0.251661 0.576957
Si Si4 0.666520 0.392543 0.853496
Si Si5 0.403029 0.770843 0.235403
Si Si6 0.229833 0.280780 0.144825
Si Si7 0.938651 0.252214 0.625417
Si Si8 0.469035 0.171107 0.718811
O O1 0.177084 0.517551 0.662289
O O2 0.991368 0.799919 0.606971
O O3 0.917587 0.836650 0.968127
O O4 0.020430 0.000852 0.694769
O O5 0.194019 0.241290 0.044228
O O6 0.306151 0.806451 0.000866
O O7 0.303266 0.076325 0.709589
O O8 0.400847 0.254513 0.611116
O O9 0.413500 0.120966 0.355972
O O10 0.653708 0.338653 0.715619
O O11 0.795112 0.348606 0.728334
O O12 0.525314 0.645237 0.003104
O O13 0.468301 0.733526 0.326738
O O14 0.288890 0.057444 0.253554
O O15 0.104155 0.534392 0.292593
O O16 0.353575 0.251880 0.954035
#
# Coordination Sequence:
#
# PCOD9075950 Si02
#       8
#     2   2   2   2   2   2   2   2
#     4  10  21  37  60  80 110 155 188 233 288 328
#     4   9  20  38  55  80 114 155 190 231 272 332
#     4  10  21  37  58  81 115 159 192 222 275 339
#     4   9  19  33  56  84 119 141 178 234 294 331
#     4  10  18  32  57  88 113 149 177 229 292 340
#     4  10  19  33  60  89 113 141 187 238 289 336
#     4  10  20  36  59  88 112 140 187 248 287 329
#     4  10  20  34  56  87 114 145 191 233 271 339
#
# _framework density 23.559871999999999
#
# number of rings (size 3 to 8) (size 9 to 14) (size 15 to 20)
#    0.000    2.250    1.250    1.500    1.750    0.500 
#    2.250    5.625    2.750    0.000    0.000    0.000 
#    0.000    0.000    0.000    0.000    0.000    0.000 
#
# Total GULP energy -89377.016396 kJ/mol
# GULP energy per Si atom -5586.063525 kJ/mol
# Density = 2.350625 g / cm^3
# Si number density = 23.559872 Si / 1000 Ang^3
#
#
#
# Elastic Constant Matrix: (Units=GPa)
#
#
# Indices 1 2 3 4 5 6 
#
# 1 64.5448 3.3479 1.6409 -2.8401 2.1286 -4.7856
# 2 3.3479 74.4204 24.6593 11.9499 -8.4372 -8.5840
# 3 1.6409 24.6593 66.7081 9.4035 -5.1843 9.0038
# 4 -2.8401 11.9499 9.4035 32.6416 4.4882 -1.7123
# 5 2.1286 -8.4372 -5.1843 4.4882 34.4319 13.1371
# 6 -4.7856 -8.5840 9.0038 -1.7123 13.1371 26.2470
#
#
#
# Elastic Compliance Matrix: (Units=1/GPa)
#
#
# Indices 1 2 3 4 5 6 
#
# 1 0.016219 -0.000433 -0.001684 0.002871 -0.003835 0.005500
# 2 -0.000433 0.017271 -0.006631 -0.004241 0.001144 0.006995
# 3 -0.001684 -0.006631 0.020681 -0.005430 0.007524 -0.013691
# 4 0.002871 -0.004241 -0.005430 0.035791 -0.009853 0.008266
# 5 -0.003835 0.001144 0.007524 -0.009853 0.041199 -0.024170
# 6 0.005500 0.006995 -0.013691 0.008266 -0.024170 0.058723
#
#
# Mechanical properties :
#
#
# Convention : Reuss Voigt Hill
#
# Bulk Modulus (GPa) = 27.26623 29.44105 28.35364
# Shear Modulus (GPa) = 22.76797 30.39913 26.58355
#
# Velocity S-wave (km/s) = 3.11205 3.59596 3.36272
# Velocity P-wave (km/s) = 4.95090 5.45570 5.20942
#
# Compressibility (1/GPa) = 0.03667540
#
# Stress axis : x y z
#
# Youngs Moduli (GPa) = 61.65632 57.89902 48.35249
#
# Poissons Ratio (x) = 0.02507 0.08142
# Poissons Ratio (y) = 0.02670 0.32064
# Poissons Ratio (z) = 0.10383 0.38395
#
# Static dielectric constant tensor:
#      x y z
#    x 1.929340 0.016440 -0.033500 
#    y 0.016440 1.918660 -0.029460 
#    z -0.033500 -0.029460 1.884710 
# 
# From -- ./inp_files/205567.got.cif
#   From: 2010.05.17/outbox.cif.g08.bks.cpg/sg2_103_cif.got.tgz:205567.got - 2010.06.03 11:33:40.
