data_PCOD9075268
_publ_section_title
;
Structure prediction by ZEFSAII (Michael W. Deem and Ramdas Pophale) SiO2 
 PCOD9075268
Probable space group: P -1
;
_chemical_formula_sum "Si O2"
_cell_formula_units_Z 16
_cell_length_a 15.000000
_cell_length_b 9.000000
_cell_length_c 9.000000
_cell_angle_alpha 130.000000
_cell_angle_beta 70.000000
_cell_angle_gamma 80.000000
_cell_volume 732.374747
_symmetry_space_group_name_H-M "P -1"
_symmetry_group_IT_number 2
_symmetry_cell_setting 'triclinic'
loop_
_space_group_symop_operation_xyz
x,y,z
-x,-y,-z
loop_
_atom_site_type_symbol
_atom_site_label
_atom_site_fract_x
_atom_site_fract_y
_atom_site_fract_z
Si Si1 0.208162 0.567546 0.696850
Si Si2 0.207802 0.528904 0.025248
Si Si3 0.017302 0.266653 0.531489
Si Si4 0.970153 0.780247 0.846563
Si Si5 0.740645 0.981748 0.281333
Si Si6 0.633460 0.319039 0.824885
Si Si7 0.732369 0.934898 0.731300
Si Si8 0.624184 0.271564 0.292739
O O1 0.249284 0.315898 0.442090
O O2 0.298621 0.629712 0.650185
O O3 0.082299 0.750304 0.829115
O O4 0.198277 0.570763 0.882226
O O5 0.302766 0.569749 0.062387
O O6 0.086880 0.694451 0.285777
O O7 0.238349 0.265949 0.850383
O O8 0.029708 0.172360 0.297449
O O9 0.145489 0.113647 0.420967
O O10 0.993104 0.522298 0.685916
O O11 0.853420 0.926542 0.095928
O O12 0.706624 0.175905 0.548714
O O13 0.632991 0.109186 0.315782
O O14 0.642293 0.110503 0.779134
O O15 0.500000 0.500000 0.000000
O O16 0.685981 0.087650 0.005038
O O17 0.500000 0.500000 0.500000
#
# Coordination Sequence:
#
# PCOD9075268 Si02
#       8
#     2   2   2   2   2   2   2   2
#     4  11  25  43  71 100 134 174 218 272 335 397
#     4  11  25  44  69 101 134 173 219 272 336 395
#     4   9  20  39  68  99 134 169 213 272 333 401
#     4   9  20  40  66 101 134 166 217 269 335 401
#     4  11  25  44  70  99 133 177 215 279 335 382
#     4  12  27  44  66  98 133 177 231 271 321 397
#     4  11  23  46  69  96 139 172 215 278 335 382
#     4  12  27  46  67  97 134 176 230 273 320 396
#
# _framework density 21.846738999999999
#
# number of rings (size 3 to 8) (size 9 to 14) (size 15 to 20)
#    0.000    1.250    3.750    0.750    5.250    5.500 
#    0.000    0.000    0.000    0.000    0.000    0.000 
#    0.000    0.000    0.000    0.000    0.000    0.000 
#
# Total GULP energy -89300.234063 kJ/mol
# GULP energy per Si atom -5581.264629 kJ/mol
# Density = 2.179701 g / cm^3
# Si number density = 21.846739 Si / 1000 Ang^3
#
#
#
# Elastic Constant Matrix: (Units=GPa)
#
#
# Indices 1 2 3 4 5 6 
#
# 1 110.9993 25.6422 72.0696 15.9254 -15.5180 -0.2200
# 2 25.6422 67.3571 22.6369 21.6387 -8.6787 -12.4626
# 3 72.0696 22.6369 141.9155 28.3187 11.1153 -11.8966
# 4 15.9254 21.6387 28.3187 26.7621 -12.0382 -3.4596
# 5 -15.5180 -8.6787 11.1153 -12.0382 18.7563 11.0797
# 6 -0.2200 -12.4626 -11.8966 -3.4596 11.0797 34.8167
#
#
#
# Elastic Compliance Matrix: (Units=1/GPa)
#
#
# Indices 1 2 3 4 5 6 
#
# 1 -0.015253 0.012792 0.028790 -0.066452 -0.087401 0.035530
# 2 0.012792 0.012594 -0.018236 0.022311 0.050735 -0.015571
# 3 0.028790 -0.018236 -0.031176 0.072798 0.106338 -0.043604
# 4 -0.066452 0.022311 0.072798 -0.097741 -0.201912 0.086983
# 5 -0.087401 0.050735 0.106338 -0.201912 -0.256327 0.115451
# 6 0.035530 -0.015571 -0.043604 0.086983 0.115451 -0.019623
#
#
# Mechanical properties :
#
#
# Convention : Reuss Voigt Hill
#
# Bulk Modulus (GPa) = 77.78096 62.32991 70.05543
# Shear Modulus (GPa) = -11.11278 29.39523 9.14123
#
# Velocity S-wave (km/s) = -2.25782 3.67211 2.04776
# Velocity P-wave (km/s) = 5.37432 6.82435 6.14227
#
# Compressibility (1/GPa) = 0.01285662
#
# Stress axis : x y z
#
# Youngs Moduli (GPa) = -65.56122 79.40439 -32.07619
#
# Poissons Ratio (x) = -1.01574 0.92347
# Poissons Ratio (y) = 0.83866 -0.58494
# Poissons Ratio (z) = 1.88749 1.44802
#
# Static dielectric constant tensor:
#      x y z
#    x 1.814650 -0.058390 0.074940 
#    y -0.058390 1.912210 -0.061520 
#    z 0.074940 -0.061520 1.916730 
# 
# From -- ./inp_files/299614.got.cif
#   From: 2010.05.17/outbox.ucp.g08.bks.cvg/sg2_150_cif.got.tgz:299614.got - 2010.06.11 11:32:03.
