data_PCOD9075581
_publ_section_title
;
Structure prediction by ZEFSAII (Michael W. Deem and Ramdas Pophale) SiO2 
 PCOD9075581
Probable space group: P -1
;
_chemical_formula_sum "Si O2"
_cell_formula_units_Z 16
_cell_length_a 9.000000
_cell_length_b 18.000000
_cell_length_c 6.000000
_cell_angle_alpha 120.000000
_cell_angle_beta 70.000000
_cell_angle_gamma 120.000000
_cell_volume 723.492119
_symmetry_space_group_name_H-M "P -1"
_symmetry_group_IT_number 2
_symmetry_cell_setting 'triclinic'
loop_
_space_group_symop_operation_xyz
x,y,z
-x,-y,-z
loop_
_atom_site_type_symbol
_atom_site_label
_atom_site_fract_x
_atom_site_fract_y
_atom_site_fract_z
Si Si1 0.703616 0.703020 0.113389
Si Si2 0.508663 0.837105 0.766233
Si Si3 0.832042 0.909729 0.373103
Si Si4 0.899694 0.483282 0.270213
Si Si5 0.351980 0.007737 0.740479
Si Si6 0.397357 0.709361 0.015832
Si Si7 0.798749 0.203341 0.456703
Si Si8 0.802290 0.653975 0.497969
O O1 0.848158 0.810883 0.190909
O O2 0.728963 0.664556 0.295312
O O3 0.506769 0.695021 0.149023
O O4 0.727121 0.664408 0.797714
O O5 0.669982 0.873678 0.571962
O O6 0.522644 0.765405 0.835146
O O7 0.319550 0.792418 0.685101
O O8 0.541551 0.932089 0.020150
O O9 0.755137 0.939665 0.241049
O O10 0.000000 0.000000 0.500000
O O11 0.750668 0.379857 0.158236
O O12 0.806207 0.553138 0.384697
O O13 0.000000 0.500000 0.500000
O O14 0.000000 0.500000 0.000000
O O15 0.219774 0.902622 0.697706
O O16 0.500000 0.000000 0.500000
O O17 0.303541 0.774150 0.253228
O O18 0.996703 0.273010 0.483948
#
# Coordination Sequence:
#
# PCOD9075581 Si02
#       8
#     2   2   2   2   2   2   2   2
#     4  12  27  51  71 113 155 199 251 305 388 450
#     4  12  23  43  71 103 145 199 259 302 379 442
#     4  12  27  44  67 101 153 205 247 313 376 448
#     4  12  27  51  81 120 149 191 256 316 387 450
#     4  12  23  41  65 105 141 188 262 308 362 445
#     4  12  26  47  81 101 156 199 248 317 382 455
#     4  12  25  44  73 108 142 203 249 320 371 443
#     4  12  29  48  77 112 154 191 254 319 374 453
#
# _framework density 22.114961000000001
#
# number of rings (size 3 to 8) (size 9 to 14) (size 15 to 20)
#    0.000    0.000    6.250    3.375    3.500    1.500 
#    0.000    0.000    0.000    0.000    0.000    0.000 
#    0.000    0.000    0.000    0.000    0.000    0.000 
#
# Total GULP energy -89073.951083 kJ/mol
# GULP energy per Si atom -5567.121943 kJ/mol
# Density = 2.206463 g / cm^3
# Si number density = 22.114961 Si / 1000 Ang^3
#
#
#
# Elastic Constant Matrix: (Units=GPa)
#
#
# Indices 1 2 3 4 5 6 
#
# 1 99.6834 30.9669 31.3051 -6.7783 43.7092 -10.8441
# 2 30.9669 111.2409 34.9235 12.7269 21.9838 -14.7354
# 3 31.3051 34.9235 132.2500 3.8020 16.6976 -13.6991
# 4 -6.7783 12.7269 3.8020 40.5049 1.9776 8.0307
# 5 43.7092 21.9838 16.6976 1.9776 51.5902 -1.9218
# 6 -10.8441 -14.7354 -13.6991 8.0307 -1.9218 51.7615
#
#
#
# Elastic Compliance Matrix: (Units=1/GPa)
#
#
# Indices 1 2 3 4 5 6 
#
# 1 0.017631 -0.001883 -0.001918 0.004087 -0.013615 0.001510
# 2 -0.001883 0.011439 -0.001846 -0.004200 -0.002412 0.002936
# 3 -0.001918 -0.001846 0.008723 -0.000841 -0.000323 0.001500
# 4 0.004087 -0.004200 -0.000841 0.027890 -0.002656 -0.004988
# 5 -0.013615 -0.002412 -0.000323 -0.002656 0.032078 -0.002022
# 6 0.001510 0.002936 0.001500 -0.004988 -0.002022 0.021567
#
#
# Mechanical properties :
#
#
# Convention : Reuss Voigt Hill
#
# Bulk Modulus (GPa) = 37.73596 59.72947 48.73271
# Shear Modulus (GPa) = 35.85376 45.16992 40.51184
#
# Velocity S-wave (km/s) = 4.03084 4.52431 4.28468
# Velocity P-wave (km/s) = 6.22608 7.37291 6.82363
#
# Compressibility (1/GPa) = 0.02649992
#
# Stress axis : x y z
#
# Youngs Moduli (GPa) = 56.71727 87.41955 114.63503
#
# Poissons Ratio (x) = 0.16459 0.21991
# Poissons Ratio (y) = 0.10679 0.21159
# Poissons Ratio (z) = 0.10881 0.16135
#
# Static dielectric constant tensor:
#      x y z
#    x 1.797000 -0.093790 -0.064860 
#    y -0.093790 1.827330 0.056590 
#    z -0.064860 0.056590 1.977590 
# 
# From -- ./inp_files/48900.got.cif
#   From: 2010.05.17/outbox.ucp.g08.bks.cvg/sg2_25_cif.got.tgz:48900.got - 2010.06.11 11:32:03.
