data_PCOD9075585
_publ_section_title
;
Structure prediction by ZEFSAII (Michael W. Deem and Ramdas Pophale) SiO2 
 PCOD9075585
Probable space group: P -1
;
_chemical_formula_sum "Si O2"
_cell_formula_units_Z 16
_cell_length_a 9.000000
_cell_length_b 27.000000
_cell_length_c 27.000000
_cell_angle_alpha 10.000000
_cell_angle_beta 140.000000
_cell_angle_gamma 140.000000
_cell_volume 728.340053
_symmetry_space_group_name_H-M "P -1"
_symmetry_group_IT_number 2
_symmetry_cell_setting 'triclinic'
loop_
_space_group_symop_operation_xyz
x,y,z
-x,-y,-z
loop_
_atom_site_type_symbol
_atom_site_label
_atom_site_fract_x
_atom_site_fract_y
_atom_site_fract_z
Si Si1 0.354105 0.268689 0.403757
Si Si2 0.024412 0.728402 0.876056
Si Si3 0.982858 0.034233 0.170161
Si Si4 0.470148 0.997977 0.053641
Si Si5 0.138831 0.515425 0.664476
Si Si6 0.841143 0.522656 0.484415
Si Si7 0.414712 0.391491 0.181646
Si Si8 0.276677 0.076562 0.301417
O O1 0.600508 0.350190 0.412517
O O2 0.412727 0.333484 0.296966
O O3 0.244014 0.948003 0.700542
O O4 0.147603 0.444696 0.197247
O O5 0.846255 0.682627 0.830344
O O6 0.862160 0.825037 0.783688
O O7 0.091892 0.043517 0.242585
O O8 0.720647 0.112608 0.025769
O O9 0.998173 0.724850 0.455177
O O10 0.139551 0.238071 0.971948
O O11 0.393809 0.689921 0.360955
O O12 0.500000 0.000000 0.000000
O O13 0.253104 0.170459 0.839964
O O14 0.994201 0.460359 0.632223
O O15 0.000000 0.500000 0.500000
O O16 0.599409 0.211241 0.378169
O O17 0.509768 0.708061 0.877063
#
# Coordination Sequence:
#
# PCOD9075585 Si02
#       8
#     2   2   2   2   2   2   2   2
#     4  12  24  42  66  93 131 171 214 256 330 386
#     4  12  26  41  64  99 132 161 215 278 318 372
#     4  12  23  41  69  95 124 170 222 262 304 382
#     4  12  23  42  71  96 128 171 218 258 308 382
#     4  12  23  43  67  92 131 170 210 265 316 382
#     4  12  26  43  67 102 134 166 208 266 329 374
#     4  12  23  44  68  92 127 175 216 259 320 391
#     4  12  24  43  66  96 127 170 216 265 324 374
#
# _framework density 21.967760999999999
#
# number of rings (size 3 to 8) (size 9 to 14) (size 15 to 20)
#    0.000    0.000    5.000    6.000    0.000    2.000 
#    0.000    0.000    0.000    0.000    0.000    0.000 
#    0.000    0.000    0.000    0.000    0.000    0.000 
#
# Total GULP energy -89484.037810 kJ/mol
# GULP energy per Si atom -5592.752363 kJ/mol
# Density = 2.191776 g / cm^3
# Si number density = 21.967761 Si / 1000 Ang^3
#
#
#
# Elastic Constant Matrix: (Units=GPa)
#
#
# Indices 1 2 3 4 5 6 
#
# 1 100.8847 -0.6774 -1.1208 -11.4239 9.2414 0.7719
# 2 -0.6774 106.9598 6.4976 2.7756 -6.5802 31.1550
# 3 -1.1208 6.4976 50.6614 -3.2890 3.8364 -7.4171
# 4 -11.4239 2.7756 -3.2890 24.5194 16.8701 3.1312
# 5 9.2414 -6.5802 3.8364 16.8701 44.3973 -2.2161
# 6 0.7719 31.1550 -7.4171 3.1312 -2.2161 34.4918
#
#
#
# Elastic Compliance Matrix: (Units=1/GPa)
#
#
# Indices 1 2 3 4 5 6 
#
# 1 0.011706 -0.000395 0.001336 0.010334 -0.006586 -0.000979
# 2 -0.000395 0.013502 -0.003963 -0.002527 0.002755 -0.012633
# 3 0.001336 -0.003963 0.022148 0.006435 -0.004854 0.007416
# 4 0.010334 -0.002527 0.006435 0.067157 -0.028825 -0.004514
# 5 -0.006586 0.002755 -0.004854 -0.028825 0.035752 0.001529
# 6 -0.000979 -0.012633 0.007416 -0.004514 0.001529 0.042528
#
#
# Mechanical properties :
#
#
# Convention : Reuss Voigt Hill
#
# Bulk Modulus (GPa) = 24.20622 29.76720 26.98671
# Shear Modulus (GPa) = 23.51756 37.60213 30.55985
#
# Velocity S-wave (km/s) = 3.27547 4.14175 3.73382
# Velocity P-wave (km/s) = 5.03467 6.03755 5.55877
#
# Compressibility (1/GPa) = 0.04131170
#
# Stress axis : x y z
#
# Youngs Moduli (GPa) = 85.42966 74.06132 45.15132
#
# Poissons Ratio (x) = 0.02927 -0.06032
# Poissons Ratio (y) = 0.03376 0.17892
# Poissons Ratio (z) = -0.11413 0.29348
#
# Static dielectric constant tensor:
#      x y z
#    x 1.781070 -0.202150 -0.232890 
#    y -0.202150 2.316090 0.739230 
#    z -0.232890 0.739230 2.905880 
# 
# From -- ./inp_files/52166.got.cif
#   From: 2010.05.17/outbox.ucp.g08.bks.cvg/sg2_27_cif.got.tgz:52166.got - 2010.06.11 11:32:03.
