data_PCOD9075469
_publ_section_title
;
Structure prediction by ZEFSAII (Michael W. Deem and Ramdas Pophale) SiO2 
 PCOD9075469
Probable space group: P -1
;
_chemical_formula_sum "Si O2"
_cell_formula_units_Z 16
_cell_length_a 6.000000
_cell_length_b 24.000000
_cell_length_c 12.000000
_cell_angle_alpha 30.000000
_cell_angle_beta 60.000000
_cell_angle_gamma 60.000000
_cell_volume 739.238121
_symmetry_space_group_name_H-M "P -1"
_symmetry_group_IT_number 2
_symmetry_cell_setting 'triclinic'
loop_
_space_group_symop_operation_xyz
x,y,z
-x,-y,-z
loop_
_atom_site_type_symbol
_atom_site_label
_atom_site_fract_x
_atom_site_fract_y
_atom_site_fract_z
Si Si1 0.982371 0.344327 0.233361
Si Si2 0.592128 0.256334 0.169517
Si Si3 0.704714 0.072099 0.267422
Si Si4 0.478266 0.774437 0.403682
Si Si5 0.016790 0.409732 0.752412
Si Si6 0.887916 0.548317 0.758096
Si Si7 0.397454 0.182602 0.958404
Si Si8 0.737186 0.062205 0.652022
O O1 0.280554 0.302283 0.188069
O O2 0.971991 0.402123 0.257834
O O3 0.816103 0.245289 0.463920
O O4 0.822360 0.434966 0.031677
O O5 0.688600 0.173890 0.184725
O O6 0.688168 0.170736 0.394654
O O7 0.748608 0.361626 0.932231
O O8 0.500000 0.000000 0.500000
O O9 0.635497 0.145312 0.046470
O O10 0.953416 0.978135 0.337882
O O11 0.673465 0.657715 0.589794
O O12 0.533999 0.789426 0.233529
O O13 0.466016 0.890120 0.280011
O O14 0.054190 0.489726 0.712632
O O15 0.000000 0.500000 0.500000
O O16 0.215892 0.293671 0.868036
O O17 0.306706 0.057991 0.185025
#
# Coordination Sequence:
#
# PCOD9075469 Si02
#       8
#     2   2   2   2   2   2   2   2
#     4  11  26  44  75 109 136 193 243 293 355 422
#     4  12  24  47  75 104 145 187 241 299 354 425
#     4  12  24  44  75 105 143 187 244 293 351 431
#     4  12  26  46  73 104 148 185 238 301 360 423
#     4  12  26  46  75 103 146 192 232 294 362 422
#     4  11  25  46  73 103 144 189 241 289 354 424
#     4  12  27  48  71 107 145 193 234 298 364 420
#     4  12  25  47  73 105 143 189 241 295 362 421
#
# _framework density 21.643905
#
# number of rings (size 3 to 8) (size 9 to 14) (size 15 to 20)
#    0.000    0.250    5.000    4.125    3.500    2.500 
#    0.000    1.875    0.000    0.000    0.000    0.000 
#    0.000    0.000    0.000    0.000    0.000    0.000 
#
# Total GULP energy -89092.095183 kJ/mol
# GULP energy per Si atom -5568.255949 kJ/mol
# Density = 2.159464 g / cm^3
# Si number density = 21.643905 Si / 1000 Ang^3
#
#
#
# Elastic Constant Matrix: (Units=GPa)
#
#
# Indices 1 2 3 4 5 6 
#
# 1 46.6594 40.2434 38.8857 4.8276 27.6751 -9.9529
# 2 40.2434 196.5289 24.0559 -17.5405 26.6562 1.4816
# 3 38.8857 24.0559 126.2697 -5.8340 31.0816 -2.7235
# 4 4.8276 -17.5405 -5.8340 47.7219 7.9803 13.5376
# 5 27.6751 26.6562 31.0816 7.9803 39.3775 -5.4173
# 6 -9.9529 1.4816 -2.7235 13.5376 -5.4173 48.8793
#
#
#
# Elastic Compliance Matrix: (Units=1/GPa)
#
#
# Indices 1 2 3 4 5 6 
#
# 1 0.050444 -0.007298 -0.009395 -0.008454 -0.019994 0.010095
# 2 -0.007298 0.007180 0.001645 0.004913 -0.002472 -0.003247
# 3 -0.009395 0.001645 0.011981 0.004839 -0.005392 -0.003233
# 4 -0.008454 0.004913 0.004839 0.028582 -0.008433 -0.010451
# 5 -0.019994 -0.002472 -0.005392 -0.008433 0.047541 0.003308
# 6 0.010095 -0.003247 -0.003233 -0.010451 0.003308 0.025694
#
#
# Mechanical properties :
#
#
# Convention : Reuss Voigt Hill
#
# Bulk Modulus (GPa) = 25.31195 63.98090 44.64642
# Shear Modulus (GPa) = 23.28978 44.94729 34.11853
#
# Velocity S-wave (km/s) = 3.28387 4.56200 3.97464
# Velocity P-wave (km/s) = 5.10867 7.57456 6.46036
#
# Compressibility (1/GPa) = 0.03950703
#
# Stress axis : x y z
#
# Youngs Moduli (GPa) = 19.82414 139.28454 83.46751
#
# Poissons Ratio (x) = 1.01651 0.78421
# Poissons Ratio (y) = 0.14468 -0.13731
# Poissons Ratio (z) = 0.18625 -0.22913
#
# Static dielectric constant tensor:
#      x y z
#    x 1.941070 0.070870 -0.046980 
#    y 0.070870 1.812210 -0.008460 
#    z -0.046980 -0.008460 1.814710 
# 
# From -- ./inp_files/370947.got.cif
#   From: 2010.05.17/outbox.ucp.g08.bks.cvg/sg2_186_cif.got.tgz:370947.got - 2010.06.11 11:32:03.
