data_PCOD9075615
_publ_section_title
;
Structure prediction by ZEFSAII (Michael W. Deem and Ramdas Pophale) SiO2 
 PCOD9075615
Probable space group: P -1
;
_chemical_formula_sum "Si O2"
_cell_formula_units_Z 13
_cell_length_a 21.000000
_cell_length_b 18.000000
_cell_length_c 24.000000
_cell_angle_alpha 160.000000
_cell_angle_beta 10.000000
_cell_angle_gamma 160.000000
_cell_volume 522.999520
_symmetry_space_group_name_H-M "P -1"
_symmetry_group_IT_number 2
_symmetry_cell_setting 'triclinic'
loop_
_space_group_symop_operation_xyz
x,y,z
-x,-y,-z
loop_
_atom_site_type_symbol
_atom_site_label
_atom_site_fract_x
_atom_site_fract_y
_atom_site_fract_z
Si Si1 0.000000 0.500000 0.000000
Si Si2 0.145441 0.319715 0.017597
Si Si3 0.865329 0.169723 0.779006
Si Si4 0.574462 0.507480 0.876913
Si Si5 0.018838 0.089437 0.755198
Si Si6 0.599416 0.601104 0.730049
Si Si7 0.766877 0.006572 0.035371
O O1 0.846164 0.290729 0.027467
O O2 0.042998 0.311512 0.780198
O O3 0.839669 0.469998 0.393215
O O4 0.990266 0.087900 0.956600
O O5 0.307415 0.313350 0.934961
O O6 0.477569 0.458963 0.790361
O O7 0.761563 0.362186 0.965722
O O8 0.000000 0.000000 0.500000
O O9 0.500000 0.000000 0.000000
O O10 0.000000 0.500000 0.500000
O O11 0.500000 0.500000 0.000000
O O12 0.553051 0.747599 0.040440
O O13 0.450643 0.146320 0.403509
O O14 0.811691 0.852358 0.740614
O O15 0.015099 0.053723 0.799707
#
# Coordination Sequence:
#
# PCOD9075615 Si02
#       7
#     1   2   2   2   2   2   2
#     4  12  28  46  72 108 148 192 252 312 360 420
#     4  12  25  46  76 100 143 188 235 292 355 438
#     4  12  27  44  67 102 142 189 245 309 364 419
#     4  12  26  45  74 109 144 177 231 297 362 433
#     4  12  25  46  74 102 146 194 243 299 362 423
#     4  12  23  48  70 102 141 196 243 295 359 430
#     4  12  26  48  74 106 140 194 239 285 366 438
#
# _framework density 24.856618999999998
#
# number of rings (size 3 to 8) (size 9 to 14) (size 15 to 20)
#    0.000    0.000    4.615    5.538    2.154    3.692 
#    0.000    0.000    0.000    0.000    0.000    0.000 
#    0.000    0.000    0.000    0.000    0.000    0.000 
#
# Total GULP energy -72431.383307 kJ/mol
# GULP energy per Si atom -5571.644870 kJ/mol
# Density = 2.480004 g / cm^3
# Si number density = 24.856619 Si / 1000 Ang^3
#
#
#
# Elastic Constant Matrix: (Units=GPa)
#
#
# Indices 1 2 3 4 5 6 
#
# 1 149.6295 3.4159 36.8491 5.9765 11.5720 34.4151
# 2 3.4159 59.9470 7.4035 1.5709 18.8434 22.7570
# 3 36.8491 7.4035 93.3245 6.1139 29.5103 11.4378
# 4 5.9765 1.5709 6.1139 13.5790 7.6362 9.8251
# 5 11.5720 18.8434 29.5103 7.6362 35.5773 1.9311
# 6 34.4151 22.7570 11.4378 9.8251 1.9311 54.8290
#
#
#
# Elastic Compliance Matrix: (Units=1/GPa)
#
#
# Indices 1 2 3 4 5 6 
#
# 1 0.008857 0.003395 -0.002078 0.003647 -0.003354 -0.007070
# 2 0.003395 0.029911 0.004899 0.019668 -0.024242 -0.018238
# 3 -0.002078 0.004899 0.016609 0.005557 -0.016638 -0.004603
# 4 0.003647 0.019668 0.005557 0.110567 -0.038312 -0.030075
# 5 -0.003354 -0.024242 -0.016638 -0.038312 0.062961 0.020285
# 6 -0.007070 -0.018238 -0.004603 -0.030075 0.020285 0.035881
#
#
# Mechanical properties :
#
#
# Convention : Reuss Voigt Hill
#
# Bulk Modulus (GPa) = 14.74765 44.24865 29.49815
# Shear Modulus (GPa) = 18.18457 37.81255 27.99856
#
# Velocity S-wave (km/s) = 2.70771 3.90452 3.35983
# Velocity P-wave (km/s) = 3.96504 6.17797 5.19080
#
# Compressibility (1/GPa) = 0.06780741
#
# Stress axis : x y z
#
# Youngs Moduli (GPa) = 112.89895 33.43245 60.20998
#
# Poissons Ratio (x) = -0.11349 0.12515
# Poissons Ratio (y) = -0.38326 -0.29496
# Poissons Ratio (z) = 0.23466 -0.16378
#
# Static dielectric constant tensor:
#      x y z
#    x 2.002410 0.027110 -0.069050 
#    y 0.027110 1.913880 0.001820 
#    z -0.069050 0.001820 2.041200 
# 
# From -- ./inp_files/133101.got.cif
#   From: 2010.05.17/outbox.ucp.g08.bks.cvg/sg2_67_cif.got.tgz:133101.got - 2010.06.11 11:32:03.
