data_PCOD9075817
_publ_section_title
;
Structure prediction by ZEFSAII (Michael W. Deem and Ramdas Pophale) SiO2 
 PCOD9075817
Probable space group: P -1
;
_chemical_formula_sum "Si O2"
_cell_formula_units_Z 16
_cell_length_a 17.753594
_cell_length_b 11.457730
_cell_length_c 5.260476
_cell_angle_alpha 80.653847
_cell_angle_beta 126.335802
_cell_angle_gamma 72.210950
_cell_volume 733.924459
_symmetry_space_group_name_H-M "P -1"
_symmetry_group_IT_number 2
_symmetry_cell_setting 'triclinic'
loop_
_space_group_symop_operation_xyz
x,y,z
-x,-y,-z
loop_
_atom_site_type_symbol
_atom_site_label
_atom_site_fract_x
_atom_site_fract_y
_atom_site_fract_z
Si Si1 0.890798 0.215947 0.095729
Si Si2 0.337920 0.390004 0.705747
Si Si3 0.267152 0.538960 0.016526
Si Si4 0.836734 0.613565 0.953788
Si Si5 0.030580 0.290438 0.071715
Si Si6 0.104128 0.043724 0.931243
Si Si7 0.777325 0.842207 0.132267
Si Si8 0.439099 0.082526 0.098086
O O1 0.791293 0.307154 0.051071
O O2 0.877462 0.106599 0.941341
O O3 0.916840 0.313466 0.936767
O O4 0.003293 0.872163 0.487157
O O5 0.350740 0.444833 0.438758
O O6 0.228321 0.384594 0.428684
O O7 0.318743 0.492678 0.860777
O O8 0.423918 0.234243 0.002530
O O9 0.170889 0.500450 0.855079
O O10 0.946279 0.611215 0.095248
O O11 0.764000 0.755739 0.910328
O O12 0.107562 0.264366 0.474965
O O13 0.081630 0.141805 0.090752
O O14 0.204150 0.040171 0.987279
O O15 0.680411 0.896885 0.115563
O O16 0.500000 0.000000 0.500000
O O17 0.500000 0.000000 0.000000
#
# Coordination Sequence:
#
# PCOD9075817 Si02
#       8
#     2   2   2   2   2   2   2   2
#     4  10  21  35  50  86 101 156 211 229 268 307
#     4  10  20  38  52  83 116 148 176 227 288 336
#     4  10  20  34  58  73 121 149 193 220 273 342
#     4   9  17  32  54  71 111 155 174 218 283 337
#     4  10  18  32  56  72 118 149 184 239 276 321
#     4   9  21  35  55  73 119 146 194 251 266 315
#     4  10  18  36  51  82 115 151 170 229 301 323
#     4  12  22  34  62  90 115 138 181 228 284 358
#
# _framework density 21.800609000000001
#
# number of rings (size 3 to 8) (size 9 to 14) (size 15 to 20)
#    0.750    1.250    2.500    1.875    3.500    0.500 
#    0.000    6.250    0.000    0.000    0.000    5.250 
#    0.000    0.000    0.000    0.000    0.000    0.000 
#
# Total GULP energy -89206.780503 kJ/mol
# GULP energy per Si atom -5575.423781 kJ/mol
# Density = 2.175099 g / cm^3
# Si number density = 21.800609 Si / 1000 Ang^3
#
#
#
# Elastic Constant Matrix: (Units=GPa)
#
#
# Indices 1 2 3 4 5 6 
#
# 1 52.0584 11.4194 3.8539 1.6574 -13.2895 -21.8928
# 2 11.4194 89.2092 24.8225 3.0868 -3.0813 -21.8739
# 3 3.8539 24.8225 54.6840 2.9936 -22.3891 -9.1909
# 4 1.6574 3.0868 2.9936 25.1729 -8.6910 -8.3434
# 5 -13.2895 -3.0813 -22.3891 -8.6910 19.0724 7.3279
# 6 -21.8928 -21.8739 -9.1909 -8.3434 7.3279 34.0715
#
#
#
# Elastic Compliance Matrix: (Units=1/GPa)
#
#
# Indices 1 2 3 4 5 6 
#
# 1 0.046154 -0.007081 0.031695 0.026797 0.070833 0.024988
# 2 -0.007081 0.018034 -0.018165 -0.007517 -0.029301 0.006589
# 3 0.031695 -0.018165 0.071000 0.034956 0.113841 0.011932
# 4 0.026797 -0.007517 0.034956 0.070202 0.082293 0.021314
# 5 0.070833 -0.029301 0.113841 0.082293 0.259864 0.021674
# 6 0.024988 0.006589 0.011932 0.021314 0.021674 0.053413
#
#
# Mechanical properties :
#
#
# Convention : Reuss Voigt Hill
#
# Bulk Modulus (GPa) = 6.75279 30.68258 18.71768
# Shear Modulus (GPa) = 9.00690 26.05376 17.53033
#
# Velocity S-wave (km/s) = 2.03481 3.46076 2.83878
# Velocity P-wave (km/s) = 2.93681 5.48397 4.39879
#
# Compressibility (1/GPa) = 0.14808701
#
# Stress axis : x y z
#
# Youngs Moduli (GPa) = 21.66676 55.45087 14.08447
#
# Poissons Ratio (x) = 0.39263 -0.44641
# Poissons Ratio (y) = 0.15342 0.25584
# Poissons Ratio (z) = -0.68673 1.00725
#
# Static dielectric constant tensor:
#      x y z
#    x 1.850400 0.002480 -0.032630 
#    y 0.002480 1.820140 -0.014930 
#    z -0.032630 -0.014930 1.863050 
# 
# From -- ./inp_files/117921.got.cif
#   From: 2010.05.17/outbox.cif.g08.bks.cpg/sg2_59_cif.got.tgz:117921.got - 2010.06.03 11:33:40.
