data_PCOD9075832
_publ_section_title
;
Structure prediction by ZEFSAII (Michael W. Deem and Ramdas Pophale) SiO2 
 PCOD9075832
Probable space group: P -1
;
_chemical_formula_sum "Si O2"
_cell_formula_units_Z 16
_cell_length_a 19.603905
_cell_length_b 27.708687
_cell_length_c 12.552323
_cell_angle_alpha 28.904935
_cell_angle_beta 149.975094
_cell_angle_gamma 167.970448
_cell_volume 683.751064
_symmetry_space_group_name_H-M "P -1"
_symmetry_group_IT_number 2
_symmetry_cell_setting 'triclinic'
loop_
_space_group_symop_operation_xyz
x,y,z
-x,-y,-z
loop_
_atom_site_type_symbol
_atom_site_label
_atom_site_fract_x
_atom_site_fract_y
_atom_site_fract_z
Si Si1 0.539510 0.227472 0.714835
Si Si2 0.727264 0.915914 0.173120
Si Si3 0.905189 0.635325 0.109000
Si Si4 0.722479 0.720044 0.948953
Si Si5 0.151881 0.854131 0.381422
Si Si6 0.009543 0.383815 0.168650
Si Si7 0.161733 0.700714 0.509422
Si Si8 0.147265 0.821193 0.855263
O O1 0.388985 0.208568 0.629291
O O2 0.834093 0.443411 0.616068
O O3 0.247743 0.997286 0.689364
O O4 0.726888 0.272808 0.960599
O O5 0.369833 0.675350 0.095244
O O6 0.914499 0.140857 0.039286
O O7 0.988416 0.048833 0.184244
O O8 0.122417 0.696421 0.341232
O O9 0.543317 0.386601 0.149450
O O10 0.917144 0.631851 0.006063
O O11 0.882668 0.757994 0.183552
O O12 0.500000 0.500000 0.000000
O O13 0.192798 0.824855 0.379596
O O14 0.076534 0.724502 0.624541
O O15 0.506371 0.136925 0.337269
O O16 0.996263 0.292006 0.235520
O O17 0.500000 0.000000 0.000000
#
# Coordination Sequence:
#
# PCOD9075832 Si02
#       8
#     2   2   2   2   2   2   2   2
#     4  10  20  33  56  86 116 149 188 234 284 333
#     4  10  18  32  56  80 108 146 185 228 277 332
#     4  10  21  40  60  81 118 151 188 231 283 338
#     4  10  20  37  55  83 118 151 183 232 289 335
#     4  11  21  32  56  90 118 142 185 241 284 329
#     4  11  21  35  55  85 117 148 189 235 285 332
#     4  11  20  33  59  89 115 144 189 239 285 325
#     4   9  20  39  58  79 114 156 188 230 280 337
#
# _framework density 23.40033
#
# number of rings (size 3 to 8) (size 9 to 14) (size 15 to 20)
#    0.000    1.750    3.750    3.375    3.500    0.000 
#    0.000   15.000    0.000    0.000    0.000    0.000 
#    0.000    0.000    0.000    0.000    0.000    0.000 
#
# Total GULP energy -89134.265036 kJ/mol
# GULP energy per Si atom -5570.891565 kJ/mol
# Density = 2.334707 g / cm^3
# Si number density = 23.400330 Si / 1000 Ang^3
#
#
#
# Elastic Constant Matrix: (Units=GPa)
#
#
# Indices 1 2 3 4 5 6 
#
# 1 71.3859 40.4738 3.6176 -2.0273 -20.2563 6.8200
# 2 40.4738 115.1874 16.9633 -6.2213 -12.9384 11.0661
# 3 3.6176 16.9633 70.9678 5.7947 -13.9775 5.1259
# 4 -2.0273 -6.2213 5.7947 31.3144 9.3885 -8.3754
# 5 -20.2563 -12.9384 -13.9775 9.3885 22.1334 -4.9667
# 6 6.8200 11.0661 5.1259 -8.3754 -4.9667 32.2806
#
#
#
# Elastic Compliance Matrix: (Units=1/GPa)
#
#
# Indices 1 2 3 4 5 6 
#
# 1 0.025242 -0.007146 0.006630 -0.009633 0.026674 -0.002331
# 2 -0.007146 0.011605 -0.003211 0.003014 -0.003445 -0.001707
# 3 0.006630 -0.003211 0.019665 -0.010819 0.020509 -0.003074
# 4 -0.009633 0.003014 -0.010819 0.045877 -0.031141 0.009832
# 5 0.026674 -0.003445 0.020509 -0.031141 0.093422 -0.001417
# 6 -0.002331 -0.001707 -0.003074 0.009832 -0.001417 0.034877
#
#
# Mechanical properties :
#
#
# Convention : Reuss Voigt Hill
#
# Bulk Modulus (GPa) = 20.38390 42.18338 31.28364
# Shear Modulus (GPa) = 19.64673 30.24476 24.94574
#
# Velocity S-wave (km/s) = 2.90071 3.59903 3.26857
# Velocity P-wave (km/s) = 4.46640 5.94446 5.25763
#
# Compressibility (1/GPa) = 0.04905833
#
# Stress axis : x y z
#
# Youngs Moduli (GPa) = 39.61637 86.16937 50.85135
#
# Poissons Ratio (x) = 0.61576 -0.33714
# Poissons Ratio (y) = 0.28310 0.16328
# Poissons Ratio (z) = -0.26265 0.27669
#
# Static dielectric constant tensor:
#      x y z
#    x 1.964790 -0.014870 0.071160 
#    y -0.014870 1.961210 -0.109590 
#    z 0.071160 -0.109590 2.067790 
# 
# From -- ./inp_files/405435.got.cif
#   From: 2010.05.17/outbox.cif.g08.bks.cpg/sg2_203_cif.got.tgz:405435.got - 2010.06.03 11:33:40.
