data_PCOD9075893
_publ_section_title
;
Structure prediction by ZEFSAII (Michael W. Deem and Ramdas Pophale) SiO2 
 PCOD9075893
Probable space group: P -1
;
_chemical_formula_sum "Si O2"
_cell_formula_units_Z 16
_cell_length_a 8.887118
_cell_length_b 11.083954
_cell_length_c 9.523533
_cell_angle_alpha 79.724487
_cell_angle_beta 53.430400
_cell_angle_gamma 56.375091
_cell_volume 611.044612
_symmetry_space_group_name_H-M "P -1"
_symmetry_group_IT_number 2
_symmetry_cell_setting 'triclinic'
loop_
_space_group_symop_operation_xyz
x,y,z
-x,-y,-z
loop_
_atom_site_type_symbol
_atom_site_label
_atom_site_fract_x
_atom_site_fract_y
_atom_site_fract_z
Si Si1 0.999453 0.355813 0.694283
Si Si2 0.076452 0.841541 0.617994
Si Si3 0.336905 0.591698 0.706046
Si Si4 0.737247 0.833801 0.167938
Si Si5 0.227992 0.040017 0.492741
Si Si6 0.433806 0.905633 0.957311
Si Si7 0.351563 0.354617 0.314842
Si Si8 0.511548 0.296009 0.804221
O O1 0.757973 0.498874 0.753188
O O2 0.054903 0.294464 0.832668
O O3 0.085229 0.204640 0.596579
O O4 0.174330 0.394520 0.531832
O O5 0.104588 0.716700 0.731801
O O6 0.279839 0.761273 0.406515
O O7 0.849063 0.936110 0.633851
O O8 0.134412 0.950198 0.632387
O O9 0.500000 0.500000 0.500000
O O10 0.429814 0.674186 0.722368
O O11 0.363207 0.471382 0.824939
O O12 0.501848 0.938879 0.368895
O O13 0.760436 0.956112 0.055041
O O14 0.657533 0.751206 0.133250
O O15 0.500000 0.000000 0.000000
O O16 0.609053 0.782257 0.770862
O O17 0.386341 0.797966 0.090823
#
# Coordination Sequence:
#
# PCOD9075893 Si02
#       8
#     2   2   2   2   2   2   2   2
#     4  11  21  34  59  95 123 145 198 263 309 352
#     4   9  19  32  58  90 113 156 201 248 301 355
#     4  10  19  36  59  87 121 153 198 249 307 352
#     4  10  20  36  61  89 117 158 202 247 305 356
#     4  10  18  32  56  88 123 149 189 254 307 351
#     4  10  22  41  61  85 121 168 205 239 294 369
#     4  11  23  36  60  94 125 157 196 252 308 354
#     4   9  19  37  58  80 118 162 200 238 300 360
#
# _framework density 26.184667999999999
#
# number of rings (size 3 to 8) (size 9 to 14) (size 15 to 20)
#    0.000    2.000    1.250    4.125    1.750    1.500 
#    0.000    2.500    8.250    1.500    0.000    0.000 
#    0.000    0.000    0.000    0.000    0.000    0.000 
#
# Total GULP energy -89299.716768 kJ/mol
# GULP energy per Si atom -5581.232298 kJ/mol
# Density = 2.612507 g / cm^3
# Si number density = 26.184668 Si / 1000 Ang^3
#
#
#
# Elastic Constant Matrix: (Units=GPa)
#
#
# Indices 1 2 3 4 5 6 
#
# 1 55.2574 45.4072 19.8616 -6.0744 12.7864 -18.7866
# 2 45.4072 152.3267 49.0353 -23.5941 7.2976 -32.0388
# 3 19.8616 49.0353 76.7143 -8.7383 -6.7065 -16.1943
# 4 -6.0744 -23.5941 -8.7383 64.1911 -12.1856 12.8215
# 5 12.7864 7.2976 -6.7065 -12.1856 16.9983 -7.8421
# 6 -18.7866 -32.0388 -16.1943 12.8215 -7.8421 47.8149
#
#
#
# Elastic Compliance Matrix: (Units=1/GPa)
#
#
# Indices 1 2 3 4 5 6 
#
# 1 0.032572 -0.006506 -0.006616 -0.006024 -0.027082 0.003371
# 2 -0.006506 0.010743 -0.004134 0.002540 0.001788 0.002854
# 3 -0.006616 -0.004134 0.020206 0.003463 0.018887 0.003643
# 4 -0.006024 0.002540 0.003463 0.020302 0.018482 -0.001905
# 5 -0.027082 0.001788 0.018887 0.018482 0.103256 0.008933
# 6 0.003371 0.002854 0.003643 -0.001905 0.008933 0.027361
#
#
# Mechanical properties :
#
#
# Convention : Reuss Voigt Hill
#
# Bulk Modulus (GPa) = 34.47465 56.98962 45.73213
# Shear Modulus (GPa) = 19.33316 37.13380 28.23348
#
# Velocity S-wave (km/s) = 2.72019 3.76992 3.28723
# Velocity P-wave (km/s) = 4.80213 6.38447 5.64898
#
# Compressibility (1/GPa) = 0.02900682
#
# Stress axis : x y z
#
# Youngs Moduli (GPa) = 30.70092 93.08193 49.49143
#
# Poissons Ratio (x) = 0.60561 0.32746
# Poissons Ratio (y) = 0.19975 0.20462
# Poissons Ratio (z) = 0.20313 0.38484
#
# Static dielectric constant tensor:
#      x y z
#    x 2.123300 0.028650 0.098410 
#    y 0.028650 2.024110 -0.005340 
#    z 0.098410 -0.005340 2.251370 
# 
# From -- ./inp_files/421286.got.cif
#   From: 2010.05.17/outbox.cif.g08.bks.cpg/sg2_211_cif.got.tgz:421286.got - 2010.06.03 11:33:40.
