data_PCOD9075283
_publ_section_title
;
Structure prediction by ZEFSAII (Michael W. Deem and Ramdas Pophale) SiO2 
 PCOD9075283
Probable space group: P -1
;
_chemical_formula_sum "Si O2"
_cell_formula_units_Z 16
_cell_length_a 9.000000
_cell_length_b 21.000000
_cell_length_c 9.000000
_cell_angle_alpha 120.000000
_cell_angle_beta 60.000000
_cell_angle_gamma 150.000000
_cell_volume 727.687525
_symmetry_space_group_name_H-M "P -1"
_symmetry_group_IT_number 2
_symmetry_cell_setting 'triclinic'
loop_
_space_group_symop_operation_xyz
x,y,z
-x,-y,-z
loop_
_atom_site_type_symbol
_atom_site_label
_atom_site_fract_x
_atom_site_fract_y
_atom_site_fract_z
Si Si1 0.581205 0.799763 0.168847
Si Si2 0.743401 0.413379 0.660001
Si Si3 0.800600 0.761114 0.495842
Si Si4 0.693461 0.136947 0.112790
Si Si5 0.306452 0.481582 0.964731
Si Si6 0.835975 0.944042 0.672554
Si Si7 0.748590 0.721094 0.811227
Si Si8 0.795287 0.209321 0.804312
O O1 0.382280 0.696348 0.289283
O O2 0.463486 0.836122 0.203700
O O3 0.616247 0.754392 0.963239
O O4 0.927224 0.929524 0.197478
O O5 0.447941 0.334362 0.621780
O O6 0.000000 0.500000 0.500000
O O7 0.841463 0.509430 0.842744
O O8 0.809981 0.851187 0.627379
O O9 0.731554 0.702226 0.622138
O O10 0.110993 0.835302 0.366249
O O11 0.480082 0.126255 0.267375
O O12 0.926139 0.186801 0.175252
O O13 0.795387 0.201628 0.974791
O O14 0.500000 0.000000 0.000000
O O15 0.540350 0.597997 0.871642
O O16 0.080105 0.362387 0.828516
O O17 0.500000 0.500000 0.000000
O O18 0.000000 0.000000 0.500000
#
# Coordination Sequence:
#
# PCOD9075283 Si02
#       8
#     2   2   2   2   2   2   2   2
#     4  11  26  48  69 101 142 182 230 283 348 412
#     4  11  26  45  71 102 139 180 234 288 344 408
#     4  12  27  44  68 107 142 175 237 287 338 412
#     4  12  25  46  74  97 138 186 230 280 349 409
#     4  11  23  47  72  95 142 183 228 285 347 410
#     4  12  26  46  73  99 143 183 230 288 340 407
#     4  11  26  45  71 105 138 179 232 288 347 411
#     4  12  27  46  71 103 138 187 231 283 346 412
#
# _framework density 21.987459999999999
#
# number of rings (size 3 to 8) (size 9 to 14) (size 15 to 20)
#    0.000    0.500    5.000    2.250    8.750    4.000 
#    0.000    0.000    0.000    0.000    0.000    0.000 
#    0.000    0.000    0.000    0.000    0.000    0.000 
#
# Total GULP energy -89223.072523 kJ/mol
# GULP energy per Si atom -5576.442033 kJ/mol
# Density = 2.193742 g / cm^3
# Si number density = 21.987460 Si / 1000 Ang^3
#
#
#
# Elastic Constant Matrix: (Units=GPa)
#
#
# Indices 1 2 3 4 5 6 
#
# 1 115.0744 -3.9336 25.2042 -19.4175 -5.1551 1.2187
# 2 -3.9336 20.0074 0.6476 3.5972 -15.7179 4.9416
# 3 25.2042 0.6476 84.3916 -27.4530 3.8364 -7.3721
# 4 -19.4175 3.5972 -27.4530 35.3646 3.0632 -1.6563
# 5 -5.1551 -15.7179 3.8364 3.0632 43.2958 -2.3656
# 6 1.2187 4.9416 -7.3721 -1.6563 -2.3656 25.9295
#
#
#
# Elastic Compliance Matrix: (Units=1/GPa)
#
#
# Indices 1 2 3 4 5 6 
#
# 1 0.009950 0.003746 -0.002235 0.003069 0.002449 -0.001398
# 2 0.003746 0.084054 -0.010765 -0.018463 0.032265 -0.017491
# 3 -0.002235 -0.010765 0.018505 0.015158 -0.006460 0.007797
# 4 0.003069 -0.018463 0.015158 0.044952 -0.010336 0.009613
# 5 0.002449 0.032265 -0.006460 -0.010336 0.036107 -0.005467
# 6 -0.001398 -0.017491 0.007797 0.009613 -0.005467 0.044297
#
#
# Mechanical properties :
#
#
# Convention : Reuss Voigt Hill
#
# Bulk Modulus (GPa) = 10.63815 29.25665 19.94740
# Shear Modulus (GPa) = 17.37875 34.08833 25.73354
#
# Velocity S-wave (km/s) = 2.81444 3.94172 3.42478
# Velocity P-wave (km/s) = 3.92559 5.83534 4.97300
#
# Compressibility (1/GPa) = 0.09400130
#
# Stress axis : x y z
#
# Youngs Moduli (GPa) = 100.50123 11.89714 54.03818
#
# Poissons Ratio (x) = -0.04457 0.12080
# Poissons Ratio (y) = -0.37650 0.58171
# Poissons Ratio (z) = 0.22466 0.12807
#
# Static dielectric constant tensor:
#      x y z
#    x 1.845490 0.006150 -0.042510 
#    y 0.006150 1.639290 0.004360 
#    z -0.042510 0.004360 1.826610 
# 
# From -- ./inp_files/180745.got.cif
#   From: 2010.05.17/outbox.ucp.g08.bks.cvg/sg2_91_cif.got.tgz:180745.got - 2010.06.11 11:32:03.
