data_PCOD9075012
_publ_section_title
;
Structure prediction by ZEFSAII (Michael W. Deem and Ramdas Pophale) SiO2 
 PCOD9075012
Probable space group: P -1
;
_chemical_formula_sum "Si O2"
_cell_formula_units_Z 14
_cell_length_a 9.000000
_cell_length_b 9.000000
_cell_length_c 12.000000
_cell_angle_alpha 90.000000
_cell_angle_beta 40.000000
_cell_angle_gamma 90.000000
_cell_volume 624.789557
_symmetry_space_group_name_H-M "P -1"
_symmetry_group_IT_number 2
_symmetry_cell_setting 'triclinic'
loop_
_space_group_symop_operation_xyz
x,y,z
-x,-y,-z
loop_
_atom_site_type_symbol
_atom_site_label
_atom_site_fract_x
_atom_site_fract_y
_atom_site_fract_z
Si Si1 0.858776 0.536725 0.467834
Si Si2 0.135777 0.823152 0.303489
Si Si3 0.142086 0.747476 0.688354
Si Si4 0.568731 0.406804 0.137047
Si Si5 0.295792 0.960804 0.437805
Si Si6 0.631203 0.708820 0.970598
Si Si7 0.214982 0.873260 0.883461
O O1 0.844530 0.409598 0.382739
O O2 0.601519 0.580168 0.658120
O O3 0.000000 0.500000 0.500000
O O4 0.017600 0.670413 0.333853
O O5 0.187993 0.854181 0.404208
O O6 0.403942 0.812537 0.111176
O O7 0.920694 0.933926 0.405380
O O8 0.328968 0.853994 0.523067
O O9 0.183787 0.770078 0.793412
O O10 0.872437 0.795012 0.829165
O O11 0.649225 0.574999 0.053487
O O12 0.743535 0.264047 0.050509
O O13 0.402192 0.366767 0.129573
O O14 0.535299 0.040171 0.264129
O O15 0.000000 0.000000 0.000000
#
# Coordination Sequence:
#
# PCOD9075012 Si02
#       7
#     2   2   2   2   2   2   2
#     4  12  19  43  72 105 138 174 240 300 344 406
#     4  11  22  39  75 106 136 178 236 304 345 403
#     4  12  26  44  71 105 145 190 231 283 358 425
#     4  11  23  43  71 103 141 182 235 296 346 407
#     4  11  24  45  69 103 142 189 234 285 358 417
#     4  11  22  41  72 109 131 180 241 296 348 394
#     4  12  29  49  67 102 151 192 230 284 357 434
#
# _framework density 22.407544999999999
#
# number of rings (size 3 to 8) (size 9 to 14) (size 15 to 20)
#    0.000    0.571    5.714    2.143    4.000    1.714 
#    0.000    0.000    0.000    0.000    0.000    0.000 
#    0.000    0.000    0.000    0.000    0.000    0.000 
#
# Total GULP energy -77975.034253 kJ/mol
# GULP energy per Si atom -5569.645304 kJ/mol
# Density = 2.235654 g / cm^3
# Si number density = 22.407545 Si / 1000 Ang^3
#
#
#
# Elastic Constant Matrix: (Units=GPa)
#
#
# Indices 1 2 3 4 5 6 
#
# 1 74.1602 47.7258 13.9263 1.4049 5.0214 4.2203
# 2 47.7258 73.2997 46.8907 14.3413 2.1839 -3.7352
# 3 13.9263 46.8907 101.0611 13.1006 -20.7589 -2.2511
# 4 1.4049 14.3413 13.1006 40.7158 0.3500 -8.9218
# 5 5.0214 2.1839 -20.7589 0.3500 37.1815 11.0925
# 6 4.2203 -3.7352 -2.2511 -8.9218 11.0925 31.8529
#
#
#
# Elastic Compliance Matrix: (Units=1/GPa)
#
#
# Indices 1 2 3 4 5 6 
#
# 1 0.027342 -0.023608 0.007307 0.003656 0.003556 -0.006089
# 2 -0.023608 0.042550 -0.017944 -0.006260 -0.012042 0.009289
# 3 0.007307 -0.017944 0.020059 -0.002003 0.013332 -0.006858
# 4 0.003656 -0.006260 -0.002003 0.029108 -0.003956 0.008171
# 5 0.003556 -0.012042 0.013332 -0.003956 0.039296 -0.015734
# 6 -0.006089 0.009289 -0.006858 0.008171 -0.015734 0.040573
#
#
# Mechanical properties :
#
#
# Convention : Reuss Voigt Hill
#
# Bulk Modulus (GPa) = 46.59891 51.73407 49.16649
# Shear Modulus (GPa) = 18.21006 31.28192 24.74599
#
# Velocity S-wave (km/s) = 2.85384 3.74042 3.32680
# Velocity P-wave (km/s) = 5.63031 6.46469 6.06188
#
# Compressibility (1/GPa) = 0.02145973
#
# Stress axis : x y z
#
# Youngs Moduli (GPa) = 36.57434 23.50174 49.85198
#
# Poissons Ratio (x) = 0.55483 -0.36426
# Poissons Ratio (y) = 0.86345 0.89457
# Poissons Ratio (z) = -0.26724 0.42173
#
# Static dielectric constant tensor:
#      x y z
#    x 1.826290 -0.069700 0.041100 
#    y -0.069700 1.916280 0.003410 
#    z 0.041100 0.003410 1.888390 
# 
# From -- ./inp_files/382187.got.cif
#   From: 2010.05.17/outbox.ucp.g08.bks.cvg/sg2_192_cif.got.tgz:382187.got - 2010.06.11 11:32:03.
