data_PCOD9075111
_publ_section_title
;
Structure prediction by ZEFSAII (Michael W. Deem and Ramdas Pophale) SiO2 
 PCOD9075111
Probable space group: P -1
;
_chemical_formula_sum "Si O2"
_cell_formula_units_Z 16
_cell_length_a 6.000000
_cell_length_b 9.000000
_cell_length_c 21.000000
_cell_angle_alpha 60.000000
_cell_angle_beta 50.000000
_cell_angle_gamma 70.000000
_cell_volume 751.947714
_symmetry_space_group_name_H-M "P -1"
_symmetry_group_IT_number 2
_symmetry_cell_setting 'triclinic'
loop_
_space_group_symop_operation_xyz
x,y,z
-x,-y,-z
loop_
_atom_site_type_symbol
_atom_site_label
_atom_site_fract_x
_atom_site_fract_y
_atom_site_fract_z
Si Si1 0.128937 0.752630 0.385253
Si Si2 0.305540 0.514667 0.903626
Si Si3 0.219316 0.884851 0.594291
Si Si4 0.828381 0.423770 0.448157
Si Si5 0.177683 0.801915 0.764234
Si Si6 0.504433 0.208069 0.096940
Si Si7 0.341713 0.818601 0.068382
Si Si8 0.716342 0.914361 0.217182
O O1 0.095559 0.677292 0.478919
O O2 0.464372 0.778003 0.298537
O O3 0.002582 0.608834 0.388427
O O4 0.003299 0.952806 0.376951
O O5 0.282243 0.631420 0.819873
O O6 0.487155 0.623104 0.897495
O O7 0.453567 0.329001 0.905919
O O8 0.000000 0.500000 0.000000
O O9 0.160155 0.729281 0.581851
O O10 0.248212 0.791571 0.678223
O O11 0.500000 0.000000 0.500000
O O12 0.500000 0.500000 0.500000
O O13 0.836253 0.823853 0.839765
O O14 0.300031 0.971553 0.739378
O O15 0.647253 0.051445 0.144180
O O16 0.666028 0.228029 0.995648
O O17 0.034244 0.835707 0.157504
O O18 0.500000 0.000000 0.000000
#
# Coordination Sequence:
#
# PCOD9075111 Si02
#       8
#     2   2   2   2   2   2   2   2
#     4  11  25  48  77 108 155 194 246 320 378 449
#     4  11  24  45  72 100 148 193 244 317 370 444
#     4  12  24  49  82 103 149 208 243 304 393 446
#     4  11  25  49  74 115 148 191 255 313 377 463
#     4  11  24  46  72 108 144 195 256 304 374 461
#     4  11  22  46  69 102 144 191 250 301 372 449
#     4  12  23  45  73 103 143 199 247 303 381 439
#     4  11  24  44  72 107 146 195 251 310 369 451
#
# _framework density 21.278075000000001
#
# number of rings (size 3 to 8) (size 9 to 14) (size 15 to 20)
#    0.000    0.750    5.000    2.625    0.000    0.000 
#    2.250    2.500    0.000    0.000    0.000    0.000 
#    0.000    0.000    0.000    0.000    0.000    0.000 
#
# Total GULP energy -89172.439664 kJ/mol
# GULP energy per Si atom -5573.277479 kJ/mol
# Density = 2.122965 g / cm^3
# Si number density = 21.278075 Si / 1000 Ang^3
#
#
#
# Elastic Constant Matrix: (Units=GPa)
#
#
# Indices 1 2 3 4 5 6 
#
# 1 86.4761 55.5188 40.4110 -3.0577 -4.5652 16.3576
# 2 55.5188 161.5164 47.1578 -6.0288 -2.2447 -1.5645
# 3 40.4110 47.1578 120.9265 9.2026 -2.8810 13.0048
# 4 -3.0577 -6.0288 9.2026 39.3070 6.7824 -3.0181
# 5 -4.5652 -2.2447 -2.8810 6.7824 61.9634 1.4093
# 6 16.3576 -1.5645 13.0048 -3.0181 1.4093 44.8017
#
#
#
# Elastic Compliance Matrix: (Units=1/GPa)
#
#
# Indices 1 2 3 4 5 6 
#
# 1 0.017493 -0.005060 -0.003306 0.000758 0.000996 -0.005584
# 2 -0.005060 0.008639 -0.002131 0.001724 -0.000413 0.002897
# 3 -0.003306 -0.002131 0.010715 -0.003366 0.000596 -0.002223
# 4 0.000758 0.001724 -0.003366 0.027292 -0.003087 0.002696
# 5 0.000996 -0.000413 0.000596 -0.003087 0.016592 -0.001281
# 6 -0.005584 0.002897 -0.002223 0.002696 -0.001281 0.025328
#
#
# Mechanical properties :
#
#
# Convention : Reuss Voigt Hill
#
# Bulk Modulus (GPa) = 63.07627 72.78825 67.93226
# Shear Modulus (GPa) = 37.78269 44.26985 41.02627
#
# Velocity S-wave (km/s) = 4.21843 4.56624 4.39578
# Velocity P-wave (km/s) = 7.30993 7.87928 7.59994
#
# Compressibility (1/GPa) = 0.01585382
#
# Stress axis : x y z
#
# Youngs Moduli (GPa) = 57.16642 115.75042 93.32949
#
# Poissons Ratio (x) = 0.58565 0.30855
# Poissons Ratio (y) = 0.28924 0.19887
# Poissons Ratio (z) = 0.18900 0.24665
#
# Static dielectric constant tensor:
#      x y z
#    x 1.908950 0.030230 -0.032520 
#    y 0.030230 1.836540 -0.034240 
#    z -0.032520 -0.034240 1.778190 
# 
# From -- ./inp_files/582314.got.cif
#   From: 2010.05.17/outbox.ucp.g08.bks.cvg/sg2_292_cif.got.tgz:582314.got - 2010.06.11 11:32:03.
