data_PCOD9075423
_publ_section_title
;
Structure prediction by ZEFSAII (Michael W. Deem and Ramdas Pophale) SiO2 
 PCOD9075423
Probable space group: P -1
;
_chemical_formula_sum "Si O2"
_cell_formula_units_Z 16
_cell_length_a 12.979055
_cell_length_b 8.271892
_cell_length_c 7.765961
_cell_angle_alpha 100.966487
_cell_angle_beta 94.365919
_cell_angle_gamma 45.869038
_cell_volume 585.625399
_symmetry_space_group_name_H-M "P -1"
_symmetry_group_IT_number 2
_symmetry_cell_setting 'triclinic'
loop_
_space_group_symop_operation_xyz
x,y,z
-x,-y,-z
loop_
_atom_site_type_symbol
_atom_site_label
_atom_site_fract_x
_atom_site_fract_y
_atom_site_fract_z
Si Si1 0.979192 0.161551 0.771790
Si Si2 0.306544 0.065280 0.965351
Si Si3 0.625207 0.742638 0.538010
Si Si4 0.909185 0.565930 0.710976
Si Si5 0.007316 0.190765 0.184637
Si Si6 0.285867 0.693667 0.152823
Si Si7 0.597100 0.709716 0.155850
Si Si8 0.464810 0.645559 0.692488
O O1 0.007338 0.295755 0.699404
O O2 0.817518 0.285862 0.718777
O O3 0.054349 0.898841 0.735949
O O4 0.968095 0.220827 0.985051
O O5 0.322175 0.880834 0.811104
O O6 0.339536 0.182903 0.868652
O O7 0.435014 0.902497 0.092321
O O8 0.163495 0.289284 0.088951
O O9 0.768365 0.676659 0.603823
O O10 0.641259 0.623726 0.340499
O O11 0.554525 0.713845 0.675267
O O12 0.500000 0.000000 0.500000
O O13 0.003291 0.621788 0.688088
O O14 0.180267 0.958811 0.152215
O O15 0.443407 0.564382 0.205590
O O16 0.319661 0.523147 0.981441
O O17 0.500000 0.500000 0.500000
#
# Coordination Sequence:
#
# PCOD9075423 Si02
#       8
#     2   2   2   2   2   2   2   2
#     4   9  18  38  57  85 105 138 187 238 272 315
#     4  10  18  33  51  77 112 148 179 218 266 325
#     4  12  21  32  52  81 112 146 183 216 266 332
#     4  12  20  35  58  86 111 142 184 229 273 323
#     4   9  20  33  61  85 101 140 191 234 270 320
#     4   9  18  37  56  77 108 145 180 223 274 319
#     4  10  18  32  54  75 112 150 178 217 267 325
#     4  11  23  35  51  81 117 148 176 220 273 329
#
# _framework density 27.321218999999999
#
# number of rings (size 3 to 8) (size 9 to 14) (size 15 to 20)
#    0.750    1.000    5.000    1.125    1.750    1.000 
#    0.000    2.500    0.000    1.500    6.500    0.000 
#    0.000    0.000    0.000    0.000    0.000    0.000 
#
# Total GULP energy -89218.809850 kJ/mol
# GULP energy per Si atom -5576.175616 kJ/mol
# Density = 2.725904 g / cm^3
# Si number density = 27.321219 Si / 1000 Ang^3
#
#
#
# Elastic Constant Matrix: (Units=GPa)
#
#
# Indices 1 2 3 4 5 6 
#
# 1 82.1012 43.4524 21.6454 1.9645 5.8546 18.0619
# 2 43.4524 139.5770 21.2928 -11.5865 10.4235 22.0320
# 3 21.6454 21.2928 92.2651 13.3859 3.6928 2.1557
# 4 1.9645 -11.5865 13.3859 45.3139 3.4592 0.2990
# 5 5.8546 10.4235 3.6928 3.4592 41.7826 8.0550
# 6 18.0619 22.0320 2.1557 0.2990 8.0550 52.3720
#
#
#
# Elastic Compliance Matrix: (Units=1/GPa)
#
#
# Indices 1 2 3 4 5 6 
#
# 1 0.015817 -0.004023 -0.002556 -0.000919 -0.000213 -0.003619
# 2 -0.004023 0.009390 -0.001571 0.003166 -0.001460 -0.002292
# 3 -0.002556 -0.001571 0.012354 -0.003930 -0.000227 0.001091
# 4 -0.000919 0.003166 -0.003930 0.024251 -0.002195 -0.000654
# 5 -0.000213 -0.001460 -0.000227 -0.002195 0.025138 -0.003157
# 6 -0.003619 -0.002292 0.001091 -0.000654 -0.003157 0.021751
#
#
# Mechanical properties :
#
#
# Convention : Reuss Voigt Hill
#
# Bulk Modulus (GPa) = 47.03215 54.08048 50.55632
# Shear Modulus (GPa) = 37.85413 43.06388 40.45900
#
# Velocity S-wave (km/s) = 3.72630 3.97445 3.85237
# Velocity P-wave (km/s) = 5.98044 6.39523 6.19131
#
# Compressibility (1/GPa) = 0.02126205
#
# Stress axis : x y z
#
# Youngs Moduli (GPa) = 63.22511 106.49431 80.94470
#
# Poissons Ratio (x) = 0.42845 0.20687
# Poissons Ratio (y) = 0.25437 0.12713
# Poissons Ratio (z) = 0.16158 0.16725
#
# Static dielectric constant tensor:
#      x y z
#    x 2.318590 -0.034300 -0.272730 
#    y -0.034300 2.223810 0.317940 
#    z -0.272730 0.317940 3.253250 
# 
# From -- ./inp_files/327732.got.cif
#   From: 2010.05.17/outbox.cif.g08.bks.cpg/sg2_164_cif.got.tgz:327732.got - 2010.06.03 11:33:40.
