data_PCOD9075375
_publ_section_title
;
Structure prediction by ZEFSAII (Michael W. Deem and Ramdas Pophale) SiO2 
 PCOD9075375
Probable space group: P -1
;
_chemical_formula_sum "Si O2"
_cell_formula_units_Z 14
_cell_length_a 7.275918
_cell_length_b 10.308985
_cell_length_c 12.595691
_cell_angle_alpha 46.466030
_cell_angle_beta 60.633765
_cell_angle_gamma 89.828342
_cell_volume 506.230759
_symmetry_space_group_name_H-M "P -1"
_symmetry_group_IT_number 2
_symmetry_cell_setting 'triclinic'
loop_
_space_group_symop_operation_xyz
x,y,z
-x,-y,-z
loop_
_atom_site_type_symbol
_atom_site_label
_atom_site_fract_x
_atom_site_fract_y
_atom_site_fract_z
Si Si1 0.512830 0.214288 0.879086
Si Si2 0.273032 0.261919 0.719261
Si Si3 0.044647 0.405386 0.860985
Si Si4 0.779853 0.683395 0.932763
Si Si5 0.566494 0.156659 0.562386
Si Si6 0.661641 0.790373 0.692272
Si Si7 0.071091 0.382263 0.389052
O O1 0.341448 0.192882 0.844488
O O2 0.377956 0.238365 0.004727
O O3 0.777260 0.433893 0.673366
O O4 0.500000 0.000000 0.000000
O O5 0.500000 0.500000 0.500000
O O6 0.053639 0.283037 0.820799
O O7 0.309959 0.127658 0.694019
O O8 0.026610 0.307148 0.037606
O O9 0.306788 0.633621 0.664519
O O10 0.879081 0.488830 0.810204
O O11 0.593738 0.435587 0.102428
O O12 0.830615 0.805923 0.737789
O O13 0.771953 0.241090 0.553731
O O14 0.591313 0.968909 0.613412
O O15 0.807659 0.758551 0.572669
#
# Coordination Sequence:
#
# PCOD9075375 Si02
#       7
#     2   2   2   2   2   2   2
#     4  10  19  34  56  72  97 135 174 206 253 304
#     4   9  17  34  54  72 102 134 163 206 253 297
#     4   8  18  34  51  74 106 131 165 212 254 286
#     4   9  19  33  50  75 101 136 170 208 244 298
#     4   9  18  32  54  74 103 134 169 203 246 302
#     4  10  18  32  54  74 101 135 174 201 246 299
#     4   9  20  33  52  76 104 130 167 214 251 291
#
# _framework density 27.655373999999998
#
# number of rings (size 3 to 8) (size 9 to 14) (size 15 to 20)
#    0.857    2.000    0.000    1.286    0.000    1.714 
#    0.000    2.857    3.143    0.000    0.000    0.000 
#    0.000    0.000    0.000    0.000    0.000    0.000 
#
# Total GULP energy -78013.128624 kJ/mol
# GULP energy per Si atom -5572.366330 kJ/mol
# Density = 2.759243 g / cm^3
# Si number density = 27.655374 Si / 1000 Ang^3
#
#
#
# Elastic Constant Matrix: (Units=GPa)
#
#
# Indices 1 2 3 4 5 6 
#
# 1 68.2922 53.9148 9.7372 -10.2627 21.8800 -17.2722
# 2 53.9148 147.1165 57.4888 -34.4699 16.6343 -39.5373
# 3 9.7372 57.4888 68.6088 -42.2403 -4.7025 -6.4062
# 4 -10.2627 -34.4699 -42.2403 56.3608 2.5312 7.6563
# 5 21.8800 16.6343 -4.7025 2.5312 23.5602 -0.9752
# 6 -17.2722 -39.5373 -6.4062 7.6563 -0.9752 49.8238
#
#
#
# Elastic Compliance Matrix: (Units=1/GPa)
#
#
# Indices 1 2 3 4 5 6 
#
# 1 0.027971 -0.007733 0.003610 0.003550 -0.020050 0.003086
# 2 -0.007733 0.019315 -0.016605 -0.003105 -0.008988 0.010812
# 3 0.003610 -0.016605 0.041968 0.022653 0.013911 -0.009738
# 4 0.003550 -0.003105 0.022653 0.033967 -0.000379 -0.003548
# 5 -0.020050 -0.008988 0.013911 -0.000379 0.069778 -0.010870
# 6 0.003086 0.010812 -0.009738 -0.003548 -0.010870 0.028801
#
#
# Mechanical properties :
#
#
# Convention : Reuss Voigt Hill
#
# Bulk Modulus (GPa) = 20.92187 58.47770 39.69978
# Shear Modulus (GPa) = 17.90907 36.80741 27.35824
#
# Velocity S-wave (km/s) = 2.54752 3.65215 3.14866
# Velocity P-wave (km/s) = 4.02924 6.24302 5.25405
#
# Compressibility (1/GPa) = 0.04779687
#
# Stress axis : x y z
#
# Youngs Moduli (GPa) = 35.75112 51.77449 23.82777
#
# Poissons Ratio (x) = 0.40037 -0.08601
# Poissons Ratio (y) = 0.27647 0.39566
# Poissons Ratio (z) = -0.12905 0.85971
#
# Static dielectric constant tensor:
#      x y z
#    x 2.121210 0.087200 -0.151180 
#    y 0.087200 2.016160 0.277250 
#    z -0.151180 0.277250 2.085150 
# 
# From -- ./inp_files/172799.got.cif
#   From: 2010.05.17/outbox.cif.g08.bks.cpg/sg2_87_cif.got.tgz:172799.got - 2010.06.03 11:33:40.
