data_PCOD9075788
_publ_section_title
;
Structure prediction by ZEFSAII (Michael W. Deem and Ramdas Pophale) SiO2 
 PCOD9075788
Probable space group: P -1
;
_chemical_formula_sum "Si O2"
_cell_formula_units_Z 16
_cell_length_a 9.818943
_cell_length_b 6.607899
_cell_length_c 14.408082
_cell_angle_alpha 59.695502
_cell_angle_beta 65.816525
_cell_angle_gamma 85.183049
_cell_volume 727.266403
_symmetry_space_group_name_H-M "P -1"
_symmetry_group_IT_number 2
_symmetry_cell_setting 'triclinic'
loop_
_space_group_symop_operation_xyz
x,y,z
-x,-y,-z
loop_
_atom_site_type_symbol
_atom_site_label
_atom_site_fract_x
_atom_site_fract_y
_atom_site_fract_z
Si Si1 0.545746 0.782121 0.910433
Si Si2 0.710770 0.911326 0.651235
Si Si3 0.302388 0.100208 0.976213
Si Si4 0.899653 0.535752 0.721191
Si Si5 0.114392 0.692527 0.039120
Si Si6 0.202933 0.887951 0.604029
Si Si7 0.025485 0.759048 0.386133
Si Si8 0.773854 0.429835 0.159692
O O1 0.582038 0.849654 0.777893
O O2 0.421643 0.936206 0.946155
O O3 0.500000 0.500000 0.000000
O O4 0.682843 0.861948 0.926304
O O5 0.783876 0.673959 0.668113
O O6 0.686940 0.029888 0.531879
O O7 0.845122 0.080254 0.628725
O O8 0.329604 0.365238 0.865527
O O9 0.147520 0.951904 0.015391
O O10 0.835726 0.477665 0.855034
O O11 0.922244 0.298298 0.717652
O O12 0.062442 0.699221 0.647097
O O13 0.941453 0.576123 0.098964
O O14 0.204899 0.684260 0.920184
O O15 0.265361 0.760972 0.703849
O O16 0.119911 0.108449 0.606312
O O17 0.000000 0.500000 0.500000
#
# Coordination Sequence:
#
# PCOD9075788 Si02
#       8
#     2   2   2   2   2   2   2   2
#     4  11  25  42  64  88 115 156 208 260 296 340
#     4  11  20  35  56  85 118 154 197 247 296 349
#     4  11  22  42  62  86 117 157 204 251 300 350
#     4  10  18  32  55  84 120 151 193 240 295 352
#     4  10  21  37  62  91 122 160 195 245 299 360
#     4  10  21  34  52  86 122 155 188 235 296 362
#     4  11  18  33  55  87 122 156 189 241 301 356
#     4  10  22  38  59  90 128 159 193 239 304 367
#
# _framework density 22.000194
#
# number of rings (size 3 to 8) (size 9 to 14) (size 15 to 20)
#    0.000    1.500    2.500    4.125    0.000    7.000 
#    0.000    0.625    0.000    3.000    0.000    0.000 
#    0.000    0.000    0.000    0.000    0.000    0.000 
#
# Total GULP energy -89359.558500 kJ/mol
# GULP energy per Si atom -5584.972406 kJ/mol
# Density = 2.195012 g / cm^3
# Si number density = 22.000194 Si / 1000 Ang^3
#
#
#
# Elastic Constant Matrix: (Units=GPa)
#
#
# Indices 1 2 3 4 5 6 
#
# 1 32.6251 25.5989 26.4225 -0.1784 9.5571 4.2624
# 2 25.5989 130.3676 57.8673 6.7615 9.1443 -1.2073
# 3 26.4225 57.8673 194.1534 13.8870 26.0391 -6.4287
# 4 -0.1784 6.7615 13.8870 37.6563 -1.5481 6.1563
# 5 9.5571 9.1443 26.0391 -1.5481 31.6753 -2.8334
# 6 4.2624 -1.2073 -6.4287 6.1563 -2.8334 29.7276
#
#
#
# Elastic Compliance Matrix: (Units=1/GPa)
#
#
# Indices 1 2 3 4 5 6 
#
# 1 0.042009 -0.006503 -0.003134 0.003557 -0.008811 -0.008542
# 2 -0.006503 0.009869 -0.002042 -0.001215 0.000842 0.001224
# 3 -0.003134 -0.002042 0.007010 -0.002741 -0.004178 0.002052
# 4 0.003557 -0.001215 -0.002741 0.029032 0.002329 -0.006942
# 5 -0.008811 0.000842 -0.004178 0.002329 0.037849 0.003519
# 6 -0.008542 0.001224 0.002052 -0.006942 0.003519 0.037130
#
#
# Mechanical properties :
#
#
# Convention : Reuss Voigt Hill
#
# Bulk Modulus (GPa) = 28.14575 64.10263 46.12419
# Shear Modulus (GPa) = 25.23961 36.29567 30.76764
#
# Velocity S-wave (km/s) = 3.39077 4.06617 3.74373
# Velocity P-wave (km/s) = 5.30575 7.15860 6.30065
#
# Compressibility (1/GPa) = 0.03552934
#
# Stress axis : x y z
#
# Youngs Moduli (GPa) = 23.80457 101.32462 142.65333
#
# Poissons Ratio (x) = 0.65893 0.44711
# Poissons Ratio (y) = 0.15480 0.29129
# Poissons Ratio (z) = 0.07461 0.20690
#
# Static dielectric constant tensor:
#      x y z
#    x 1.863240 0.011380 -0.003000 
#    y 0.011380 1.792500 0.007700 
#    z -0.003000 0.007700 1.858140 
# 
# From -- ./inp_files/76467.got.cif
#   From: 2010.05.17/outbox.cif.g08.bks.cpg/sg2_39_cif.got.tgz:76467.got - 2010.06.03 11:33:40.
