data_PCOD9075166
_publ_section_title
;
Structure prediction by ZEFSAII (Michael W. Deem and Ramdas Pophale) SiO2 
 PCOD9075166
Probable space group: P -1
;
_chemical_formula_sum "Si O2"
_cell_formula_units_Z 15
_cell_length_a 21.000000
_cell_length_b 18.000000
_cell_length_c 9.000000
_cell_angle_alpha 130.000000
_cell_angle_beta 40.000000
_cell_angle_gamma 160.000000
_cell_volume 700.468056
_symmetry_space_group_name_H-M "P -1"
_symmetry_group_IT_number 2
_symmetry_cell_setting 'triclinic'
loop_
_space_group_symop_operation_xyz
x,y,z
-x,-y,-z
loop_
_atom_site_type_symbol
_atom_site_label
_atom_site_fract_x
_atom_site_fract_y
_atom_site_fract_z
Si Si1 0.416474 0.280765 0.133657
Si Si2 0.392232 0.831789 0.195742
Si Si3 0.743194 0.505142 0.095216
Si Si4 0.393103 0.743986 0.396812
Si Si5 0.872520 0.220389 0.721024
Si Si6 0.500000 0.500000 0.000000
Si Si7 0.778295 0.115201 0.434986
Si Si8 0.914655 0.750904 0.411085
O O1 0.551532 0.394101 0.196611
O O2 0.484529 0.431193 0.101952
O O3 0.515716 0.275733 0.861137
O O4 0.131611 0.015404 0.316990
O O5 0.422933 0.842612 0.331164
O O6 0.210687 0.758014 0.402859
O O7 0.324144 0.669285 0.028996
O O8 0.650500 0.087154 0.996940
O O9 0.782444 0.585191 0.291375
O O10 0.001001 0.735725 0.852172
O O11 0.115664 0.492057 0.603654
O O12 0.547705 0.896083 0.463785
O O13 0.790077 0.090805 0.552203
O O14 0.940109 0.205062 0.708540
O O15 0.275084 0.371292 0.293707
#
# Coordination Sequence:
#
# PCOD9075166 Si02
#       8
#     2   2   2   2   2   1   2   2
#     4  11  23  48  68 101 134 172 219 276 340 405
#     4  11  24  44  64 101 140 180 232 278 313 396
#     4  11  23  44  74  93 140 187 212 270 349 386
#     4  11  23  42  68  92 138 184 221 275 339 387
#     4  12  24  42  64  98 135 180 227 277 330 391
#     4  12  26  46  76 102 128 164 230 284 326 418
#     4  12  23  42  68 100 138 183 233 272 320 387
#     4  12  25  47  70  97 136 176 217 277 346 399
#
# _framework density 21.414252999999999
#
# number of rings (size 3 to 8) (size 9 to 14) (size 15 to 20)
#    0.000    0.533    8.000    1.600    1.867    1.067 
#    0.000    1.333    0.000    0.000    0.000    0.000 
#    0.000    0.000    0.000    0.000    0.000    0.000 
#
# Total GULP energy -83566.221220 kJ/mol
# GULP energy per Si atom -5571.081415 kJ/mol
# Density = 2.136551 g / cm^3
# Si number density = 21.414253 Si / 1000 Ang^3
#
#
#
# Elastic Constant Matrix: (Units=GPa)
#
#
# Indices 1 2 3 4 5 6 
#
# 1 105.8426 41.7359 5.6460 19.1301 12.1805 27.9954
# 2 41.7359 83.8531 30.9182 -19.2384 23.1656 42.5294
# 3 5.6460 30.9182 86.7513 -18.3203 15.0584 1.3769
# 4 19.1301 -19.2384 -18.3203 18.1620 -4.6131 9.9245
# 5 12.1805 23.1656 15.0584 -4.6131 40.7777 6.6201
# 6 27.9954 42.5294 1.3769 9.9245 6.6201 32.3803
#
#
#
# Elastic Compliance Matrix: (Units=1/GPa)
#
#
# Indices 1 2 3 4 5 6 
#
# 1 0.011335 0.007975 -0.001427 0.005916 -0.003252 -0.021362
# 2 0.007975 -0.017743 -0.005109 -0.050367 -0.001365 0.032343
# 3 -0.001427 -0.005109 0.015513 0.008307 -0.002306 0.005209
# 4 0.005916 -0.050367 0.008307 -0.031181 0.009151 0.068372
# 5 -0.003252 -0.001365 -0.002306 0.009151 0.028805 -0.003992
# 6 -0.021362 0.032343 0.005209 0.068372 -0.003992 -0.013490
#
#
# Mechanical properties :
#
#
# Convention : Reuss Voigt Hill
#
# Bulk Modulus (GPa) = 83.45439 48.11636 65.78537
# Shear Modulus (GPa) = -885.61347 31.47380 -427.06984
#
# Velocity S-wave (km/s) = -20.35830 3.83790 -14.13738
# Velocity P-wave (km/s) = 22.66182 6.49288 15.35253
#
# Compressibility (1/GPa) = 0.01198259
#
# Stress axis : x y z
#
# Youngs Moduli (GPa) = 88.22447 -56.36109 64.46313
#
# Poissons Ratio (x) = 0.44946 0.09199
# Poissons Ratio (y) = -0.70355 0.32932
# Poissons Ratio (z) = 0.12590 -0.28793
#
# Static dielectric constant tensor:
#      x y z
#    x 1.800100 -0.023250 0.017670 
#    y -0.023250 1.796870 0.007620 
#    z 0.017670 0.007620 1.736210 
# 
# From -- ./inp_files/91212.got.cif
#   From: 2010.05.17/outbox.ucp.g08.bks.cvg/sg2_46_cif.got.tgz:91212.got - 2010.06.11 11:32:03.
