data_PCOD9075870
_publ_section_title
;
Structure prediction by ZEFSAII (Michael W. Deem and Ramdas Pophale) SiO2 
 PCOD9075870
Probable space group: P -1
;
_chemical_formula_sum "Si O2"
_cell_formula_units_Z 16
_cell_length_a 10.210222
_cell_length_b 8.224149
_cell_length_c 11.582670
_cell_angle_alpha 118.977223
_cell_angle_beta 49.325638
_cell_angle_gamma 93.783053
_cell_volume 597.829037
_symmetry_space_group_name_H-M "P -1"
_symmetry_group_IT_number 2
_symmetry_cell_setting 'triclinic'
loop_
_space_group_symop_operation_xyz
x,y,z
-x,-y,-z
loop_
_atom_site_type_symbol
_atom_site_label
_atom_site_fract_x
_atom_site_fract_y
_atom_site_fract_z
Si Si1 0.097577 0.148606 0.567369
Si Si2 0.452526 0.776160 0.222941
Si Si3 0.296804 0.561115 0.395127
Si Si4 0.017913 0.344384 0.041154
Si Si5 0.931493 0.908393 0.697300
Si Si6 0.370142 0.970268 0.666792
Si Si7 0.749521 0.694934 0.869042
Si Si8 0.332981 0.407185 0.569759
O O1 0.072192 0.190299 0.460509
O O2 0.206227 0.271906 0.605099
O O3 0.239486 0.916941 0.396787
O O4 0.938630 0.123533 0.731440
O O5 0.460659 0.617620 0.261836
O O6 0.557771 0.927499 0.236747
O O7 0.547931 0.694938 0.020925
O O8 0.213180 0.454611 0.311730
O O9 0.354106 0.429159 0.429683
O O10 0.123904 0.765982 0.598619
O O11 0.118877 0.376030 0.115531
O O12 0.804142 0.393194 0.218006
O O13 0.152759 0.119504 0.843328
O O14 0.000000 0.500000 0.000000
O O15 0.774216 0.889374 0.865449
O O16 0.500000 0.000000 0.500000
O O17 0.462591 0.730924 0.548301
#
# Coordination Sequence:
#
# PCOD9075870 Si02
#       8
#     2   2   2   2   2   2   2   2
#     4   9  19  34  53  87 121 166 201 254 310 375
#     4   9  22  36  57  88 130 165 210 261 313 373
#     4  11  20  37  59  93 127 170 204 254 331 380
#     4  11  22  38  66  94 119 165 224 258 308 375
#     4  10  18  32  56  85 124 160 210 245 309 380
#     4  10  21  41  65  89 122 168 215 257 315 375
#     4  11  20  35  61  89 127 167 209 256 315 383
#     4  11  20  38  67  88 126 169 205 262 321 372
#
# _framework density 26.763504000000001
#
# number of rings (size 3 to 8) (size 9 to 14) (size 15 to 20)
#    0.000    1.750    3.750    1.500    0.000    0.500 
#    2.250    0.625    0.000    1.500    0.000    0.000 
#    0.000    0.000    0.000    0.000    0.000    0.000 
#
# Total GULP energy -89164.767127 kJ/mol
# GULP energy per Si atom -5572.797945 kJ/mol
# Density = 2.670259 g / cm^3
# Si number density = 26.763504 Si / 1000 Ang^3
#
#
#
# Elastic Constant Matrix: (Units=GPa)
#
#
# Indices 1 2 3 4 5 6 
#
# 1 74.2871 28.0212 22.4982 -0.9007 12.7704 4.2257
# 2 28.0212 107.0841 78.1742 -29.1429 -2.0520 -23.7663
# 3 22.4982 78.1742 163.7421 -14.4562 -20.3222 -11.5367
# 4 -0.9007 -29.1429 -14.4562 60.5547 -0.7712 -11.7170
# 5 12.7704 -2.0520 -20.3222 -0.7712 40.6008 -6.8471
# 6 4.2257 -23.7663 -11.5367 -11.7170 -6.8471 50.6475
#
#
#
# Elastic Compliance Matrix: (Units=1/GPa)
#
#
# Indices 1 2 3 4 5 6 
#
# 1 0.018170 -0.007106 -0.001033 -0.004908 -0.007914 -0.007291
# 2 -0.007106 0.022781 -0.007797 0.011417 0.001790 0.012390
# 3 -0.001033 -0.007797 0.010406 -0.001385 0.004970 -0.000850
# 4 -0.004908 0.011417 -0.001385 0.023877 0.003819 0.011492
# 5 -0.007914 0.001790 0.004970 0.003819 0.031071 0.007717
# 6 -0.007291 0.012390 -0.000850 0.011492 0.007717 0.029675
#
#
# Mechanical properties :
#
#
# Convention : Reuss Voigt Hill
#
# Bulk Modulus (GPa) = 51.32001 66.94450 59.13226
# Shear Modulus (GPa) = 28.67830 44.78858 36.73344
#
# Velocity S-wave (km/s) = 3.27700 4.09527 3.70877
# Velocity P-wave (km/s) = 5.79097 6.88690 6.36257
#
# Compressibility (1/GPa) = 0.01948558
#
# Stress axis : x y z
#
# Youngs Moduli (GPa) = 55.03462 43.89635 96.09723
#
# Poissons Ratio (x) = 0.31192 0.09931
# Poissons Ratio (y) = 0.39107 0.74924
# Poissons Ratio (z) = 0.05687 0.34225
#
# Static dielectric constant tensor:
#      x y z
#    x 2.194140 0.019840 0.069750 
#    y 0.019840 2.199250 0.107460 
#    z 0.069750 0.107460 2.434390 
# 
# From -- ./inp_files/271364.got.cif
#   From: 2010.05.17/outbox.cif.g08.bks.cpg/sg2_136_cif.got.tgz:271364.got - 2010.06.03 11:33:40.
