data_PCOD9075189
_publ_section_title
;
Structure prediction by ZEFSAII (Michael W. Deem and Ramdas Pophale) SiO2 
 PCOD9075189
Probable space group: P -1
;
_chemical_formula_sum "Si O2"
_cell_formula_units_Z 16
_cell_length_a 9.022423
_cell_length_b 15.494141
_cell_length_c 14.542233
_cell_angle_alpha 148.795850
_cell_angle_beta 111.133268
_cell_angle_gamma 48.129316
_cell_volume 657.461147
_symmetry_space_group_name_H-M "P -1"
_symmetry_group_IT_number 2
_symmetry_cell_setting 'triclinic'
loop_
_space_group_symop_operation_xyz
x,y,z
-x,-y,-z
loop_
_atom_site_type_symbol
_atom_site_label
_atom_site_fract_x
_atom_site_fract_y
_atom_site_fract_z
Si Si1 0.212821 0.247185 0.713013
Si Si2 0.446550 0.365462 0.981948
Si Si3 0.711959 0.586602 0.817588
Si Si4 0.931732 0.444407 0.558500
Si Si5 0.202893 0.483469 0.773679
Si Si6 0.329322 0.872852 0.532950
Si Si7 0.867200 0.165530 0.786408
Si Si8 0.389519 0.122915 0.258069
O O1 0.307189 0.310785 0.863663
O O2 0.322250 0.233448 0.628611
O O3 0.221282 0.062728 0.596621
O O4 0.942268 0.471433 0.820361
O O5 0.704449 0.166142 0.808602
O O6 0.435246 0.381086 0.103201
O O7 0.300011 0.632811 0.148312
O O8 0.818539 0.428411 0.602726
O O9 0.537659 0.871028 0.006774
O O10 0.738909 0.640686 0.618208
O O11 0.016331 0.550564 0.723606
O O12 0.176266 0.203047 0.342717
O O13 0.421558 0.395074 0.689000
O O14 0.101493 0.699063 0.016168
O O15 0.121194 0.927585 0.582463
O O16 0.426497 0.930605 0.681693
#
# Coordination Sequence:
#
# PCOD9075189 Si02
#       8
#     2   2   2   2   2   2   2   2
#     4  10  18  32  53  82 103 129 173 216 258 306
#     4  10  19  33  51  74 110 140 169 209 251 305
#     4  11  18  32  55  77 102 137 167 213 262 298
#     4   9  20  33  50  82 103 127 172 221 257 298
#     4   9  20  32  53  76 103 135 172 211 260 305
#     4  11  18  33  56  75 103 137 169 212 263 305
#     4  10  21  35  48  73 112 144 168 205 249 314
#     4  10  19  32  53  79 105 128 170 219 261 299
#
# _framework density 24.336039
#
# number of rings (size 3 to 8) (size 9 to 14) (size 15 to 20)
#    0.000    2.000    2.500    3.375    0.000    0.000 
#    0.000    6.875    0.000    3.000    0.000    5.250 
#    0.000    0.000    0.000    0.000    0.000    0.000 
#
# Total GULP energy -89321.242496 kJ/mol
# GULP energy per Si atom -5582.577656 kJ/mol
# Density = 2.428065 g / cm^3
# Si number density = 24.336039 Si / 1000 Ang^3
#
#
#
# Elastic Constant Matrix: (Units=GPa)
#
#
# Indices 1 2 3 4 5 6 
#
# 1 109.1622 26.5096 25.7102 6.6566 -34.5826 31.7269
# 2 26.5096 82.4472 18.0599 5.6686 -13.6624 12.7548
# 3 25.7102 18.0599 85.2123 -1.8104 -39.4539 14.2694
# 4 6.6566 5.6686 -1.8104 27.3326 1.9963 -8.9789
# 5 -34.5826 -13.6624 -39.4539 1.9963 56.2259 -15.9186
# 6 31.7269 12.7548 14.2694 -8.9789 -15.9186 32.3590
#
#
#
# Elastic Compliance Matrix: (Units=1/GPa)
#
#
# Indices 1 2 3 4 5 6 
#
# 1 0.016246 -0.001369 0.000546 -0.009059 0.006074 -0.015155
# 2 -0.001369 0.013966 -0.001813 -0.004151 0.000172 -0.004430
# 3 0.000546 -0.001813 0.017735 -0.000050 0.011821 -0.001840
# 4 -0.009059 -0.004151 -0.000050 0.047255 -0.001855 0.022739
# 5 0.006074 0.000172 0.011821 -0.001855 0.030900 0.003451
# 6 -0.015155 -0.004430 -0.001840 0.022739 0.003451 0.056327
#
#
# Mechanical properties :
#
#
# Convention : Reuss Voigt Hill
#
# Bulk Modulus (GPa) = 23.43399 46.37568 34.90483
# Shear Modulus (GPa) = 24.76134 36.95298 30.85716
#
# Velocity S-wave (km/s) = 3.19325 3.90095 3.56471
# Velocity P-wave (km/s) = 4.82141 6.27596 5.59615
#
# Compressibility (1/GPa) = 0.04267307
#
# Stress axis : x y z
#
# Youngs Moduli (GPa) = 61.55430 71.60417 56.38509
#
# Poissons Ratio (x) = 0.09805 -0.03079
# Poissons Ratio (y) = 0.08429 0.10225
# Poissons Ratio (z) = -0.03361 0.12985
#
# Static dielectric constant tensor:
#      x y z
#    x 2.036020 0.036890 -0.027320 
#    y 0.036890 1.897390 -0.009140 
#    z -0.027320 -0.009140 2.006400 
# 
# From -- ./inp_files/505592.got.cif
#   From: 2010.05.17/outbox.cif.g08.bks.cpg/sg2_253_cif.got.tgz:505592.got - 2010.06.03 11:33:40.
