data_PCOD9075440
_publ_section_title
;
Structure prediction by ZEFSAII (Michael W. Deem and Ramdas Pophale) SiO2 
 PCOD9075440
Probable space group: P -1
;
_chemical_formula_sum "Si O2"
_cell_formula_units_Z 16
_cell_length_a 12.000000
_cell_length_b 9.000000
_cell_length_c 15.000000
_cell_angle_alpha 110.000000
_cell_angle_beta 130.000000
_cell_angle_gamma 110.000000
_cell_volume 728.972637
_symmetry_space_group_name_H-M "P -1"
_symmetry_group_IT_number 2
_symmetry_cell_setting 'triclinic'
loop_
_space_group_symop_operation_xyz
x,y,z
-x,-y,-z
loop_
_atom_site_type_symbol
_atom_site_label
_atom_site_fract_x
_atom_site_fract_y
_atom_site_fract_z
Si Si1 0.525775 0.627389 0.754230
Si Si2 0.712082 0.799848 0.695929
Si Si3 0.354695 0.510606 0.978733
Si Si4 0.206486 0.754769 0.217960
Si Si5 0.564418 0.806070 0.332406
Si Si6 0.868076 0.960719 0.153434
Si Si7 0.943790 0.582939 0.564996
Si Si8 0.035835 0.634703 0.309238
O O1 0.701266 0.797824 0.797096
O O2 0.455937 0.382539 0.670735
O O3 0.301898 0.544560 0.607646
O O4 0.640267 0.774106 0.936450
O O5 0.500000 0.500000 0.500000
O O6 0.922415 0.882809 0.776069
O O7 0.728923 0.003122 0.717701
O O8 0.234746 0.545548 0.867665
O O9 0.143343 0.221728 0.845398
O O10 0.500000 0.500000 0.000000
O O11 0.475114 0.694033 0.163384
O O12 0.416767 0.814961 0.311192
O O13 0.123466 0.674249 0.261713
O O14 0.000000 0.500000 0.000000
O O15 0.819140 0.095626 0.521079
O O16 0.891094 0.124390 0.268382
O O17 0.927110 0.478558 0.628925
O O18 0.000000 0.500000 0.500000
#
# Coordination Sequence:
#
# PCOD9075440 Si02
#       8
#     2   2   2   2   2   2   2   2
#     4  11  25  46  72 107 149 197 241 300 382 443
#     4  12  23  44  78 112 156 190 239 311 382 453
#     4  11  26  49  75 106 142 198 252 304 367 442
#     4  12  24  46  75 114 154 186 255 309 374 452
#     4  11  25  44  77 109 147 193 245 305 373 447
#     4  11  25  48  73 105 147 193 244 305 374 443
#     4  12  30  47  70 105 149 197 251 302 365 445
#     4  12  26  46  73 107 145 191 241 311 370 433
#
# _framework density 21.948698
#
# number of rings (size 3 to 8) (size 9 to 14) (size 15 to 20)
#    0.000    0.500    3.750    3.750    8.750    2.000 
#    0.000    0.000    0.000    0.000    0.000    0.000 
#    0.000    0.000    0.000    0.000    0.000    0.000 
#
# Total GULP energy -89389.116330 kJ/mol
# GULP energy per Si atom -5586.819771 kJ/mol
# Density = 2.189874 g / cm^3
# Si number density = 21.948698 Si / 1000 Ang^3
#
#
#
# Elastic Constant Matrix: (Units=GPa)
#
#
# Indices 1 2 3 4 5 6 
#
# 1 136.9111 15.6637 31.3429 -6.3092 -16.7129 -29.3771
# 2 15.6637 89.9968 36.3824 -13.9951 -6.0675 -19.2576
# 3 31.3429 36.3824 103.3794 -2.2402 -12.7978 -24.4578
# 4 -6.3092 -13.9951 -2.2402 28.4009 -15.1843 8.0218
# 5 -16.7129 -6.0675 -12.7978 -15.1843 45.6670 4.2909
# 6 -29.3771 -19.2576 -24.4578 8.0218 4.2909 30.0467
#
#
#
# Elastic Compliance Matrix: (Units=1/GPa)
#
#
# Indices 1 2 3 4 5 6 
#
# 1 0.009683 0.000982 -0.000838 0.001953 0.003297 0.008422
# 2 0.000982 0.014959 -0.003818 0.007713 0.003381 0.004898
# 3 -0.000838 -0.003818 0.013279 -0.002610 0.001283 0.008056
# 4 0.001953 0.007713 -0.002610 0.053382 0.019920 -0.012368
# 5 0.003297 0.003381 0.001283 0.019920 0.030845 -0.003288
# 6 0.008422 0.004898 0.008056 -0.012368 -0.003288 0.054984
#
#
# Mechanical properties :
#
#
# Convention : Reuss Voigt Hill
#
# Bulk Modulus (GPa) = 32.70878 55.22947 43.96913
# Shear Modulus (GPa) = 25.68403 37.28281 31.48342
#
# Velocity S-wave (km/s) = 3.42451 4.12592 3.79147
# Velocity P-wave (km/s) = 5.52911 6.92208 6.26444
#
# Compressibility (1/GPa) = 0.03057283
#
# Stress axis : x y z
#
# Youngs Moduli (GPa) = 103.27162 66.84721 75.30666
#
# Poissons Ratio (x) = -0.06562 0.06313
# Poissons Ratio (y) = -0.10138 0.28751
# Poissons Ratio (z) = 0.08657 0.25521
#
# Static dielectric constant tensor:
#      x y z
#    x 1.784520 0.041550 0.059000 
#    y 0.041550 1.829220 -0.003590 
#    z 0.059000 -0.003590 1.880800 
# 
# From -- ./inp_files/515997.got.cif
#   From: 2010.05.17/outbox.ucp.g08.bks.cvg/sg2_258_cif.got.tgz:515997.got - 2010.06.11 11:32:03.
