data_PCOD9075169
_publ_section_title
;
Structure prediction by ZEFSAII (Michael W. Deem and Ramdas Pophale) SiO2 
 PCOD9075169
Probable space group: P -1
;
_chemical_formula_sum "Si O2"
_cell_formula_units_Z 16
_cell_length_a 9.576886
_cell_length_b 11.001947
_cell_length_c 8.758463
_cell_angle_alpha 59.708518
_cell_angle_beta 97.325464
_cell_angle_gamma 124.196975
_cell_volume 643.159479
_symmetry_space_group_name_H-M "P -1"
_symmetry_group_IT_number 2
_symmetry_cell_setting 'triclinic'
loop_
_space_group_symop_operation_xyz
x,y,z
-x,-y,-z
loop_
_atom_site_type_symbol
_atom_site_label
_atom_site_fract_x
_atom_site_fract_y
_atom_site_fract_z
Si Si1 0.259373 0.196053 0.508389
Si Si2 0.732704 0.024900 0.892582
Si Si3 0.315404 0.533926 0.321407
Si Si4 0.046982 0.603323 0.780101
Si Si5 0.405763 0.353737 0.945439
Si Si6 0.012171 0.154645 0.240898
Si Si7 0.523776 0.893139 0.272153
Si Si8 0.112610 0.357089 0.814420
O O1 0.330797 0.381127 0.467289
O O2 0.168804 0.190600 0.343397
O O3 0.385152 0.136750 0.558110
O O4 0.103055 0.046602 0.683991
O O5 0.589445 0.033116 0.776028
O O6 0.929602 0.204937 0.804249
O O7 0.717038 0.857670 0.929403
O O8 0.657651 0.986998 0.084221
O O9 0.121337 0.457801 0.302036
O O10 0.427358 0.613388 0.134383
O O11 0.385809 0.694701 0.334492
O O12 0.101145 0.792094 0.718514
O O13 0.138985 0.538987 0.730581
O O14 0.000000 0.500000 0.000000
O O15 0.297832 0.392153 0.790224
O O16 0.500000 0.500000 0.000000
O O17 0.083358 0.274591 0.030609
#
# Coordination Sequence:
#
# PCOD9075169 Si02
#       8
#     2   2   2   2   2   2   2   2
#     4  10  18  32  53  81 115 144 182 226 275 334
#     4  10  21  35  58  87 110 146 186 235 286 326
#     4  10  20  35  53  84 110 147 185 222 279 330
#     4   9  17  30  55  80 110 137 180 233 273 318
#     4  11  23  36  55  84 119 148 182 233 285 337
#     4   9  19  31  54  86 111 145 183 228 280 327
#     4  10  19  34  58  83 113 137 188 236 279 325
#     4  11  19  37  59  84 115 145 188 234 281 331
#
# _framework density 24.877186999999999
#
# number of rings (size 3 to 8) (size 9 to 14) (size 15 to 20)
#    0.000    2.000    2.500    3.000    0.000    1.000 
#    0.000    0.000    0.000   10.500    0.000    0.000 
#    0.000    0.000    0.000    0.000    0.000    0.000 
#
# Total GULP energy -89134.165051 kJ/mol
# GULP energy per Si atom -5570.885316 kJ/mol
# Density = 2.482057 g / cm^3
# Si number density = 24.877187 Si / 1000 Ang^3
#
#
#
# Elastic Constant Matrix: (Units=GPa)
#
#
# Indices 1 2 3 4 5 6 
#
# 1 76.6971 19.7000 23.3443 0.0557 47.3659 -15.3454
# 2 19.7000 95.1073 19.3488 -19.6511 11.0374 -7.0105
# 3 23.3443 19.3488 54.1155 -2.5697 26.6477 1.7402
# 4 0.0557 -19.6511 -2.5697 25.8930 -1.2249 2.7972
# 5 47.3659 11.0374 26.6477 -1.2249 48.3420 -4.7493
# 6 -15.3454 -7.0105 1.7402 2.7972 -4.7493 25.9585
#
#
#
# Elastic Compliance Matrix: (Units=1/GPa)
#
#
# Indices 1 2 3 4 5 6 
#
# 1 0.040631 -0.004639 0.002273 -0.006969 -0.038579 0.016306
# 2 -0.004639 0.014159 -0.004708 0.010376 0.004275 0.001061
# 3 0.002273 -0.004708 0.027577 -0.001126 -0.016848 -0.004737
# 4 -0.006969 0.010376 -0.001126 0.047241 0.005759 -0.005279
# 5 -0.038579 0.004275 -0.016848 0.005759 0.066053 -0.009058
# 6 0.016306 0.001061 -0.004737 -0.005279 -0.009058 0.047678
#
#
# Mechanical properties :
#
#
# Convention : Reuss Voigt Hill
#
# Bulk Modulus (GPa) = 14.65870 38.96734 26.81302
# Shear Modulus (GPa) = 17.84270 30.94049 24.39159
#
# Velocity S-wave (km/s) = 2.68102 3.53048 3.13466
# Velocity P-wave (km/s) = 3.93561 5.68480 4.88907
#
# Compressibility (1/GPa) = 0.06821889
#
# Stress axis : x y z
#
# Youngs Moduli (GPa) = 24.61183 70.62547 36.26262
#
# Poissons Ratio (x) = 0.32766 -0.08244
# Poissons Ratio (y) = 0.11418 0.17072
# Poissons Ratio (z) = -0.05595 0.33249
#
# Static dielectric constant tensor:
#      x y z
#    x 1.606330 0.100050 -0.229510 
#    y 0.100050 1.998080 0.056280 
#    z -0.229510 0.056280 1.944440 
# 
# From -- ./inp_files/392129.got.cif
#   From: 2010.05.17/outbox.cif.g08.bks.cpg/sg2_197_cif.got.tgz:392129.got - 2010.06.03 11:33:40.
