data_PCOD9075822
_publ_section_title
;
Structure prediction by ZEFSAII (Michael W. Deem and Ramdas Pophale) SiO2 
 PCOD9075822
Probable space group: P -1
;
_chemical_formula_sum "Si O2"
_cell_formula_units_Z 14
_cell_length_a 7.818536
_cell_length_b 17.934031
_cell_length_c 7.409532
_cell_angle_alpha 62.144226
_cell_angle_beta 55.409522
_cell_angle_gamma 39.559239
_cell_volume 543.849587
_symmetry_space_group_name_H-M "P -1"
_symmetry_group_IT_number 2
_symmetry_cell_setting 'triclinic'
loop_
_space_group_symop_operation_xyz
x,y,z
-x,-y,-z
loop_
_atom_site_type_symbol
_atom_site_label
_atom_site_fract_x
_atom_site_fract_y
_atom_site_fract_z
Si Si1 0.460438 0.894667 0.211733
Si Si2 0.085191 0.202499 0.621269
Si Si3 0.831071 0.879902 0.709077
Si Si4 0.480067 0.390825 0.923526
Si Si5 0.982184 0.586670 0.657024
Si Si6 0.730897 0.655372 0.327716
Si Si7 0.239065 0.621951 0.869689
O O1 0.695605 0.849059 0.283032
O O2 0.457576 0.794267 0.315146
O O3 0.183413 0.025467 0.293072
O O4 0.578556 0.900035 0.946887
O O5 0.199275 0.110916 0.498142
O O6 0.024916 0.311055 0.444107
O O7 0.769778 0.269520 0.809771
O O8 0.109274 0.743827 0.730904
O O9 0.382080 0.511765 0.777847
O O10 0.232023 0.392096 0.090502
O O11 0.556913 0.400331 0.070323
O O12 0.826935 0.620711 0.516009
O O13 0.250694 0.444785 0.645333
O O14 0.982519 0.640046 0.097482
#
# Coordination Sequence:
#
# PCOD9075822 Si02
#       7
#     2   2   2   2   2   2   2
#     4   9  18  35  55  83 104 144 190 217 260 326
#     4  11  20  35  58  85 106 143 180 221 276 321
#     4  10  19  33  59  80 108 145 185 220 266 320
#     4  10  18  32  56  78 114 139 178 224 268 327
#     4   9  17  29  54  85 107 140 173 221 279 317
#     4   8  14  30  51  77 103 134 182 208 264 318
#     4   9  17  32  52  82 105 145 182 216 269 322
#
# _framework density 25.742412000000002
#
# number of rings (size 3 to 8) (size 9 to 14) (size 15 to 20)
#    0.000    2.571    4.286    0.429    2.000    0.571 
#    0.000    6.429    9.429   11.143    0.000    0.000 
#    0.000    0.000    0.000    0.000    0.000    0.000 
#
# Total GULP energy -78245.974288 kJ/mol
# GULP energy per Si atom -5588.998163 kJ/mol
# Density = 2.568382 g / cm^3
# Si number density = 25.742412 Si / 1000 Ang^3
#
#
#
# Elastic Constant Matrix: (Units=GPa)
#
#
# Indices 1 2 3 4 5 6 
#
# 1 47.1829 10.7280 24.7892 8.1916 11.0181 13.5241
# 2 10.7280 148.1707 24.1840 1.7773 2.5336 17.0161
# 3 24.7892 24.1840 91.2022 0.0020 -2.3269 12.3151
# 4 8.1916 1.7773 0.0020 40.5388 12.4566 10.1959
# 5 11.0181 2.5336 -2.3269 12.4566 34.0529 -2.5891
# 6 13.5241 17.0161 12.3151 10.1959 -2.5891 41.1831
#
#
#
# Elastic Compliance Matrix: (Units=1/GPa)
#
#
# Indices 1 2 3 4 5 6 
#
# 1 0.029961 0.000160 -0.007350 -0.000761 -0.010552 -0.008182
# 2 0.000160 0.007344 -0.001636 0.000730 -0.001194 -0.002853
# 3 -0.007350 -0.001636 0.013610 0.000878 0.003032 -0.001007
# 4 -0.000761 0.000730 0.000878 0.030503 -0.011560 -0.008593
# 5 -0.010552 -0.001194 0.003032 -0.011560 0.037936 0.008299
# 6 -0.008182 -0.002853 -0.001007 -0.008593 0.008299 0.031098
#
#
# Mechanical properties :
#
#
# Convention : Reuss Voigt Hill
#
# Bulk Modulus (GPa) = 30.06515 45.10647 37.58581
# Shear Modulus (GPa) = 27.90331 38.27861 33.09096
#
# Velocity S-wave (km/s) = 3.29590 3.86033 3.58923
# Velocity P-wave (km/s) = 5.11747 6.11799 5.63996
#
# Compressibility (1/GPa) = 0.03326110
#
# Stress axis : x y z
#
# Youngs Moduli (GPa) = 33.37691 136.16992 73.47784
#
# Poissons Ratio (x) = -0.02173 0.54008
# Poissons Ratio (y) = -0.00533 0.12020
# Poissons Ratio (z) = 0.24533 0.22276
#
# Static dielectric constant tensor:
#      x y z
#    x 2.113480 -0.052260 0.061830 
#    y -0.052260 2.085310 -0.008580 
#    z 0.061830 -0.008580 2.063980 
# 
# From -- ./inp_files/214644.got.cif
#   From: 2010.05.17/outbox.cif.g08.bks.cpg/sg2_108_cif.got.tgz:214644.got - 2010.06.03 11:33:40.
