data_PCOD9075371
_publ_section_title
;
Structure prediction by ZEFSAII (Michael W. Deem and Ramdas Pophale) SiO2 
 PCOD9075371
Probable space group: P -1
;
_chemical_formula_sum "Si O2"
_cell_formula_units_Z 14
_cell_length_a 9.000000
_cell_length_b 12.000000
_cell_length_c 12.000000
_cell_angle_alpha 40.000000
_cell_angle_beta 120.000000
_cell_angle_gamma 130.000000
_cell_volume 638.079485
_symmetry_space_group_name_H-M "P -1"
_symmetry_group_IT_number 2
_symmetry_cell_setting 'triclinic'
loop_
_space_group_symop_operation_xyz
x,y,z
-x,-y,-z
loop_
_atom_site_type_symbol
_atom_site_label
_atom_site_fract_x
_atom_site_fract_y
_atom_site_fract_z
Si Si1 0.151859 0.472590 0.748777
Si Si2 0.030027 0.305822 0.594953
Si Si3 0.608739 0.717240 0.681637
Si Si4 0.317841 0.996972 0.725300
Si Si5 0.051635 0.122734 0.160837
Si Si6 0.780167 0.415551 0.932468
Si Si7 0.374010 0.616665 0.350865
O O1 0.025999 0.342838 0.696384
O O2 0.383668 0.577130 0.733930
O O3 0.112561 0.663506 0.570941
O O4 0.088948 0.311935 0.950702
O O5 0.224388 0.495046 0.483789
O O6 0.028369 0.096772 0.749985
O O7 0.738664 0.833236 0.746414
O O8 0.699637 0.569833 0.805746
O O9 0.654044 0.875934 0.475634
O O10 0.107515 0.919955 0.766979
O O11 0.484098 0.157930 0.742019
O O12 0.334774 0.795332 0.886778
O O13 0.739624 0.392015 0.800530
O O14 0.000000 0.500000 0.000000
O O15 0.500000 0.500000 0.500000
#
# Coordination Sequence:
#
# PCOD9075371 Si02
#       7
#     2   2   2   2   2   2   2
#     4  11  26  47  66  97 140 183 232 281 339 413
#     4  11  24  45  71  97 136 181 234 285 336 411
#     4  12  26  47  67 104 143 180 227 289 345 415
#     4  12  25  44  74 104 135 182 232 283 348 408
#     4  12  25  42  73  99 138 180 229 285 348 402
#     4  12  26  42  71 108 140 176 230 290 346 407
#     4  12  22  46  73 103 141 179 230 293 342 403
#
# _framework density 21.940840000000001
#
# number of rings (size 3 to 8) (size 9 to 14) (size 15 to 20)
#    0.000    0.286    5.714    2.571    2.000    1.714 
#    0.000    0.000    0.000    0.000    0.000    0.000 
#    0.000    0.000    0.000    0.000    0.000    0.000 
#
# Total GULP energy -77967.056077 kJ/mol
# GULP energy per Si atom -5569.075434 kJ/mol
# Density = 2.189090 g / cm^3
# Si number density = 21.940840 Si / 1000 Ang^3
#
#
#
# Elastic Constant Matrix: (Units=GPa)
#
#
# Indices 1 2 3 4 5 6 
#
# 1 65.9777 4.6904 27.7613 -5.7388 -5.7690 26.3704
# 2 4.6904 78.0863 21.4848 -15.7371 -4.2852 21.8549
# 3 27.7613 21.4848 200.9812 -14.6803 -18.6480 12.0887
# 4 -5.7388 -15.7371 -14.6803 54.7564 2.3061 6.4226
# 5 -5.7690 -4.2852 -18.6480 2.3061 37.8078 -3.7554
# 6 26.3704 21.8549 12.0887 6.4226 -3.7554 31.3703
#
#
#
# Elastic Compliance Matrix: (Units=1/GPa)
#
#
# Indices 1 2 3 4 5 6 
#
# 1 0.029154 0.009742 -0.002426 0.008946 0.000620 -0.032116
# 2 0.009742 0.021441 -0.001439 0.009667 0.000181 -0.024529
# 3 -0.002426 -0.001439 0.005666 0.000635 0.002323 0.001006
# 4 0.008946 0.009667 0.000635 0.024475 -0.000665 -0.019590
# 5 0.000620 0.000181 0.002323 -0.000665 0.027943 0.001939
# 6 -0.032116 -0.024529 0.001006 -0.019590 0.001939 0.079819
#
#
# Mechanical properties :
#
#
# Convention : Reuss Voigt Hill
#
# Bulk Modulus (GPa) = 14.70288 50.32423 32.51356
# Shear Modulus (GPa) = 25.07349 44.19416 34.63383
#
# Velocity S-wave (km/s) = 3.38417 4.49290 3.97736
# Velocity P-wave (km/s) = 4.68890 7.06406 5.99528
#
# Compressibility (1/GPa) = 0.06801387
#
# Stress axis : x y z
#
# Youngs Moduli (GPa) = 34.30116 46.64066 176.49537
#
# Poissons Ratio (x) = -0.45437 0.42811
# Poissons Ratio (y) = -0.33416 0.25405
# Poissons Ratio (z) = 0.08320 0.06714
#
# Static dielectric constant tensor:
#      x y z
#    x 1.986210 -0.083580 0.065530 
#    y -0.083580 1.888150 0.061640 
#    z 0.065530 0.061640 1.749320 
# 
# From -- ./inp_files/157659.got.cif
#   From: 2010.05.17/outbox.ucp.g08.bks.cvg/sg2_79_cif.got.tgz:157659.got - 2010.06.11 11:32:03.
