data_PCOD9075614
_publ_section_title
;
Structure prediction by ZEFSAII (Michael W. Deem and Ramdas Pophale) SiO2 
 PCOD9075614
Probable space group: P -1
;
_chemical_formula_sum "Si O2"
_cell_formula_units_Z 16
_cell_length_a 9.000000
_cell_length_b 9.000000
_cell_length_c 15.000000
_cell_angle_alpha 90.000000
_cell_angle_beta 40.000000
_cell_angle_gamma 100.000000
_cell_volume 751.948787
_symmetry_space_group_name_H-M "P -1"
_symmetry_group_IT_number 2
_symmetry_cell_setting 'triclinic'
loop_
_space_group_symop_operation_xyz
x,y,z
-x,-y,-z
loop_
_atom_site_type_symbol
_atom_site_label
_atom_site_fract_x
_atom_site_fract_y
_atom_site_fract_z
Si Si1 0.748808 0.006614 0.839541
Si Si2 0.009097 0.379945 0.729447
Si Si3 0.398421 0.091456 0.294356
Si Si4 0.813825 0.636195 0.552819
Si Si5 0.653691 0.625384 0.263007
Si Si6 0.051115 0.291307 0.209656
Si Si7 0.939510 0.314275 0.053141
Si Si8 0.257316 0.782284 0.474882
O O1 0.708462 0.976410 0.752107
O O2 0.815195 0.848546 0.843461
O O3 0.895346 0.190319 0.789544
O O4 0.500000 0.000000 0.000000
O O5 0.867496 0.518300 0.803662
O O6 0.118086 0.393110 0.579842
O O7 0.205743 0.424923 0.718752
O O8 0.253398 0.204004 0.401662
O O9 0.674482 0.200078 0.154854
O O10 0.344850 0.947091 0.386177
O O11 0.555016 0.510198 0.689022
O O12 0.050052 0.665755 0.508360
O O13 0.496449 0.729255 0.373762
O O14 0.851456 0.721295 0.103162
O O15 0.979741 0.294312 0.139254
O O16 0.850743 0.226953 0.376946
O O17 0.000000 0.500000 0.000000
#
# Coordination Sequence:
#
# PCOD9075614 Si02
#       8
#     2   2   2   2   2   2   2   2
#     4  12  29  50  76 115 162 209 261 328 390 473
#     4  12  26  49  77 115 157 204 266 322 394 460
#     4  12  26  50  77 109 166 200 262 332 388 468
#     4  12  23  47  77 108 154 201 257 325 384 456
#     4  12  27  46  76 109 155 200 265 314 386 468
#     4  12  28  50  79 115 155 204 271 314 397 466
#     4  12  27  51  75 114 154 211 256 327 391 466
#     4  12  27  46  75 118 150 205 259 322 389 462
#
# _framework density 21.278044999999999
#
# number of rings (size 3 to 8) (size 9 to 14) (size 15 to 20)
#    0.000    0.000    6.250    2.625    5.250    1.500 
#    0.000    0.000    0.000    0.000    0.000    0.000 
#    0.000    0.000    0.000    0.000    0.000    0.000 
#
# Total GULP energy -89171.530809 kJ/mol
# GULP energy per Si atom -5573.220676 kJ/mol
# Density = 2.122962 g / cm^3
# Si number density = 21.278045 Si / 1000 Ang^3
#
#
#
# Elastic Constant Matrix: (Units=GPa)
#
#
# Indices 1 2 3 4 5 6 
#
# 1 95.2205 39.0333 72.9548 -5.6194 14.8440 -15.9330
# 2 39.0333 148.1476 33.6888 -1.1557 -12.5484 -21.7855
# 3 72.9548 33.6888 117.2819 1.7767 -3.4732 -4.8436
# 4 -5.6194 -1.1557 1.7767 54.6953 0.4339 -3.4962
# 5 14.8440 -12.5484 -3.4732 0.4339 40.4124 -4.5081
# 6 -15.9330 -21.7855 -4.8436 -3.4962 -4.5081 40.0397
#
#
#
# Elastic Compliance Matrix: (Units=1/GPa)
#
#
# Indices 1 2 3 4 5 6 
#
# 1 0.027560 -0.003677 -0.016254 0.003759 -0.012036 0.005973
# 2 -0.003677 0.008625 0.000096 0.000005 0.004454 0.003743
# 3 -0.016254 0.000096 0.018716 -0.002561 0.007239 -0.003560
# 4 0.003759 0.000005 -0.002561 0.018935 -0.001504 0.002673
# 5 -0.012036 0.004454 0.007239 -0.001504 0.031401 0.001914
# 6 0.005973 0.003743 -0.003560 0.002673 0.001914 0.029407
#
#
# Mechanical properties :
#
#
# Convention : Reuss Voigt Hill
#
# Bulk Modulus (GPa) = 65.65613 72.44487 69.05050
# Shear Modulus (GPa) = 27.87199 41.36104 34.61651
#
# Velocity S-wave (km/s) = 3.62317 4.41368 4.03782
# Velocity P-wave (km/s) = 6.95891 7.75208 7.36618
#
# Compressibility (1/GPa) = 0.01523087
#
# Stress axis : x y z
#
# Youngs Moduli (GPa) = 36.28382 115.94595 53.43038
#
# Poissons Ratio (x) = 0.42634 0.86848
# Poissons Ratio (y) = 0.13342 -0.00514
# Poissons Ratio (z) = 0.58977 -0.01116
#
# Static dielectric constant tensor:
#      x y z
#    x 1.810690 -0.037080 -0.029740 
#    y -0.037080 1.890390 0.024730 
#    z -0.029740 0.024730 1.777030 
# 
# From -- ./inp_files/495026.got.cif
#   From: 2010.05.17/outbox.ucp.g08.bks.cvg/sg2_248_cif.got.tgz:495026.got - 2010.06.11 11:32:03.
