data_PCOD9075995
_publ_section_title
;
Structure prediction by ZEFSAII (Michael W. Deem and Ramdas Pophale) SiO2 
 PCOD9075995
Probable space group: P -1
;
_chemical_formula_sum "Si O2"
_cell_formula_units_Z 14
_cell_length_a 9.198571
_cell_length_b 9.857402
_cell_length_c 12.310132
_cell_angle_alpha 110.211279
_cell_angle_beta 123.987381
_cell_angle_gamma 108.116137
_cell_volume 661.638431
_symmetry_space_group_name_H-M "P -1"
_symmetry_group_IT_number 2
_symmetry_cell_setting 'triclinic'
loop_
_space_group_symop_operation_xyz
x,y,z
-x,-y,-z
loop_
_atom_site_type_symbol
_atom_site_label
_atom_site_fract_x
_atom_site_fract_y
_atom_site_fract_z
Si Si1 0.731961 0.311272 0.325158
Si Si2 0.366652 0.456907 0.545233
Si Si3 0.925663 0.923241 0.070561
Si Si4 0.651229 0.858041 0.524758
Si Si5 0.864219 0.204413 0.161823
Si Si6 0.423664 0.940840 0.605192
Si Si7 0.055421 0.685024 0.022925
O O1 0.583854 0.372278 0.318343
O O2 0.708797 0.228624 0.174272
O O3 0.676693 0.161733 0.351364
O O4 0.000000 0.500000 0.500000
O O5 0.500000 0.500000 0.500000
O O6 0.403673 0.330108 0.592544
O O7 0.103509 0.327210 0.361441
O O8 0.885148 0.727636 0.996953
O O9 0.784305 0.993790 0.060416
O O10 0.140693 0.046102 0.277370
O O11 0.000000 0.000000 0.000000
O O12 0.442134 0.814912 0.495588
O O13 0.707812 0.001286 0.494039
O O14 0.923467 0.299411 0.094540
O O15 0.686366 0.133806 0.781665
O O16 0.000000 0.500000 0.000000
#
# Coordination Sequence:
#
# PCOD9075995 Si02
#       7
#     2   2   2   2   2   2   2
#     4  10  21  36  56  84 114 146 184 231 289 338
#     4  10  18  32  58  85 108 141 190 234 274 334
#     4   8  16  34  54  78 106 145 184 224 270 331
#     4   9  18  32  55  84 108 141 185 238 274 322
#     4   9  20  36  55  80 113 146 185 230 284 335
#     4  10  20  34  53  82 116 145 184 231 286 329
#     4  10  21  35  57  82 110 148 192 234 279 332
#
# _framework density 21.159593000000001
#
# number of rings (size 3 to 8) (size 9 to 14) (size 15 to 20)
#    0.000    2.571    1.429    0.000    2.000    4.000 
#    0.000    7.857    0.000    1.714    0.000    0.000 
#    0.000    0.000    0.000    0.000    0.000    0.000 
#
# Total GULP energy -78021.580820 kJ/mol
# GULP energy per Si atom -5572.970059 kJ/mol
# Density = 2.111143 g / cm^3
# Si number density = 21.159593 Si / 1000 Ang^3
#
#
#
# Elastic Constant Matrix: (Units=GPa)
#
#
# Indices 1 2 3 4 5 6 
#
# 1 139.1785 68.3543 28.8947 10.6613 -32.7527 -28.0301
# 2 68.3543 164.4750 37.5409 -9.1120 -17.3315 -32.6813
# 3 28.8947 37.5409 59.0924 5.3864 -14.7897 -13.1462
# 4 10.6613 -9.1120 5.3864 30.2038 1.3501 3.3115
# 5 -32.7527 -17.3315 -14.7897 1.3501 39.9024 11.0031
# 6 -28.0301 -32.6813 -13.1462 3.3115 11.0031 37.3023
#
#
#
# Elastic Compliance Matrix: (Units=1/GPa)
#
#
# Indices 1 2 3 4 5 6 
#
# 1 0.012071 -0.003712 -0.000248 -0.006114 0.007272 0.004128
# 2 -0.003712 0.009454 -0.004120 0.004520 -0.001768 0.004162
# 3 -0.000248 -0.004120 0.022233 -0.005688 0.005646 0.002879
# 4 -0.006114 0.004520 -0.005688 0.038372 -0.005219 -0.004506
# 5 0.007272 -0.001768 0.005646 -0.005219 0.033500 -0.003513
# 6 0.004128 0.004162 0.002879 -0.004506 -0.003513 0.036008
#
#
# Mechanical properties :
#
#
# Convention : Reuss Voigt Hill
#
# Bulk Modulus (GPa) = 36.23400 70.25841 53.24620
# Shear Modulus (GPa) = 28.24914 36.67877 32.46396
#
# Velocity S-wave (km/s) = 3.65780 4.16797 3.92119
# Velocity P-wave (km/s) = 5.91613 7.51257 6.76163
#
# Compressibility (1/GPa) = 0.02759839
#
# Stress axis : x y z
#
# Youngs Moduli (GPa) = 82.84534 105.77603 44.97750
#
# Poissons Ratio (x) = 0.39263 0.01117
# Poissons Ratio (y) = 0.30751 0.18529
# Poissons Ratio (z) = 0.02057 0.43575
#
# Static dielectric constant tensor:
#      x y z
#    x 1.841210 -0.034090 0.029260 
#    y -0.034090 1.792020 0.055700 
#    z 0.029260 0.055700 1.845330 
# 
# From -- ./inp_files/174729.got.cif
#   From: 2010.05.17/outbox.cif.g08.bks.cpg/sg2_88_cif.got.tgz:174729.got - 2010.06.03 11:33:40.
