data_PCOD9075395
_publ_section_title
;
Structure prediction by ZEFSAII (Michael W. Deem and Ramdas Pophale) SiO2 
 PCOD9075395
Probable space group: P -1
;
_chemical_formula_sum "Si O2"
_cell_formula_units_Z 12
_cell_length_a 12.000000
_cell_length_b 9.000000
_cell_length_c 15.000000
_cell_angle_alpha 130.000000
_cell_angle_beta 150.000000
_cell_angle_gamma 40.000000
_cell_volume 519.584618
_symmetry_space_group_name_H-M "P -1"
_symmetry_group_IT_number 2
_symmetry_cell_setting 'triclinic'
loop_
_space_group_symop_operation_xyz
x,y,z
-x,-y,-z
loop_
_atom_site_type_symbol
_atom_site_label
_atom_site_fract_x
_atom_site_fract_y
_atom_site_fract_z
Si Si1 0.669745 0.186576 0.979841
Si Si2 0.319734 0.090141 0.821992
Si Si3 0.276552 0.499935 0.403009
Si Si4 0.788807 0.445512 0.297117
Si Si5 0.015968 0.345309 0.036140
Si Si6 0.580089 0.370282 0.281831
O O1 0.436026 0.206122 0.887525
O O2 0.501178 0.316352 0.824909
O O3 0.804762 0.311552 0.165904
O O4 0.883409 0.914818 0.017888
O O5 0.013395 0.261319 0.700630
O O6 0.368890 0.857182 0.720791
O O7 0.500000 0.000000 0.000000
O O8 0.500000 0.500000 0.500000
O O9 0.382610 0.466410 0.563864
O O10 0.206920 0.335191 0.241387
O O11 0.784106 0.288978 0.311579
O O12 0.000000 0.500000 0.500000
O O13 0.710483 0.491118 0.907870
O O14 0.000000 0.500000 0.000000
#
# Coordination Sequence:
#
# PCOD9075395 Si02
#       6
#     2   2   2   2   2   2
#     4  11  24  46  72  97 139 184 229 284 345 415
#     4  12  21  43  73 100 134 185 231 287 346 400
#     4  12  24  38  65 105 140 172 225 287 348 402
#     4  11  26  46  68  98 137 187 235 278 339 417
#     4  12  23  44  69 105 141 175 227 293 353 399
#     4  12  25  42  71 101 138 181 232 286 342 413
#
# _framework density 23.095372000000001
#
# number of rings (size 3 to 8) (size 9 to 14) (size 15 to 20)
#    0.000    0.333    6.667    1.500    0.000    4.667 
#    0.000    1.667    0.000    0.000    0.000    0.000 
#    0.000    0.000    0.000    0.000    0.000    0.000 
#
# Total GULP energy -66989.208074 kJ/mol
# GULP energy per Si atom -5582.434006 kJ/mol
# Density = 2.304281 g / cm^3
# Si number density = 23.095372 Si / 1000 Ang^3
#
#
#
# Elastic Constant Matrix: (Units=GPa)
#
#
# Indices 1 2 3 4 5 6 
#
# 1 61.0793 6.1161 15.0704 1.2156 10.8386 7.0482
# 2 6.1161 121.7749 15.5942 18.3707 18.9741 -2.3912
# 3 15.0704 15.5942 148.9674 33.0653 10.2573 -2.6405
# 4 1.2156 18.3707 33.0653 31.9786 -9.7804 3.4188
# 5 10.8386 18.9741 10.2573 -9.7804 35.9404 -7.2128
# 6 7.0482 -2.3912 -2.6405 3.4188 -7.2128 31.9267
#
#
#
# Elastic Compliance Matrix: (Units=1/GPa)
#
#
# Indices 1 2 3 4 5 6 
#
# 1 0.018535 0.000340 -0.001316 -0.001018 -0.006795 -0.005601
# 2 0.000340 0.011182 0.002012 -0.011484 -0.009713 -0.000036
# 3 -0.001316 0.002012 0.010268 -0.014045 -0.007183 0.001172
# 4 -0.001018 -0.011484 -0.014045 0.060767 0.026447 -0.002329
# 5 -0.006795 -0.009713 -0.007183 0.026447 0.045791 0.007692
# 6 -0.005601 -0.000036 0.001172 -0.002329 0.007692 0.034640
#
#
# Mechanical properties :
#
#
# Convention : Reuss Voigt Hill
#
# Bulk Modulus (GPa) = 23.77680 45.04254 34.40967
# Shear Modulus (GPa) = 25.88922 39.63855 32.76388
#
# Velocity S-wave (km/s) = 3.35172 4.14732 3.77056
# Velocity P-wave (km/s) = 5.02952 6.51758 5.82129
#
# Compressibility (1/GPa) = 0.04205781
#
# Stress axis : x y z
#
# Youngs Moduli (GPa) = 53.95131 89.42771 97.38754
#
# Poissons Ratio (x) = -0.03040 0.12817
# Poissons Ratio (y) = -0.01834 -0.19596
# Poissons Ratio (z) = 0.07101 -0.17995
#
# Static dielectric constant tensor:
#      x y z
#    x 1.943790 0.029320 0.002520 
#    y 0.029320 1.729660 0.069700 
#    z 0.002520 0.069700 1.874730 
# 
# From -- ./inp_files/251553.got.cif
#   From: 2010.05.17/outbox.ucp.g08.bks.cvg/sg2_126_cif.got.tgz:251553.got - 2010.06.11 11:32:03.
