data_PCOD9075074
_publ_section_title
;
Structure prediction by ZEFSAII (Michael W. Deem and Ramdas Pophale) SiO2 
 PCOD9075074
Probable space group: P -1
;
_chemical_formula_sum "Si O2"
_cell_formula_units_Z 16
_cell_length_a 9.000000
_cell_length_b 21.000000
_cell_length_c 24.000000
_cell_angle_alpha 20.000000
_cell_angle_beta 30.000000
_cell_angle_gamma 30.000000
_cell_volume 738.640068
_symmetry_space_group_name_H-M "P -1"
_symmetry_group_IT_number 2
_symmetry_cell_setting 'triclinic'
loop_
_space_group_symop_operation_xyz
x,y,z
-x,-y,-z
loop_
_atom_site_type_symbol
_atom_site_label
_atom_site_fract_x
_atom_site_fract_y
_atom_site_fract_z
Si Si1 0.659753 0.232851 0.866617
Si Si2 0.736066 0.827984 0.635788
Si Si3 0.093979 0.193658 0.911986
Si Si4 0.380884 0.325447 0.078046
Si Si5 0.713435 0.532910 0.288410
Si Si6 0.791752 0.658615 0.369294
Si Si7 0.413090 0.073498 0.175922
Si Si8 0.224345 0.794671 0.744068
O O1 0.335191 0.365007 0.839880
O O2 0.872698 0.375343 0.684718
O O3 0.642386 0.156972 0.996960
O O4 0.781946 0.040922 0.945780
O O5 0.701436 0.749467 0.773852
O O6 0.448688 0.810380 0.707829
O O7 0.026036 0.674446 0.635415
O O8 0.734169 0.054284 0.442498
O O9 0.234897 0.308827 0.816321
O O10 0.165430 0.280955 0.757941
O O11 0.744282 0.245051 0.008013
O O12 0.254717 0.210073 0.166279
O O13 0.283527 0.560882 0.909066
O O14 0.394876 0.494825 0.442256
O O15 0.586844 0.849291 0.313549
O O16 0.122901 0.097142 0.210663
#
# Coordination Sequence:
#
# PCOD9075074 Si02
#       8
#     2   2   2   2   2   2   2   2
#     4  11  23  43  68  98 130 179 223 273 342 401
#     4  11  26  44  67 101 136 173 226 278 333 402
#     4  11  23  43  67  98 131 177 226 273 338 406
#     4  12  23  44  69  97 138 177 221 278 335 398
#     4  12  24  43  67  99 134 174 224 282 336 396
#     4  11  22  46  66  93 136 174 220 282 333 400
#     4  11  22  43  69  91 133 178 221 273 336 401
#     4  11  24  45  67  98 134 180 221 277 337 392
#
# _framework density 21.661429999999999
#
# number of rings (size 3 to 8) (size 9 to 14) (size 15 to 20)
#    0.000    0.750    5.000    3.375    1.750    0.500 
#    4.500    0.000    0.000    0.000    0.000    0.000 
#    0.000    0.000    0.000    0.000    0.000    0.000 
#
# Total GULP energy -89076.075167 kJ/mol
# GULP energy per Si atom -5567.254698 kJ/mol
# Density = 2.161213 g / cm^3
# Si number density = 21.661430 Si / 1000 Ang^3
#
#
#
# Elastic Constant Matrix: (Units=GPa)
#
#
# Indices 1 2 3 4 5 6 
#
# 1 89.0368 30.5829 44.7931 -2.4590 -6.7089 3.0746
# 2 30.5829 44.4134 -2.6312 1.6166 1.8353 4.7753
# 3 44.7931 -2.6312 77.8409 6.9309 -4.1511 3.6710
# 4 -2.4590 1.6166 6.9309 32.5974 -1.9416 -2.4845
# 5 -6.7089 1.8353 -4.1511 -1.9416 25.8024 -4.2552
# 6 3.0746 4.7753 3.6710 -2.4845 -4.2552 26.5612
#
#
#
# Elastic Compliance Matrix: (Units=1/GPa)
#
#
# Indices 1 2 3 4 5 6 
#
# 1 0.027807 -0.021275 -0.017238 0.007627 0.007349 0.004879
# 2 -0.021275 0.039552 0.014245 -0.007733 -0.008058 -0.008631
# 3 -0.017238 0.014245 0.024009 -0.007681 -0.003050 -0.005091
# 4 0.007627 -0.007733 -0.007681 0.033973 0.004762 0.005510
# 5 0.007349 -0.008058 -0.003050 0.004762 0.042471 0.008269
# 6 0.004879 -0.008631 -0.005091 0.005510 0.008269 0.041180
#
#
# Mechanical properties :
#
#
# Convention : Reuss Voigt Hill
#
# Bulk Modulus (GPa) = 23.34647 39.64231 31.49439
# Shear Modulus (GPa) = 18.39560 26.22861 22.31210
#
# Velocity S-wave (km/s) = 2.91732 3.48349 3.21290
# Velocity P-wave (km/s) = 4.70627 5.87539 5.32303
#
# Compressibility (1/GPa) = 0.04283303
#
# Stress axis : x y z
#
# Youngs Moduli (GPa) = 35.96234 25.28328 41.65107
#
# Poissons Ratio (x) = 0.53790 0.71797
# Poissons Ratio (y) = 0.76509 -0.59333
# Poissons Ratio (z) = 0.61991 -0.36017
#
# Static dielectric constant tensor:
#      x y z
#    x 1.904120 -0.055070 -0.044910 
#    y -0.055070 1.770610 0.026990 
#    z -0.044910 0.026990 1.819900 
# 
# From -- ./inp_files/223209.got.cif
#   From: 2010.05.17/outbox.ucp.g08.bks.cvg/sg2_112_cif.got.tgz:223209.got - 2010.06.11 11:32:03.
