data_PCOD9075558
_publ_section_title
;
Structure prediction by ZEFSAII (Michael W. Deem and Ramdas Pophale) SiO2 
 PCOD9075558
Probable space group: P -1
;
_chemical_formula_sum "Si O2"
_cell_formula_units_Z 14
_cell_length_a 21.000000
_cell_length_b 21.000000
_cell_length_c 12.000000
_cell_angle_alpha 20.000000
_cell_angle_beta 30.000000
_cell_angle_gamma 20.000000
_cell_volume 612.476904
_symmetry_space_group_name_H-M "P -1"
_symmetry_group_IT_number 2
_symmetry_cell_setting 'triclinic'
loop_
_space_group_symop_operation_xyz
x,y,z
-x,-y,-z
loop_
_atom_site_type_symbol
_atom_site_label
_atom_site_fract_x
_atom_site_fract_y
_atom_site_fract_z
Si Si1 0.170270 0.326896 0.666574
Si Si2 0.354049 0.762674 0.209790
Si Si3 0.201654 0.208411 0.394643
Si Si4 0.816617 0.055532 0.342149
Si Si5 0.800019 0.406308 0.371644
Si Si6 0.600197 0.033004 0.876076
Si Si7 0.418088 0.354186 0.165428
O O1 0.239209 0.409745 0.339206
O O2 0.958594 0.599433 0.582923
O O3 0.241340 0.058265 0.945712
O O4 0.292950 0.189741 0.821284
O O5 0.500000 0.500000 0.500000
O O6 0.193048 0.780807 0.408215
O O7 0.480330 0.683989 0.038918
O O8 0.196728 0.029676 0.617396
O O9 0.414348 0.959252 0.526136
O O10 0.172407 0.423565 0.008490
O O11 0.749241 0.988276 0.652615
O O12 0.675248 0.383074 0.044252
O O13 0.043042 0.816150 0.409741
O O14 0.579197 0.650202 0.338164
O O15 0.500000 0.000000 0.000000
#
# Coordination Sequence:
#
# PCOD9075558 Si02
#       7
#     2   2   2   2   2   2   2
#     4  12  26  46  70 106 148 188 235 297 357 425
#     4  12  26  51  74 101 143 192 249 292 353 430
#     4  12  26  46  74 110 145 187 235 295 368 421
#     4  12  25  45  74 112 145 187 243 292 358 429
#     4  12  24  44  74 107 139 191 242 292 348 423
#     4  12  21  43  74 105 145 188 236 295 350 423
#     4  12  27  48  71 106 146 189 235 300 364 420
#
# _framework density 22.858004999999999
#
# number of rings (size 3 to 8) (size 9 to 14) (size 15 to 20)
#    0.000    0.000    7.143    2.143    2.000    1.714 
#    2.571    0.000    0.000    0.000    0.000    0.000 
#    0.000    0.000    0.000    0.000    0.000    0.000 
#
# Total GULP energy -78080.072544 kJ/mol
# GULP energy per Si atom -5577.148039 kJ/mol
# Density = 2.280598 g / cm^3
# Si number density = 22.858005 Si / 1000 Ang^3
#
#
#
# Elastic Constant Matrix: (Units=GPa)
#
#
# Indices 1 2 3 4 5 6 
#
# 1 38.7171 3.4214 5.5189 -13.5981 -27.8922 12.8898
# 2 3.4214 130.2007 27.0108 -26.6230 -1.3125 26.4736
# 3 5.5189 27.0108 80.5253 -31.1460 -34.7290 18.8159
# 4 -13.5981 -26.6230 -31.1460 22.1543 0.6940 -8.7007
# 5 -27.8922 -1.3125 -34.7290 0.6940 26.3853 -15.9491
# 6 12.8898 26.4736 18.8159 -8.7007 -15.9491 33.1846
#
#
#
# Elastic Compliance Matrix: (Units=1/GPa)
#
#
# Indices 1 2 3 4 5 6 
#
# 1 0.005225 0.000264 -0.018555 -0.025803 -0.024371 -0.010198
# 2 0.000264 0.011625 -0.001429 0.008508 -0.007156 -0.009775
# 3 -0.018555 -0.001429 0.000860 -0.013682 -0.022003 -0.006304
# 4 -0.025803 0.008508 -0.013682 0.018585 -0.050405 -0.008360
# 5 -0.024371 -0.007156 -0.022003 -0.050405 -0.010048 0.009606
# 6 -0.010198 -0.009775 -0.006304 -0.008360 0.009606 0.047893
#
#
# Mechanical properties :
#
#
# Convention : Reuss Voigt Hill
#
# Bulk Modulus (GPa) = -46.02048 35.70503 -5.15772
# Shear Modulus (GPa) = 47.02036 30.57765 38.79900
#
# Velocity S-wave (km/s) = 4.54041 3.66146 4.12441
# Velocity P-wave (km/s) = 2.70373 5.79045 4.51882
#
# Compressibility (1/GPa) = -0.02172946
#
# Stress axis : x y z
#
# Youngs Moduli (GPa) = 191.38638 86.02085 1162.14900
#
# Poissons Ratio (x) = -0.02268 21.56356
# Poissons Ratio (y) = -0.05046 1.66045
# Poissons Ratio (z) = 3.55116 0.12290
#
# Static dielectric constant tensor:
#      x y z
#    x 2.087610 0.020020 -0.073980 
#    y 0.020020 1.870790 -0.028960 
#    z -0.073980 -0.028960 1.888430 
# 
# From -- ./inp_files/233165.got.cif
#   From: 2010.05.17/outbox.ucp.g08.bks.cvg/sg2_117_cif.got.tgz:233165.got - 2010.06.11 11:32:03.
