data_PCOD9075439
_publ_section_title
;
Structure prediction by ZEFSAII (Michael W. Deem and Ramdas Pophale) SiO2 
 PCOD9075439
Probable space group: P -1
;
_chemical_formula_sum "Si O2"
_cell_formula_units_Z 15
_cell_length_a 9.000000
_cell_length_b 6.000000
_cell_length_c 12.000000
_cell_angle_alpha 80.000000
_cell_angle_beta 100.000000
_cell_angle_gamma 100.000000
_cell_volume 621.543548
_symmetry_space_group_name_H-M "P -1"
_symmetry_group_IT_number 2
_symmetry_cell_setting 'triclinic'
loop_
_space_group_symop_operation_xyz
x,y,z
-x,-y,-z
loop_
_atom_site_type_symbol
_atom_site_label
_atom_site_fract_x
_atom_site_fract_y
_atom_site_fract_z
Si Si1 0.296435 0.305795 0.474495
Si Si2 0.490420 0.478427 0.690649
Si Si3 0.765362 0.275543 0.256199
Si Si4 0.500758 0.049419 0.860787
Si Si5 0.069235 0.729758 0.933459
Si Si6 0.949865 0.393260 0.641121
Si Si7 0.000000 0.000000 0.500000
Si Si8 0.174256 0.961709 0.154167
O O1 0.420495 0.332307 0.586348
O O2 0.379986 0.338623 0.363656
O O3 0.192628 0.510607 0.442011
O O4 0.180726 0.072599 0.490704
O O5 0.353289 0.594438 0.709871
O O6 0.537835 0.317120 0.808532
O O7 0.658705 0.039098 0.219292
O O8 0.818379 0.353081 0.134033
O O9 0.927159 0.366846 0.337777
O O10 0.644505 0.952252 0.831010
O O11 0.500000 0.000000 0.000000
O O12 0.145350 0.893643 0.026252
O O13 0.938539 0.855120 0.849112
O O14 0.000000 0.500000 0.000000
O O15 0.885140 0.256836 0.756051
O O16 0.014303 0.203344 0.589145
#
# Coordination Sequence:
#
# PCOD9075439 Si02
#       8
#     2   2   2   2   2   2   1   2
#     4  11  27  51  76 112 154 201 268 319 386 469
#     4  11  28  50  75 113 157 205 251 328 395 453
#     4  12  28  44  76 111 155 200 257 320 388 460
#     4  12  28  49  75 113 158 204 257 317 392 469
#     4  11  25  44  76 107 152 200 265 319 380 458
#     4  12  27  47  75 113 154 200 264 321 384 462
#     4  12  28  46  82 108 144 204 260 320 380 460
#     4  11  26  48  73 109 152 207 255 317 389 458
#
# _framework density 24.133465999999999
#
# number of rings (size 3 to 8) (size 9 to 14) (size 15 to 20)
#    0.000    0.533    5.333    0.400    9.333    1.600 
#    0.000    2.667    0.000    0.000    0.000    0.000 
#    0.000    0.000    0.000    0.000    0.000    0.000 
#
# Total GULP energy -83505.998632 kJ/mol
# GULP energy per Si atom -5567.066575 kJ/mol
# Density = 2.407854 g / cm^3
# Si number density = 24.133466 Si / 1000 Ang^3
#
#
#
# Elastic Constant Matrix: (Units=GPa)
#
#
# Indices 1 2 3 4 5 6 
#
# 1 101.4505 -2.0482 30.0457 -0.5553 -29.2813 27.6123
# 2 -2.0482 13.0611 -0.7307 18.0418 -8.1827 19.2423
# 3 30.0457 -0.7307 116.6814 -0.0177 -23.1284 3.0093
# 4 -0.5553 18.0418 -0.0177 44.2682 1.1007 -4.7105
# 5 -29.2813 -8.1827 -23.1284 1.1007 54.5875 0.6673
# 6 27.6123 19.2423 3.0093 -4.7105 0.6673 41.5769
#
#
#
# Elastic Compliance Matrix: (Units=1/GPa)
#
#
# Indices 1 2 3 4 5 6 
#
# 1 0.008218 -0.023424 -0.002528 0.010378 -0.000466 0.006749
# 2 -0.023424 -0.075241 -0.000939 0.036865 -0.025658 0.055035
# 3 -0.002528 -0.000939 0.009691 0.000442 0.002583 0.001421
# 4 0.010378 0.036865 0.000442 0.004897 0.011470 -0.023615
# 5 -0.000466 -0.025658 0.002583 0.011470 0.014927 0.013057
# 6 0.006749 0.055035 0.001421 -0.023615 0.013057 -0.008889
#
#
# Mechanical properties :
#
#
# Convention : Reuss Voigt Hill
#
# Bulk Modulus (GPa) = -8.99980 31.74739 11.37380
# Shear Modulus (GPa) = -168.60998 41.68161 -63.46419
#
# Velocity S-wave (km/s) = -8.36763 4.16038 -5.13364
# Velocity P-wave (km/s) = 9.85361 6.02178 5.51506
#
# Compressibility (1/GPa) = -0.11111359
#
# Stress axis : x y z
#
# Youngs Moduli (GPa) = 121.68221 -13.29059 103.19088
#
# Poissons Ratio (x) = -0.31132 0.26083
# Poissons Ratio (y) = 2.85027 0.09691
# Poissons Ratio (z) = 0.30757 -0.01248
#
# Static dielectric constant tensor:
#      x y z
#    x 2.035170 -0.027740 0.111620 
#    y -0.027740 2.234090 -0.171080 
#    z 0.111620 -0.171080 2.129880 
# 
# From -- ./inp_files/372996.got.cif
#   From: 2010.05.17/outbox.ucp.g08.bks.cvg/sg2_187_cif.got.tgz:372996.got - 2010.06.11 11:32:03.
