data_PCOD9075538
_publ_section_title
;
Structure prediction by ZEFSAII (Michael W. Deem and Ramdas Pophale) SiO2 
 PCOD9075538
Probable space group: P -1
;
_chemical_formula_sum "Si O2"
_cell_formula_units_Z 16
_cell_length_a 9.000000
_cell_length_b 15.000000
_cell_length_c 15.000000
_cell_angle_alpha 150.000000
_cell_angle_beta 110.000000
_cell_angle_gamma 90.000000
_cell_volume 738.562284
_symmetry_space_group_name_H-M "P -1"
_symmetry_group_IT_number 2
_symmetry_cell_setting 'triclinic'
loop_
_space_group_symop_operation_xyz
x,y,z
-x,-y,-z
loop_
_atom_site_type_symbol
_atom_site_label
_atom_site_fract_x
_atom_site_fract_y
_atom_site_fract_z
Si Si1 0.058982 0.666424 0.437229
Si Si2 0.397877 0.476789 0.066604
Si Si3 0.189129 0.166184 0.426947
Si Si4 0.981099 0.254666 0.846206
Si Si5 0.273751 0.983068 0.586173
Si Si6 0.709936 0.334593 0.945161
Si Si7 0.400974 0.741329 0.706604
Si Si8 0.229365 0.220806 0.274878
O O1 0.219184 0.681456 0.549678
O O2 0.973196 0.787614 0.566436
O O3 0.181871 0.807103 0.495419
O O4 0.843434 0.435462 0.151164
O O5 0.323977 0.219758 0.832896
O O6 0.221726 0.448502 0.062835
O O7 0.613927 0.654164 0.313709
O O8 0.362092 0.537114 0.012123
O O9 0.244423 0.182238 0.349254
O O10 0.082538 0.923346 0.241906
O O11 0.862424 0.350107 0.922739
O O12 0.885185 0.116724 0.614101
O O13 0.499188 0.075786 0.685896
O O14 0.289265 0.479628 0.502165
O O15 0.599146 0.781811 0.740375
O O16 0.500000 0.000000 0.000000
O O17 0.000000 0.000000 0.000000
#
# Coordination Sequence:
#
# PCOD9075538 Si02
#       8
#     2   2   2   2   2   2   2   2
#     4  12  27  45  73 106 145 199 247 310 378 453
#     4  12  24  43  67  97 149 198 245 301 363 448
#     4  12  27  45  73 106 146 199 246 309 381 449
#     4  12  26  40  66 102 149 193 247 307 363 449
#     4  12  24  43  66  99 146 197 249 296 366 447
#     4  12  26  40  66 103 146 195 249 301 372 443
#     4  11  29  54  85 116 154 197 258 325 393 464
#     4  11  29  54  84 117 153 197 258 325 393 465
#
# _framework density 21.663710999999999
#
# number of rings (size 3 to 8) (size 9 to 14) (size 15 to 20)
#    0.000    0.250    5.000    3.000    7.000    3.000 
#    0.000    0.000    0.000    0.000    0.000    0.000 
#    0.000    0.000    0.000    0.000    0.000    0.000 
#
# Total GULP energy -89246.167336 kJ/mol
# GULP energy per Si atom -5577.885459 kJ/mol
# Density = 2.161440 g / cm^3
# Si number density = 21.663711 Si / 1000 Ang^3
#
#
#
# Elastic Constant Matrix: (Units=GPa)
#
#
# Indices 1 2 3 4 5 6 
#
# 1 114.2259 24.8681 17.8322 -4.9038 16.4788 -17.3096
# 2 24.8681 142.1110 45.1602 -9.4485 8.2375 -10.6298
# 3 17.8322 45.1602 105.9783 -9.7113 16.1631 -5.7795
# 4 -4.9038 -9.4485 -9.7113 39.0044 -4.9646 6.8885
# 5 16.4788 8.2375 16.1631 -4.9646 49.7106 -2.0144
# 6 -17.3096 -10.6298 -5.7795 6.8885 -2.0144 42.8287
#
#
#
# Elastic Compliance Matrix: (Units=1/GPa)
#
#
# Indices 1 2 3 4 5 6 
#
# 1 0.010040 -0.001148 -0.000589 -0.000154 -0.002816 0.003585
# 2 -0.001148 0.008407 -0.003277 0.000916 0.000187 0.001042
# 3 -0.000589 -0.003277 0.011519 0.001619 -0.002841 0.000109
# 4 -0.000154 0.000916 0.001619 0.027178 0.001929 -0.003897
# 5 -0.002816 0.000187 -0.002841 0.001929 0.022105 -0.000746
# 6 0.003585 0.001042 0.000109 -0.003897 -0.000746 0.025663
#
#
# Mechanical properties :
#
#
# Convention : Reuss Voigt Hill
#
# Bulk Modulus (GPa) = 50.15844 59.78179 54.97011
# Shear Modulus (GPa) = 41.12321 44.60572 42.86446
#
# Velocity S-wave (km/s) = 4.36162 4.54255 4.45300
# Velocity P-wave (km/s) = 6.96911 7.42754 7.20197
#
# Compressibility (1/GPa) = 0.01993682
#
# Stress axis : x y z
#
# Youngs Moduli (GPa) = 99.60574 118.94730 86.81305
#
# Poissons Ratio (x) = 0.13661 0.05113
# Poissons Ratio (y) = 0.11440 0.28448
# Poissons Ratio (z) = 0.05866 0.38979
#
# Static dielectric constant tensor:
#      x y z
#    x 1.908460 0.038760 -0.023340 
#    y 0.038760 1.789460 0.037070 
#    z -0.023340 0.037070 1.849860 
# 
# From -- ./inp_files/505930.got.cif
#   From: 2010.05.17/outbox.ucp.g08.bks.cvg/sg2_253_cif.got.tgz:505930.got - 2010.06.11 11:32:03.
