data_PCOD9075826
_publ_section_title
;
Structure prediction by ZEFSAII (Michael W. Deem and Ramdas Pophale) SiO2 
 PCOD9075826
Probable space group: P -1
;
_chemical_formula_sum "Si O2"
_cell_formula_units_Z 14
_cell_length_a 12.594538
_cell_length_b 11.598251
_cell_length_c 12.115583
_cell_angle_alpha 85.420189
_cell_angle_beta 53.498791
_cell_angle_gamma 130.432844
_cell_volume 702.484790
_symmetry_space_group_name_H-M "P -1"
_symmetry_group_IT_number 2
_symmetry_cell_setting 'triclinic'
loop_
_space_group_symop_operation_xyz
x,y,z
-x,-y,-z
loop_
_atom_site_type_symbol
_atom_site_label
_atom_site_fract_x
_atom_site_fract_y
_atom_site_fract_z
Si Si1 0.091474 0.385870 0.905692
Si Si2 0.220078 0.068509 0.842331
Si Si3 0.216938 0.716624 0.700498
Si Si4 0.512603 0.379027 0.828159
Si Si5 0.580774 0.691665 0.723638
Si Si6 0.772332 0.488327 0.864686
Si Si7 0.973153 0.071176 0.267939
O O1 0.213698 0.576660 0.736252
O O2 0.329233 0.497970 0.810105
O O3 0.934827 0.338628 0.099247
O O4 0.885460 0.129119 0.018895
O O5 0.478844 0.308150 0.729762
O O6 0.215161 0.052803 0.713758
O O7 0.000000 0.000000 0.000000
O O8 0.012065 0.584034 0.736811
O O9 0.500000 0.000000 0.500000
O O10 0.626380 0.596274 0.744548
O O11 0.673794 0.418796 0.806257
O O12 0.213704 0.168790 0.078440
O O13 0.820603 0.914231 0.482289
O O14 0.482826 0.705331 0.879005
O O15 0.896456 0.707316 0.801466
#
# Coordination Sequence:
#
# PCOD9075826 Si02
#       7
#     2   2   2   2   2   2   2
#     4  10  19  34  56  83 106 139 188 234 262 313
#     4  10  18  37  53  82 116 147 176 219 273 330
#     4  10  20  36  58  81 102 140 192 236 266 307
#     4  10  21  34  50  78 122 141 171 223 279 331
#     4  10  18  32  56  82 105 142 188 223 270 319
#     4  10  20  36  52  79 110 142 178 236 272 314
#     4  10  18  32  56  79 108 146 185 221 265 324
#
# _framework density 19.929258000000001
#
# number of rings (size 3 to 8) (size 9 to 14) (size 15 to 20)
#    0.000    2.000    5.714    2.571    0.000    2.857 
#    0.000    0.714    0.000    0.857    0.000    0.000 
#    0.000    0.000    0.000    0.000    0.000    0.000 
#
# Total GULP energy -77991.898084 kJ/mol
# GULP energy per Si atom -5570.849863 kJ/mol
# Density = 1.988390 g / cm^3
# Si number density = 19.929258 Si / 1000 Ang^3
#
#
#
# Elastic Constant Matrix: (Units=GPa)
#
#
# Indices 1 2 3 4 5 6 
#
# 1 119.1697 27.9665 28.8255 -10.4784 12.2711 14.9554
# 2 27.9665 45.5592 -3.3071 0.6311 1.1112 14.0208
# 3 28.8255 -3.3071 93.7810 -9.9903 15.9098 1.9964
# 4 -10.4784 0.6311 -9.9903 8.2056 -1.8145 4.6101
# 5 12.2711 1.1112 15.9098 -1.8145 20.8482 -1.7981
# 6 14.9554 14.0208 1.9964 4.6101 -1.7981 37.6186
#
#
#
# Elastic Compliance Matrix: (Units=1/GPa)
#
#
# Indices 1 2 3 4 5 6 
#
# 1 0.012923 -0.006638 -0.001436 0.016888 -0.005109 -0.004901
# 2 -0.006638 0.028758 0.003096 -0.002646 -0.000905 -0.007963
# 3 -0.001436 0.003096 0.014554 0.015664 -0.009384 -0.003723
# 4 0.016888 -0.002646 0.015664 0.176854 -0.008832 -0.028654
# 5 -0.005109 -0.000905 -0.009384 -0.008832 0.057994 0.006721
# 6 -0.004901 -0.007963 -0.003723 -0.028654 0.006721 0.035529
#
#
# Mechanical properties :
#
#
# Convention : Reuss Voigt Hill
#
# Bulk Modulus (GPa) = 21.60850 40.60886 31.10868
# Shear Modulus (GPa) = 14.20483 27.00279 20.60381
#
# Velocity S-wave (km/s) = 2.67266 3.68493 3.21884
# Velocity P-wave (km/s) = 4.51556 6.20691 5.42752
#
# Compressibility (1/GPa) = 0.04627807
#
# Stress axis : x y z
#
# Youngs Moduli (GPa) = 77.38402 34.77287 68.71168
#
# Poissons Ratio (x) = 0.23081 0.09866
# Poissons Ratio (y) = 0.51366 -0.21271
# Poissons Ratio (z) = 0.11112 -0.10764
#
# Static dielectric constant tensor:
#      x y z
#    x 1.748160 0.018520 0.006350 
#    y 0.018520 1.724850 0.000590 
#    z 0.006350 0.000590 1.770310 
# 
# From -- ./inp_files/424123.got.cif
#   From: 2010.05.17/outbox.cif.g08.bks.cpg/sg2_213_cif.got.tgz:424123.got - 2010.06.03 11:33:40.
