data_PCOD9075303
_publ_section_title
;
Structure prediction by ZEFSAII (Michael W. Deem and Ramdas Pophale) SiO2 
 PCOD9075303
Probable space group: P -1
;
_chemical_formula_sum "Si O2"
_cell_formula_units_Z 14
_cell_length_a 12.000000
_cell_length_b 21.000000
_cell_length_c 15.000000
_cell_angle_alpha 20.000000
_cell_angle_beta 140.000000
_cell_angle_gamma 150.000000
_cell_volume 620.704002
_symmetry_space_group_name_H-M "P -1"
_symmetry_group_IT_number 2
_symmetry_cell_setting 'triclinic'
loop_
_space_group_symop_operation_xyz
x,y,z
-x,-y,-z
loop_
_atom_site_type_symbol
_atom_site_label
_atom_site_fract_x
_atom_site_fract_y
_atom_site_fract_z
Si Si1 0.131853 0.794586 0.136939
Si Si2 0.761260 0.761449 0.713572
Si Si3 0.675636 0.058007 0.369393
Si Si4 0.938468 0.549986 0.780338
Si Si5 0.839657 0.412103 0.299524
Si Si6 0.331769 0.547520 0.602550
Si Si7 0.598121 0.633082 0.480660
O O1 0.310521 0.757563 0.319668
O O2 0.981936 0.593356 0.231126
O O3 0.930176 0.701019 0.206970
O O4 0.269774 0.076457 0.825953
O O5 0.534250 0.631955 0.683800
O O6 0.731898 0.879655 0.624218
O O7 0.775307 0.554963 0.018283
O O8 0.000000 0.000000 0.500000
O O9 0.809735 0.246027 0.287453
O O10 0.397189 0.865554 0.457012
O O11 0.796731 0.261145 0.096725
O O12 0.784129 0.605375 0.652609
O O13 0.991595 0.589395 0.656758
O O14 0.410023 0.525647 0.583997
O O15 0.500000 0.500000 0.500000
#
# Coordination Sequence:
#
# PCOD9075303 Si02
#       7
#     2   2   2   2   2   2   2
#     4  11  26  47  74 103 134 185 241 285 342 414
#     4  12  23  42  73 103 139 181 235 292 339 406
#     4  11  24  42  65 100 141 179 226 281 350 398
#     4  11  26  42  64 104 143 180 223 285 347 416
#     4  12  24  43  74 101 138 184 234 283 340 416
#     4  11  26  46  73 102 137 180 236 295 337 408
#     4  12  28  45  71  99 141 184 228 284 357 419
#
# _framework density 22.555033999999999
#
# number of rings (size 3 to 8) (size 9 to 14) (size 15 to 20)
#    0.000    0.571    2.857    4.714    6.000    1.714 
#    0.000    0.000    0.000    0.000    0.000    0.000 
#    0.000    0.000    0.000    0.000    0.000    0.000 
#
# Total GULP energy -78345.288624 kJ/mol
# GULP energy per Si atom -5596.092045 kJ/mol
# Density = 2.250370 g / cm^3
# Si number density = 22.555034 Si / 1000 Ang^3
#
#
#
# Elastic Constant Matrix: (Units=GPa)
#
#
# Indices 1 2 3 4 5 6 
#
# 1 156.0757 20.6322 7.3370 -9.0114 -17.4335 -0.0022
# 2 20.6322 107.1165 24.0376 -0.3803 -5.5676 -6.5632
# 3 7.3370 24.0376 39.4211 -1.9971 -1.8275 -5.4179
# 4 -9.0114 -0.3803 -1.9971 37.3156 12.2651 12.3876
# 5 -17.4335 -5.5676 -1.8275 12.2651 25.0289 3.4026
# 6 -0.0022 -6.5632 -5.4179 12.3876 3.4026 27.6053
#
#
#
# Elastic Compliance Matrix: (Units=1/GPa)
#
#
# Indices 1 2 3 4 5 6 
#
# 1 0.007119 -0.001072 -0.000595 0.000573 0.004558 -0.001190
# 2 -0.001072 0.011178 -0.006348 -0.001752 0.001867 0.001967
# 3 -0.000595 -0.006348 0.029941 0.000018 -0.000246 0.004389
# 4 0.000573 -0.001752 0.000018 0.037269 -0.016194 -0.015141
# 5 0.004558 0.001867 -0.000246 -0.016194 0.051279 0.001342
# 6 -0.001190 0.001967 0.004389 -0.015141 0.001342 0.044183
#
#
# Mechanical properties :
#
#
# Convention : Reuss Voigt Hill
#
# Bulk Modulus (GPa) = 31.04716 45.18075 38.11396
# Shear Modulus (GPa) = 24.06913 34.69706 29.38310
#
# Velocity S-wave (km/s) = 3.27024 3.92641 3.61325
# Velocity P-wave (km/s) = 5.29662 6.37420 5.86023
#
# Compressibility (1/GPa) = 0.03220906
#
# Stress axis : x y z
#
# Youngs Moduli (GPa) = 140.47016 89.46111 33.39849
#
# Poissons Ratio (x) = 0.09588 0.01986
# Poissons Ratio (y) = 0.15055 0.21202
# Poissons Ratio (z) = 0.08353 0.56792
#
# Static dielectric constant tensor:
#      x y z
#    x 1.852330 -0.009110 -0.034180 
#    y -0.009110 1.869130 0.076380 
#    z -0.034180 0.076380 1.819450 
# 
# From -- ./inp_files/524013.got.cif
#   From: 2010.05.17/outbox.ucp.g08.bks.cvg/sg2_263_cif.got.tgz:524013.got - 2010.06.11 11:32:03.
