data_PCOD9075053
_publ_section_title
;
Structure prediction by ZEFSAII (Michael W. Deem and Ramdas Pophale) SiO2 
 PCOD9075053
Probable space group: P -1
;
_chemical_formula_sum "Si O2"
_cell_formula_units_Z 14
_cell_length_a 12.000000
_cell_length_b 9.000000
_cell_length_c 9.000000
_cell_angle_alpha 130.000000
_cell_angle_beta 60.000000
_cell_angle_gamma 100.000000
_cell_volume 628.643806
_symmetry_space_group_name_H-M "P -1"
_symmetry_group_IT_number 2
_symmetry_cell_setting 'triclinic'
loop_
_space_group_symop_operation_xyz
x,y,z
-x,-y,-z
loop_
_atom_site_type_symbol
_atom_site_label
_atom_site_fract_x
_atom_site_fract_y
_atom_site_fract_z
Si Si1 0.342915 0.202522 0.431807
Si Si2 0.032268 0.695666 0.029117
Si Si3 0.236449 0.272259 0.867615
Si Si4 0.259401 0.598230 0.571383
Si Si5 0.637640 0.027394 0.164766
Si Si6 0.855140 0.962161 0.718438
Si Si7 0.904970 0.395476 0.597110
O O1 0.308966 0.295810 0.679289
O O2 0.332783 0.377428 0.429530
O O3 0.486728 0.059039 0.235324
O O4 0.227243 0.088721 0.397937
O O5 0.891173 0.817831 0.143849
O O6 0.104669 0.827120 0.168201
O O7 0.128867 0.638067 0.788112
O O8 0.000000 0.500000 0.000000
O O9 0.332768 0.125620 0.817895
O O10 0.168543 0.467529 0.132736
O O11 0.344382 0.756498 0.657072
O O12 0.208945 0.629276 0.457253
O O13 0.752977 0.958377 0.921077
O O14 0.990634 0.799070 0.543194
O O15 0.000000 0.500000 0.500000
#
# Coordination Sequence:
#
# PCOD9075053 Si02
#       7
#     2   2   2   2   2   2   2
#     4  12  24  43  66  98 137 178 223 271 320 399
#     4  11  22  42  68 100 134 159 219 290 338 388
#     4  12  24  42  66  96 140 170 216 280 337 382
#     4  11  22  42  68  96 127 181 224 271 328 388
#     4  11  24  44  66  95 135 183 226 262 323 402
#     4  11  24  42  72  99 128 180 220 272 338 394
#     4  12  21  41  69  97 134 168 222 280 331 396
#
# _framework density 22.270163
#
# number of rings (size 3 to 8) (size 9 to 14) (size 15 to 20)
#    0.000    0.571    5.714    2.143    0.000    2.857 
#    2.571    0.714    0.000    0.000    0.000    0.000 
#    0.000    0.000    0.000    0.000    0.000    0.000 
#
# Total GULP energy -78345.460535 kJ/mol
# GULP energy per Si atom -5596.104324 kJ/mol
# Density = 2.221948 g / cm^3
# Si number density = 22.270163 Si / 1000 Ang^3
#
#
#
# Elastic Constant Matrix: (Units=GPa)
#
#
# Indices 1 2 3 4 5 6 
#
# 1 135.5855 57.8212 58.1573 16.2353 -5.0037 -32.8940
# 2 57.8212 75.2780 46.3525 9.9530 7.5023 -5.0829
# 3 58.1573 46.3525 114.2965 1.7339 12.9121 -10.9002
# 4 16.2353 9.9530 1.7339 32.9743 -4.5879 1.3573
# 5 -5.0037 7.5023 12.9121 -4.5879 43.2009 11.1397
# 6 -32.8940 -5.0829 -10.9002 1.3573 11.1397 24.4997
#
#
#
# Elastic Compliance Matrix: (Units=1/GPa)
#
#
# Indices 1 2 3 4 5 6 
#
# 1 0.020160 -0.010554 -0.003254 -0.007883 -0.002097 0.024820
# 2 -0.010554 0.024280 -0.005355 -0.001570 -0.001199 -0.010884
# 3 -0.003254 -0.005355 0.013146 0.001938 -0.003667 0.001928
# 4 -0.007883 -0.001570 0.001938 0.036098 0.006480 -0.014993
# 5 -0.002097 -0.001199 -0.003667 0.006480 0.029680 -0.018550
# 6 0.024820 -0.010884 0.001928 -0.014993 -0.018550 0.082006
#
#
# Mechanical properties :
#
#
# Convention : Reuss Voigt Hill
#
# Bulk Modulus (GPa) = 51.92465 72.20244 62.06354
# Shear Modulus (GPa) = 19.99050 30.99025 25.49038
#
# Velocity S-wave (km/s) = 2.99931 3.73441 3.38686
# Velocity P-wave (km/s) = 5.94650 7.14744 6.57445
#
# Compressibility (1/GPa) = 0.01925868
#
# Stress axis : x y z
#
# Youngs Moduli (GPa) = 49.60237 41.18550 76.07016
#
# Poissons Ratio (x) = 0.43468 0.24757
# Poissons Ratio (y) = 0.52351 0.40738
# Poissons Ratio (z) = 0.16143 0.22056
#
# Static dielectric constant tensor:
#      x y z
#    x 1.855320 -0.041180 0.052830 
#    y -0.041180 1.806570 0.022860 
#    z 0.052830 0.022860 1.853370 
# 
# From -- ./inp_files/245755.got.cif
#   From: 2010.05.17/outbox.ucp.g08.bks.cvg/sg2_123_cif.got.tgz:245755.got - 2010.06.11 11:32:03.
