data_PCOD9075941
_publ_section_title
;
Structure prediction by ZEFSAII (Michael W. Deem and Ramdas Pophale) SiO2 
 PCOD9075941
Probable space group: P -1
;
_chemical_formula_sum "Si O2"
_cell_formula_units_Z 12
_cell_length_a 11.306759
_cell_length_b 8.592590
_cell_length_c 5.621545
_cell_angle_alpha 103.785084
_cell_angle_beta 74.158046
_cell_angle_gamma 104.138878
_cell_volume 500.803153
_symmetry_space_group_name_H-M "P -1"
_symmetry_group_IT_number 2
_symmetry_cell_setting 'triclinic'
loop_
_space_group_symop_operation_xyz
x,y,z
-x,-y,-z
loop_
_atom_site_type_symbol
_atom_site_label
_atom_site_fract_x
_atom_site_fract_y
_atom_site_fract_z
Si Si1 0.660684 0.877959 0.000455
Si Si2 0.868391 0.052813 0.647709
Si Si3 0.008594 0.408015 0.711392
Si Si4 0.353932 0.497144 0.100112
Si Si5 0.291633 0.475553 0.626626
Si Si6 0.377780 0.144059 0.486626
O O1 0.700192 0.698641 0.927070
O O2 0.576701 0.882012 0.812429
O O3 0.792482 0.997335 0.914163
O O4 0.583784 0.896751 0.286778
O O5 0.904436 0.246360 0.695704
O O6 0.763983 0.963163 0.488190
O O7 0.000000 0.000000 0.500000
O O8 0.150477 0.379410 0.636240
O O9 0.000000 0.500000 0.500000
O O10 0.000000 0.500000 0.000000
O O11 0.325447 0.571385 0.396401
O O12 0.500000 0.500000 0.000000
O O13 0.307197 0.564052 0.905215
O O14 0.376268 0.337629 0.552263
#
# Coordination Sequence:
#
# PCOD9075941 Si02
#       6
#     2   2   2   2   2   2
#     4   8  17  28  46  77 106 124 177 217 271 329
#     4  10  19  35  56  76 107 151 185 232 276 327
#     4  12  26  38  54  84 121 161 189 220 283 346
#     4  10  18  32  57  87 112 138 180 249 303 317
#     4  10  19  37  50  81 119 143 185 235 274 341
#     4   8  16  29  50  72  99 136 175 221 270 301
#
# _framework density 23.961509
#
# number of rings (size 3 to 8) (size 9 to 14) (size 15 to 20)
#    1.000    1.333    1.667    1.500    2.333    2.000 
#    0.000    0.000    0.000    0.000    0.000    7.000 
#    0.000    0.000    0.000    0.000    0.000    0.000 
#
# Total GULP energy -66817.975425 kJ/mol
# GULP energy per Si atom -5568.164619 kJ/mol
# Density = 2.390697 g / cm^3
# Si number density = 23.961509 Si / 1000 Ang^3
#
#
#
# Elastic Constant Matrix: (Units=GPa)
#
#
# Indices 1 2 3 4 5 6 
#
# 1 42.3043 17.7594 13.4239 -4.3579 8.2178 9.6627
# 2 17.7594 72.9020 42.9249 -6.2161 -2.5655 22.9209
# 3 13.4239 42.9249 252.6991 -45.2951 15.3035 -15.5953
# 4 -4.3579 -6.2161 -45.2951 31.9596 -4.3610 -3.2807
# 5 8.2178 -2.5655 15.3035 -4.3610 37.5403 -4.2819
# 6 9.6627 22.9209 -15.5953 -3.2807 -4.2819 32.9330
#
#
#
# Elastic Compliance Matrix: (Units=1/GPa)
#
#
# Indices 1 2 3 4 5 6 
#
# 1 0.028705 -0.004984 -0.000511 0.000641 -0.007031 -0.006046
# 2 -0.004984 0.023964 -0.006250 -0.006445 0.002417 -0.018504
# 3 -0.000511 -0.006250 0.007467 0.010048 -0.001179 0.008883
# 4 0.000641 -0.006445 0.010048 0.046105 0.002269 0.013944
# 5 -0.007031 0.002417 -0.001179 0.002269 0.029530 0.003888
# 6 -0.006046 -0.018504 0.008883 0.013944 0.003888 0.051118
#
#
# Mechanical properties :
#
#
# Convention : Reuss Voigt Hill
#
# Bulk Modulus (GPa) = 27.28703 57.34686 42.31695
# Shear Modulus (GPa) = 22.46248 40.07305 31.26777
#
# Velocity S-wave (km/s) = 3.06509 4.09393 3.61628
# Velocity P-wave (km/s) = 4.89274 6.80675 5.92751
#
# Compressibility (1/GPa) = 0.03664745
#
# Stress axis : x y z
#
# Youngs Moduli (GPa) = 34.83661 41.72911 133.92920
#
# Poissons Ratio (x) = 0.20799 0.06839
# Poissons Ratio (y) = 0.17363 0.83700
# Poissons Ratio (z) = 0.01779 0.26079
#
# Static dielectric constant tensor:
#      x y z
#    x 1.895090 -0.018430 -0.001650 
#    y -0.018430 1.904020 -0.000820 
#    z -0.001650 -0.000820 2.033270 
# 
# From -- ./inp_files/40916.got.cif
#   From: 2010.05.17/outbox.cif.g08.bks.cpg/sg2_21_cif.got.tgz:40916.got - 2010.06.03 11:33:40.
