data_PCOD9075831
_publ_section_title
;
Structure prediction by ZEFSAII (Michael W. Deem and Ramdas Pophale) SiO2 
 PCOD9075831
Probable space group: P -1
;
_chemical_formula_sum "Si O2"
_cell_formula_units_Z 14
_cell_length_a 9.773766
_cell_length_b 25.032856
_cell_length_c 8.821348
_cell_angle_alpha 129.487931
_cell_angle_beta 77.029834
_cell_angle_gamma 142.889682
_cell_volume 798.598769
_symmetry_space_group_name_H-M "P -1"
_symmetry_group_IT_number 2
_symmetry_cell_setting 'triclinic'
loop_
_space_group_symop_operation_xyz
x,y,z
-x,-y,-z
loop_
_atom_site_type_symbol
_atom_site_label
_atom_site_fract_x
_atom_site_fract_y
_atom_site_fract_z
Si Si1 0.065908 0.109944 0.666469
Si Si2 0.580044 0.887862 0.181633
Si Si3 0.260712 0.160543 0.172352
Si Si4 0.689180 0.172816 0.158950
Si Si5 0.808845 0.368508 0.602571
Si Si6 0.320688 0.681015 0.103972
Si Si7 0.115443 0.896073 0.988208
O O1 0.407606 0.254632 0.834975
O O2 0.944822 0.098116 0.820491
O O3 0.000000 0.000000 0.500000
O O4 0.878507 0.048474 0.454481
O O5 0.402173 0.787360 0.190921
O O6 0.629458 0.834747 0.992211
O O7 0.428520 0.869084 0.058789
O O8 0.513491 0.269938 0.427493
O O9 0.132398 0.178710 0.190319
O O10 0.000000 0.000000 0.000000
O O11 0.854360 0.313669 0.414412
O O12 0.413777 0.050267 0.118428
O O13 0.863062 0.177108 0.141866
O O14 0.771110 0.342381 0.744189
O O15 0.066489 0.532434 0.813431
#
# Coordination Sequence:
#
# PCOD9075831 Si02
#       7
#     2   2   2   2   2   2   2
#     4  10  18  32  56  80 104 135 176 224 251 307
#     4  10  19  32  57  81 104 134 181 220 257 302
#     4  11  18  32  57  81 101 138 180 219 254 313
#     4  10  22  34  53  82 111 139 169 218 267 317
#     4  10  21  36  56  78 107 137 181 217 266 309
#     4  10  20  34  58  80 102 140 178 225 258 304
#     4  11  20  35  53  82 110 139 172 213 274 306
#
# _framework density 17.530707
#
# number of rings (size 3 to 8) (size 9 to 14) (size 15 to 20)
#    0.000    1.714    5.714    2.571    0.000    2.857 
#    0.000    0.714    0.000    1.714    0.000    0.000 
#    0.000    0.000    0.000    0.000    0.000    0.000 
#
# Total GULP energy -78024.368513 kJ/mol
# GULP energy per Si atom -5573.169179 kJ/mol
# Density = 1.749081 g / cm^3
# Si number density = 17.530707 Si / 1000 Ang^3
#
#
#
# Elastic Constant Matrix: (Units=GPa)
#
#
# Indices 1 2 3 4 5 6 
#
# 1 124.3687 2.8640 37.0747 0.2929 8.0506 -3.9731
# 2 2.8640 33.2486 6.2978 0.1846 5.8674 0.1135
# 3 37.0747 6.2978 107.5061 9.5817 20.2102 -2.5612
# 4 0.2929 0.1846 9.5817 24.9677 3.8308 1.9732
# 5 8.0506 5.8674 20.2102 3.8308 18.8808 -6.8232
# 6 -3.9731 0.1135 -2.5612 1.9732 -6.8232 19.1218
#
#
#
# Elastic Compliance Matrix: (Units=1/GPa)
#
#
# Indices 1 2 3 4 5 6 
#
# 1 0.009028 -0.000161 -0.003128 0.001024 -0.000196 0.001282
# 2 -0.000161 0.032225 0.000186 0.001952 -0.012268 -0.004779
# 3 -0.003128 0.000186 0.013039 -0.002648 -0.013373 -0.003403
# 4 0.001024 0.001952 -0.002648 0.043208 -0.009922 -0.008153
# 5 -0.000196 -0.012268 -0.013373 -0.009922 0.083718 0.029138
# 6 0.001282 -0.004779 -0.003403 -0.008153 0.029138 0.063374
#
#
# Mechanical properties :
#
#
# Convention : Reuss Voigt Hill
#
# Bulk Modulus (GPa) = 20.79568 39.73294 30.26431
# Shear Modulus (GPa) = 18.73883 27.18653 22.96268
#
# Velocity S-wave (km/s) = 3.27297 3.94229 3.62312
# Velocity P-wave (km/s) = 5.11579 6.59061 5.89947
#
# Compressibility (1/GPa) = 0.04808691
#
# Stress axis : x y z
#
# Youngs Moduli (GPa) = 110.76676 31.03136 76.69550
#
# Poissons Ratio (x) = 0.00499 0.23990
# Poissons Ratio (y) = 0.01780 -0.01427
# Poissons Ratio (z) = 0.34647 -0.00577
#
# Static dielectric constant tensor:
#      x y z
#    x 1.598720 -0.002200 0.032410 
#    y -0.002200 1.686310 -0.013520 
#    z 0.032410 -0.013520 1.613720 
# 
# From -- ./inp_files/167730.got.cif
#   From: 2010.05.17/outbox.cif.g08.bks.cpg/sg2_84_cif.got.tgz:167730.got - 2010.06.03 11:33:40.
