data_PCOD9075501
_publ_section_title
;
Structure prediction by ZEFSAII (Michael W. Deem and Ramdas Pophale) SiO2 
 PCOD9075501
Probable space group: P -1
;
_chemical_formula_sum "Si O2"
_cell_formula_units_Z 11
_cell_length_a 15.000000
_cell_length_b 12.000000
_cell_length_c 9.000000
_cell_angle_alpha 140.000000
_cell_angle_beta 30.000000
_cell_angle_gamma 150.000000
_cell_volume 404.165085
_symmetry_space_group_name_H-M "P -1"
_symmetry_group_IT_number 2
_symmetry_cell_setting 'triclinic'
loop_
_space_group_symop_operation_xyz
x,y,z
-x,-y,-z
loop_
_atom_site_type_symbol
_atom_site_label
_atom_site_fract_x
_atom_site_fract_y
_atom_site_fract_z
Si Si1 0.316116 0.145680 0.118507
Si Si2 0.204878 0.731518 0.375422
Si Si3 0.500000 0.500000 0.000000
Si Si4 0.342622 0.154570 0.643739
Si Si5 0.148533 0.220836 0.717170
Si Si6 0.786236 0.365916 0.061439
O O1 0.347403 0.358004 0.224717
O O2 0.230913 0.120196 0.383695
O O3 0.567485 0.218279 0.837685
O O4 0.118774 0.925019 0.089554
O O5 0.000000 0.500000 0.500000
O O6 0.160445 0.895032 0.663708
O O7 0.184813 0.728261 0.223471
O O8 0.587085 0.726760 0.181854
O O9 0.241956 0.227123 0.747985
O O10 0.556706 0.182964 0.293566
O O11 0.254802 0.469033 0.776775
O O12 0.000000 0.500000 0.000000
#
# Coordination Sequence:
#
# PCOD9075501 Si02
#       6
#     2   2   1   2   2   2
#     4  11  26  48  77 112 153 201 257 315 381 457
#     4  12  30  49  76 113 159 200 256 321 386 448
#     4  12  28  46  78 110 156 194 258 318 380 448
#     4  12  27  50  77 112 155 204 256 315 383 461
#     4  11  25  49  80 111 149 206 260 310 383 464
#     4  12  26  48  77 112 153 206 252 314 385 464
#
# _framework density 27.216601000000001
#
# number of rings (size 3 to 8) (size 9 to 14) (size 15 to 20)
#    0.000    0.364    3.636    3.273   12.727    1.455 
#    0.000    0.000    0.000    0.000    0.000    0.000 
#    0.000    0.000    0.000    0.000    0.000    0.000 
#
# Total GULP energy -61334.950210 kJ/mol
# GULP energy per Si atom -5575.904565 kJ/mol
# Density = 2.715466 g / cm^3
# Si number density = 27.216601 Si / 1000 Ang^3
#
#
#
# Elastic Constant Matrix: (Units=GPa)
#
#
# Indices 1 2 3 4 5 6 
#
# 1 59.4618 43.8156 57.5938 -10.2344 -10.5436 21.3153
# 2 43.8156 142.1037 38.9014 6.1949 8.8530 -15.0242
# 3 57.5938 38.9014 100.9501 -16.7143 20.9115 16.8081
# 4 -10.2344 6.1949 -16.7143 44.9020 18.0992 -4.7621
# 5 -10.5436 8.8530 20.9115 18.0992 40.5718 3.2255
# 6 21.3153 -15.0242 16.8081 -4.7621 3.2255 34.2924
#
#
#
# Elastic Compliance Matrix: (Units=1/GPa)
#
#
# Indices 1 2 3 4 5 6 
#
# 1 -0.289154 0.066780 0.181095 0.107169 -0.243425 0.158005
# 2 0.066780 -0.006193 -0.047360 -0.028201 0.058112 -0.030391
# 3 0.181095 -0.047360 -0.095445 -0.055493 0.139884 -0.107395
# 4 0.107169 -0.028201 -0.055493 -0.004184 0.069152 -0.058855
# 5 -0.243425 0.058112 0.139884 0.069152 -0.164839 0.133312
# 6 0.158005 -0.030391 -0.107395 -0.058855 0.133312 -0.050439
#
#
# Mechanical properties :
#
#
# Convention : Reuss Voigt Hill
#
# Bulk Modulus (GPa) = 97.67210 64.79302 81.23256
# Shear Modulus (GPa) = -4.96096 34.76691 14.90298
#
# Velocity S-wave (km/s) = -1.35156 3.57797 2.34256
# Velocity P-wave (km/s) = 5.79044 6.39744 6.10150
#
# Compressibility (1/GPa) = 0.01023834
#
# Stress axis : x y z
#
# Youngs Moduli (GPa) = -3.45837 -161.48029 -10.47725
#
# Poissons Ratio (x) = 10.78361 1.89737
# Poissons Ratio (y) = 0.23095 -0.49620
# Poissons Ratio (z) = 0.62629 -7.64765
#
# Static dielectric constant tensor:
#      x y z
#    x 2.158190 -0.134920 0.031520 
#    y -0.134920 2.070270 -0.136110 
#    z 0.031520 -0.136110 2.086050 
# 
# From -- ./inp_files/151811.got.cif
#   From: 2010.05.17/outbox.ucp.g08.bks.cvg/sg2_76_cif.got.tgz:151811.got - 2010.06.11 11:32:03.
