data_PCOD9075179
_publ_section_title
;
Structure prediction by ZEFSAII (Michael W. Deem and Ramdas Pophale) SiO2 
 PCOD9075179
Probable space group: P -1
;
_chemical_formula_sum "Si O2"
_cell_formula_units_Z 16
_cell_length_a 9.000000
_cell_length_b 12.000000
_cell_length_c 12.000000
_cell_angle_alpha 130.000000
_cell_angle_beta 50.000000
_cell_angle_gamma 120.000000
_cell_volume 752.153660
_symmetry_space_group_name_H-M "P -1"
_symmetry_group_IT_number 2
_symmetry_cell_setting 'triclinic'
loop_
_space_group_symop_operation_xyz
x,y,z
-x,-y,-z
loop_
_atom_site_type_symbol
_atom_site_label
_atom_site_fract_x
_atom_site_fract_y
_atom_site_fract_z
Si Si1 0.897446 0.844856 0.501949
Si Si2 0.767434 0.354056 0.761195
Si Si3 0.426918 0.107829 0.859926
Si Si4 0.786930 0.822271 0.777684
Si Si5 0.561056 0.823909 0.500663
Si Si6 0.846161 0.578774 0.057514
Si Si7 0.847812 0.908113 0.216710
Si Si8 0.386743 0.526221 0.315257
O O1 0.761299 0.854604 0.681087
O O2 0.750848 0.772331 0.433009
O O3 0.059712 0.745484 0.393962
O O4 0.000000 0.000000 0.500000
O O5 0.589977 0.245528 0.835766
O O6 0.833590 0.498423 0.893557
O O7 0.702643 0.416170 0.716710
O O8 0.237074 0.118190 0.882485
O O9 0.497168 0.956595 0.688454
O O10 0.358845 0.118210 0.026319
O O11 0.731269 0.638506 0.701943
O O12 0.001036 0.936679 0.758618
O O13 0.656733 0.898357 0.386437
O O14 0.398156 0.677979 0.481071
O O15 0.919820 0.754251 0.119531
O O16 0.621969 0.533117 0.183003
O O17 0.000000 0.500000 0.000000
#
# Coordination Sequence:
#
# PCOD9075179 Si02
#       8
#     2   2   2   2   2   2   2   2
#     4  12  26  46  70 101 144 191 235 282 357 427
#     4  12  22  44  77 102 138 192 238 283 349 431
#     4  12  23  42  75 108 137 185 240 292 347 412
#     4  12  27  46  70 105 147 179 235 302 351 408
#     4  11  24  46  74 101 141 191 236 281 352 429
#     4  11  23  42  71 106 142 183 232 286 350 421
#     4  11  23  45  72 103 142 184 236 287 351 422
#     4  11  25  46  74 106 140 182 241 291 347 413
#
# _framework density 21.272248999999999
#
# number of rings (size 3 to 8) (size 9 to 14) (size 15 to 20)
#    0.000    0.500    6.250    3.375    1.750    1.500 
#    4.500    0.000    0.000    0.000    0.000    0.000 
#    0.000    0.000    0.000    0.000    0.000    0.000 
#
# Total GULP energy -89149.106076 kJ/mol
# GULP energy per Si atom -5571.819130 kJ/mol
# Density = 2.122383 g / cm^3
# Si number density = 21.272249 Si / 1000 Ang^3
#
#
#
# Elastic Constant Matrix: (Units=GPa)
#
#
# Indices 1 2 3 4 5 6 
#
# 1 108.7617 39.0146 15.4206 3.7500 8.2081 -9.6721
# 2 39.0146 186.9987 61.2140 14.2459 3.7014 7.6638
# 3 15.4206 61.2140 100.1476 4.4759 18.0739 -12.8682
# 4 3.7500 14.2459 4.4759 37.7190 -2.1646 7.3762
# 5 8.2081 3.7014 18.0739 -2.1646 31.1812 10.7307
# 6 -9.6721 7.6638 -12.8682 7.3762 10.7307 39.1036
#
#
#
# Elastic Compliance Matrix: (Units=1/GPa)
#
#
# Indices 1 2 3 4 5 6 
#
# 1 0.010988 -0.002938 0.001987 -0.001701 -0.005833 0.005869
# 2 -0.002938 0.008170 -0.006208 -0.000634 0.005324 -0.005712
# 3 0.001987 -0.006208 0.017791 -0.003170 -0.014496 0.012139
# 4 -0.001701 -0.000634 -0.003170 0.029478 0.007489 -0.008955
# 5 -0.005833 0.005324 -0.014496 0.007489 0.049561 -0.022270
# 6 0.005869 -0.005712 0.012139 -0.008955 -0.022270 0.039939
#
#
# Mechanical properties :
#
#
# Convention : Reuss Voigt Hill
#
# Bulk Modulus (GPa) = 44.18759 69.68960 56.93859
# Shear Modulus (GPa) = 28.12348 40.28467 34.20408
#
# Velocity S-wave (km/s) = 3.63998 4.35646 4.01424
# Velocity P-wave (km/s) = 6.20350 7.62476 6.95055
#
# Compressibility (1/GPa) = 0.02263079
#
# Stress axis : x y z
#
# Youngs Moduli (GPa) = 91.01241 122.40239 56.20747
#
# Poissons Ratio (x) = 0.35966 -0.11169
# Poissons Ratio (y) = 0.26743 0.34891
# Poissons Ratio (z) = -0.18085 0.75982
#
# Static dielectric constant tensor:
#      x y z
#    x 1.884760 0.021460 0.011300 
#    y 0.021460 1.742260 0.025770 
#    z 0.011300 0.025770 1.859220 
# 
# From -- ./inp_files/392984.got.cif
#   From: 2010.05.17/outbox.ucp.g08.bks.cvg/sg2_197_cif.got.tgz:392984.got - 2010.06.11 11:32:03.
