data_PCOD9075707
_publ_section_title
;
Structure prediction by ZEFSAII (Michael W. Deem and Ramdas Pophale) SiO2 
 PCOD9075707
Probable space group: P -1
;
_chemical_formula_sum "Si O2"
_cell_formula_units_Z 16
_cell_length_a 11.650980
_cell_length_b 11.173763
_cell_length_c 10.614156
_cell_angle_alpha 67.759108
_cell_angle_beta 141.113909
_cell_angle_gamma 93.886107
_cell_volume 739.207376
_symmetry_space_group_name_H-M "P -1"
_symmetry_group_IT_number 2
_symmetry_cell_setting 'triclinic'
loop_
_space_group_symop_operation_xyz
x,y,z
-x,-y,-z
loop_
_atom_site_type_symbol
_atom_site_label
_atom_site_fract_x
_atom_site_fract_y
_atom_site_fract_z
Si Si1 0.275197 0.644079 0.657810
Si Si2 0.793808 0.480189 0.840462
Si Si3 0.919146 0.487668 0.297874
Si Si4 0.611918 0.709906 0.802780
Si Si5 0.691360 0.073955 0.697475
Si Si6 0.724899 0.210995 0.925168
Si Si7 0.319442 0.416546 0.571319
Si Si8 0.040885 0.080769 0.815910
O O1 0.243948 0.578647 0.789036
O O2 0.443144 0.705586 0.757042
O O3 0.319359 0.524826 0.636211
O O4 0.065838 0.771305 0.399291
O O5 0.657981 0.591124 0.781019
O O6 0.822904 0.324330 0.968256
O O7 0.696220 0.512898 0.606402
O O8 0.000000 0.500000 0.000000
O O9 0.000000 0.500000 0.500000
O O10 0.114180 0.395334 0.424059
O O11 0.815631 0.638732 0.083137
O O12 0.513991 0.856466 0.583221
O O13 0.682826 0.190015 0.749781
O O14 0.865521 0.058074 0.753761
O O15 0.784720 0.939020 0.924164
O O16 0.517737 0.277456 0.794819
O O17 0.863610 0.051944 0.142514
#
# Coordination Sequence:
#
# PCOD9075707 Si02
#       8
#     2   2   2   2   2   2   2   2
#     4  10  20  36  61  80 110 153 191 222 268 328
#     4  12  20  29  52  87 115 134 169 239 292 321
#     4  10  23  37  51  81 114 151 190 233 268 313
#     4  11  18  34  55  85 109 140 186 234 276 329
#     4   8  16  29  56  85 113 142 178 222 284 332
#     4  10  18  32  54  83 114 145 175 216 290 341
#     4  11  20  33  55  86 113 143 184 231 278 329
#     4   8  16  32  54  85 111 147 183 215 275 344
#
# _framework density 21.644804000000001
#
# number of rings (size 3 to 8) (size 9 to 14) (size 15 to 20)
#    0.750    1.250    3.750    2.250    0.000    0.000 
#    0.000    0.625    0.000   18.750    0.000    0.000 
#    0.000    0.000    0.000    0.000    0.000    0.000 
#
# Total GULP energy -89084.060059 kJ/mol
# GULP energy per Si atom -5567.753754 kJ/mol
# Density = 2.159554 g / cm^3
# Si number density = 21.644804 Si / 1000 Ang^3
#
#
#
# Elastic Constant Matrix: (Units=GPa)
#
#
# Indices 1 2 3 4 5 6 
#
# 1 79.8609 22.5722 14.4055 -19.6845 14.2658 -5.2736
# 2 22.5722 57.7513 42.8509 -34.7308 5.2256 -10.7202
# 3 14.4055 42.8509 115.5947 -33.0821 0.1811 -10.1249
# 4 -19.6845 -34.7308 -33.0821 43.0132 -0.6703 0.5669
# 5 14.2658 5.2256 0.1811 -0.6703 39.2505 -5.9196
# 6 -5.2736 -10.7202 -10.1249 0.5669 -5.9196 16.8754
#
#
#
# Elastic Compliance Matrix: (Units=1/GPa)
#
#
# Indices 1 2 3 4 5 6 
#
# 1 0.015452 -0.002485 0.000744 0.005537 -0.004925 0.001783
# 2 -0.002485 0.045527 -0.005668 0.030939 -0.001086 0.023324
# 3 0.000744 -0.005668 0.012593 0.005410 0.001185 0.004422
# 4 0.005537 0.030939 0.005410 0.054604 -0.001886 0.022135
# 5 -0.004925 -0.001086 0.001185 -0.001886 0.028672 0.008603
# 6 0.001783 0.023324 0.004422 0.022135 0.008603 0.079558
#
#
# Mechanical properties :
#
#
# Convention : Reuss Voigt Hill
#
# Bulk Modulus (GPa) = 17.02011 45.87377 31.44694
# Shear Modulus (GPa) = 18.46322 31.38639 24.92481
#
# Velocity S-wave (km/s) = 2.92380 3.81210 3.39711
# Velocity P-wave (km/s) = 4.39074 6.37308 5.47242
#
# Compressibility (1/GPa) = 0.05875402
#
# Stress axis : x y z
#
# Youngs Moduli (GPa) = 64.71526 21.96512 79.41023
#
# Poissons Ratio (x) = 0.05459 -0.05909
# Poissons Ratio (y) = 0.16083 0.45008
# Poissons Ratio (z) = -0.04815 0.12449
#
# Static dielectric constant tensor:
#      x y z
#    x 1.813190 0.039760 0.028900 
#    y 0.039760 1.794700 0.033050 
#    z 0.028900 0.033050 1.885680 
# 
# From -- ./inp_files/425846.got.cif
#   From: 2010.05.17/outbox.cif.g08.bks.cpg/sg2_213_cif.got.tgz:425846.got - 2010.06.03 11:33:40.
