data_PCOD9075781
_publ_section_title
;
Structure prediction by ZEFSAII (Michael W. Deem and Ramdas Pophale) SiO2 
 PCOD9075781
Probable space group: P -1
;
_chemical_formula_sum "Si O2"
_cell_formula_units_Z 16
_cell_length_a 24.541449
_cell_length_b 18.926779
_cell_length_c 12.508601
_cell_angle_alpha 148.749904
_cell_angle_beta 22.207251
_cell_angle_gamma 162.544700
_cell_volume 637.890684
_symmetry_space_group_name_H-M "P -1"
_symmetry_group_IT_number 2
_symmetry_cell_setting 'triclinic'
loop_
_space_group_symop_operation_xyz
x,y,z
-x,-y,-z
loop_
_atom_site_type_symbol
_atom_site_label
_atom_site_fract_x
_atom_site_fract_y
_atom_site_fract_z
Si Si1 0.052317 0.629832 0.336667
Si Si2 0.798017 0.105181 0.382895
Si Si3 0.459326 0.311673 0.545941
Si Si4 0.300338 0.023837 0.244379
Si Si5 0.766360 0.608591 0.553729
Si Si6 0.740314 0.131466 0.298097
Si Si7 0.369930 0.497097 0.819825
Si Si8 0.517091 0.327654 0.846727
O O1 0.977096 0.414129 0.206749
O O2 0.774794 0.490878 0.655359
O O3 0.181406 0.776819 0.402432
O O4 0.226392 0.817030 0.162335
O O5 0.664933 0.076294 0.488973
O O6 0.711163 0.895677 0.322467
O O7 0.072954 0.288187 0.067561
O O8 0.736389 0.529563 0.385310
O O9 0.393933 0.416915 0.774264
O O10 0.386839 0.169475 0.386434
O O11 0.036390 0.850259 0.434044
O O12 0.502452 0.253785 0.093849
O O13 0.628510 0.399428 0.616869
O O14 0.596089 0.611334 0.863182
O O15 0.500000 0.000000 0.500000
O O16 0.725263 0.961852 0.073038
O O17 0.500000 0.500000 0.500000
#
# Coordination Sequence:
#
# PCOD9075781 Si02
#       8
#     2   2   2   2   2   2   2   2
#     4   9  19  36  56  84 109 150 201 243 278 334
#     4  11  20  35  61  85 114 153 194 244 290 335
#     4  10  20  35  58  87 115 151 193 236 292 347
#     4   9  21  37  55  83 125 153 189 233 287 355
#     4  10  18  32  55  83 119 150 183 233 298 343
#     4  10  20  34  56  86 114 146 196 250 286 326
#     4  10  22  35  54  87 124 156 186 227 297 366
#     4   9  18  30  50  88 114 140 185 243 293 334
#
# _framework density 25.082668000000002
#
# number of rings (size 3 to 8) (size 9 to 14) (size 15 to 20)
#    0.000    2.250    1.250    1.500    3.500    3.500 
#    0.000    0.625    2.750    0.000    0.000    8.750 
#    0.000    0.000    0.000    0.000    0.000    0.000 
#
# Total GULP energy -89133.808146 kJ/mol
# GULP energy per Si atom -5570.863009 kJ/mol
# Density = 2.502558 g / cm^3
# Si number density = 25.082668 Si / 1000 Ang^3
#
#
#
# Elastic Constant Matrix: (Units=GPa)
#
#
# Indices 1 2 3 4 5 6 
#
# 1 154.7185 110.9809 13.0826 4.3864 -30.5629 10.1340
# 2 110.9809 135.7161 34.8636 -15.8100 35.9431 -44.0596
# 3 13.0826 34.8636 47.1091 1.1871 -1.3037 -2.6717
# 4 4.3864 -15.8100 1.1871 15.2973 4.8784 -3.3424
# 5 -30.5629 35.9431 -1.3037 4.8784 -17.8014 0.2838
# 6 10.1340 -44.0596 -2.6717 -3.3424 0.2838 63.3220
#
#
#
# Elastic Compliance Matrix: (Units=1/GPa)
#
#
# Indices 1 2 3 4 5 6 
#
# 1 0.005342 -0.001516 -0.000812 0.000412 -0.012090 -0.001868
# 2 -0.001516 0.006912 -0.004001 0.003289 0.017833 0.004977
# 3 -0.000812 -0.004001 0.024136 -0.003178 -0.009351 -0.001762
# 4 0.000412 0.003289 -0.003178 0.062590 0.023404 0.005288
# 5 -0.012090 0.017833 -0.009351 0.023404 0.007930 0.015149
# 6 -0.001868 0.004977 -0.001762 0.005288 0.015149 0.019691
#
#
# Mechanical properties :
#
#
# Convention : Reuss Voigt Hill
#
# Bulk Modulus (GPa) = 42.14122 72.82198 57.48160
# Shear Modulus (GPa) = 33.97407 24.07137 29.02272
#
# Velocity S-wave (km/s) = 3.68432 3.10123 3.40528
# Velocity P-wave (km/s) = 5.91070 6.47452 6.19902
#
# Compressibility (1/GPa) = 0.02372974
#
# Stress axis : x y z
#
# Youngs Moduli (GPa) = 187.19594 144.67521 41.43263
#
# Poissons Ratio (x) = 0.21936 0.03366
# Poissons Ratio (y) = 0.28383 0.16579
# Poissons Ratio (z) = 0.15207 0.57890
#
# Static dielectric constant tensor:
#      x y z
#    x 2.105020 0.034910 0.037230 
#    y 0.034910 2.059490 0.004760 
#    z 0.037230 0.004760 1.965750 
# 
# From -- ./inp_files/475446.got.cif
#   From: 2010.05.17/outbox.cif.g08.bks.cpg/sg2_238_cif.got.tgz:475446.got - 2010.06.03 11:33:40.
