data_PCOD9075017
_publ_section_title
;
Structure prediction by ZEFSAII (Michael W. Deem and Ramdas Pophale) SiO2 
 PCOD9075017
Probable space group: P -1
;
_chemical_formula_sum "Si O2"
_cell_formula_units_Z 14
_cell_length_a 9.000000
_cell_length_b 12.000000
_cell_length_c 21.000000
_cell_angle_alpha 150.000000
_cell_angle_beta 40.000000
_cell_angle_gamma 120.000000
_cell_volume 627.666119
_symmetry_space_group_name_H-M "P -1"
_symmetry_group_IT_number 2
_symmetry_cell_setting 'triclinic'
loop_
_space_group_symop_operation_xyz
x,y,z
-x,-y,-z
loop_
_atom_site_type_symbol
_atom_site_label
_atom_site_fract_x
_atom_site_fract_y
_atom_site_fract_z
Si Si1 0.911962 0.597766 0.505531
Si Si2 0.910951 0.553637 0.764226
Si Si3 0.753809 0.766058 0.237344
Si Si4 0.509379 0.114231 0.378035
Si Si5 0.315403 0.712701 0.218105
Si Si6 0.158539 0.935064 0.540323
Si Si7 0.708136 0.064854 0.152830
O O1 0.053204 0.409093 0.304134
O O2 0.000000 0.500000 0.500000
O O3 0.589414 0.713863 0.663496
O O4 0.005608 0.805215 0.560688
O O5 0.749965 0.404785 0.756852
O O6 0.219766 0.378315 0.601535
O O7 0.734956 0.802566 0.988046
O O8 0.665489 0.016879 0.344596
O O9 0.859723 0.831273 0.297196
O O10 0.481389 0.762392 0.339680
O O11 0.000000 0.500000 0.000000
O O12 0.452213 0.881652 0.268799
O O13 0.685748 0.107233 0.257005
O O14 0.025854 0.906673 0.379808
O O15 0.500000 0.500000 0.000000
O O16 0.000000 0.000000 0.000000
#
# Coordination Sequence:
#
# PCOD9075017 Si02
#       7
#     2   2   2   2   2   2   2
#     4  11  26  46  68  97 134 183 229 279 339 402
#     4  11  22  41  70  96 130 172 224 284 331 396
#     4  11  25  38  63 101 141 173 208 272 354 397
#     4  11  22  40  66  98 131 175 221 272 338 401
#     4  12  19  39  73  99 131 167 223 277 334 404
#     4  11  23  43  63 100 137 169 219 275 335 406
#     4  11  26  44  66  98 130 180 239 275 330 407
#
# _framework density 22.304852
#
# number of rings (size 3 to 8) (size 9 to 14) (size 15 to 20)
#    0.000    0.857    5.714    2.143    0.000    7.429 
#    0.000    0.000    0.000    0.000    0.000    0.000 
#    0.000    0.000    0.000    0.000    0.000    0.000 
#
# Total GULP energy -78081.726453 kJ/mol
# GULP energy per Si atom -5577.266175 kJ/mol
# Density = 2.225409 g / cm^3
# Si number density = 22.304852 Si / 1000 Ang^3
#
#
#
# Elastic Constant Matrix: (Units=GPa)
#
#
# Indices 1 2 3 4 5 6 
#
# 1 72.9392 35.3891 -5.9187 -0.3604 3.6275 -2.3451
# 2 35.3891 100.1040 -4.5151 -37.6738 -12.0375 -17.9055
# 3 -5.9187 -4.5151 99.5281 -26.1210 8.1047 -6.5140
# 4 -0.3604 -37.6738 -26.1210 39.0667 7.5150 -2.4050
# 5 3.6275 -12.0375 8.1047 7.5150 19.5147 -2.7905
# 6 -2.3451 -17.9055 -6.5140 -2.4050 -2.7905 44.7646
#
#
#
# Elastic Compliance Matrix: (Units=1/GPa)
#
#
# Indices 1 2 3 4 5 6 
#
# 1 0.021398 -0.016491 -0.004011 -0.017538 -0.006792 -0.007424
# 2 -0.016491 0.037247 0.013117 0.044510 0.006129 0.018717
# 3 -0.004011 0.013117 0.018816 0.027317 -0.008250 0.008728
# 4 -0.017538 0.044510 0.027317 0.090448 -0.011889 0.024978
# 5 -0.006792 0.006129 -0.008250 -0.011889 0.064907 0.004303
# 6 -0.007424 0.018717 0.008728 0.024978 0.004303 0.032317
#
#
# Mechanical properties :
#
#
# Convention : Reuss Voigt Hill
#
# Bulk Modulus (GPa) = 15.95132 35.83134 25.89133
# Shear Modulus (GPa) = 16.62230 37.17692 26.89961
#
# Velocity S-wave (km/s) = 2.73286 4.08703 3.47652
# Velocity P-wave (km/s) = 4.13824 6.19443 5.26764
#
# Compressibility (1/GPa) = 0.06269073
#
# Stress axis : x y z
#
# Youngs Moduli (GPa) = 46.73328 26.84767 53.14558
#
# Poissons Ratio (x) = 0.44274 0.21318
# Poissons Ratio (y) = 0.77066 -0.69709
# Poissons Ratio (z) = 0.18746 -0.35215
#
# Static dielectric constant tensor:
#      x y z
#    x 1.981650 0.050470 0.118820 
#    y 0.050470 1.895360 0.056330 
#    z 0.118820 0.056330 1.869800 
# 
# From -- ./inp_files/214059.got.cif
#   From: 2010.05.17/outbox.ucp.g08.bks.cvg/sg2_108_cif.got.tgz:214059.got - 2010.06.11 11:32:03.
