data_PCOD9075297
_publ_section_title
;
Structure prediction by ZEFSAII (Michael W. Deem and Ramdas Pophale) SiO2 
 PCOD9075297
Probable space group: P -1
;
_chemical_formula_sum "Si O2"
_cell_formula_units_Z 16
_cell_length_a 21.000000
_cell_length_b 18.000000
_cell_length_c 12.000000
_cell_angle_alpha 40.000000
_cell_angle_beta 150.000000
_cell_angle_gamma 160.000000
_cell_volume 744.844803
_symmetry_space_group_name_H-M "P -1"
_symmetry_group_IT_number 2
_symmetry_cell_setting 'triclinic'
loop_
_space_group_symop_operation_xyz
x,y,z
-x,-y,-z
loop_
_atom_site_type_symbol
_atom_site_label
_atom_site_fract_x
_atom_site_fract_y
_atom_site_fract_z
Si Si1 0.498142 0.414064 0.992430
Si Si2 0.256960 0.676142 0.944982
Si Si3 0.748653 0.204279 0.760464
Si Si4 0.663040 0.947257 0.765361
Si Si5 0.741325 0.133967 0.070219
Si Si6 0.885250 0.823619 0.940226
Si Si7 0.928768 0.830909 0.516028
Si Si8 0.463952 0.582098 0.434930
O O1 0.225812 0.228218 0.746478
O O2 0.500000 0.500000 0.000000
O O3 0.515189 0.299079 0.196810
O O4 0.694001 0.594632 0.984061
O O5 0.377490 0.642722 0.194699
O O6 0.446956 0.875264 0.914113
O O7 0.240836 0.761592 0.920355
O O8 0.970978 0.430789 0.763525
O O9 0.495550 0.078463 0.508334
O O10 0.727797 0.057154 0.854698
O O11 0.827320 0.263213 0.939800
O O12 0.905240 0.088368 0.906197
O O13 0.882542 0.119448 0.303149
O O14 0.728436 0.783187 0.666468
O O15 0.000000 0.000000 0.000000
O O16 0.742634 0.614874 0.561746
O O17 0.000000 0.000000 0.500000
O O18 0.500000 0.500000 0.500000
#
# Coordination Sequence:
#
# PCOD9075297 Si02
#       8
#     2   2   2   2   2   2   2   2
#     4  11  25  42  67 100 134 173 223 277 332 401
#     4  11  25  42  68 101 133 176 224 276 336 396
#     4  11  25  46  68  92 141 177 219 277 323 413
#     4  11  26  44  68  98 131 183 221 265 344 394
#     4  11  25  42  68 101 133 176 224 276 336 396
#     4  11  25  42  67 100 134 173 223 277 332 401
#     4  11  24  41  68 101 136 172 222 281 334 398
#     4  11  24  41  68 101 136 172 222 281 334 398
#
# _framework density 21.480985
#
# number of rings (size 3 to 8) (size 9 to 14) (size 15 to 20)
#    0.000    1.000    2.500    2.625    7.000    4.000 
#    0.000    2.500    0.000    0.000    0.000    0.000 
#    0.000    0.000    0.000    0.000    0.000    0.000 
#
# Total GULP energy -89234.627246 kJ/mol
# GULP energy per Si atom -5577.164203 kJ/mol
# Density = 2.143209 g / cm^3
# Si number density = 21.480985 Si / 1000 Ang^3
#
#
#
# Elastic Constant Matrix: (Units=GPa)
#
#
# Indices 1 2 3 4 5 6 
#
# 1 113.6274 19.9260 48.4401 4.4123 32.3131 -12.8424
# 2 19.9260 72.7130 5.3693 -0.5525 16.1053 -0.8904
# 3 48.4401 5.3693 87.7424 10.4607 25.7198 -8.2443
# 4 4.4123 -0.5525 10.4607 32.6657 -3.1628 2.9894
# 5 32.3131 16.1053 25.7198 -3.1628 44.1717 11.6217
# 6 -12.8424 -0.8904 -8.2443 2.9894 11.6217 42.7331
#
#
#
# Elastic Compliance Matrix: (Units=1/GPa)
#
#
# Indices 1 2 3 4 5 6 
#
# 1 0.014246 -0.001513 -0.004299 -0.002006 -0.009098 0.006035
# 2 -0.001513 0.015435 0.002058 -0.000995 -0.006332 0.002056
# 3 -0.004299 0.002058 0.017807 -0.006526 -0.009841 0.005319
# 4 -0.002006 -0.000995 -0.006526 0.034562 0.009949 -0.007006
# 5 -0.009098 -0.006332 -0.009841 0.009949 0.042525 -0.017026
# 6 0.006035 0.002056 0.005319 -0.007006 -0.017026 0.031404
#
#
# Mechanical properties :
#
#
# Convention : Reuss Voigt Hill
#
# Bulk Modulus (GPa) = 25.01149 46.83929 35.92539
# Shear Modulus (GPa) = 28.27842 37.27059 32.77450
#
# Velocity S-wave (km/s) = 3.63221 4.16991 3.91032
# Velocity P-wave (km/s) = 5.40920 6.71093 6.09492
#
# Compressibility (1/GPa) = 0.03998163
#
# Stress axis : x y z
#
# Youngs Moduli (GPa) = 70.19512 64.78662 56.15789
#
# Poissons Ratio (x) = 0.09800 0.24143
# Poissons Ratio (y) = 0.10618 -0.11559
# Poissons Ratio (z) = 0.30177 -0.13336
#
# Static dielectric constant tensor:
#      x y z
#    x 1.776750 -0.015350 -0.020880 
#    y -0.015350 1.813650 0.014050 
#    z -0.020880 0.014050 1.742000 
# 
# From -- ./inp_files/428675.got.cif
#   From: 2010.05.17/outbox.ucp.g08.bks.cvg/sg2_215_cif.got.tgz:428675.got - 2010.06.11 11:32:03.
