data_PCOD9075713
_publ_section_title
;
Structure prediction by ZEFSAII (Michael W. Deem and Ramdas Pophale) SiO2 
 PCOD9075713
Probable space group: P -1
;
_chemical_formula_sum "Si O2"
_cell_formula_units_Z 16
_cell_length_a 9.815266
_cell_length_b 8.269498
_cell_length_c 15.515746
_cell_angle_alpha 107.368384
_cell_angle_beta 132.722982
_cell_angle_gamma 90.585287
_cell_volume 841.376049
_symmetry_space_group_name_H-M "P -1"
_symmetry_group_IT_number 2
_symmetry_cell_setting 'triclinic'
loop_
_space_group_symop_operation_xyz
x,y,z
-x,-y,-z
loop_
_atom_site_type_symbol
_atom_site_label
_atom_site_fract_x
_atom_site_fract_y
_atom_site_fract_z
Si Si1 0.168446 0.840207 0.415908
Si Si2 0.065231 0.292906 0.190304
Si Si3 0.434685 0.519137 0.113021
Si Si4 0.195983 0.972074 0.259653
Si Si5 0.071278 0.326030 0.012212
Si Si6 0.800453 0.496344 0.170130
Si Si7 0.420126 0.617282 0.418161
Si Si8 0.560269 0.841067 0.346253
O O1 0.184446 0.950899 0.352954
O O2 0.339041 0.748330 0.461821
O O3 0.964474 0.680739 0.298742
O O4 0.240875 0.993339 0.543554
O O5 0.993666 0.232856 0.054301
O O6 0.225751 0.482473 0.272724
O O7 0.904931 0.342254 0.187084
O O8 0.167495 0.157875 0.251418
O O9 0.302083 0.391170 0.107137
O O10 0.619055 0.464944 0.150934
O O11 0.513259 0.712553 0.222757
O O12 0.292367 0.505086 0.966283
O O13 0.384411 0.926235 0.297575
O O14 0.018312 0.814793 0.121627
O O15 0.000000 0.500000 0.000000
O O16 0.500000 0.500000 0.500000
O O17 0.546216 0.719028 0.407693
#
# Coordination Sequence:
#
# PCOD9075713 Si02
#       8
#     2   2   2   2   2   2   2   2
#     4  10  20  35  56  83 115 149 184 231 281 334
#     4  11  20  33  56  86 113 145 188 235 280 332
#     4  11  21  38  61  80 113 150 194 228 281 334
#     4  11  20  33  57  89 117 140 186 238 282 331
#     4  12  18  36  58  86 110 145 190 239 281 328
#     4  10  22  39  60  79 112 159 188 223 282 342
#     4  10  18  32  54  85 116 146 183 230 286 333
#     4  11  20  34  58  87 115 145 185 238 281 326
#
# _framework density 19.016469000000001
#
# number of rings (size 3 to 8) (size 9 to 14) (size 15 to 20)
#    0.000    1.250    5.000    4.125    0.000    0.500 
#    0.000    0.625    2.750    6.750    0.000    0.000 
#    0.000    0.000    0.000    0.000    0.000    0.000 
#
# Total GULP energy -89156.935177 kJ/mol
# GULP energy per Si atom -5572.308449 kJ/mol
# Density = 1.897319 g / cm^3
# Si number density = 19.016469 Si / 1000 Ang^3
#
#
#
# Elastic Constant Matrix: (Units=GPa)
#
#
# Indices 1 2 3 4 5 6 
#
# 1 94.7290 25.5390 20.7478 2.3816 7.8130 -10.1634
# 2 25.5390 93.1057 23.3984 -4.8849 2.1318 -10.5884
# 3 20.7478 23.3984 98.2524 28.0752 -1.1663 -7.9304
# 4 2.3816 -4.8849 28.0752 41.1813 -5.8368 -0.3573
# 5 7.8130 2.1318 -1.1663 -5.8368 9.6958 0.5185
# 6 -10.1634 -10.5884 -7.9304 -0.3573 0.5185 11.4323
#
#
#
# Elastic Compliance Matrix: (Units=1/GPa)
#
#
# Indices 1 2 3 4 5 6 
#
# 1 0.013476 -0.002120 -0.001166 -0.001879 -0.012183 0.009702
# 2 -0.002120 0.013265 -0.003175 0.003984 0.000364 0.008307
# 3 -0.001166 -0.003175 0.014702 -0.010761 -0.003395 0.006039
# 4 -0.001879 0.003984 -0.010761 0.035096 0.020754 -0.005289
# 5 -0.012183 0.000364 -0.003395 0.020754 0.125919 -0.017912
# 6 0.009702 0.008307 0.006039 -0.005289 -0.017912 0.108627
#
#
# Mechanical properties :
#
#
# Convention : Reuss Voigt Hill
#
# Bulk Modulus (GPa) = 35.05967 47.27305 41.16636
# Shear Modulus (GPa) = 14.99183 26.88866 20.94024
#
# Velocity S-wave (km/s) = 2.81082 3.76435 3.32198
# Velocity P-wave (km/s) = 5.38617 6.61867 6.03397
#
# Compressibility (1/GPa) = 0.02852280
#
# Stress axis : x y z
#
# Youngs Moduli (GPa) = 74.20435 75.38443 68.01656
#
# Poissons Ratio (x) = 0.15980 0.07928
# Poissons Ratio (y) = 0.15730 0.21596
# Poissons Ratio (z) = 0.08649 0.23936
#
# Static dielectric constant tensor:
#      x y z
#    x 1.686780 -0.099110 0.034530 
#    y -0.099110 1.863780 -0.031960 
#    z 0.034530 -0.031960 1.765540 
# 
# From -- ./inp_files/199699.got.cif
#   From: 2010.05.17/outbox.cif.g08.bks.cpg/sg2_100_cif.got.tgz:199699.got - 2010.06.03 11:33:40.
