data_PCOD9075383
_publ_section_title
;
Structure prediction by ZEFSAII (Michael W. Deem and Ramdas Pophale) SiO2 
 PCOD9075383
Probable space group: P -1
;
_chemical_formula_sum "Si O2"
_cell_formula_units_Z 16
_cell_length_a 9.000000
_cell_length_b 15.000000
_cell_length_c 12.000000
_cell_angle_alpha 130.000000
_cell_angle_beta 70.000000
_cell_angle_gamma 70.000000
_cell_volume 728.972637
_symmetry_space_group_name_H-M "P -1"
_symmetry_group_IT_number 2
_symmetry_cell_setting 'triclinic'
loop_
_space_group_symop_operation_xyz
x,y,z
-x,-y,-z
loop_
_atom_site_type_symbol
_atom_site_label
_atom_site_fract_x
_atom_site_fract_y
_atom_site_fract_z
Si Si1 0.403740 0.687221 0.176462
Si Si2 0.279490 0.099720 0.429963
Si Si3 0.245699 0.409844 0.300257
Si Si4 0.704485 0.983176 0.893556
Si Si5 0.903248 0.524353 0.868435
Si Si6 0.794950 0.346937 0.355358
Si Si7 0.944423 0.938093 0.346021
Si Si8 0.882238 0.787002 0.053568
O O1 0.231874 0.796864 0.196991
O O2 0.211025 0.851961 0.448823
O O3 0.500000 0.500000 0.000000
O O4 0.653454 0.620601 0.068713
O O5 0.182617 0.066795 0.524776
O O6 0.133106 0.304795 0.650235
O O7 0.216311 0.096103 0.316974
O O8 0.581832 0.944594 0.234612
O O9 0.182722 0.428142 0.201676
O O10 0.260564 0.533288 0.434183
O O11 0.000000 0.500000 0.500000
O O12 0.508712 0.202016 0.104890
O O13 0.952578 0.863263 0.813456
O O14 0.500000 0.000000 0.000000
O O15 0.962330 0.622515 0.963412
O O16 0.500000 0.500000 0.500000
O O17 0.951389 0.301509 0.171667
O O18 0.926808 0.873511 0.187705
#
# Coordination Sequence:
#
# PCOD9075383 Si02
#       8
#     2   2   2   2   2   2   2   2
#     4  11  24  46  68 101 138 188 236 285 360 434
#     4  12  22  41  72 105 132 189 242 289 347 428
#     4  12  21  42  74 101 134 186 243 294 346 434
#     4  12  21  42  74 101 134 184 243 288 347 435
#     4  12  23  40  74 104 136 187 244 290 352 426
#     4  12  28  45  68 109 148 184 235 306 368 418
#     4  11  26  44  69 101 147 183 233 296 362 422
#     4  12  26  45  68 104 147 182 238 302 356 423
#
# _framework density 21.948698
#
# number of rings (size 3 to 8) (size 9 to 14) (size 15 to 20)
#    0.000    0.250    8.750    0.375    1.750    2.000 
#    0.000    0.000    0.000    0.000    0.000    0.000 
#    0.000    0.000    0.000    0.000    0.000    0.000 
#
# Total GULP energy -89253.204075 kJ/mol
# GULP energy per Si atom -5578.325255 kJ/mol
# Density = 2.189874 g / cm^3
# Si number density = 21.948698 Si / 1000 Ang^3
#
#
#
# Elastic Constant Matrix: (Units=GPa)
#
#
# Indices 1 2 3 4 5 6 
#
# 1 58.6345 -4.2352 13.7242 9.4065 3.1600 -12.7067
# 2 -4.2352 50.1751 26.4333 22.0948 -0.3169 1.4485
# 3 13.7242 26.4333 119.0174 43.3672 -0.3271 8.6074
# 4 9.4065 22.0948 43.3672 53.3766 -1.4169 1.5438
# 5 3.1600 -0.3169 -0.3271 -1.4169 54.3573 5.7116
# 6 -12.7067 1.4485 8.6074 1.5438 5.7116 27.9790
#
#
#
# Elastic Compliance Matrix: (Units=1/GPa)
#
#
# Indices 1 2 3 4 5 6 
#
# 1 0.021172 0.004603 -0.002943 -0.003629 -0.002471 0.010987
# 2 0.004603 0.025895 -0.003155 -0.009051 -0.000618 0.002346
# 3 -0.002943 -0.003155 0.012882 -0.008490 0.000510 -0.004772
# 4 -0.003629 -0.009051 -0.008490 0.030056 0.000934 -0.000417
# 5 -0.002471 -0.000618 0.000510 0.000934 0.019111 -0.005200
# 6 0.010987 0.002346 -0.004772 -0.000417 -0.005200 0.043162
#
#
# Mechanical properties :
#
#
# Convention : Reuss Voigt Hill
#
# Bulk Modulus (GPa) = 17.55660 33.29685 25.42672
# Shear Modulus (GPa) = 28.69348 39.93623 34.31485
#
# Velocity S-wave (km/s) = 3.61958 4.27022 3.95829
# Velocity P-wave (km/s) = 5.04824 6.28620 5.70092
#
# Compressibility (1/GPa) = 0.05695865
#
# Stress axis : x y z
#
# Youngs Moduli (GPa) = 47.23131 38.61761 77.62472
#
# Poissons Ratio (x) = -0.17774 0.22843
# Poissons Ratio (y) = -0.21739 0.24494
# Poissons Ratio (z) = 0.13899 0.12185
#
# Static dielectric constant tensor:
#      x y z
#    x 1.852170 0.036720 0.001790 
#    y 0.036720 1.857310 0.038270 
#    z 0.001790 0.038270 1.823110 
# 
# From -- ./inp_files/399588.got.cif
#   From: 2010.05.17/outbox.ucp.g08.bks.cvg/sg2_200_cif.got.tgz:399588.got - 2010.06.11 11:32:03.
