data_PCOD9075453
_publ_section_title
;
Structure prediction by ZEFSAII (Michael W. Deem and Ramdas Pophale) SiO2 
 PCOD9075453
Probable space group: P -1
;
_chemical_formula_sum "Si O2"
_cell_formula_units_Z 12
_cell_length_a 15.000000
_cell_length_b 15.000000
_cell_length_c 9.000000
_cell_angle_alpha 150.000000
_cell_angle_beta 140.000000
_cell_angle_gamma 30.000000
_cell_volume 505.206356
_symmetry_space_group_name_H-M "P -1"
_symmetry_group_IT_number 2
_symmetry_cell_setting 'triclinic'
loop_
_space_group_symop_operation_xyz
x,y,z
-x,-y,-z
loop_
_atom_site_type_symbol
_atom_site_label
_atom_site_fract_x
_atom_site_fract_y
_atom_site_fract_z
Si Si1 0.230509 0.861003 0.670872
Si Si2 0.392815 0.373985 0.040918
Si Si3 0.622116 0.569947 0.216068
Si Si4 0.797235 0.709804 0.854227
Si Si5 0.192429 0.232831 0.724613
Si Si6 0.931141 0.058708 0.829341
O O1 0.261615 0.652271 0.312446
O O2 0.430500 0.737232 0.800087
O O3 0.087460 0.931470 0.720865
O O4 0.178171 0.100328 0.883762
O O5 0.462693 0.301515 0.858973
O O6 0.304404 0.254741 0.783744
O O7 0.666930 0.694480 0.564576
O O8 0.500000 0.500000 0.000000
O O9 0.812913 0.331806 0.067788
O O10 0.989967 0.456445 0.748742
O O11 0.734001 0.752318 0.004143
O O12 0.187748 0.025092 0.445708
O O13 0.000000 0.000000 0.000000
#
# Coordination Sequence:
#
# PCOD9075453 Si02
#       6
#     2   2   2   2   2   2
#     4  11  26  47  73 104 144 192 235 294 352 427
#     4  11  27  46  74 105 145 185 242 290 356 419
#     4  12  28  46  73 109 146 186 236 296 355 422
#     4  11  25  45  74 104 146 182 243 288 359 418
#     4  11  25  45  74 106 139 191 234 294 351 426
#     4  12  25  46  74 103 147 185 237 290 356 418
#
# _framework density 23.752669999999998
#
# number of rings (size 3 to 8) (size 9 to 14) (size 15 to 20)
#    0.000    0.667    1.667    5.000    9.333    4.667 
#    0.000    0.000    0.000    0.000    0.000    0.000 
#    0.000    0.000    0.000    0.000    0.000    0.000 
#
# Total GULP energy -66995.647040 kJ/mol
# GULP energy per Si atom -5582.970587 kJ/mol
# Density = 2.369861 g / cm^3
# Si number density = 23.752670 Si / 1000 Ang^3
#
#
#
# Elastic Constant Matrix: (Units=GPa)
#
#
# Indices 1 2 3 4 5 6 
#
# 1 118.8977 -38.9182 26.2074 -5.8483 19.2881 5.0106
# 2 -38.9182 20.1565 15.8778 13.5226 -8.8871 1.3086
# 3 26.2074 15.8778 122.2321 -3.1870 9.5018 3.4172
# 4 -5.8483 13.5226 -3.1870 40.1016 6.7874 3.6365
# 5 19.2881 -8.8871 9.5018 6.7874 39.8987 -0.2242
# 6 5.0106 1.3086 3.4172 3.6365 -0.2242 29.2967
#
#
#
# Elastic Compliance Matrix: (Units=1/GPa)
#
#
# Indices 1 2 3 4 5 6 
#
# 1 -0.036402 -0.138183 0.029131 0.048137 -0.028292 0.002809
# 2 -0.138183 -0.414051 0.092106 0.137502 -0.070674 0.013775
# 3 0.029131 0.092106 -0.011808 -0.029814 0.014296 -0.003909
# 4 0.048137 0.137502 -0.029814 -0.019004 0.017643 -0.008403
# 5 -0.028292 -0.070674 0.014296 0.017643 0.016617 0.004265
# 6 0.002809 0.013775 -0.003909 -0.008403 0.004265 0.034569
#
#
# Mechanical properties :
#
#
# Convention : Reuss Voigt Hill
#
# Bulk Modulus (GPa) = -2.01550 29.73557 13.86004
# Shear Modulus (GPa) = -8.90359 39.06735 15.08188
#
# Velocity S-wave (km/s) = -1.93819 4.05996 2.52257
# Velocity P-wave (km/s) = 2.42057 5.87569 3.78580
#
# Compressibility (1/GPa) = -0.49615545
#
# Stress axis : x y z
#
# Youngs Moduli (GPa) = -27.47081 -2.41516 -84.68487
#
# Poissons Ratio (x) = -0.33374 2.46692
# Poissons Ratio (y) = -3.79601 7.80000
# Poissons Ratio (z) = 0.80024 0.22245
#
# Static dielectric constant tensor:
#      x y z
#    x 1.898100 0.050850 -0.045450 
#    y 0.050850 1.963070 0.023090 
#    z -0.045450 0.023090 1.911510 
# 
# From -- ./inp_files/160724.got.cif
#   From: 2010.05.17/outbox.ucp.g08.bks.cvg/sg2_81_cif.got.tgz:160724.got - 2010.06.11 11:32:03.
