data_PCOD9075593
_publ_section_title
;
Structure prediction by ZEFSAII (Michael W. Deem and Ramdas Pophale) SiO2 
 PCOD9075593
Probable space group: P -1
;
_chemical_formula_sum "Si O2"
_cell_formula_units_Z 16
_cell_length_a 12.000000
_cell_length_b 12.000000
_cell_length_c 12.000000
_cell_angle_alpha 60.000000
_cell_angle_beta 120.000000
_cell_angle_gamma 150.000000
_cell_volume 739.238121
_symmetry_space_group_name_H-M "P -1"
_symmetry_group_IT_number 2
_symmetry_cell_setting 'triclinic'
loop_
_space_group_symop_operation_xyz
x,y,z
-x,-y,-z
loop_
_atom_site_type_symbol
_atom_site_label
_atom_site_fract_x
_atom_site_fract_y
_atom_site_fract_z
Si Si1 0.102365 0.962775 0.147766
Si Si2 0.711905 0.141413 0.280510
Si Si3 0.345536 0.015369 0.064937
Si Si4 0.545285 0.663632 0.684055
Si Si5 0.859600 0.489181 0.352775
Si Si6 0.763693 0.889827 0.450074
Si Si7 0.999839 0.650499 0.900175
Si Si8 0.513131 0.350891 0.799541
O O1 0.976631 0.720226 0.244022
O O2 0.303808 0.075071 0.116138
O O3 0.224182 0.119093 0.240468
O O4 0.000000 0.000000 0.000000
O O5 0.466767 0.986762 0.187393
O O6 0.790098 0.329835 0.299240
O O7 0.847352 0.225199 0.194198
O O8 0.754969 0.036088 0.410867
O O9 0.476552 0.203035 0.941819
O O10 0.109741 0.797128 0.993894
O O11 0.357553 0.621004 0.638164
O O12 0.612636 0.706985 0.565638
O O13 0.464066 0.450970 0.778901
O O14 0.000000 0.500000 0.500000
O O15 0.638026 0.784254 0.319910
O O16 0.000000 0.000000 0.500000
O O17 0.777201 0.546890 0.809129
O O18 0.000000 0.500000 0.000000
#
# Coordination Sequence:
#
# PCOD9075593 Si02
#       8
#     2   2   2   2   2   2   2   2
#     4  12  28  48  79 111 156 202 255 317 381 458
#     4  12  25  47  76 109 154 195 254 317 384 450
#     4  12  25  46  74 116 148 191 255 318 386 445
#     4  12  29  50  77 109 154 203 257 309 383 460
#     4  12  30  50  77 113 156 209 257 312 384 464
#     4  12  29  50  79 109 155 203 257 315 379 458
#     4  12  23  42  72 109 150 192 244 317 380 450
#     4  12  27  47  78 111 151 199 256 316 388 451
#
# _framework density 21.643905
#
# number of rings (size 3 to 8) (size 9 to 14) (size 15 to 20)
#    0.000    0.000    3.750    5.250   10.500    2.000 
#    0.000    0.000    0.000    0.000    0.000    0.000 
#    0.000    0.000    0.000    0.000    0.000    0.000 
#
# Total GULP energy -89143.828502 kJ/mol
# GULP energy per Si atom -5571.489281 kJ/mol
# Density = 2.159464 g / cm^3
# Si number density = 21.643905 Si / 1000 Ang^3
#
#
#
# Elastic Constant Matrix: (Units=GPa)
#
#
# Indices 1 2 3 4 5 6 
#
# 1 141.8636 22.8791 26.1066 17.5869 35.6388 3.8520
# 2 22.8791 68.5018 25.9086 15.2447 13.8149 -18.1921
# 3 26.1066 25.9086 112.7575 8.9168 25.4262 7.4151
# 4 17.5869 15.2447 8.9168 45.6443 -2.4460 9.0475
# 5 35.6388 13.8149 25.4262 -2.4460 61.7369 3.1787
# 6 3.8520 -18.1921 7.4151 9.0475 3.1787 51.4230
#
#
#
# Elastic Compliance Matrix: (Units=1/GPa)
#
#
# Indices 1 2 3 4 5 6 
#
# 1 0.008933 -0.001173 -0.000447 -0.003190 -0.004828 -0.000160
# 2 -0.001173 0.021617 -0.003945 -0.008149 -0.003370 0.009946
# 3 -0.000447 -0.003945 0.010791 -0.000258 -0.003176 -0.002677
# 4 -0.003190 -0.008149 -0.000258 0.027741 0.005272 -0.007814
# 5 -0.004828 -0.003370 -0.003176 0.005272 0.021391 -0.002623
# 6 -0.000160 0.009946 -0.002677 -0.007814 -0.002623 0.024900
#
#
# Mechanical properties :
#
#
# Convention : Reuss Voigt Hill
#
# Bulk Modulus (GPa) = 33.10171 52.54574 42.82373
# Shear Modulus (GPa) = 36.61010 48.30941 42.45975
#
# Velocity S-wave (km/s) = 4.11721 4.72954 4.43396
# Velocity P-wave (km/s) = 6.15865 7.35900 6.78542
#
# Compressibility (1/GPa) = 0.03020992
#
# Stress axis : x y z
#
# Youngs Moduli (GPa) = 111.94069 46.26041 92.66901
#
# Poissons Ratio (x) = 0.05429 0.04144
# Poissons Ratio (y) = 0.13136 0.36558
# Poissons Ratio (z) = 0.05005 0.18250
#
# Static dielectric constant tensor:
#      x y z
#    x 1.773500 -0.033130 0.096060 
#    y -0.033130 1.979560 -0.217860 
#    z 0.096060 -0.217860 2.439910 
# 
# From -- ./inp_files/98714.got.cif
#   From: 2010.05.17/outbox.ucp.g08.bks.cvg/sg2_50_cif.got.tgz:98714.got - 2010.06.11 11:32:03.
