data_PCOD9075984
_publ_section_title
;
Structure prediction by ZEFSAII (Michael W. Deem and Ramdas Pophale) SiO2 
 PCOD9075984
Probable space group: P -1
;
_chemical_formula_sum "Si O2"
_cell_formula_units_Z 14
_cell_length_a 6.732060
_cell_length_b 14.866732
_cell_length_c 8.656598
_cell_angle_alpha 115.940282
_cell_angle_beta 74.347267
_cell_angle_gamma 57.641841
_cell_volume 492.448503
_symmetry_space_group_name_H-M "P -1"
_symmetry_group_IT_number 2
_symmetry_cell_setting 'triclinic'
loop_
_space_group_symop_operation_xyz
x,y,z
-x,-y,-z
loop_
_atom_site_type_symbol
_atom_site_label
_atom_site_fract_x
_atom_site_fract_y
_atom_site_fract_z
Si Si1 0.591715 0.610208 0.413882
Si Si2 0.322079 0.502318 0.361871
Si Si3 0.023061 0.127015 0.611982
Si Si4 0.659660 0.551483 0.012167
Si Si5 0.402327 0.950816 0.099555
Si Si6 0.927881 0.783566 0.047860
Si Si7 0.826843 0.043405 0.258797
O O1 0.310108 0.627873 0.471700
O O2 0.749195 0.523450 0.479252
O O3 0.776806 0.525633 0.146481
O O4 0.431270 0.777678 0.579556
O O5 0.175829 0.512818 0.240632
O O6 0.702493 0.350892 0.155790
O O7 0.185900 0.071477 0.373430
O O8 0.123403 0.190078 0.737662
O O9 0.646701 0.266018 0.795137
O O10 0.854961 0.008871 0.411314
O O11 0.500000 0.500000 0.000000
O O12 0.174620 0.953566 0.070959
O O13 0.707658 0.792888 0.002073
O O14 0.500000 0.000000 0.000000
O O15 0.804260 0.937340 0.134157
#
# Coordination Sequence:
#
# PCOD9075984 Si02
#       7
#     2   2   2   2   2   2   2
#     4  10  18  32  58  83 115 154 202 241 297 358
#     4   9  19  34  53  85 117 155 196 247 294 357
#     4   9  20  38  56  84 118 149 197 244 292 351
#     4   9  17  32  55  83 115 155 199 241 296 360
#     4  12  22  34  57  90 120 154 193 244 307 356
#     4   9  22  38  58  82 121 151 196 246 295 348
#     4  10  22  38  63  86 118 158 200 247 303 353
#
# _framework density 28.429371
#
# number of rings (size 3 to 8) (size 9 to 14) (size 15 to 20)
#    0.857    1.429    1.429    1.714    0.000    2.286 
#    0.000    0.000    0.000    4.286    0.000    9.000 
#    0.000    0.000    0.000    0.000    0.000    0.000 
#
# Total GULP energy -78205.670464 kJ/mol
# GULP energy per Si atom -5586.119319 kJ/mol
# Density = 2.836466 g / cm^3
# Si number density = 28.429371 Si / 1000 Ang^3
#
#
#
# Elastic Constant Matrix: (Units=GPa)
#
#
# Indices 1 2 3 4 5 6 
#
# 1 66.5996 21.4400 27.7377 -22.2011 -6.6327 -2.0832
# 2 21.4400 150.0714 68.2742 -18.4468 5.4824 10.2151
# 3 27.7377 68.2742 140.7229 -20.4089 4.0271 4.2458
# 4 -22.2011 -18.4468 -20.4089 72.2131 3.8388 12.9072
# 5 -6.6327 5.4824 4.0271 3.8388 43.3717 -21.5479
# 6 -2.0832 10.2151 4.2458 12.9072 -21.5479 53.4126
#
#
#
# Elastic Compliance Matrix: (Units=1/GPa)
#
#
# Indices 1 2 3 4 5 6 
#
# 1 0.018245 -0.001167 -0.002587 0.004101 0.003614 0.001607
# 2 -0.001167 0.009017 -0.003765 0.001525 -0.002523 -0.002857
# 3 -0.002587 -0.003765 0.009696 0.001245 -0.001444 -0.001035
# 4 0.004101 0.001525 0.001245 0.017161 -0.004221 -0.006081
# 5 0.003614 -0.002523 -0.001444 -0.004221 0.031654 0.014528
# 6 0.001607 -0.002857 -0.001035 -0.006081 0.014528 0.026744
#
#
# Mechanical properties :
#
#
# Convention : Reuss Voigt Hill
#
# Bulk Modulus (GPa) = 45.62091 65.81084 55.71588
# Shear Modulus (GPa) = 37.07439 49.79560 43.43500
#
# Velocity S-wave (km/s) = 3.61513 4.18970 3.91298
# Velocity P-wave (km/s) = 5.78857 6.82671 6.32896
#
# Compressibility (1/GPa) = 0.02191977
#
# Stress axis : x y z
#
# Youngs Moduli (GPa) = 54.80808 110.89688 103.13478
#
# Poissons Ratio (x) = 0.12940 0.26685
# Poissons Ratio (y) = 0.06396 0.38833
# Poissons Ratio (z) = 0.14181 0.41756
#
# Static dielectric constant tensor:
#      x y z
#    x 2.315330 -0.006770 0.111290 
#    y -0.006770 2.291180 -0.074080 
#    z 0.111290 -0.074080 2.268020 
# 
# From -- ./inp_files/215503.got.cif
#   From: 2010.05.17/outbox.cif.g08.bks.cpg/sg2_108_cif.got.tgz:215503.got - 2010.06.03 11:33:40.
