data_PCOD9075619
_publ_section_title
;
Structure prediction by ZEFSAII (Michael W. Deem and Ramdas Pophale) SiO2 
 PCOD9075619
Probable space group: P -1
;
_chemical_formula_sum "Si O2"
_cell_formula_units_Z 15
_cell_length_a 5.692290
_cell_length_b 11.611628
_cell_length_c 20.134995
_cell_angle_alpha 25.354648
_cell_angle_beta 106.362612
_cell_angle_gamma 106.496927
_cell_volume 545.417598
_symmetry_space_group_name_H-M "P -1"
_symmetry_group_IT_number 2
_symmetry_cell_setting 'triclinic'
loop_
_space_group_symop_operation_xyz
x,y,z
-x,-y,-z
loop_
_atom_site_type_symbol
_atom_site_label
_atom_site_fract_x
_atom_site_fract_y
_atom_site_fract_z
Si Si1 0.410958 0.942388 0.125206
Si Si2 0.042320 0.518262 0.360321
Si Si3 0.163715 0.957014 0.340471
Si Si4 0.454589 0.421013 0.790402
Si Si5 0.500000 0.500000 0.000000
Si Si6 0.898557 0.357800 0.206413
Si Si7 0.332158 0.108372 0.508603
Si Si8 0.866817 0.187226 0.089715
O O1 0.678042 0.941677 0.180534
O O2 0.208480 0.796623 0.232437
O O3 0.394059 0.772053 0.144468
O O4 0.391341 0.251372 0.940071
O O5 0.973949 0.340035 0.512442
O O6 0.188510 0.316298 0.432178
O O7 0.797194 0.564455 0.276978
O O8 0.430388 0.926279 0.407874
O O9 0.035340 0.146656 0.282881
O O10 0.116275 0.101735 0.190883
O O11 0.590759 0.720806 0.640492
O O12 0.352185 0.586985 0.878801
O O13 0.290689 0.651402 0.953956
O O14 0.821840 0.181034 0.357360
O O15 0.063760 0.634132 0.063242
#
# Coordination Sequence:
#
# PCOD9075619 Si02
#       8
#     2   2   2   2   1   2   2   2
#     4  10  21  36  56  82 112 143 182 225 273 327
#     4   9  18  34  57  79 106 145 184 226 273 320
#     4   9  18  33  54  80 110 144 182 223 272 324
#     4   9  19  38  58  79 108 144 184 229 271 317
#     4  10  20  36  54  76 112 148 182 222 266 320
#     4  10  18  32  54  79 109 146 183 219 268 325
#     4   9  17  33  58  80 105 147 187 223 268 319
#     4  11  22  34  54  85 114 145 179 221 274 330
#
# _framework density 27.501864000000001
#
# number of rings (size 3 to 8) (size 9 to 14) (size 15 to 20)
#    0.000    2.400    0.000    3.600    0.000    1.600 
#    0.000    6.667    0.000   11.200    0.000   14.000 
#    0.000    0.000    0.000    0.000    0.000    0.000 
#
# Total GULP energy -83697.814112 kJ/mol
# GULP energy per Si atom -5579.854274 kJ/mol
# Density = 2.743927 g / cm^3
# Si number density = 27.501864 Si / 1000 Ang^3
#
#
#
# Elastic Constant Matrix: (Units=GPa)
#
#
# Indices 1 2 3 4 5 6 
#
# 1 78.3190 25.1108 50.0900 -6.8889 6.2015 -5.3764
# 2 25.1108 115.4939 43.7710 0.2697 -3.9072 -5.6885
# 3 50.0900 43.7710 199.0752 -4.7977 -33.0648 20.7554
# 4 -6.8889 0.2697 -4.7977 21.8663 14.5715 -4.7835
# 5 6.2015 -3.9072 -33.0648 14.5715 74.7322 -4.7538
# 6 -5.3764 -5.6885 20.7554 -4.7835 -4.7538 43.8115
#
#
#
# Elastic Compliance Matrix: (Units=1/GPa)
#
#
# Indices 1 2 3 4 5 6 
#
# 1 0.018490 -0.001916 -0.005453 0.009467 -0.005573 0.005032
# 2 -0.001916 0.009888 -0.001886 -0.000810 0.000118 0.001867
# 3 -0.005453 -0.001886 0.007915 -0.003841 0.004311 -0.004615
# 4 0.009467 -0.000810 -0.003841 0.058552 -0.013447 0.007810
# 5 -0.005573 0.000118 0.004311 -0.013447 0.018239 -0.002200
# 6 0.005032 0.001867 -0.004615 0.007810 -0.002200 0.026485
#
#
# Mechanical properties :
#
#
# Convention : Reuss Voigt Hill
#
# Bulk Modulus (GPa) = 56.24041 70.09242 63.16641
# Shear Modulus (GPa) = 30.48649 46.34308 38.41479
#
# Velocity S-wave (km/s) = 3.33306 4.10944 3.74144
# Velocity P-wave (km/s) = 5.94193 6.93242 6.45619
#
# Compressibility (1/GPa) = 0.01778081
#
# Stress axis : x y z
#
# Youngs Moduli (GPa) = 54.08415 101.13410 126.34679
#
# Poissons Ratio (x) = 0.19379 0.68898
# Poissons Ratio (y) = 0.10363 0.23835
# Poissons Ratio (z) = 0.29493 0.19079
#
# Static dielectric constant tensor:
#      x y z
#    x 2.772330 -0.152080 -0.471270 
#    y -0.152080 2.107210 0.032160 
#    z -0.471270 0.032160 2.499060 
# 
# From -- ./inp_files/66212.got.cif
#   From: 2010.05.17/outbox.cif.g08.bks.cpg/sg2_34_cif.got.tgz:66212.got - 2010.06.03 11:33:40.
