data_PCOD9075441
_publ_section_title
;
Structure prediction by ZEFSAII (Michael W. Deem and Ramdas Pophale) SiO2 
 PCOD9075441
Probable space group: P -1
;
_chemical_formula_sum "Si O2"
_cell_formula_units_Z 16
_cell_length_a 17.256094
_cell_length_b 11.997302
_cell_length_c 13.079986
_cell_angle_alpha 34.940727
_cell_angle_beta 50.037193
_cell_angle_gamma 29.501898
_cell_volume 739.029094
_symmetry_space_group_name_H-M "P -1"
_symmetry_group_IT_number 2
_symmetry_cell_setting 'triclinic'
loop_
_space_group_symop_operation_xyz
x,y,z
-x,-y,-z
loop_
_atom_site_type_symbol
_atom_site_label
_atom_site_fract_x
_atom_site_fract_y
_atom_site_fract_z
Si Si1 0.025316 0.712554 0.167092
Si Si2 0.295427 0.880196 0.766726
Si Si3 0.012376 0.085218 0.162930
Si Si4 0.532844 0.624449 0.458584
Si Si5 0.631411 0.394931 0.777677
Si Si6 0.224277 0.435666 0.416495
Si Si7 0.843988 0.248737 0.372746
Si Si8 0.802347 0.914662 0.538559
O O1 0.144848 0.556847 0.279363
O O2 0.046636 0.455844 0.311601
O O3 0.838225 0.026739 0.122057
O O4 0.067716 0.770269 0.987751
O O5 0.278110 0.135778 0.618174
O O6 0.235269 0.964339 0.636460
O O7 0.482321 0.528375 0.866854
O O8 0.895996 0.303955 0.191371
O O9 0.180909 0.954111 0.111312
O O10 0.083768 0.757118 0.360477
O O11 0.500000 0.500000 0.500000
O O12 0.592688 0.452604 0.646534
O O13 0.676134 0.543500 0.353137
O O14 0.354308 0.974627 0.372916
O O15 0.637120 0.611683 0.648512
O O16 0.816282 0.077717 0.476480
O O17 0.000000 0.000000 0.500000
#
# Coordination Sequence:
#
# PCOD9075441 Si02
#       8
#     2   2   2   2   2   2   2   2
#     4  11  20  33  50  75 112 139 162 200 254 310
#     4  10  18  32  54  76 104 139 167 203 250 301
#     4  10  21  31  51  78 106 132 173 204 253 304
#     4   9  18  33  56  77  95 126 173 226 251 283
#     4   9  19  32  51  79 103 127 178 210 247 298
#     4   9  18  33  52  75 104 138 168 204 245 301
#     4  11  18  35  59  75  94 131 178 217 255 289
#     4   9  20  34  53  80  99 131 173 209 248 307
#
# _framework density 21.650027000000001
#
# number of rings (size 3 to 8) (size 9 to 14) (size 15 to 20)
#    0.750    1.500    1.250    3.750    0.000    0.500 
#    0.000    1.250    0.000    0.000    0.000    0.000 
#    0.000    0.000    0.000    0.000    0.000    0.000 
#
# Total GULP energy -89071.071730 kJ/mol
# GULP energy per Si atom -5566.941983 kJ/mol
# Density = 2.160075 g / cm^3
# Si number density = 21.650027 Si / 1000 Ang^3
#
#
#
# Elastic Constant Matrix: (Units=GPa)
#
#
# Indices 1 2 3 4 5 6 
#
# 1 56.2922 1.8038 -2.3122 6.7587 15.3180 -5.2394
# 2 1.8038 134.3455 23.0921 36.6279 14.9237 -28.0078
# 3 -2.3122 23.0921 37.3914 25.0001 8.2181 -5.9085
# 4 6.7587 36.6279 25.0001 30.9594 10.5624 -0.8698
# 5 15.3180 14.9237 8.2181 10.5624 17.2411 -0.7519
# 6 -5.2394 -28.0078 -5.9085 -0.8698 -0.7519 24.4312
#
#
#
# Elastic Compliance Matrix: (Units=1/GPa)
#
#
# Indices 1 2 3 4 5 6 
#
# 1 0.034091 0.013196 0.027932 -0.033477 -0.033339 0.026976
# 2 0.013196 0.024454 0.025468 -0.046212 -0.015197 0.034910
# 3 0.027932 0.025468 0.096174 -0.103098 -0.027190 0.053938
# 4 -0.033477 -0.046212 -0.103098 0.171854 0.010173 -0.078658
# 5 -0.033339 -0.015197 -0.027190 0.010173 0.106304 -0.027514
# 6 0.026976 0.034910 0.053938 -0.078658 -0.027514 0.096134
#
#
# Mechanical properties :
#
#
# Convention : Reuss Voigt Hill
#
# Bulk Modulus (GPa) = 3.47332 30.35518 16.91425
# Shear Modulus (GPa) = 10.16693 28.22270 19.19482
#
# Velocity S-wave (km/s) = 2.16938 3.61444 2.98081
# Velocity P-wave (km/s) = 2.80763 5.60983 4.43582
#
# Compressibility (1/GPa) = 0.28790908
#
# Stress axis : x y z
#
# Youngs Moduli (GPa) = 29.33304 40.89300 10.39785
#
# Poissons Ratio (x) = -0.53961 -0.29043
# Poissons Ratio (y) = -0.38707 -0.26481
# Poissons Ratio (z) = -0.81932 -1.04145
#
# Static dielectric constant tensor:
#      x y z
#    x 1.859450 -0.077890 -0.023680 
#    y -0.077890 1.879830 0.043190 
#    z -0.023680 0.043190 1.779310 
# 
# From -- ./inp_files/464370.got.cif
#   From: 2010.05.17/outbox.cif.g08.bks.cpg/sg2_233_cif.got.tgz:464370.got - 2010.06.03 11:33:40.
