data_PCOD9075914
_publ_section_title
;
Structure prediction by ZEFSAII (Michael W. Deem and Ramdas Pophale) SiO2 
 PCOD9075914
Probable space group: P -1
;
_chemical_formula_sum "Si O2"
_cell_formula_units_Z 16
_cell_length_a 10.546013
_cell_length_b 13.222931
_cell_length_c 8.276600
_cell_angle_alpha 85.351408
_cell_angle_beta 70.835989
_cell_angle_gamma 138.962859
_cell_volume 606.995337
_symmetry_space_group_name_H-M "P -1"
_symmetry_group_IT_number 2
_symmetry_cell_setting 'triclinic'
loop_
_space_group_symop_operation_xyz
x,y,z
-x,-y,-z
loop_
_atom_site_type_symbol
_atom_site_label
_atom_site_fract_x
_atom_site_fract_y
_atom_site_fract_z
Si Si1 0.877962 0.321775 0.441065
Si Si2 0.358613 0.198965 0.209354
Si Si3 0.052323 0.829723 0.742410
Si Si4 0.812876 0.352613 0.959838
Si Si5 0.502692 0.252045 0.557929
Si Si6 0.845903 0.772049 0.508698
Si Si7 0.768140 0.787012 0.074786
Si Si8 0.052869 0.346812 0.709014
O O1 0.838916 0.212246 0.332336
O O2 0.642520 0.242409 0.578308
O O3 0.093707 0.525621 0.251832
O O4 0.959060 0.320713 0.573312
O O5 0.359132 0.277010 0.350210
O O6 0.553015 0.232354 0.128838
O O7 0.363942 0.260331 0.028842
O O8 0.093322 0.986029 0.348077
O O9 0.882687 0.739160 0.668827
O O10 0.263488 0.046496 0.618841
O O11 0.888069 0.754049 0.976816
O O12 0.834680 0.245964 0.927621
O O13 0.000000 0.500000 0.000000
O O14 0.417194 0.291693 0.702029
O O15 0.733423 0.446244 0.350834
O O16 0.838845 0.695548 0.366530
O O17 0.000000 0.000000 0.000000
#
# Coordination Sequence:
#
# PCOD9075914 Si02
#       8
#     2   2   2   2   2   2   2   2
#     4  10  20  37  58  82 111 153 199 237 287 348
#     4  10  20  39  61  81 123 156 191 242 298 346
#     4   9  19  34  57  84 111 145 197 237 289 346
#     4  11  24  39  58  88 125 156 192 244 299 344
#     4  10  18  32  57  80 116 145 185 244 285 336
#     4   9  21  38  61  84 111 157 196 235 297 353
#     4   9  18  34  56  89 110 145 193 243 290 341
#     4  10  21  39  59  87 112 154 204 235 294 353
#
# _framework density 26.359345000000001
#
# number of rings (size 3 to 8) (size 9 to 14) (size 15 to 20)
#    0.000    2.250    0.000    3.375    3.500    1.500 
#    4.500    4.375    0.000    0.000    0.000    0.000 
#    0.000    0.000    0.000    0.000    0.000    0.000 
#
# Total GULP energy -89301.501187 kJ/mol
# GULP energy per Si atom -5581.343824 kJ/mol
# Density = 2.629935 g / cm^3
# Si number density = 26.359345 Si / 1000 Ang^3
#
#
#
# Elastic Constant Matrix: (Units=GPa)
#
#
# Indices 1 2 3 4 5 6 
#
# 1 114.1649 32.6753 50.4333 18.0463 -57.6928 1.9821
# 2 32.6753 86.7886 40.9033 32.2852 -28.5100 -11.3428
# 3 50.4333 40.9033 130.2139 34.5317 -56.7777 -2.0590
# 4 18.0463 32.2852 34.5317 48.2817 -10.5547 -16.7403
# 5 -57.6928 -28.5100 -56.7777 -10.5547 60.6449 12.9719
# 6 1.9821 -11.3428 -2.0590 -16.7403 12.9719 31.7893
#
#
#
# Elastic Compliance Matrix: (Units=1/GPa)
#
#
# Indices 1 2 3 4 5 6 
#
# 1 0.026046 0.001125 0.010272 -0.018549 0.037146 -0.025483
# 2 0.001125 0.017675 0.001364 -0.012602 0.009345 -0.004125
# 3 0.010272 0.001364 0.023676 -0.022750 0.033841 -0.024409
# 4 -0.018549 -0.012602 -0.022750 0.057828 -0.044142 0.043651
# 5 0.037146 0.009345 0.033841 -0.044142 0.092588 -0.057816
# 6 -0.025483 -0.004125 -0.024409 0.043651 -0.057816 0.076573
#
#
# Mechanical properties :
#
#
# Convention : Reuss Voigt Hill
#
# Bulk Modulus (GPa) = 10.76224 64.35461 37.55843
# Shear Modulus (GPa) = 16.67585 41.95356 29.31470
#
# Velocity S-wave (km/s) = 2.51795 3.99382 3.33846
# Velocity P-wave (km/s) = 3.54192 6.76275 5.39815
#
# Compressibility (1/GPa) = 0.09291747
#
# Stress axis : x y z
#
# Youngs Moduli (GPa) = 38.39392 56.57842 42.23752
#
# Poissons Ratio (x) = -0.06365 -0.43386
# Poissons Ratio (y) = -0.04320 -0.05760
# Poissons Ratio (z) = -0.39438 -0.07716
#
# Static dielectric constant tensor:
#      x y z
#    x 2.222350 -0.054270 0.018270 
#    y -0.054270 2.033450 0.044360 
#    z 0.018270 0.044360 2.122190 
# 
# From -- ./inp_files/273333.got.cif
#   From: 2010.05.17/outbox.cif.g08.bks.cpg/sg2_137_cif.got.tgz:273333.got - 2010.06.03 11:33:40.
