data_PCOD9075973
_publ_section_title
;
Structure prediction by ZEFSAII (Michael W. Deem and Ramdas Pophale) SiO2 
 PCOD9075973
Probable space group: P -1
;
_chemical_formula_sum "Si O2"
_cell_formula_units_Z 13
_cell_length_a 13.096665
_cell_length_b 8.406063
_cell_length_c 11.851967
_cell_angle_alpha 107.905939
_cell_angle_beta 130.349764
_cell_angle_gamma 38.646876
_cell_volume 564.603626
_symmetry_space_group_name_H-M "P -1"
_symmetry_group_IT_number 2
_symmetry_cell_setting 'triclinic'
loop_
_space_group_symop_operation_xyz
x,y,z
-x,-y,-z
loop_
_atom_site_type_symbol
_atom_site_label
_atom_site_fract_x
_atom_site_fract_y
_atom_site_fract_z
Si Si1 0.500000 0.500000 0.500000
Si Si2 0.557896 0.624042 0.119311
Si Si3 0.269794 0.049399 0.829170
Si Si4 0.010179 0.978862 0.638120
Si Si5 0.632693 0.117179 0.393842
Si Si6 0.447917 0.803462 0.329986
Si Si7 0.831785 0.667949 0.611171
O O1 0.413466 0.678569 0.355351
O O2 0.584627 0.612122 0.635930
O O3 0.821921 0.336684 0.272183
O O4 0.435918 0.773343 0.183337
O O5 0.528681 0.149081 0.980261
O O6 0.500000 0.500000 0.000000
O O7 0.363341 0.905655 0.741012
O O8 0.092101 0.373900 0.754263
O O9 0.114671 0.049660 0.762782
O O10 0.761345 0.166464 0.536522
O O11 0.000000 0.000000 0.500000
O O12 0.766601 0.835946 0.487951
O O13 0.696625 0.631523 0.488894
O O14 0.278046 0.116482 0.319180
#
# Coordination Sequence:
#
# PCOD9075973 Si02
#       7
#     1   2   2   2   2   2   2
#     4  10  18  32  58  78  98 134 182 230 256 300
#     4  10  20  34  56  82 109 139 177 225 271 315
#     4  10  19  33  54  79 110 142 175 222 272 316
#     4   9  17  32  55  76 100 138 183 222 252 307
#     4  10  19  33  55  80 106 141 186 220 260 315
#     4  10  20  36  56  81 107 139 183 222 267 317
#     4  10  21  35  55  80 111 145 179 221 263 319
#
# _framework density 23.025002000000001
#
# number of rings (size 3 to 8) (size 9 to 14) (size 15 to 20)
#    0.000    2.154    0.000    6.000    0.000    0.615 
#    0.000    3.077    0.000   38.769    0.000    0.000 
#    0.000    0.000    0.000    0.000    0.000    0.000 
#
# Total GULP energy -72402.156619 kJ/mol
# GULP energy per Si atom -5569.396663 kJ/mol
# Density = 2.297260 g / cm^3
# Si number density = 23.025002 Si / 1000 Ang^3
#
#
#
# Elastic Constant Matrix: (Units=GPa)
#
#
# Indices 1 2 3 4 5 6 
#
# 1 85.2809 12.5794 47.2113 0.5258 -22.4451 -0.2009
# 2 12.5794 123.9333 73.4257 -14.0547 -28.3860 -14.2745
# 3 47.2113 73.4257 136.2578 -10.0570 -45.3500 -17.4133
# 4 0.5258 -14.0547 -10.0570 44.0521 -1.2647 -14.2077
# 5 -22.4451 -28.3860 -45.3500 -1.2647 47.0090 3.7731
# 6 -0.2009 -14.2745 -17.4133 -14.2077 3.7731 37.1321
#
#
#
# Elastic Compliance Matrix: (Units=1/GPa)
#
#
# Indices 1 2 3 4 5 6 
#
# 1 0.015562 0.002178 -0.006018 -0.001700 0.003125 -0.002869
# 2 0.002178 0.012905 -0.006060 0.003860 0.002824 0.003321
# 3 -0.006018 -0.006060 0.016947 0.004301 0.009428 0.006273
# 4 -0.001700 0.003860 0.004301 0.029704 0.005319 0.014317
# 5 0.003125 0.002824 0.009428 0.005319 0.033374 0.004168
# 6 -0.002869 0.003321 0.006273 0.014317 0.004168 0.036188
#
#
# Mechanical properties :
#
#
# Convention : Reuss Voigt Hill
#
# Bulk Modulus (GPa) = 39.03930 67.98943 53.51437
# Shear Modulus (GPa) = 28.89877 39.78902 34.34390
#
# Velocity S-wave (km/s) = 3.54659 4.16153 3.86630
# Velocity P-wave (km/s) = 5.81060 7.25835 6.57445
#
# Compressibility (1/GPa) = 0.02561521
#
# Stress axis : x y z
#
# Youngs Moduli (GPa) = 64.25774 77.48953 59.00853
#
# Poissons Ratio (x) = -0.16880 0.35512
# Poissons Ratio (y) = -0.13998 0.35757
# Poissons Ratio (z) = 0.38671 0.46956
#
# Static dielectric constant tensor:
#      x y z
#    x 1.972660 -0.010780 0.042080 
#    y -0.010780 1.994540 -0.015590 
#    z 0.042080 -0.015590 1.894930 
# 
# From -- ./inp_files/444775.got.cif
#   From: 2010.05.17/outbox.cif.g08.bks.cpg/sg2_223_cif.got.tgz:444775.got - 2010.06.03 11:33:40.
