data_PCOD9075931
_publ_section_title
;
Structure prediction by ZEFSAII (Michael W. Deem and Ramdas Pophale) SiO2 
 PCOD9075931
Probable space group: P -1
;
_chemical_formula_sum "Si O2"
_cell_formula_units_Z 14
_cell_length_a 9.129162
_cell_length_b 15.009234
_cell_length_c 9.131928
_cell_angle_alpha 90.444047
_cell_angle_beta 97.612535
_cell_angle_gamma 151.340707
_cell_volume 574.230972
_symmetry_space_group_name_H-M "P -1"
_symmetry_group_IT_number 2
_symmetry_cell_setting 'triclinic'
loop_
_space_group_symop_operation_xyz
x,y,z
-x,-y,-z
loop_
_atom_site_type_symbol
_atom_site_label
_atom_site_fract_x
_atom_site_fract_y
_atom_site_fract_z
Si Si1 0.664245 0.798879 0.869618
Si Si2 0.094747 0.603716 0.666216
Si Si3 0.135295 0.776236 0.464675
Si Si4 0.822110 0.586105 0.013232
Si Si5 0.057961 0.001794 0.672631
Si Si6 0.257980 0.307292 0.765777
Si Si7 0.281483 0.725341 0.219746
O O1 0.437077 0.758045 0.781121
O O2 0.436178 0.614370 0.935044
O O3 0.766772 0.810658 0.728194
O O4 0.000000 0.000000 0.000000
O O5 0.088973 0.700885 0.609422
O O6 0.000000 0.500000 0.500000
O O7 0.844558 0.439380 0.754098
O O8 0.124278 0.700656 0.326761
O O9 0.889824 0.723201 0.395063
O O10 0.500000 0.000000 0.500000
O O11 0.870740 0.702755 0.113769
O O12 0.139515 0.695992 0.057253
O O13 0.637847 0.513180 0.841042
O O14 0.148357 0.147124 0.751745
O O15 0.343352 0.084234 0.724369
O O16 0.000000 0.000000 0.500000
#
# Coordination Sequence:
#
# PCOD9075931 Si02
#       7
#     2   2   2   2   2   2   2
#     4  11  21  38  63  91 119 160 206 249 294 364
#     4   9  18  36  57  82 116 161 203 233 288 370
#     4  10  18  32  57  85 116 157 198 237 289 359
#     4   9  20  40  62  83 115 163 208 233 290 373
#     4  12  23  37  60  96 125 148 197 261 311 341
#     4  10  20  36  59  86 117 160 201 236 294 368
#     4   9  20  36  56  84 116 153 194 249 293 350
#
# _framework density 24.380436
#
# number of rings (size 3 to 8) (size 9 to 14) (size 15 to 20)
#    0.000    2.000    1.429    4.286    0.000    0.571 
#    0.000    4.286    0.000    7.714    0.000    0.000 
#    0.000    0.000    0.000    0.000    0.000    0.000 
#
# Total GULP energy -78111.843447 kJ/mol
# GULP energy per Si atom -5579.417389 kJ/mol
# Density = 2.432494 g / cm^3
# Si number density = 24.380436 Si / 1000 Ang^3
#
#
#
# Elastic Constant Matrix: (Units=GPa)
#
#
# Indices 1 2 3 4 5 6 
#
# 1 89.5664 4.0587 44.0764 -3.4322 37.7235 6.2561
# 2 4.0587 28.1767 20.6708 10.3693 9.9867 12.7183
# 3 44.0764 20.6708 121.5231 18.3394 35.9834 4.2249
# 4 -3.4322 10.3693 18.3394 27.2714 0.7595 -2.6395
# 5 37.7235 9.9867 35.9834 0.7595 59.7278 11.4743
# 6 6.2561 12.7183 4.2249 -2.6395 11.4743 39.2251
#
#
#
# Elastic Compliance Matrix: (Units=1/GPa)
#
#
# Indices 1 2 3 4 5 6 
#
# 1 0.017156 0.002428 -0.004877 0.004723 -0.008315 -0.000248
# 2 0.002428 0.055675 -0.005849 -0.018571 -0.003625 -0.017998
# 3 -0.004877 -0.005849 0.013219 -0.006968 -0.004203 0.002011
# 4 0.004723 -0.018571 -0.006968 0.049805 0.001999 0.008785
# 5 -0.008315 -0.003625 -0.004203 0.001999 0.025974 -0.004509
# 6 -0.000248 -0.017998 0.002011 0.008785 -0.004509 0.033063
#
#
# Mechanical properties :
#
#
# Convention : Reuss Voigt Hill
#
# Bulk Modulus (GPa) = 14.39843 41.87534 28.13689
# Shear Modulus (GPa) = 21.30941 36.60887 28.95914
#
# Velocity S-wave (km/s) = 2.95962 3.87921 3.45019
# Velocity P-wave (km/s) = 4.19496 6.10553 5.23809
#
# Compressibility (1/GPa) = 0.06945200
#
# Stress axis : x y z
#
# Youngs Moduli (GPa) = 58.29002 17.96147 75.64899
#
# Poissons Ratio (x) = -0.04360 0.36896
# Poissons Ratio (y) = -0.14151 0.44247
# Poissons Ratio (z) = 0.28430 0.10506
#
# Static dielectric constant tensor:
#      x y z
#    x 2.066270 0.055830 -0.049450 
#    y 0.055830 2.124950 0.107410 
#    z -0.049450 0.107410 2.251710 
# 
# From -- ./inp_files/219349.got.cif
#   From: 2010.05.17/outbox.cif.g08.bks.cpg/sg2_110_cif.got.tgz:219349.got - 2010.06.03 11:33:40.
