data_PCOD9075342
_publ_section_title
;
Structure prediction by ZEFSAII (Michael W. Deem and Ramdas Pophale) SiO2 
 PCOD9075342
Probable space group: P -1
;
_chemical_formula_sum "Si O2"
_cell_formula_units_Z 16
_cell_length_a 6.000000
_cell_length_b 6.000000
_cell_length_c 27.000000
_cell_angle_alpha 130.000000
_cell_angle_beta 100.000000
_cell_angle_gamma 80.000000
_cell_volume 730.800219
_symmetry_space_group_name_H-M "P -1"
_symmetry_group_IT_number 2
_symmetry_cell_setting 'triclinic'
loop_
_space_group_symop_operation_xyz
x,y,z
-x,-y,-z
loop_
_atom_site_type_symbol
_atom_site_label
_atom_site_fract_x
_atom_site_fract_y
_atom_site_fract_z
Si Si1 0.517814 0.383213 0.649178
Si Si2 0.115604 0.235549 0.250284
Si Si3 0.795801 0.727448 0.176015
Si Si4 0.659149 0.183788 0.885598
Si Si5 0.125521 0.609254 0.596692
Si Si6 0.307464 0.274151 0.460419
Si Si7 0.866181 0.778900 0.928287
Si Si8 0.729014 0.745207 0.285909
O O1 0.694430 0.633226 0.688569
O O2 0.269455 0.470476 0.628455
O O3 0.472351 0.347195 0.700498
O O4 0.610217 0.068876 0.585865
O O5 0.950459 0.517362 0.268387
O O6 0.232734 0.052902 0.183378
O O7 0.953185 0.995465 0.230060
O O8 0.611144 0.785209 0.133048
O O9 0.665256 0.720377 0.222281
O O10 0.953573 0.433000 0.127018
O O11 0.746744 0.515015 0.919557
O O12 0.723361 0.012356 0.917040
O O13 0.184527 0.376968 0.521432
O O14 0.856233 0.667580 0.585335
O O15 0.214424 0.935474 0.646088
O O16 0.500000 0.500000 0.500000
O O17 0.000000 0.000000 0.000000
#
# Coordination Sequence:
#
# PCOD9075342 Si02
#       8
#     2   2   2   2   2   2   2   2
#     4  12  26  44  72 101 135 183 234 295 370 432
#     4  11  24  44  69 103 143 184 240 296 365 429
#     4  11  27  46  73 107 149 189 242 298 365 441
#     4  11  25  46  77 107 153 196 247 306 367 430
#     4  11  25  44  67  97 131 179 234 290 358 438
#     4  11  24  47  66  95 135 179 234 295 361 436
#     4  11  26  48  76 113 153 199 251 303 361 434
#     4  12  23  44  69 101 140 177 238 293 363 437
#
# _framework density 21.893808
#
# number of rings (size 3 to 8) (size 9 to 14) (size 15 to 20)
#    0.000    0.750    3.750    3.000    3.500    4.500 
#    2.250    0.000    0.000    0.000    0.000    0.000 
#    0.000    0.000    0.000    0.000    0.000    0.000 
#
# Total GULP energy -89268.018378 kJ/mol
# GULP energy per Si atom -5579.251149 kJ/mol
# Density = 2.184398 g / cm^3
# Si number density = 21.893808 Si / 1000 Ang^3
#
#
#
# Elastic Constant Matrix: (Units=GPa)
#
#
# Indices 1 2 3 4 5 6 
#
# 1 70.6648 38.7113 29.6218 3.0569 24.5527 -7.7963
# 2 38.7113 131.9410 51.6091 4.5956 17.3919 -14.2022
# 3 29.6218 51.6091 124.6347 15.8219 23.8813 3.5337
# 4 3.0569 4.5956 15.8219 53.8292 -1.8340 4.6221
# 5 24.5527 17.3919 23.8813 -1.8340 39.0858 1.2978
# 6 -7.7963 -14.2022 3.5337 4.6221 1.2978 39.0592
#
#
#
# Elastic Compliance Matrix: (Units=1/GPa)
#
#
# Indices 1 2 3 4 5 6 
#
# 1 0.020979 -0.003817 -0.001273 -0.001155 -0.010870 0.003413
# 2 -0.003817 0.010449 -0.003476 0.000050 -0.000237 0.003354
# 3 -0.001273 -0.003476 0.011041 -0.002854 -0.004466 -0.002031
# 4 -0.001155 0.000050 -0.002854 0.019802 0.003456 -0.002412
# 5 -0.010870 -0.000237 -0.004466 0.003456 0.035524 -0.003441
# 6 0.003413 0.003354 -0.002031 -0.002412 -0.003441 0.028086
#
#
# Mechanical properties :
#
#
# Convention : Reuss Voigt Hill
#
# Bulk Modulus (GPa) = 39.46642 63.01391 51.24016
# Shear Modulus (GPa) = 33.01234 40.21472 36.61353
#
# Velocity S-wave (km/s) = 3.88730 4.29045 4.09384
# Velocity P-wave (km/s) = 6.18171 7.30671 6.76763
#
# Compressibility (1/GPa) = 0.02533800
#
# Stress axis : x y z
#
# Youngs Moduli (GPa) = 47.66636 95.70236 90.57278
#
# Poissons Ratio (x) = 0.36529 0.11529
# Poissons Ratio (y) = 0.18194 0.31480
# Poissons Ratio (z) = 0.06068 0.33263
#
# Static dielectric constant tensor:
#      x y z
#    x 1.887820 0.030000 -0.025920 
#    y 0.030000 1.870680 -0.037980 
#    z -0.025920 -0.037980 1.765670 
# 
# From -- ./inp_files/10614.got.cif
#   From: 2010.05.17/outbox.ucp.g08.bks.cvg/sg2_6_cif.got.tgz:10614.got - 2010.06.11 11:32:03.
