data_PCOD9075433
_publ_section_title
;
Structure prediction by ZEFSAII (Michael W. Deem and Ramdas Pophale) SiO2 
 PCOD9075433
Probable space group: P -1
;
_chemical_formula_sum "Si O2"
_cell_formula_units_Z 16
_cell_length_a 24.000000
_cell_length_b 18.000000
_cell_length_c 6.000000
_cell_angle_alpha 70.000000
_cell_angle_beta 100.000000
_cell_angle_gamma 160.000000
_cell_volume 739.811505
_symmetry_space_group_name_H-M "P -1"
_symmetry_group_IT_number 2
_symmetry_cell_setting 'triclinic'
loop_
_space_group_symop_operation_xyz
x,y,z
-x,-y,-z
loop_
_atom_site_type_symbol
_atom_site_label
_atom_site_fract_x
_atom_site_fract_y
_atom_site_fract_z
Si Si1 0.165710 0.568444 0.969197
Si Si2 0.560590 0.504091 0.179191
Si Si3 0.276647 0.029629 0.753911
Si Si4 0.491090 0.707485 0.969587
Si Si5 0.226203 0.574702 0.509693
Si Si6 0.407456 0.042632 0.590733
Si Si7 0.896617 0.781035 0.614983
Si Si8 0.973304 0.104511 0.915031
O O1 0.243349 0.637674 0.708729
O O2 0.246462 0.764771 0.805263
O O3 0.221713 0.610834 0.219248
O O4 0.943811 0.261719 0.125305
O O5 0.583613 0.456819 0.088995
O O6 0.396922 0.259798 0.485413
O O7 0.500000 0.500000 0.000000
O O8 0.762233 0.796187 0.110137
O O9 0.350708 0.045368 0.685643
O O10 0.341838 0.111175 0.970565
O O11 0.560628 0.878234 0.715672
O O12 0.323066 0.502729 0.229124
O O13 0.399453 0.744509 0.438696
O O14 0.032080 0.271744 0.721279
O O15 0.953008 0.834802 0.338492
O O16 0.000000 0.000000 0.500000
O O17 0.943502 0.798163 0.871747
#
# Coordination Sequence:
#
# PCOD9075433 Si02
#       8
#     2   2   2   2   2   2   2   2
#     4  12  29  49  77 110 150 197 249 312 376 441
#     4  11  26  45  67 103 147 194 240 293 368 440
#     4  11  27  48  76 106 149 197 254 299 371 450
#     4  11  25  44  72 105 144 189 247 304 359 445
#     4  12  27  49  75 113 151 193 251 307 380 438
#     4  11  26  49  78 107 146 194 249 315 370 437
#     4  12  23  42  69 103 139 183 244 290 360 417
#     4  12  25  43  72 101 145 191 230 299 356 438
#
# _framework density 21.627130999999999
#
# number of rings (size 3 to 8) (size 9 to 14) (size 15 to 20)
#    0.000    0.500    2.500    4.500   10.500    1.000 
#    0.000    0.000    0.000    0.000    0.000    0.000 
#    0.000    0.000    0.000    0.000    0.000    0.000 
#
# Total GULP energy -89180.781776 kJ/mol
# GULP energy per Si atom -5573.798861 kJ/mol
# Density = 2.157791 g / cm^3
# Si number density = 21.627131 Si / 1000 Ang^3
#
#
#
# Elastic Constant Matrix: (Units=GPa)
#
#
# Indices 1 2 3 4 5 6 
#
# 1 63.9124 10.4916 33.1593 1.5971 9.2307 -2.5879
# 2 10.4916 88.2258 35.8466 -7.2032 12.9690 17.2620
# 3 33.1593 35.8466 155.8370 -6.2457 28.3344 5.7939
# 4 1.5971 -7.2032 -6.2457 56.9413 -6.6205 1.2873
# 5 9.2307 12.9690 28.3344 -6.6205 57.6876 -3.9768
# 6 -2.5879 17.2620 5.7939 1.2873 -3.9768 43.5862
#
#
#
# Elastic Compliance Matrix: (Units=1/GPa)
#
#
# Indices 1 2 3 4 5 6 
#
# 1 0.017878 -0.001027 -0.003520 -0.001165 -0.000904 0.001888
# 2 -0.001027 0.013896 -0.002350 0.001418 -0.002020 -0.005478
# 3 -0.003520 -0.002350 0.008289 0.000379 -0.002982 -0.000663
# 4 -0.001165 0.001418 0.000379 0.018035 0.001678 -0.001061
# 5 -0.000904 -0.002020 -0.002982 0.001678 0.019791 0.002899
# 6 0.001888 -0.005478 -0.000663 -0.001061 0.002899 0.025609
#
#
# Mechanical properties :
#
#
# Convention : Reuss Voigt Hill
#
# Bulk Modulus (GPa) = 38.07039 51.88557 44.97798
# Shear Modulus (GPa) = 39.66763 46.87487 43.27125
#
# Velocity S-wave (km/s) = 4.28736 4.66060 4.47787
# Velocity P-wave (km/s) = 6.49229 7.28042 6.89762
#
# Compressibility (1/GPa) = 0.02626713
#
# Stress axis : x y z
#
# Youngs Moduli (GPa) = 55.93588 71.96228 120.64818
#
# Poissons Ratio (x) = 0.07393 0.42471
# Poissons Ratio (y) = 0.05747 0.28353
# Poissons Ratio (z) = 0.19691 0.16911
#
# Static dielectric constant tensor:
#      x y z
#    x 1.849800 -0.002670 -0.029930 
#    y -0.002670 1.832460 0.058350 
#    z -0.029930 0.058350 1.806010 
# 
# From -- ./inp_files/124692.got.cif
#   From: 2010.05.17/outbox.ucp.g08.bks.cvg/sg2_63_cif.got.tgz:124692.got - 2010.06.11 11:32:03.
