data_PCOD9075503
_publ_section_title
;
Structure prediction by ZEFSAII (Michael W. Deem and Ramdas Pophale) SiO2 
 PCOD9075503
Probable space group: P -1
;
_chemical_formula_sum "Si O2"
_cell_formula_units_Z 16
_cell_length_a 12.000000
_cell_length_b 12.000000
_cell_length_c 12.000000
_cell_angle_alpha 150.000000
_cell_angle_beta 70.000000
_cell_angle_gamma 120.000000
_cell_volume 731.538865
_symmetry_space_group_name_H-M "P -1"
_symmetry_group_IT_number 2
_symmetry_cell_setting 'triclinic'
loop_
_space_group_symop_operation_xyz
x,y,z
-x,-y,-z
loop_
_atom_site_type_symbol
_atom_site_label
_atom_site_fract_x
_atom_site_fract_y
_atom_site_fract_z
Si Si1 0.395634 0.749104 0.874509
Si Si2 0.117415 0.922795 0.422080
Si Si3 0.905409 0.569380 0.898796
Si Si4 0.807502 0.085036 0.851344
Si Si5 0.686410 0.603996 0.614289
Si Si6 0.060154 0.313927 0.269688
Si Si7 0.689621 0.727315 0.162130
Si Si8 0.461199 0.394266 0.111638
O O1 0.373800 0.561416 0.617120
O O2 0.458847 0.725850 0.950596
O O3 0.251676 0.721621 0.934296
O O4 0.500000 0.000000 0.000000
O O5 0.067308 0.636365 0.222445
O O6 0.208328 0.989875 0.337969
O O7 0.202435 0.048051 0.611233
O O8 0.000000 0.000000 0.500000
O O9 0.899191 0.576075 0.773137
O O10 0.766069 0.554845 0.973672
O O11 0.037596 0.816288 0.094353
O O12 0.725010 0.874889 0.786083
O O13 0.823499 0.621800 0.626367
O O14 0.601366 0.533957 0.696839
O O15 0.000000 0.500000 0.500000
O O16 0.000000 0.000000 0.000000
O O17 0.563809 0.610167 0.185214
O O18 0.646431 0.766133 0.084970
#
# Coordination Sequence:
#
# PCOD9075503 Si02
#       8
#     2   2   2   2   2   2   2   2
#     4  12  27  44  72 107 149 198 256 320 394 470
#     4  12  28  44  76 110 149 197 256 321 401 476
#     4  12  26  47  74 112 154 200 253 330 400 470
#     4  12  26  46  74 111 148 191 259 324 399 467
#     4  12  26  47  76 111 151 200 258 330 396 473
#     4  12  28  48  81 120 165 207 263 331 408 487
#     4  11  26  49  72 104 150 202 255 319 386 478
#     4  11  25  50  72 102 152 199 257 313 387 479
#
# _framework density 21.871701999999999
#
# number of rings (size 3 to 8) (size 9 to 14) (size 15 to 20)
#    0.000    0.250    5.000    3.000    8.750    1.000 
#    0.000    1.875    0.000    0.000    0.000    0.000 
#    0.000    0.000    0.000    0.000    0.000    0.000 
#
# Total GULP energy -89113.433019 kJ/mol
# GULP energy per Si atom -5569.589564 kJ/mol
# Density = 2.182192 g / cm^3
# Si number density = 21.871702 Si / 1000 Ang^3
#
#
#
# Elastic Constant Matrix: (Units=GPa)
#
#
# Indices 1 2 3 4 5 6 
#
# 1 113.1796 44.0846 39.7007 -14.8061 12.1042 -12.7299
# 2 44.0846 115.7504 40.4263 -27.6199 -11.5228 -16.2280
# 3 39.7007 40.4263 75.5541 -24.7682 7.7059 -1.1678
# 4 -14.8061 -27.6199 -24.7682 39.8203 -2.8908 3.7850
# 5 12.1042 -11.5228 7.7059 -2.8908 42.5064 -14.8378
# 6 -12.7299 -16.2280 -1.1678 3.7850 -14.8378 46.7396
#
#
#
# Elastic Compliance Matrix: (Units=1/GPa)
#
#
# Indices 1 2 3 4 5 6 
#
# 1 0.012091 -0.003470 -0.004485 -0.001036 -0.003286 0.001017
# 2 -0.003470 0.014834 -0.004934 0.005949 0.008508 0.006301
# 3 -0.004485 -0.004934 0.021389 0.008294 -0.005000 -0.004659
# 4 -0.001036 0.005949 0.008294 0.034204 0.002764 0.000098
# 5 -0.003286 0.008508 -0.005000 0.002764 0.032006 0.011871
# 6 0.001017 0.006301 -0.004659 0.000098 0.011871 0.027504
#
#
# Mechanical properties :
#
#
# Convention : Reuss Voigt Hill
#
# Bulk Modulus (GPa) = 44.37543 61.43416 52.90479
# Shear Modulus (GPa) = 28.51952 37.83143 33.17548
#
# Velocity S-wave (km/s) = 3.61494 4.16348 3.89886
# Velocity P-wave (km/s) = 6.14465 7.15976 6.67154
#
# Compressibility (1/GPa) = 0.02253499
#
# Stress axis : x y z
#
# Youngs Moduli (GPa) = 82.70763 67.41306 46.75242
#
# Poissons Ratio (x) = 0.23394 0.20970
# Poissons Ratio (y) = 0.28702 0.23067
# Poissons Ratio (z) = 0.37097 0.33261
#
# Static dielectric constant tensor:
#      x y z
#    x 1.973240 0.103740 -0.151760 
#    y 0.103740 1.841020 -0.022910 
#    z -0.151760 -0.022910 2.010350 
# 
# From -- ./inp_files/427278.got.cif
#   From: 2010.05.17/outbox.ucp.g08.bks.cvg/sg2_214_cif.got.tgz:427278.got - 2010.06.11 11:32:03.
