data_PCOD9075938
_publ_section_title
;
Structure prediction by ZEFSAII (Michael W. Deem and Ramdas Pophale) SiO2 
 PCOD9075938
Probable space group: P -1
;
_chemical_formula_sum "Si O2"
_cell_formula_units_Z 14
_cell_length_a 14.120296
_cell_length_b 9.237086
_cell_length_c 6.863919
_cell_angle_alpha 129.649586
_cell_angle_beta 105.996380
_cell_angle_gamma 64.682460
_cell_volume 623.105763
_symmetry_space_group_name_H-M "P -1"
_symmetry_group_IT_number 2
_symmetry_cell_setting 'triclinic'
loop_
_space_group_symop_operation_xyz
x,y,z
-x,-y,-z
loop_
_atom_site_type_symbol
_atom_site_label
_atom_site_fract_x
_atom_site_fract_y
_atom_site_fract_z
Si Si1 0.302396 0.950671 0.898502
Si Si2 0.883884 0.419884 0.537249
Si Si3 0.292826 0.296169 0.893329
Si Si4 0.648095 0.515546 0.572286
Si Si5 0.068113 0.565402 0.882615
Si Si6 0.591595 0.856568 0.560510
Si Si7 0.935329 0.984215 0.142401
O O1 0.341214 0.713171 0.663856
O O2 0.306916 0.088532 0.834647
O O3 0.180654 0.025421 0.966728
O O4 0.369645 0.006277 0.152877
O O5 0.762222 0.533117 0.603975
O O6 0.899478 0.427247 0.319552
O O7 0.907869 0.191483 0.413440
O O8 0.971873 0.485686 0.744818
O O9 0.171302 0.434646 0.938803
O O10 0.325329 0.255255 0.653189
O O11 0.361088 0.410125 0.145182
O O12 0.570522 0.685041 0.535119
O O13 0.013505 0.789559 0.118970
O O14 0.500000 0.000000 0.500000
O O15 0.000000 0.000000 0.000000
#
# Coordination Sequence:
#
# PCOD9075938 Si02
#       7
#     2   2   2   2   2   2   2
#     4  10  24  43  64  96 135 162 207 263 309 371
#     4   9  18  33  56  86 124 168 206 244 298 366
#     4  11  24  39  65  96 125 165 215 262 310 374
#     4  10  22  43  62  93 132 161 203 262 314 375
#     4  10  18  32  57  86 123 171 207 245 299 360
#     4  11  25  46  70  91 119 165 213 265 329 380
#     4   9  19  33  58  90 125 171 204 241 295 368
#
# _framework density 22.468094000000001
#
# number of rings (size 3 to 8) (size 9 to 14) (size 15 to 20)
#    0.000    2.000    1.429    1.714    4.000    7.429 
#    0.000    4.286    0.000    0.000    0.000    0.000 
#    0.000    0.000    0.000    0.000    0.000    0.000 
#
# Total GULP energy -78177.397384 kJ/mol
# GULP energy per Si atom -5584.099813 kJ/mol
# Density = 2.241696 g / cm^3
# Si number density = 22.468094 Si / 1000 Ang^3
#
#
#
# Elastic Constant Matrix: (Units=GPa)
#
#
# Indices 1 2 3 4 5 6 
#
# 1 31.4866 15.8861 11.7054 -2.2641 4.9203 -6.7125
# 2 15.8861 166.2489 70.4004 0.3709 29.0597 -20.3688
# 3 11.7054 70.4004 103.4120 -14.0917 21.1442 7.6669
# 4 -2.2641 0.3709 -14.0917 38.8683 -1.5995 1.7371
# 5 4.9203 29.0597 21.1442 -1.5995 15.3294 -1.7023
# 6 -6.7125 -20.3688 7.6669 1.7371 -1.7023 28.0374
#
#
#
# Elastic Compliance Matrix: (Units=1/GPa)
#
#
# Indices 1 2 3 4 5 6 
#
# 1 0.035957 0.000402 -0.003835 0.000027 -0.005946 0.009586
# 2 0.000402 0.012732 -0.007280 -0.003770 -0.013422 0.010755
# 3 -0.003835 -0.007280 0.019531 0.006978 -0.012596 -0.012745
# 4 0.000027 -0.003770 0.006978 0.028574 -0.000219 -0.006424
# 5 -0.005946 -0.013422 -0.012596 -0.000219 0.109823 -0.001049
# 6 0.009586 0.010755 -0.012745 -0.006424 -0.001049 0.049594
#
#
# Mechanical properties :
#
#
# Convention : Reuss Voigt Hill
#
# Bulk Modulus (GPa) = 21.36986 55.23682 38.30334
# Shear Modulus (GPa) = 17.05121 29.99071 23.52096
#
# Velocity S-wave (km/s) = 2.75782 3.65747 3.23903
# Velocity P-wave (km/s) = 4.43538 6.51721 5.57435
#
# Compressibility (1/GPa) = 0.04679487
#
# Stress axis : x y z
#
# Youngs Moduli (GPa) = 27.81080 78.54478 51.20008
#
# Poissons Ratio (x) = -0.03156 0.19634
# Poissons Ratio (y) = -0.01118 0.37271
# Poissons Ratio (z) = 0.10665 0.57177
#
# Static dielectric constant tensor:
#      x y z
#    x 1.910330 0.005050 -0.031130 
#    y 0.005050 1.862190 0.010310 
#    z -0.031130 0.010310 1.856780 
# 
# From -- ./inp_files/105843.got.cif
#   From: 2010.05.17/outbox.cif.g08.bks.cpg/sg2_53_cif.got.tgz:105843.got - 2010.06.03 11:33:40.
