data_PCOD9075185
_publ_section_title
;
Structure prediction by ZEFSAII (Michael W. Deem and Ramdas Pophale) SiO2 
 PCOD9075185
Probable space group: P -1
;
_chemical_formula_sum "Si O2"
_cell_formula_units_Z 16
_cell_length_a 12.000000
_cell_length_b 30.000000
_cell_length_c 24.000000
_cell_angle_alpha 10.000000
_cell_angle_beta 150.000000
_cell_angle_gamma 150.000000
_cell_volume 741.497220
_symmetry_space_group_name_H-M "P -1"
_symmetry_group_IT_number 2
_symmetry_cell_setting 'triclinic'
loop_
_space_group_symop_operation_xyz
x,y,z
-x,-y,-z
loop_
_atom_site_type_symbol
_atom_site_label
_atom_site_fract_x
_atom_site_fract_y
_atom_site_fract_z
Si Si1 0.440912 0.272159 0.002757
Si Si2 0.759839 0.986294 0.881913
Si Si3 0.819258 0.587311 0.177070
Si Si4 0.737937 0.930073 0.613236
Si Si5 0.710624 0.069215 0.047458
Si Si6 0.409501 0.723864 0.144482
Si Si7 0.984341 0.747166 0.846075
Si Si8 0.901907 0.640369 0.708558
O O1 0.309366 0.163643 0.022465
O O2 0.524092 0.050902 0.350227
O O3 0.284850 0.396746 0.825782
O O4 0.672491 0.464411 0.848523
O O5 0.749260 0.290740 0.492550
O O6 0.596762 0.847765 0.029771
O O7 0.000000 0.000000 0.000000
O O8 0.735246 0.771309 0.865623
O O9 0.092137 0.685390 0.179424
O O10 0.796361 0.763439 0.790823
O O11 0.946118 0.171913 0.413421
O O12 0.832718 0.819755 0.408210
O O13 0.637376 0.087202 0.058158
O O14 0.500000 0.000000 0.000000
O O15 0.500000 0.500000 0.500000
O O16 0.192999 0.694610 0.043278
O O17 0.000000 0.000000 0.500000
O O18 0.943661 0.531360 0.046445
#
# Coordination Sequence:
#
# PCOD9075185 Si02
#       8
#     2   2   2   2   2   2   2   2
#     4  12  26  45  72 105 146 189 234 297 380 422
#     4  12  29  47  70 106 149 190 238 300 364 439
#     4  11  27  46  71 104 149 187 239 297 372 435
#     4  11  25  47  72 108 141 189 245 298 359 444
#     4  11  25  45  73 104 140 193 250 301 361 430
#     4  12  24  47  75 105 147 189 248 301 358 438
#     4  12  23  42  74 109 143 185 245 299 366 423
#     4  11  23  42  73 104 141 182 247 298 358 430
#
# _framework density 21.577964000000001
#
# number of rings (size 3 to 8) (size 9 to 14) (size 15 to 20)
#    0.000    0.500    5.000    3.000    3.500    4.000 
#    0.000    0.000    0.000    0.000    0.000    0.000 
#    0.000    0.000    0.000    0.000    0.000    0.000 
#
# Total GULP energy -89184.656567 kJ/mol
# GULP energy per Si atom -5574.041035 kJ/mol
# Density = 2.152885 g / cm^3
# Si number density = 21.577964 Si / 1000 Ang^3
#
#
#
# Elastic Constant Matrix: (Units=GPa)
#
#
# Indices 1 2 3 4 5 6 
#
# 1 130.8086 16.2519 4.5791 -20.1763 -4.3768 -26.2213
# 2 16.2519 73.1342 4.6718 13.9958 -12.5901 -24.1840
# 3 4.5791 4.6718 94.0707 -1.4386 -12.2266 -11.5257
# 4 -20.1763 13.9958 -1.4386 33.5372 -5.9988 -1.1077
# 5 -4.3768 -12.5901 -12.2266 -5.9988 37.2125 4.8709
# 6 -26.2213 -24.1840 -11.5257 -1.1077 4.8709 32.4560
#
#
#
# Elastic Compliance Matrix: (Units=1/GPa)
#
#
# Indices 1 2 3 4 5 6 
#
# 1 0.010525 -0.000826 0.000818 0.007219 0.001314 0.008228
# 2 -0.000826 0.020740 0.001185 -0.007884 0.004165 0.014314
# 3 0.000818 0.001185 0.011689 0.001364 0.003882 0.005159
# 4 0.007219 -0.007884 0.001364 0.038381 0.004680 0.001050
# 5 0.001314 0.004165 0.003882 0.004680 0.030315 0.001154
# 6 0.008228 0.014314 0.005159 0.001050 0.001154 0.049819
#
#
# Mechanical properties :
#
#
# Convention : Reuss Voigt Hill
#
# Bulk Modulus (GPa) = 22.07076 38.77990 30.42533
# Shear Modulus (GPa) = 28.69962 38.80851 33.75406
#
# Velocity S-wave (km/s) = 3.65093 4.24550 3.95939
# Velocity P-wave (km/s) = 5.29367 6.48409 5.91888
#
# Compressibility (1/GPa) = 0.04530882
#
# Stress axis : x y z
#
# Youngs Moduli (GPa) = 95.00786 48.21548 85.54956
#
# Poissons Ratio (x) = 0.03981 -0.06998
# Poissons Ratio (y) = 0.07844 -0.10135
# Poissons Ratio (z) = -0.07771 -0.05712
#
# Static dielectric constant tensor:
#      x y z
#    x 1.785100 0.053620 0.085710 
#    y 0.053620 1.806710 0.034430 
#    z 0.085710 0.034430 1.945650 
# 
# From -- ./inp_files/611048.got.cif
#   From: 2010.05.17/outbox.ucp.g08.bks.cvg/sg2_306_cif.got.tgz:611048.got - 2010.06.11 11:32:03.
