data_PCOD9075384
_publ_section_title
;
Structure prediction by ZEFSAII (Michael W. Deem and Ramdas Pophale) SiO2 
 PCOD9075384
Probable space group: P -1
;
_chemical_formula_sum "Si O2"
_cell_formula_units_Z 16
_cell_length_a 21.000000
_cell_length_b 6.000000
_cell_length_c 9.000000
_cell_angle_alpha 50.000000
_cell_angle_beta 120.000000
_cell_angle_gamma 120.000000
_cell_volume 724.534506
_symmetry_space_group_name_H-M "P -1"
_symmetry_group_IT_number 2
_symmetry_cell_setting 'triclinic'
loop_
_space_group_symop_operation_xyz
x,y,z
-x,-y,-z
loop_
_atom_site_type_symbol
_atom_site_label
_atom_site_fract_x
_atom_site_fract_y
_atom_site_fract_z
Si Si1 0.573238 0.577590 0.158160
Si Si2 0.324106 0.824984 0.980863
Si Si3 0.070948 0.707074 0.404393
Si Si4 0.247388 0.916224 0.564555
Si Si5 0.067992 0.407061 0.199700
Si Si6 0.233889 0.557245 0.240345
Si Si7 0.360614 0.940068 0.418016
Si Si8 0.466853 0.567763 0.278139
O O1 0.593814 0.278519 0.364020
O O2 0.539502 0.717283 0.200105
O O3 0.500000 0.500000 0.000000
O O4 0.651250 0.819657 0.099954
O O5 0.251532 0.596114 0.071082
O O6 0.401470 0.734457 0.142785
O O7 0.299092 0.805466 0.789538
O O8 0.159533 0.720166 0.538829
O O9 0.062119 0.533625 0.306953
O O10 0.000000 0.500000 0.500000
O O11 0.065685 0.057071 0.290935
O O12 0.297122 0.973144 0.448477
O O13 0.238854 0.246634 0.452771
O O14 0.152124 0.597062 0.164787
O O15 0.000000 0.500000 0.000000
O O16 0.308712 0.793384 0.284897
O O17 0.420655 0.240290 0.306306
O O18 0.500000 0.500000 0.500000
#
# Coordination Sequence:
#
# PCOD9075384 Si02
#       8
#     2   2   2   2   2   2   2   2
#     4  12  24  40  62 101 129 172 241 294 349 432
#     4  12  24  43  69  99 135 186 237 292 360 431
#     4  11  25  48  76 111 152 192 237 300 362 427
#     4  11  24  46  69 102 144 181 237 293 356 431
#     4  11  25  48  76 111 152 192 241 293 361 441
#     4  11  24  46  69 102 142 184 234 291 360 420
#     4  12  22  45  67  93 139 180 229 292 361 421
#     4  12  24  42  66  95 135 180 231 296 365 418
#
# _framework density 22.083144000000001
#
# number of rings (size 3 to 8) (size 9 to 14) (size 15 to 20)
#    0.000    0.500    3.750    5.250    1.750    0.000 
#    4.500    0.000    0.000    0.000    0.000    0.000 
#    0.000    0.000    0.000    0.000    0.000    0.000 
#
# Total GULP energy -89126.881164 kJ/mol
# GULP energy per Si atom -5570.430073 kJ/mol
# Density = 2.203288 g / cm^3
# Si number density = 22.083144 Si / 1000 Ang^3
#
#
#
# Elastic Constant Matrix: (Units=GPa)
#
#
# Indices 1 2 3 4 5 6 
#
# 1 144.5281 20.6299 42.4565 4.0572 0.8423 13.5299
# 2 20.6299 94.1282 21.5751 5.2038 -4.1904 13.5071
# 3 42.4565 21.5751 51.6500 7.7545 -11.9189 3.4910
# 4 4.0572 5.2038 7.7545 33.6318 -1.0528 0.8113
# 5 0.8423 -4.1904 -11.9189 -1.0528 32.3286 -2.7487
# 6 13.5299 13.5071 3.4910 0.8113 -2.7487 40.7242
#
#
#
# Elastic Compliance Matrix: (Units=1/GPa)
#
#
# Indices 1 2 3 4 5 6 
#
# 1 0.009768 0.000077 -0.008852 0.000801 -0.003718 -0.002779
# 2 0.000077 0.012291 -0.004978 -0.000692 -0.000581 -0.003701
# 3 -0.008852 -0.004978 0.031956 -0.005238 0.011428 0.002728
# 4 0.000801 -0.000692 -0.005238 0.030925 -0.001058 -0.000275
# 5 -0.003718 -0.000581 0.011428 -0.001058 0.035376 0.002857
# 6 -0.002779 -0.003701 0.002728 -0.000275 0.002857 0.026671
#
#
# Mechanical properties :
#
#
# Convention : Reuss Voigt Hill
#
# Bulk Modulus (GPa) = 37.72158 51.06993 44.39576
# Shear Modulus (GPa) = 27.27352 35.04656 31.16004
#
# Velocity S-wave (km/s) = 3.51812 3.98807 3.76045
# Velocity P-wave (km/s) = 5.79842 6.66204 6.24517
#
# Compressibility (1/GPa) = 0.02651003
#
# Stress axis : x y z
#
# Youngs Moduli (GPa) = 102.37869 81.35806 31.29329
#
# Poissons Ratio (x) = -0.00627 0.27700
# Poissons Ratio (y) = -0.00789 0.15577
# Poissons Ratio (z) = 0.90623 0.40498
#
# Static dielectric constant tensor:
#      x y z
#    x 1.930450 0.034490 -0.296710 
#    y 0.034490 2.048800 -0.285850 
#    z -0.296710 -0.285850 2.457570 
# 
# From -- ./inp_files/44773.got.cif
#   From: 2010.05.17/outbox.ucp.g08.bks.cvg/sg2_23_cif.got.tgz:44773.got - 2010.06.11 11:32:03.
