data_PCOD9075183
_publ_section_title
;
Structure prediction by ZEFSAII (Michael W. Deem and Ramdas Pophale) SiO2 
 PCOD9075183
Probable space group: P -1
;
_chemical_formula_sum "Si O2"
_cell_formula_units_Z 16
_cell_length_a 9.000000
_cell_length_b 18.000000
_cell_length_c 12.000000
_cell_angle_alpha 150.000000
_cell_angle_beta 50.000000
_cell_angle_gamma 130.000000
_cell_volume 725.531033
_symmetry_space_group_name_H-M "P -1"
_symmetry_group_IT_number 2
_symmetry_cell_setting 'triclinic'
loop_
_space_group_symop_operation_xyz
x,y,z
-x,-y,-z
loop_
_atom_site_type_symbol
_atom_site_label
_atom_site_fract_x
_atom_site_fract_y
_atom_site_fract_z
Si Si1 0.470350 0.250728 0.080560
Si Si2 0.406744 0.643053 0.258440
Si Si3 0.856298 0.347378 0.158261
Si Si4 0.342389 0.530947 0.393604
Si Si5 0.729352 0.760131 0.606117
Si Si6 0.606722 0.976585 0.530910
Si Si7 0.954061 0.021552 0.681413
Si Si8 0.058001 0.569085 0.183505
O O1 0.664109 0.351935 0.180402
O O2 0.377573 0.359734 0.182412
O O3 0.326434 0.195035 0.183951
O O4 0.556178 0.112857 0.808058
O O5 0.318938 0.590114 0.355892
O O6 0.543563 0.814849 0.417312
O O7 0.275152 0.658365 0.230851
O O8 0.500000 0.500000 0.000000
O O9 0.828979 0.433319 0.396598
O O10 0.033443 0.431871 0.104974
O O11 0.885857 0.177937 0.939108
O O12 0.542334 0.643076 0.490434
O O13 0.908120 0.674787 0.420836
O O14 0.798013 0.893294 0.655995
O O15 0.828896 0.984951 0.389770
O O16 0.500000 0.000000 0.500000
O O17 0.000000 0.000000 0.500000
O O18 0.000000 0.500000 0.000000
#
# Coordination Sequence:
#
# PCOD9075183 Si02
#       8
#     2   2   2   2   2   2   2   2
#     4  11  23  46  71 101 143 186 234 282 355 418
#     4  12  27  45  70 105 142 183 229 291 356 412
#     4  11  23  42  72 103 141 183 233 294 342 411
#     4  11  23  45  71 105 141 184 234 288 355 407
#     4  11  23  42  72 103 137 190 238 279 345 422
#     4  12  27  47  69 101 144 189 224 289 358 414
#     4  12  24  42  67 105 140 180 241 292 340 411
#     4  12  24  44  73 102 134 182 242 283 338 425
#
# _framework density 22.052813
#
# number of rings (size 3 to 8) (size 9 to 14) (size 15 to 20)
#    0.000    0.500    3.750    5.250    3.500    1.500 
#    2.250    1.250    0.000    0.000    0.000    0.000 
#    0.000    0.000    0.000    0.000    0.000    0.000 
#
# Total GULP energy -89274.308913 kJ/mol
# GULP energy per Si atom -5579.644307 kJ/mol
# Density = 2.200262 g / cm^3
# Si number density = 22.052813 Si / 1000 Ang^3
#
#
#
# Elastic Constant Matrix: (Units=GPa)
#
#
# Indices 1 2 3 4 5 6 
#
# 1 90.1516 2.7321 9.7172 -6.5374 -0.1008 -6.8688
# 2 2.7321 136.3899 42.8965 13.4383 0.1655 -22.5033
# 3 9.7172 42.8965 119.4945 1.6869 -10.4539 -10.5294
# 4 -6.5374 13.4383 1.6869 40.5616 -10.9189 -3.7685
# 5 -0.1008 0.1655 -10.4539 -10.9189 34.1776 -6.4243
# 6 -6.8688 -22.5033 -10.5294 -3.7685 -6.4243 30.7769
#
#
#
# Elastic Compliance Matrix: (Units=1/GPa)
#
#
# Indices 1 2 3 4 5 6 
#
# 1 0.011569 0.000254 -0.000693 0.002409 0.001167 0.003069
# 2 0.000254 0.009416 -0.002951 -0.002658 -0.000773 0.005445
# 3 -0.000693 -0.002951 0.010004 0.001737 0.004034 0.002164
# 4 0.002409 -0.002658 0.001737 0.029235 0.010837 0.005030
# 5 0.001167 -0.000773 0.004034 0.010837 0.035819 0.009879
# 6 0.003069 0.005445 0.002164 0.005030 0.009879 0.040577
#
#
# Mechanical properties :
#
#
# Convention : Reuss Voigt Hill
#
# Bulk Modulus (GPa) = 41.30926 50.74752 46.02839
# Shear Modulus (GPa) = 33.00975 40.48255 36.74615
#
# Velocity S-wave (km/s) = 3.87311 4.28917 4.08644
# Velocity P-wave (km/s) = 6.22687 6.89863 6.57134
#
# Compressibility (1/GPa) = 0.02420765
#
# Stress axis : x y z
#
# Youngs Moduli (GPa) = 86.43581 106.19889 99.96473
#
# Poissons Ratio (x) = -0.02697 0.06932
# Poissons Ratio (y) = -0.02195 0.29502
# Poissons Ratio (z) = 0.05994 0.31342
#
# Static dielectric constant tensor:
#      x y z
#    x 1.915170 0.094300 0.091320 
#    y 0.094300 1.913220 0.028160 
#    z 0.091320 0.028160 1.793890 
# 
# From -- ./inp_files/226121.got.cif
#   From: 2010.05.17/outbox.ucp.g08.bks.cvg/sg2_114_cif.got.tgz:226121.got - 2010.06.11 11:32:03.
