data_PCOD9075427
_publ_section_title
;
Structure prediction by ZEFSAII (Michael W. Deem and Ramdas Pophale) SiO2 
 PCOD9075427
Probable space group: P -1
;
_chemical_formula_sum "Si O2"
_cell_formula_units_Z 16
_cell_length_a 21.000000
_cell_length_b 15.000000
_cell_length_c 9.000000
_cell_angle_alpha 50.000000
_cell_angle_beta 130.000000
_cell_angle_gamma 160.000000
_cell_volume 734.602417
_symmetry_space_group_name_H-M "P -1"
_symmetry_group_IT_number 2
_symmetry_cell_setting 'triclinic'
loop_
_space_group_symop_operation_xyz
x,y,z
-x,-y,-z
loop_
_atom_site_type_symbol
_atom_site_label
_atom_site_fract_x
_atom_site_fract_y
_atom_site_fract_z
Si Si1 0.240617 0.759702 0.801002
Si Si2 0.213473 0.321042 0.956393
Si Si3 0.300226 0.025948 0.392938
Si Si4 0.817969 0.163364 0.915176
Si Si5 0.483785 0.845359 0.949451
Si Si6 0.740763 0.605179 0.403475
Si Si7 0.316317 0.258144 0.379738
Si Si8 0.894640 0.024711 0.340259
O O1 0.366748 0.812644 0.864320
O O2 0.037407 0.480563 0.876500
O O3 0.205077 0.793546 0.567964
O O4 0.380758 0.003390 0.865184
O O5 0.340285 0.377242 0.152900
O O6 0.306943 0.542657 0.955969
O O7 0.237515 0.379283 0.757555
O O8 0.000000 0.000000 0.000000
O O9 0.526640 0.307151 0.437301
O O10 0.254599 0.067899 0.399499
O O11 0.242627 0.963515 0.201391
O O12 0.648970 0.037051 0.860614
O O13 0.829185 0.070083 0.147589
O O14 0.879513 0.700694 0.609312
O O15 0.801677 0.812652 0.319441
O O16 0.500000 0.500000 0.500000
O O17 0.160272 0.082671 0.459904
#
# Coordination Sequence:
#
# PCOD9075427 Si02
#       8
#     2   2   2   2   2   2   2   2
#     4  11  28  49  75 104 146 202 248 296 358 441
#     4  12  25  46  72 111 147 189 238 302 374 433
#     4  12  26  46  71 107 143 187 247 303 364 427
#     4  12  26  49  75 106 145 191 249 309 358 427
#     4  11  27  48  75 108 146 195 243 306 362 432
#     4  11  25  43  69 106 146 190 232 303 370 434
#     4  12  24  41  71 102 145 188 233 295 363 441
#     4  11  25  42  69 107 144 189 240 293 371 439
#
# _framework density 21.780488999999999
#
# number of rings (size 3 to 8) (size 9 to 14) (size 15 to 20)
#    0.000    0.500    3.750    3.750    7.000    1.500 
#    0.000    0.000    0.000    0.000    0.000    0.000 
#    0.000    0.000    0.000    0.000    0.000    0.000 
#
# Total GULP energy -89150.648293 kJ/mol
# GULP energy per Si atom -5571.915518 kJ/mol
# Density = 2.173092 g / cm^3
# Si number density = 21.780489 Si / 1000 Ang^3
#
#
#
# Elastic Constant Matrix: (Units=GPa)
#
#
# Indices 1 2 3 4 5 6 
#
# 1 88.6761 16.5207 18.1639 13.4106 -3.2045 -22.5040
# 2 16.5207 112.2994 18.9869 17.4694 -11.0269 -17.4194
# 3 18.1639 18.9869 60.1538 6.4973 0.6487 -11.0677
# 4 13.4106 17.4694 6.4973 27.0884 -8.6882 -7.3837
# 5 -3.2045 -11.0269 0.6487 -8.6882 18.5801 8.9318
# 6 -22.5040 -17.4194 -11.0677 -7.3837 8.9318 31.1538
#
#
#
# Elastic Compliance Matrix: (Units=1/GPa)
#
#
# Indices 1 2 3 4 5 6 
#
# 1 0.014947 0.000144 -0.002005 -0.005798 -0.004876 0.010189
# 2 0.000144 0.010804 -0.002345 -0.004681 0.002679 0.003434
# 3 -0.002005 -0.002345 0.019287 -0.002677 -0.006176 0.005229
# 4 -0.005798 -0.004681 -0.002677 0.049463 0.020342 -0.001866
# 5 -0.004876 0.002679 -0.006176 0.020342 0.074239 -0.020682
# 6 0.010189 0.003434 0.005229 -0.001866 -0.020682 0.048724
#
#
# Mechanical properties :
#
#
# Convention : Reuss Voigt Hill
#
# Bulk Modulus (GPa) = 27.30318 40.94137 34.12228
# Shear Modulus (GPa) = 21.00072 29.19499 25.09785
#
# Velocity S-wave (km/s) = 3.10852 3.66515 3.39825
# Velocity P-wave (km/s) = 5.04447 6.06211 5.57655
#
# Compressibility (1/GPa) = 0.03662576
#
# Stress axis : x y z
#
# Youngs Moduli (GPa) = 66.90143 92.55804 51.84709
#
# Poissons Ratio (x) = -0.01331 0.10397
# Poissons Ratio (y) = -0.00962 0.12158
# Poissons Ratio (z) = 0.13416 0.21705
#
# Static dielectric constant tensor:
#      x y z
#    x 1.909660 0.026570 0.088010 
#    y 0.026570 1.850010 -0.009660 
#    z 0.088010 -0.009660 1.819300 
# 
# From -- ./inp_files/347515.got.cif
#   From: 2010.05.17/outbox.ucp.g08.bks.cvg/sg2_174_cif.got.tgz:347515.got - 2010.06.11 11:32:03.
