data_PCOD9075566
_publ_section_title
;
Structure prediction by ZEFSAII (Michael W. Deem and Ramdas Pophale) SiO2 
 PCOD9075566
Probable space group: P -1
;
_chemical_formula_sum "Si O2"
_cell_formula_units_Z 16
_cell_length_a 9.000000
_cell_length_b 15.000000
_cell_length_c 9.000000
_cell_angle_alpha 140.000000
_cell_angle_beta 110.000000
_cell_angle_gamma 70.000000
_cell_volume 727.419504
_symmetry_space_group_name_H-M "P -1"
_symmetry_group_IT_number 2
_symmetry_cell_setting 'triclinic'
loop_
_space_group_symop_operation_xyz
x,y,z
-x,-y,-z
loop_
_atom_site_type_symbol
_atom_site_label
_atom_site_fract_x
_atom_site_fract_y
_atom_site_fract_z
Si Si1 0.888845 0.710915 0.341047
Si Si2 0.239236 0.749745 0.440516
Si Si3 0.623609 0.079537 0.059956
Si Si4 0.667407 0.995908 0.643198
Si Si5 0.659810 0.561771 0.897400
Si Si6 0.148431 0.450870 0.593546
Si Si7 0.316363 0.709706 0.083748
Si Si8 0.592181 0.632089 0.665950
O O1 0.901912 0.664614 0.458129
O O2 0.058606 0.720767 0.341665
O O3 0.780204 0.857213 0.458435
O O4 0.797529 0.589580 0.090161
O O5 0.251159 0.875767 0.720173
O O6 0.341043 0.602897 0.334696
O O7 0.307735 0.764851 0.319953
O O8 0.528712 0.229255 0.176444
O O9 0.663141 0.990122 0.812658
O O10 0.500000 0.000000 0.000000
O O11 0.728616 0.145804 0.833580
O O12 0.500000 0.000000 0.500000
O O13 0.706180 0.627205 0.842122
O O14 0.493095 0.637954 0.003490
O O15 0.301174 0.383783 0.463662
O O16 0.000000 0.500000 0.500000
O O17 0.204209 0.590358 0.864381
O O18 0.500000 0.500000 0.500000
#
# Coordination Sequence:
#
# PCOD9075566 Si02
#       8
#     2   2   2   2   2   2   2   2
#     4  12  28  47  72 105 147 191 230 296 361 430
#     4  12  27  44  72 107 144 184 243 292 359 418
#     4  12  25  44  72 103 139 186 240 290 347 427
#     4  12  25  49  73 104 143 187 239 290 358 428
#     4  12  23  44  76 103 139 184 240 297 349 418
#     4  12  27  44  69 109 146 185 239 297 362 415
#     4  12  25  45  74 103 142 192 238 296 350 426
#     4  12  22  42  72 102 135 181 239 297 343 413
#
# _framework density 21.995560999999999
#
# number of rings (size 3 to 8) (size 9 to 14) (size 15 to 20)
#    0.000    0.000    6.250    3.000    5.250    1.000 
#    2.250    0.000    0.000    0.000    0.000    0.000 
#    0.000    0.000    0.000    0.000    0.000    0.000 
#
# Total GULP energy -89311.765667 kJ/mol
# GULP energy per Si atom -5581.985354 kJ/mol
# Density = 2.194550 g / cm^3
# Si number density = 21.995561 Si / 1000 Ang^3
#
#
#
# Elastic Constant Matrix: (Units=GPa)
#
#
# Indices 1 2 3 4 5 6 
#
# 1 41.1391 15.1151 29.4793 12.9843 -1.9548 -9.6765
# 2 15.1151 61.3198 4.6645 3.3520 1.5366 -2.2941
# 3 29.4793 4.6645 87.0518 -8.1787 -2.1264 -1.3052
# 4 12.9843 3.3520 -8.1787 33.8620 4.7301 -1.0100
# 5 -1.9548 1.5366 -2.1264 4.7301 33.4023 -2.2486
# 6 -9.6765 -2.2941 -1.3052 -1.0100 -2.2486 27.3374
#
#
#
# Elastic Compliance Matrix: (Units=1/GPa)
#
#
# Indices 1 2 3 4 5 6 
#
# 1 0.054624 -0.010107 -0.019895 -0.025233 0.007126 0.017191
# 2 -0.010107 0.018414 0.002634 0.002884 -0.001810 -0.001949
# 3 -0.019895 0.002634 0.019084 0.012112 -0.002165 -0.005641
# 4 -0.025233 0.002884 0.012112 0.042662 -0.007360 -0.007140
# 5 0.007126 -0.001810 -0.002165 -0.007360 0.031652 0.004598
# 6 0.017191 -0.001949 -0.005641 -0.007140 0.004598 0.042346
#
#
# Mechanical properties :
#
#
# Convention : Reuss Voigt Hill
#
# Bulk Modulus (GPa) = 26.74945 32.00316 29.37631
# Shear Modulus (GPa) = 18.11716 28.27045 23.19381
#
# Velocity S-wave (km/s) = 2.87309 3.58897 3.25079
# Velocity P-wave (km/s) = 4.81600 5.63522 5.24164
#
# Compressibility (1/GPa) = 0.03738394
#
# Stress axis : x y z
#
# Youngs Moduli (GPa) = 18.30709 54.30695 52.39979
#
# Poissons Ratio (x) = 0.54889 1.04250
# Poissons Ratio (y) = 0.18503 -0.13800
# Poissons Ratio (z) = 0.36422 -0.14302
#
# Static dielectric constant tensor:
#      x y z
#    x 1.764360 -0.011910 -0.000390 
#    y -0.011910 1.942560 -0.195340 
#    z -0.000390 -0.195340 1.969580 
# 
# From -- ./inp_files/209145.got.cif
#   From: 2010.05.17/outbox.ucp.g08.bks.cvg/sg2_105_cif.got.tgz:209145.got - 2010.06.11 11:32:03.
