data_PCOD9075741
_publ_section_title
;
Structure prediction by ZEFSAII (Michael W. Deem and Ramdas Pophale) SiO2 
 PCOD9075741
Probable space group: P -1
;
_chemical_formula_sum "Si O2"
_cell_formula_units_Z 16
_cell_length_a 9.209143
_cell_length_b 18.415823
_cell_length_c 7.065452
_cell_angle_alpha 47.387653
_cell_angle_beta 127.106924
_cell_angle_gamma 116.262341
_cell_volume 702.109866
_symmetry_space_group_name_H-M "P -1"
_symmetry_group_IT_number 2
_symmetry_cell_setting 'triclinic'
loop_
_space_group_symop_operation_xyz
x,y,z
-x,-y,-z
loop_
_atom_site_type_symbol
_atom_site_label
_atom_site_fract_x
_atom_site_fract_y
_atom_site_fract_z
Si Si1 0.640998 0.885163 0.643838
Si Si2 0.033351 0.215584 0.825214
Si Si3 0.001080 0.368793 0.808863
Si Si4 0.438504 0.067866 0.053085
Si Si5 0.951591 0.915167 0.267050
Si Si6 0.336261 0.731152 0.683298
Si Si7 0.291315 0.523256 0.828841
Si Si8 0.233960 0.804463 0.879997
O O1 0.601280 0.912938 0.785348
O O2 0.533585 0.779914 0.708079
O O3 0.541296 0.967137 0.304436
O O4 0.852846 0.862578 0.831972
O O5 0.078776 0.325056 0.749880
O O6 0.814101 0.208598 0.655101
O O7 0.081486 0.187994 0.695450
O O8 0.830666 0.436246 0.512719
O O9 0.161435 0.426801 0.947818
O O10 0.910449 0.270013 0.002909
O O11 0.580801 0.155367 0.945202
O O12 0.236330 0.063846 0.817537
O O13 0.125598 0.898657 0.561012
O O14 0.000000 0.000000 0.000000
O O15 0.302774 0.616722 0.812021
O O16 0.298055 0.750241 0.838060
O O17 0.500000 0.500000 0.000000
#
# Coordination Sequence:
#
# PCOD9075741 Si02
#       8
#     2   2   2   2   2   2   2   2
#     4   9  15  28  50  74 100 134 176 209 241 296
#     4   9  17  31  51  72 100 136 171 208 253 305
#     4  10  22  37  54  78 104 134 173 216 265 314
#     4   9  17  28  47  76 106 135 168 210 252 294
#     4  10  18  32  55  78 104 142 181 210 246 300
#     4   9  18  32  54  78  99 133 174 211 257 310
#     4  10  21  39  59  75  99 135 174 217 267 318
#     4  10  20  34  52  78 110 137 170 216 256 301
#
# _framework density 22.788454999999999
#
# number of rings (size 3 to 8) (size 9 to 14) (size 15 to 20)
#    0.000    2.500    0.000    4.500    0.000    1.500 
#    0.000    3.125    0.000    4.500    0.000    0.000 
#    0.000    0.000    0.000    0.000    0.000    0.000 
#
# Total GULP energy -89198.665618 kJ/mol
# GULP energy per Si atom -5574.916601 kJ/mol
# Density = 2.273659 g / cm^3
# Si number density = 22.788455 Si / 1000 Ang^3
#
#
#
# Elastic Constant Matrix: (Units=GPa)
#
#
# Indices 1 2 3 4 5 6 
#
# 1 82.0676 38.7889 29.9118 -0.9733 23.4126 9.7987
# 2 38.7889 115.9867 2.9954 -4.6625 10.9836 8.8560
# 3 29.9118 2.9954 56.4082 -0.2323 28.9622 -1.1567
# 4 -0.9733 -4.6625 -0.2323 29.5272 5.6667 2.2199
# 5 23.4126 10.9836 28.9622 5.6667 40.0566 -1.4982
# 6 9.7987 8.8560 -1.1567 2.2199 -1.4982 29.1893
#
#
#
# Elastic Compliance Matrix: (Units=1/GPa)
#
#
# Indices 1 2 3 4 5 6 
#
# 1 0.019624 -0.005452 -0.007829 0.001039 -0.004670 -0.005562
# 2 -0.005452 0.010835 0.003777 0.002238 -0.002893 -0.001626
# 3 -0.007829 0.003777 0.032124 0.004374 -0.020253 0.001383
# 4 0.001039 0.002238 0.004374 0.036460 -0.009696 -0.004125
# 5 -0.004670 -0.002893 -0.020253 -0.009696 0.044677 0.004673
# 6 -0.005562 -0.001626 0.001383 -0.004125 0.004673 0.037228
#
#
# Mechanical properties :
#
#
# Convention : Reuss Voigt Hill
#
# Bulk Modulus (GPa) = 22.94870 44.20608 33.57739
# Shear Modulus (GPa) = 23.31196 31.93906 27.62551
#
# Velocity S-wave (km/s) = 3.20186 3.74778 3.48553
# Velocity P-wave (km/s) = 4.87457 6.17806 5.56461
#
# Compressibility (1/GPa) = 0.04357546
#
# Stress axis : x y z
#
# Youngs Moduli (GPa) = 50.95831 92.28947 31.12935
#
# Poissons Ratio (x) = 0.50315 0.24370
# Poissons Ratio (y) = 0.27782 -0.11757
# Poissons Ratio (z) = 0.39894 -0.34855
#
# Static dielectric constant tensor:
#      x y z
#    x 1.902290 -0.039160 -0.023260 
#    y -0.039160 1.918030 0.017340 
#    z -0.023260 0.017340 1.889860 
# 
# From -- ./inp_files/217371.got.cif
#   From: 2010.05.17/outbox.cif.g08.bks.cpg/sg2_109_cif.got.tgz:217371.got - 2010.06.03 11:33:40.
