data_PCOD9075253
_publ_section_title
;
Structure prediction by ZEFSAII (Michael W. Deem and Ramdas Pophale) SiO2 
 PCOD9075253
Probable space group: P -1
;
_chemical_formula_sum "Si O2"
_cell_formula_units_Z 16
_cell_length_a 16.377595
_cell_length_b 10.365206
_cell_length_c 16.239932
_cell_angle_alpha 146.133978
_cell_angle_beta 29.164928
_cell_angle_gamma 150.680563
_cell_volume 629.788973
_symmetry_space_group_name_H-M "P -1"
_symmetry_group_IT_number 2
_symmetry_cell_setting 'triclinic'
loop_
_space_group_symop_operation_xyz
x,y,z
-x,-y,-z
loop_
_atom_site_type_symbol
_atom_site_label
_atom_site_fract_x
_atom_site_fract_y
_atom_site_fract_z
Si Si1 0.729212 0.640606 0.750046
Si Si2 0.039847 0.980795 0.111973
Si Si3 0.022058 0.539892 0.781291
Si Si4 0.673304 0.046111 0.930895
Si Si5 0.851005 0.146344 0.589546
Si Si6 0.335950 0.429938 0.489294
Si Si7 0.278723 0.504827 0.768883
Si Si8 0.204935 0.786664 0.497690
O O1 0.662741 0.323329 0.642510
O O2 0.944525 0.799398 0.598961
O O3 0.622376 0.748004 0.844865
O O4 0.770405 0.767753 0.873999
O O5 0.937957 0.733046 0.137264
O O6 0.879717 0.072581 0.296068
O O7 0.058990 0.825039 0.934482
O O8 0.226403 0.545097 0.595180
O O9 0.882673 0.287979 0.834333
O O10 0.900822 0.418045 0.738360
O O11 0.668405 0.195781 0.096762
O O12 0.500000 0.000000 0.000000
O O13 0.718825 0.071311 0.583705
O O14 0.772130 0.899518 0.592800
O O15 0.304425 0.481179 0.638484
O O16 0.566289 0.537127 0.337030
O O17 0.000000 0.500000 0.500000
#
# Coordination Sequence:
#
# PCOD9075253 Si02
#       8
#     2   2   2   2   2   2   2   2
#     4  10  19  36  59  77 105 147 187 208 261 328
#     4   9  17  36  54  82 107 140 180 222 257 321
#     4  11  21  31  55  83 116 135 170 227 284 307
#     4  11  22  34  52  84 114 138 172 225 275 318
#     4  10  18  32  53  83 107 140 178 220 260 321
#     4  11  19  31  51  83 113 145 171 219 274 324
#     4  10  20  31  51  80 114 140 177 216 274 315
#     4   8  17  35  56  80  97 148 187 214 251 317
#
# _framework density 25.405336999999999
#
# number of rings (size 3 to 8) (size 9 to 14) (size 15 to 20)
#    0.000    2.250    3.750    1.875    1.750    2.000 
#    0.000    5.625    0.000    6.000   13.000    0.875 
#    0.000    0.000    0.000    0.000    0.000    0.000 
#
# Total GULP energy -89293.423038 kJ/mol
# GULP energy per Si atom -5580.838940 kJ/mol
# Density = 2.534751 g / cm^3
# Si number density = 25.405337 Si / 1000 Ang^3
#
#
#
# Elastic Constant Matrix: (Units=GPa)
#
#
# Indices 1 2 3 4 5 6 
#
# 1 92.5635 11.4152 57.9662 28.2098 -24.5873 -1.6895
# 2 11.4152 40.5055 19.2384 16.0504 -0.7875 2.4996
# 3 57.9662 19.2384 112.8483 41.9268 -4.3997 4.2848
# 4 28.2098 16.0504 41.9268 40.8971 -0.3050 -5.4785
# 5 -24.5873 -0.7875 -4.3997 -0.3050 49.6896 9.4470
# 6 -1.6895 2.4996 4.2848 -5.4785 9.4470 24.2805
#
#
#
# Elastic Compliance Matrix: (Units=1/GPa)
#
#
# Indices 1 2 3 4 5 6 
#
# 1 0.019909 0.000959 -0.007361 -0.006857 0.009692 -0.002733
# 2 0.000959 0.030215 -0.000536 -0.012847 0.002094 -0.006663
# 3 -0.007361 -0.000536 0.018276 -0.014336 -0.000870 -0.006578
# 4 -0.006857 -0.012847 -0.014336 0.051279 -0.007983 0.018051
# 5 0.009692 0.002094 -0.000870 -0.007983 0.027055 -0.011715
# 6 -0.002733 -0.006663 -0.006578 0.018051 -0.011715 0.051473
#
#
# Mechanical properties :
#
#
# Convention : Reuss Voigt Hill
#
# Bulk Modulus (GPa) = 18.34038 47.01744 32.67891
# Shear Modulus (GPa) = 21.71481 33.45995 27.58738
#
# Velocity S-wave (km/s) = 2.92676 3.63305 3.29886
# Velocity P-wave (km/s) = 4.31926 6.01214 5.23459
#
# Compressibility (1/GPa) = 0.05452451
#
# Stress axis : x y z
#
# Youngs Moduli (GPa) = 50.22838 33.09641 54.71603
#
# Poissons Ratio (x) = -0.03175 0.40277
# Poissons Ratio (y) = -0.04819 0.02934
# Poissons Ratio (z) = 0.36973 0.01775
#
# Static dielectric constant tensor:
#      x y z
#    x 2.138020 -0.037830 -0.061600 
#    y -0.037830 2.072820 0.019860 
#    z -0.061600 0.019860 2.100000 
# 
# From -- ./inp_files/186912.got.cif
#   From: 2010.05.17/outbox.cif.g08.bks.cpg/sg2_94_cif.got.tgz:186912.got - 2010.06.03 11:33:40.
