data_PCOD9075023
_publ_section_title
;
Structure prediction by ZEFSAII (Michael W. Deem and Ramdas Pophale) SiO2 
 PCOD9075023
Probable space group: P -1
;
_chemical_formula_sum "Si O2"
_cell_formula_units_Z 16
_cell_length_a 9.000000
_cell_length_b 12.000000
_cell_length_c 18.000000
_cell_angle_alpha 30.000000
_cell_angle_beta 50.000000
_cell_angle_gamma 60.000000
_cell_volume 736.400153
_symmetry_space_group_name_H-M "P -1"
_symmetry_group_IT_number 2
_symmetry_cell_setting 'triclinic'
loop_
_space_group_symop_operation_xyz
x,y,z
-x,-y,-z
loop_
_atom_site_type_symbol
_atom_site_label
_atom_site_fract_x
_atom_site_fract_y
_atom_site_fract_z
Si Si1 0.164293 0.082704 0.339560
Si Si2 0.805654 0.565794 0.244288
Si Si3 0.123223 0.029314 0.772889
Si Si4 0.427089 0.048749 0.878743
Si Si5 0.917614 0.313580 0.781045
Si Si6 0.954670 0.485252 0.935386
Si Si7 0.487850 0.844270 0.379648
Si Si8 0.875887 0.217942 0.620442
O O1 0.169032 0.326248 0.162007
O O2 0.369052 0.038304 0.332870
O O3 0.129648 0.908758 0.383017
O O4 0.000000 0.000000 0.500000
O O5 0.702038 0.781834 0.140607
O O6 0.654469 0.390302 0.440849
O O7 0.999079 0.621324 0.201151
O O8 0.853213 0.466190 0.207280
O O9 0.334462 0.175237 0.613055
O O10 0.029124 0.116350 0.826956
O O11 0.994942 0.089045 0.712525
O O12 0.134798 0.766187 0.915109
O O13 0.423631 0.080229 0.772476
O O14 0.653181 0.156104 0.759258
O O15 0.312827 0.797479 0.079441
O O16 0.007592 0.529848 0.576508
O O17 0.000000 0.500000 0.000000
#
# Coordination Sequence:
#
# PCOD9075023 Si02
#       8
#     2   2   2   2   2   2   2   2
#     4  11  22  46  71  95 138 199 241 283 352 421
#     4  12  21  43  72 102 144 183 234 301 352 428
#     4  12  25  44  67 106 147 181 238 301 359 424
#     4  11  22  40  71 106 139 183 238 286 369 425
#     4  12  22  42  72 108 141 185 236 294 366 431
#     4  12  25  45  70  95 144 195 236 292 354 412
#     4  11  23  41  74 105 135 187 239 296 357 425
#     4  11  25  45  67 105 152 179 232 312 354 421
#
# _framework density 21.727318
#
# number of rings (size 3 to 8) (size 9 to 14) (size 15 to 20)
#    0.000    0.500    7.500    2.625    0.000    1.000 
#    2.250    3.750    0.000    0.000    0.000    0.000 
#    0.000    0.000    0.000    0.000    0.000    0.000 
#
# Total GULP energy -89188.092069 kJ/mol
# GULP energy per Si atom -5574.255754 kJ/mol
# Density = 2.167787 g / cm^3
# Si number density = 21.727318 Si / 1000 Ang^3
#
#
#
# Elastic Constant Matrix: (Units=GPa)
#
#
# Indices 1 2 3 4 5 6 
#
# 1 59.4289 4.2116 34.8818 7.0140 0.5096 -15.5221
# 2 4.2116 72.3546 18.5177 0.6870 0.9258 2.4181
# 3 34.8818 18.5177 150.0172 -18.6250 -19.7575 -7.6148
# 4 7.0140 0.6870 -18.6250 39.0013 -1.0203 3.8127
# 5 0.5096 0.9258 -19.7575 -1.0203 21.3405 3.3050
# 6 -15.5221 2.4181 -7.6148 3.8127 3.3050 23.5270
#
#
#
# Elastic Compliance Matrix: (Units=1/GPa)
#
#
# Indices 1 2 3 4 5 6 
#
# 1 0.028505 0.000184 -0.008713 -0.011526 -0.012337 0.019569
# 2 0.000184 0.014536 -0.002446 -0.001376 -0.002724 -0.001559
# 3 -0.008713 -0.002446 0.011280 0.007774 0.011868 -0.004774
# 4 -0.011526 -0.001376 0.007774 0.032891 0.010934 -0.011813
# 5 -0.012337 -0.002724 0.011868 0.010934 0.061007 -0.014361
# 6 0.019569 -0.001559 -0.004774 -0.011813 -0.014361 0.057962
#
#
# Mechanical properties :
#
#
# Convention : Reuss Voigt Hill
#
# Bulk Modulus (GPa) = 30.89180 44.11365 37.50272
# Shear Modulus (GPa) = 20.92745 31.71972 26.32358
#
# Velocity S-wave (km/s) = 3.10689 3.82501 3.48450
# Velocity P-wave (km/s) = 5.20761 6.31308 5.78680
#
# Compressibility (1/GPa) = 0.03237105
#
# Stress axis : x y z
#
# Youngs Moduli (GPa) = 35.08111 68.79441 88.65481
#
# Poissons Ratio (x) = -0.01266 0.77248
# Poissons Ratio (y) = -0.00646 0.21683
# Poissons Ratio (z) = 0.30567 0.16825
#
# Static dielectric constant tensor:
#      x y z
#    x 1.873370 -0.067100 -0.033350 
#    y -0.067100 1.824990 0.007650 
#    z -0.033350 0.007650 1.855920 
# 
# From -- ./inp_files/559511.got.cif
#   From: 2010.05.17/outbox.ucp.g08.bks.cvg/sg2_280_cif.got.tgz:559511.got - 2010.06.11 11:32:03.
