data_PCOD9075844
_publ_section_title
;
Structure prediction by ZEFSAII (Michael W. Deem and Ramdas Pophale) SiO2 
 PCOD9075844
Probable space group: P -1
;
_chemical_formula_sum "Si O2"
_cell_formula_units_Z 16
_cell_length_a 13.215324
_cell_length_b 11.916576
_cell_length_c 7.700626
_cell_angle_alpha 44.082429
_cell_angle_beta 54.887945
_cell_angle_gamma 47.746502
_cell_volume 614.383205
_symmetry_space_group_name_H-M "P -1"
_symmetry_group_IT_number 2
_symmetry_cell_setting 'triclinic'
loop_
_space_group_symop_operation_xyz
x,y,z
-x,-y,-z
loop_
_atom_site_type_symbol
_atom_site_label
_atom_site_fract_x
_atom_site_fract_y
_atom_site_fract_z
Si Si1 0.490003 0.742939 0.120852
Si Si2 0.157552 0.651117 0.324713
Si Si3 0.112922 0.271508 0.334683
Si Si4 0.276507 0.646975 0.587690
Si Si5 0.492633 0.945546 0.367877
Si Si6 0.614480 0.290740 0.109906
Si Si7 0.006022 0.289174 0.059873
Si Si8 0.795910 0.738259 0.382645
O O1 0.370194 0.750552 0.357859
O O2 0.619831 0.544903 0.217414
O O3 0.415954 0.772683 0.974510
O O4 0.547269 0.889590 0.907600
O O5 0.246513 0.601385 0.471345
O O6 0.155537 0.476159 0.435454
O O7 0.005092 0.770810 0.414117
O O8 0.233292 0.724990 0.036059
O O9 0.115003 0.216746 0.193790
O O10 0.777393 0.791050 0.546095
O O11 0.055509 0.490557 0.132820
O O12 0.128505 0.738311 0.729193
O O13 0.412310 0.825154 0.588673
O O14 0.656280 0.817388 0.320794
O O15 0.500000 0.000000 0.500000
O O16 0.500000 0.500000 0.000000
O O17 0.092225 0.217704 0.877275
#
# Coordination Sequence:
#
# PCOD9075844 Si02
#       8
#     2   2   2   2   2   2   2   2
#     4   9  20  36  57  83 117 162 194 243 304 355
#     4   9  17  32  55  88 112 144 198 246 287 350
#     4   9  19  32  54  90 119 146 190 254 298 341
#     4   9  18  35  60  82 116 152 202 246 296 351
#     4  10  22  37  56  85 121 161 195 244 305 356
#     4  10  18  32  56  81 113 152 197 245 286 353
#     4   9  18  32  56  90 114 152 201 251 290 350
#     4  11  20  35  58  88 121 154 198 247 300 353
#
# _framework density 26.042380000000001
#
# number of rings (size 3 to 8) (size 9 to 14) (size 15 to 20)
#    0.000    2.500    1.250    2.250    3.500    1.000 
#    0.000    1.250    0.000   12.000    0.000    0.000 
#    0.000    0.125    0.000    0.000    0.000    0.000 
#
# Total GULP energy -89387.787600 kJ/mol
# GULP energy per Si atom -5586.736725 kJ/mol
# Density = 2.598311 g / cm^3
# Si number density = 26.042380 Si / 1000 Ang^3
#
#
#
# Elastic Constant Matrix: (Units=GPa)
#
#
# Indices 1 2 3 4 5 6 
#
# 1 83.0922 10.0143 57.8924 22.0705 21.7462 2.7771
# 2 10.0143 31.7976 45.8142 13.4484 -2.3467 5.2950
# 3 57.8924 45.8142 207.4026 11.2985 -32.5871 -5.0070
# 4 22.0705 13.4484 11.2985 32.5339 -4.3853 0.6166
# 5 21.7462 -2.3467 -32.5871 -4.3853 49.5396 14.0764
# 6 2.7771 5.2950 -5.0070 0.6166 14.0764 32.9582
#
#
#
# Elastic Compliance Matrix: (Units=1/GPa)
#
#
# Indices 1 2 3 4 5 6 
#
# 1 0.047288 0.035928 -0.025035 -0.043814 -0.040724 0.004653
# 2 0.035928 0.087861 -0.032282 -0.054232 -0.036043 -0.005639
# 3 -0.025035 -0.032282 0.021614 0.026395 0.026346 -0.001167
# 4 -0.043814 -0.054232 0.026395 0.079415 0.041899 -0.002966
# 5 -0.040724 -0.036043 0.026346 0.041899 0.061299 -0.013740
# 6 0.004653 -0.005639 -0.001167 -0.002966 -0.013740 0.036602
#
#
# Mechanical properties :
#
#
# Convention : Reuss Voigt Hill
#
# Bulk Modulus (GPa) = 8.77303 61.08156 34.92729
# Shear Modulus (GPa) = 12.05256 36.91112 24.48184
#
# Velocity S-wave (km/s) = 2.15363 3.76885 3.06939
# Velocity P-wave (km/s) = 3.09196 6.51495 5.09925
#
# Compressibility (1/GPa) = 0.11398572
#
# Stress axis : x y z
#
# Youngs Moduli (GPa) = 21.14722 11.38162 46.26650
#
# Poissons Ratio (x) = -0.40892 1.15829
# Poissons Ratio (y) = -0.75979 1.49355
# Poissons Ratio (z) = 0.52943 0.36742
#
# Static dielectric constant tensor:
#      x y z
#    x 2.093920 -0.034070 -0.025040 
#    y -0.034070 2.065270 -0.003390 
#    z -0.025040 -0.003390 2.053890 
# 
# From -- ./inp_files/312317.got.cif
#   From: 2010.05.17/outbox.cif.g08.bks.cpg/sg2_157_cif.got.tgz:312317.got - 2010.06.03 11:33:40.
