data_PCOD9075376
_publ_section_title
;
Structure prediction by ZEFSAII (Michael W. Deem and Ramdas Pophale) SiO2 
 PCOD9075376
Probable space group: P -1
;
_chemical_formula_sum "Si O2"
_cell_formula_units_Z 14
_cell_length_a 9.000000
_cell_length_b 24.000000
_cell_length_c 9.000000
_cell_angle_alpha 40.000000
_cell_angle_beta 50.000000
_cell_angle_gamma 30.000000
_cell_volume 623.501542
_symmetry_space_group_name_H-M "P -1"
_symmetry_group_IT_number 2
_symmetry_cell_setting 'triclinic'
loop_
_space_group_symop_operation_xyz
x,y,z
-x,-y,-z
loop_
_atom_site_type_symbol
_atom_site_label
_atom_site_fract_x
_atom_site_fract_y
_atom_site_fract_z
Si Si1 0.754501 0.503998 0.180889
Si Si2 0.888089 0.356148 0.674694
Si Si3 0.032981 0.852455 0.391822
Si Si4 0.158986 0.936139 0.686883
Si Si5 0.803968 0.744651 0.787015
Si Si6 0.202537 0.094373 0.891491
Si Si7 0.741873 0.658357 0.305520
O O1 0.772255 0.475224 0.403889
O O2 0.398299 0.605675 0.167851
O O3 0.903356 0.383240 0.226289
O O4 0.000000 0.500000 0.000000
O O5 0.072390 0.234298 0.692247
O O6 0.134826 0.306978 0.733785
O O7 0.400111 0.735067 0.380881
O O8 0.887647 0.814812 0.632980
O O9 0.837294 0.925018 0.214987
O O10 0.964979 0.953944 0.338306
O O11 0.513981 0.829109 0.694856
O O12 0.000000 0.000000 0.500000
O O13 0.041940 0.882572 0.919641
O O14 0.755083 0.698646 0.053265
O O15 0.500000 0.000000 0.000000
O O16 0.000000 0.500000 0.500000
#
# Coordination Sequence:
#
# PCOD9075376 Si02
#       7
#     2   2   2   2   2   2   2
#     4  11  24  45  75 102 143 191 245 302 354 429
#     4  11  26  45  73 106 143 191 242 294 369 427
#     4  12  27  50  75 106 151 190 242 305 366 437
#     4  12  28  47  75 111 143 189 248 303 369 437
#     4  12  26  47  74 106 147 189 245 300 360 437
#     4  12  25  47  76 105 148 193 239 301 367 433
#     4  12  28  47  73 109 149 195 243 297 365 432
#
# _framework density 22.453834000000001
#
# number of rings (size 3 to 8) (size 9 to 14) (size 15 to 20)
#    0.000    0.286    2.857    5.143    8.000    3.429 
#    0.000    0.000    0.000    0.000    0.000    0.000 
#    0.000    0.000    0.000    0.000    0.000    0.000 
#
# Total GULP energy -77990.420666 kJ/mol
# GULP energy per Si atom -5570.744333 kJ/mol
# Density = 2.240273 g / cm^3
# Si number density = 22.453834 Si / 1000 Ang^3
#
#
#
# Elastic Constant Matrix: (Units=GPa)
#
#
# Indices 1 2 3 4 5 6 
#
# 1 194.3234 53.2251 43.6486 0.9377 10.9112 -26.4781
# 2 53.2251 114.0871 32.3538 5.7946 0.2297 -25.7409
# 3 43.6486 32.3538 115.9766 14.1733 -5.9773 -8.7743
# 4 0.9377 5.7946 14.1733 26.1421 -7.5943 -8.1303
# 5 10.9112 0.2297 -5.9773 -7.5943 52.5555 8.6723
# 6 -26.4781 -25.7409 -8.7743 -8.1303 8.6723 59.7270
#
#
#
# Elastic Compliance Matrix: (Units=1/GPa)
#
#
# Indices 1 2 3 4 5 6 
#
# 1 0.006545 -0.002072 -0.001991 0.001478 -0.001720 0.002167
# 2 -0.002072 0.011143 -0.002043 -0.000307 -0.000492 0.003613
# 3 -0.001991 -0.002043 0.010553 -0.005228 0.001045 -0.001076
# 4 0.001478 -0.000307 -0.005228 0.044024 0.004624 0.005076
# 5 -0.001720 -0.000492 0.001045 0.004624 0.020701 -0.003197
# 6 0.002167 0.003613 -0.001076 0.005076 -0.003197 0.020258
#
#
# Mechanical properties :
#
#
# Convention : Reuss Voigt Hill
#
# Bulk Modulus (GPa) = 62.38324 75.87133 69.12729
# Shear Modulus (GPa) = 38.23213 47.36224 42.79718
#
# Velocity S-wave (km/s) = 4.13085 4.59771 4.37052
# Velocity P-wave (km/s) = 7.11303 7.87709 7.50479
#
# Compressibility (1/GPa) = 0.01602995
#
# Stress axis : x y z
#
# Youngs Moduli (GPa) = 152.77783 89.74208 94.75909
#
# Poissons Ratio (x) = 0.18592 0.18865
# Poissons Ratio (y) = 0.31650 0.19362
# Poissons Ratio (z) = 0.30415 0.18337
#
# Static dielectric constant tensor:
#      x y z
#    x 1.856980 0.049440 -0.015660 
#    y 0.049440 1.875840 -0.044480 
#    z -0.015660 -0.044480 1.961290 
# 
# From -- ./inp_files/225934.got.cif
#   From: 2010.05.17/outbox.ucp.g08.bks.cvg/sg2_113_cif.got.tgz:225934.got - 2010.06.11 11:32:03.
