data_PCOD9075824
_publ_section_title
;
Structure prediction by ZEFSAII (Michael W. Deem and Ramdas Pophale) SiO2 
 PCOD9075824
Probable space group: P -1
;
_chemical_formula_sum "Si O2"
_cell_formula_units_Z 16
_cell_length_a 9.403252
_cell_length_b 10.929240
_cell_length_c 23.182909
_cell_angle_alpha 20.568350
_cell_angle_beta 134.575472
_cell_angle_gamma 137.855946
_cell_volume 561.352882
_symmetry_space_group_name_H-M "P -1"
_symmetry_group_IT_number 2
_symmetry_cell_setting 'triclinic'
loop_
_space_group_symop_operation_xyz
x,y,z
-x,-y,-z
loop_
_atom_site_type_symbol
_atom_site_label
_atom_site_fract_x
_atom_site_fract_y
_atom_site_fract_z
Si Si1 0.965520 0.028302 0.333376
Si Si2 0.812886 0.126862 0.368369
Si Si3 0.516822 0.810018 0.961287
Si Si4 0.735533 0.610133 0.832504
Si Si5 0.334992 0.698287 0.443478
Si Si6 0.889249 0.924824 0.096237
Si Si7 0.680728 0.345374 0.367400
Si Si8 0.356006 0.054661 0.181676
O O1 0.794611 0.700095 0.394060
O O2 0.135162 0.846701 0.486966
O O3 0.842571 0.129467 0.306915
O O4 0.090813 0.360576 0.179419
O O5 0.856931 0.528797 0.230112
O O6 0.588830 0.875112 0.444331
O O7 0.000000 0.000000 0.500000
O O8 0.311706 0.684558 0.999183
O O9 0.718355 0.027996 0.962306
O O10 0.495809 0.402004 0.107360
O O11 0.544912 0.018345 0.817084
O O12 0.503106 0.537501 0.771619
O O13 0.772926 0.018945 0.687237
O O14 0.309398 0.703505 0.364713
O O15 0.839354 0.776410 0.213260
O O16 0.139509 0.129761 0.072301
O O17 0.500000 0.000000 0.500000
#
# Coordination Sequence:
#
# PCOD9075824 Si02
#       8
#     2   2   2   2   2   2   2   2
#     4  11  20  30  51  75 107 143 168 208 261 315
#     4  12  21  34  48  75 112 142 173 209 259 321
#     4   9  19  34  53  80 103 130 177 223 262 299
#     4   9  18  33  50  73 106 136 171 215 260 307
#     4  11  19  34  51  79 105 134 179 217 259 307
#     4  11  18  33  49  78 107 137 175 211 261 309
#     4   9  16  29  47  69 102 139 163 205 252 300
#     4  10  18  32  56  79 101 132 175 229 258 297
#
# _framework density 28.502572000000001
#
# number of rings (size 3 to 8) (size 9 to 14) (size 15 to 20)
#    0.000    1.750    6.250    1.125    0.000    0.000 
#    0.000    0.000    0.000    1.500    0.000    0.000 
#    0.000    0.000    0.000    0.000    0.000    0.000 
#
# Total GULP energy -89132.937374 kJ/mol
# GULP energy per Si atom -5570.808586 kJ/mol
# Density = 2.843770 g / cm^3
# Si number density = 28.502572 Si / 1000 Ang^3
#
#
#
# Elastic Constant Matrix: (Units=GPa)
#
#
# Indices 1 2 3 4 5 6 
#
# 1 159.8641 40.1303 24.5836 -10.9118 -11.7411 16.9655
# 2 40.1303 149.3704 18.1788 3.0735 1.6617 27.6685
# 3 24.5836 18.1788 47.7840 12.7944 -28.0769 4.2327
# 4 -10.9118 3.0735 12.7944 35.8742 2.3634 -4.3955
# 5 -11.7411 1.6617 -28.0769 2.3634 53.6939 -2.5612
# 6 16.9655 27.6685 4.2327 -4.3955 -2.5612 25.3221
#
#
#
# Elastic Compliance Matrix: (Units=1/GPa)
#
#
# Indices 1 2 3 4 5 6 
#
# 1 0.007784 -0.001035 -0.005245 0.004091 -0.001314 -0.002630
# 2 -0.001035 0.009141 -0.003564 -0.000760 -0.002774 -0.009111
# 3 -0.005245 -0.003564 0.042933 -0.018146 0.022180 -0.000674
# 4 0.004091 -0.000760 -0.018146 0.037112 -0.009891 0.006564
# 5 -0.001314 -0.002774 0.022180 -0.009891 0.030531 0.001576
# 6 -0.002630 -0.009111 -0.000674 0.006564 0.001576 0.052620
#
#
# Mechanical properties :
#
#
# Convention : Reuss Voigt Hill
#
# Bulk Modulus (GPa) = 24.89596 58.08932 41.49264
# Shear Modulus (GPa) = 23.45223 41.25309 32.35266
#
# Velocity S-wave (km/s) = 2.87158 3.80853 3.37275
# Velocity P-wave (km/s) = 4.44390 6.30591 5.45494
#
# Compressibility (1/GPa) = 0.04016716
#
# Stress axis : x y z
#
# Youngs Moduli (GPa) = 128.47471 109.39871 23.29228
#
# Poissons Ratio (x) = 0.11325 0.12218
# Poissons Ratio (y) = 0.13300 0.08302
# Poissons Ratio (z) = 0.67391 0.38993
#
# Static dielectric constant tensor:
#      x y z
#    x 2.175440 -0.033030 -0.128800 
#    y -0.033030 2.198570 0.034710 
#    z -0.128800 0.034710 2.289900 
# 
# From -- ./inp_files/308623.got.cif
#   From: 2010.05.17/outbox.cif.g08.bks.cpg/sg2_155_cif.got.tgz:308623.got - 2010.06.03 11:33:40.
