data_PCOD9075628
_publ_section_title
;
Structure prediction by ZEFSAII (Michael W. Deem and Ramdas Pophale) SiO2 
 PCOD9075628
Probable space group: P -1
;
_chemical_formula_sum "Si O2"
_cell_formula_units_Z 16
_cell_length_a 21.000000
_cell_length_b 15.000000
_cell_length_c 9.000000
_cell_angle_alpha 70.000000
_cell_angle_beta 120.000000
_cell_angle_gamma 160.000000
_cell_volume 757.501203
_symmetry_space_group_name_H-M "P -1"
_symmetry_group_IT_number 2
_symmetry_cell_setting 'triclinic'
loop_
_space_group_symop_operation_xyz
x,y,z
-x,-y,-z
loop_
_atom_site_type_symbol
_atom_site_label
_atom_site_fract_x
_atom_site_fract_y
_atom_site_fract_z
Si Si1 0.078206 0.504155 0.004336
Si Si2 0.600722 0.249427 0.668870
Si Si3 0.113893 0.081981 0.444783
Si Si4 0.188828 0.660499 0.701297
Si Si5 0.423402 0.146650 0.238312
Si Si6 0.547104 0.598986 0.834340
Si Si7 0.916708 0.783114 0.903707
Si Si8 0.789176 0.541576 0.213429
O O1 0.176619 0.644985 0.875521
O O2 0.245968 0.655776 0.224337
O O3 0.843261 0.164946 0.900785
O O4 0.000000 0.500000 0.000000
O O5 0.490416 0.158999 0.445006
O O6 0.777007 0.539326 0.777492
O O7 0.414043 0.984574 0.717777
O O8 0.357055 0.339070 0.638961
O O9 0.120733 0.162920 0.262931
O O10 0.000000 0.000000 0.500000
O O11 0.962201 0.807127 0.374326
O O12 0.171203 0.524986 0.717649
O O13 0.000000 0.500000 0.500000
O O14 0.500804 0.347255 0.245998
O O15 0.545908 0.259789 0.167380
O O16 0.500000 0.500000 0.000000
O O17 0.811972 0.899977 0.944119
O O18 0.817760 0.633774 0.037374
#
# Coordination Sequence:
#
# PCOD9075628 Si02
#       8
#     2   2   2   2   2   2   2   2
#     4  12  27  47  75 106 143 195 251 302 369 440
#     4  12  25  47  79 102 155 197 242 307 370 440
#     4  12  24  49  77 108 146 193 244 309 370 436
#     4  12  27  50  71 110 152 192 247 307 363 439
#     4  12  25  46  71 112 146 193 249 299 367 445
#     4  12  24  45  75 106 146 190 248 304 362 445
#     4  12  25  46  75 110 148 193 243 307 376 439
#     4  12  27  46  76 109 153 195 246 307 374 439
#
# _framework density 21.122078999999999
#
# number of rings (size 3 to 8) (size 9 to 14) (size 15 to 20)
#    0.000    0.000    7.500    1.500    3.500    1.500 
#    0.000    2.500    0.000    0.000    0.000    0.000 
#    0.000    0.000    0.000    0.000    0.000    0.000 
#
# Total GULP energy -89368.202368 kJ/mol
# GULP energy per Si atom -5585.512648 kJ/mol
# Density = 2.107400 g / cm^3
# Si number density = 21.122079 Si / 1000 Ang^3
#
#
#
# Elastic Constant Matrix: (Units=GPa)
#
#
# Indices 1 2 3 4 5 6 
#
# 1 67.9001 22.7271 14.2131 -12.0128 3.9795 -5.7372
# 2 22.7271 134.8016 38.7154 -15.0115 10.2028 14.9734
# 3 14.2131 38.7154 116.9667 -10.3741 24.8530 13.5714
# 4 -12.0128 -15.0115 -10.3741 51.4003 4.2687 -0.0008
# 5 3.9795 10.2028 24.8530 4.2687 37.8816 -0.7993
# 6 -5.7372 14.9734 13.5714 -0.0008 -0.7993 44.2695
#
#
#
# Elastic Compliance Matrix: (Units=1/GPa)
#
#
# Indices 1 2 3 4 5 6 
#
# 1 0.016646 -0.002456 -0.001217 0.002973 -0.000553 0.003351
# 2 -0.002456 0.008983 -0.001957 0.001749 -0.001133 -0.002777
# 3 -0.001217 -0.001957 0.011400 0.002036 -0.007120 -0.003119
# 4 0.002973 0.001749 0.002036 0.021450 -0.004556 -0.000912
# 5 -0.000553 -0.001133 -0.007120 -0.004556 0.032011 0.003072
# 6 0.003351 -0.002777 -0.003119 -0.000912 0.003072 0.024974
#
#
# Mechanical properties :
#
#
# Convention : Reuss Voigt Hill
#
# Bulk Modulus (GPa) = 38.80627 52.33106 45.56867
# Shear Modulus (GPa) = 36.95070 42.97781 39.96426
#
# Velocity S-wave (km/s) = 4.18711 4.51570 4.35450
# Velocity P-wave (km/s) = 6.46437 7.21235 6.84858
#
# Compressibility (1/GPa) = 0.02576903
#
# Stress axis : x y z
#
# Youngs Moduli (GPa) = 60.07434 111.31599 87.71596
#
# Poissons Ratio (x) = 0.27341 0.10679
# Poissons Ratio (y) = 0.14755 0.17165
# Poissons Ratio (z) = 0.07314 0.21783
#
# Static dielectric constant tensor:
#      x y z
#    x 1.904720 -0.176890 -0.132360 
#    y -0.176890 2.059060 0.232110 
#    z -0.132360 0.232110 1.897100 
# 
# From -- ./inp_files/347575.got.cif
#   From: 2010.05.17/outbox.ucp.g08.bks.cvg/sg2_174_cif.got.tgz:347575.got - 2010.06.11 11:32:03.
