data_PCOD9075037
_publ_section_title
;
Structure prediction by ZEFSAII (Michael W. Deem and Ramdas Pophale) SiO2 
 PCOD9075037
Probable space group: P -1
;
_chemical_formula_sum "Si O2"
_cell_formula_units_Z 16
_cell_length_a 24.000000
_cell_length_b 6.000000
_cell_length_c 12.000000
_cell_angle_alpha 70.000000
_cell_angle_beta 30.000000
_cell_angle_gamma 60.000000
_cell_volume 731.538865
_symmetry_space_group_name_H-M "P -1"
_symmetry_group_IT_number 2
_symmetry_cell_setting 'triclinic'
loop_
_space_group_symop_operation_xyz
x,y,z
-x,-y,-z
loop_
_atom_site_type_symbol
_atom_site_label
_atom_site_fract_x
_atom_site_fract_y
_atom_site_fract_z
Si Si1 0.752271 0.306371 0.832223
Si Si2 0.597466 0.228130 0.929009
Si Si3 0.549150 0.999248 0.656731
Si Si4 0.089810 0.275533 0.296307
Si Si5 0.844234 0.079084 0.383216
Si Si6 0.091696 0.540246 0.621784
Si Si7 0.676279 0.395608 0.429529
Si Si8 0.678587 0.594883 0.142772
O O1 0.640918 0.283543 0.964711
O O2 0.795035 0.491307 0.652296
O O3 0.869006 0.018776 0.679488
O O4 0.713890 0.399375 0.008551
O O5 0.719787 0.128013 0.659251
O O6 0.500000 0.500000 0.000000
O O7 0.534517 0.033189 0.093140
O O8 0.614161 0.182919 0.560556
O O9 0.456784 0.175517 0.689487
O O10 0.620173 0.690979 0.539312
O O11 0.000000 0.500000 0.500000
O O12 0.026542 0.317145 0.278074
O O13 0.217648 0.298268 0.059289
O O14 0.902214 0.254487 0.326049
O O15 0.799659 0.226290 0.316782
O O16 0.902714 0.755781 0.316760
O O17 0.687056 0.463260 0.270404
#
# Coordination Sequence:
#
# PCOD9075037 Si02
#       8
#     2   2   2   2   2   2   2   2
#     4  11  24  43  68 107 142 177 234 292 363 413
#     4  11  22  41  69 104 140 180 228 291 346 415
#     4  12  25  47  69 108 141 190 238 283 348 413
#     4  12  24  45  73 109 137 180 236 305 362 403
#     4  11  25  45  66 104 141 184 233 281 357 416
#     4  11  24  44  71 100 138 175 230 300 349 410
#     4  12  28  47  71 100 149 196 230 283 344 430
#     4  12  27  44  72 103 143 185 240 286 348 426
#
# _framework density 21.871701999999999
#
# number of rings (size 3 to 8) (size 9 to 14) (size 15 to 20)
#    0.000    0.500    3.750    4.875    5.250    1.500 
#    0.000    1.250    0.000    0.000    0.000    0.000 
#    0.000    0.000    0.000    0.000    0.000    0.000 
#
# Total GULP energy -89310.550501 kJ/mol
# GULP energy per Si atom -5581.909406 kJ/mol
# Density = 2.182192 g / cm^3
# Si number density = 21.871702 Si / 1000 Ang^3
#
#
#
# Elastic Constant Matrix: (Units=GPa)
#
#
# Indices 1 2 3 4 5 6 
#
# 1 163.8839 62.8638 8.5771 0.7553 -16.8701 -6.8596
# 2 62.8638 163.2090 2.4013 9.3703 -8.5770 0.5928
# 3 8.5771 2.4013 1.1648 -1.1519 -5.3145 7.0709
# 4 0.7553 9.3703 -1.1519 28.5620 -1.0651 0.4032
# 5 -16.8701 -8.5770 -5.3145 -1.0651 38.1837 -5.3394
# 6 -6.8596 0.5928 7.0709 0.4032 -5.3394 49.3281
#
#
#
# Elastic Compliance Matrix: (Units=1/GPa)
#
#
# Indices 1 2 3 4 5 6 
#
# 1 0.004359 -0.002289 0.061845 0.003572 0.009102 -0.007275
# 2 -0.002289 0.007273 -0.009933 -0.002766 -0.000702 0.000965
# 3 0.061845 -0.009933 -1.206301 -0.053911 -0.120672 0.169015
# 4 0.003572 -0.002766 -0.053911 0.033374 -0.004568 0.007491
# 5 0.009102 -0.000702 -0.120672 -0.004568 0.015974 0.020338
# 6 -0.007275 0.000965 0.169015 0.007491 0.020338 -0.002838
#
#
# Mechanical properties :
#
#
# Convention : Reuss Voigt Hill
#
# Bulk Modulus (GPa) = -0.91289 52.88246 25.98479
# Shear Modulus (GPa) = -3.10069 40.17581 18.53756
#
# Velocity S-wave (km/s) = -1.19195 4.29054 2.91445
# Velocity P-wave (km/s) = 1.52073 6.98398 4.81992
#
# Compressibility (1/GPa) = -1.09542410
#
# Stress axis : x y z
#
# Youngs Moduli (GPa) = 229.39779 137.48667 -0.82898
#
# Poissons Ratio (x) = 0.31475 0.05127
# Poissons Ratio (y) = 0.52517 -0.00823
# Poissons Ratio (z) = -14.18703 1.36565
#
# Static dielectric constant tensor:
#      x y z
#    x 1.828870 0.018590 -0.008840 
#    y 0.018590 1.839050 0.006220 
#    z -0.008840 0.006220 1.843180 
# 
# From -- ./inp_files/473393.got.cif
#   From: 2010.05.17/outbox.ucp.g08.bks.cvg/sg2_237_cif.got.tgz:473393.got - 2010.06.11 11:32:03.
