data_PCOD9075695
_publ_section_title
;
Structure prediction by ZEFSAII (Michael W. Deem and Ramdas Pophale) SiO2 
 PCOD9075695
Probable space group: P -1
;
_chemical_formula_sum "Si O2"
_cell_formula_units_Z 16
_cell_length_a 10.828565
_cell_length_b 6.232762
_cell_length_c 17.598165
_cell_angle_alpha 54.337845
_cell_angle_beta 55.408332
_cell_angle_gamma 76.411634
_cell_volume 786.170408
_symmetry_space_group_name_H-M "P -1"
_symmetry_group_IT_number 2
_symmetry_cell_setting 'triclinic'
loop_
_space_group_symop_operation_xyz
x,y,z
-x,-y,-z
loop_
_atom_site_type_symbol
_atom_site_label
_atom_site_fract_x
_atom_site_fract_y
_atom_site_fract_z
Si Si1 0.228318 0.791612 0.383725
Si Si2 0.408196 0.750606 0.485005
Si Si3 0.918262 0.599944 0.592196
Si Si4 0.313995 0.825965 0.667202
Si Si5 0.875972 0.172583 0.914170
Si Si6 0.966112 0.909486 0.283427
Si Si7 0.892195 0.614907 0.076993
Si Si8 0.806374 0.701226 0.777982
O O1 0.317692 0.774500 0.433862
O O2 0.214728 0.522462 0.393318
O O3 0.052632 0.806671 0.467247
O O4 0.286807 0.049080 0.256820
O O5 0.500000 0.500000 0.500000
O O6 0.311576 0.719687 0.603326
O O7 0.520234 0.029286 0.399280
O O8 0.854751 0.655446 0.684327
O O9 0.006999 0.350678 0.628018
O O10 0.237515 0.605745 0.798345
O O11 0.206565 0.053352 0.662623
O O12 0.768223 0.399218 0.887290
O O13 0.969933 0.128536 0.814452
O O14 0.993446 0.285989 0.915022
O O15 0.816584 0.869077 0.022021
O O16 0.061258 0.161721 0.240566
O O17 0.000000 0.500000 0.000000
#
# Coordination Sequence:
#
# PCOD9075695 Si02
#       8
#     2   2   2   2   2   2   2   2
#     4  10  20  34  51  79 111 155 200 236 286 344
#     4  11  26  40  56  80 120 171 199 232 279 352
#     4   9  19  30  54  82 110 152 188 244 292 343
#     4  11  23  38  58  84 121 160 197 237 286 352
#     4  10  20  32  57  92 118 150 179 246 313 343
#     4  10  18  33  55  86 120 148 187 240 295 349
#     4  11  21  36  60  90 121 149 193 247 298 346
#     4  10  18  32  54  81 117 144 184 244 300 346
#
# _framework density 20.35182
#
# number of rings (size 3 to 8) (size 9 to 14) (size 15 to 20)
#    0.000    1.750    2.500    1.875    3.500    4.000 
#    0.000    0.000    0.000    0.750    0.000   13.125 
#    0.000    0.000    0.000    0.000    0.000    0.000 
#
# Total GULP energy -89112.767546 kJ/mol
# GULP energy per Si atom -5569.547972 kJ/mol
# Density = 2.030550 g / cm^3
# Si number density = 20.351820 Si / 1000 Ang^3
#
#
#
# Elastic Constant Matrix: (Units=GPa)
#
#
# Indices 1 2 3 4 5 6 
#
# 1 86.7412 32.6202 28.1847 -0.0927 24.1834 21.2417
# 2 32.6202 80.5666 36.7685 -7.9172 13.0614 14.8220
# 3 28.1847 36.7685 102.2368 -15.4128 19.8588 2.4910
# 4 -0.0927 -7.9172 -15.4128 40.9300 -2.3217 18.3805
# 5 24.1834 13.0614 19.8588 -2.3217 23.8047 3.1550
# 6 21.2417 14.8220 2.4910 18.3805 3.1550 31.7634
#
#
#
# Elastic Compliance Matrix: (Units=1/GPa)
#
#
# Indices 1 2 3 4 5 6 
#
# 1 0.020684 -0.002444 -0.000508 0.004514 -0.017009 -0.013574
# 2 -0.002444 0.018098 -0.004277 0.006206 -0.001965 -0.009871
# 3 -0.000508 -0.004277 0.013631 0.003939 -0.008097 -0.000209
# 4 0.004514 0.006206 0.003939 0.039941 -0.003540 -0.028985
# 5 -0.017009 -0.001965 -0.008097 -0.003540 0.065655 0.008453
# 6 -0.013574 -0.009871 -0.000209 -0.028985 0.008453 0.061116
#
#
# Mechanical properties :
#
#
# Convention : Reuss Voigt Hill
#
# Bulk Modulus (GPa) = 26.34761 51.63237 38.98999
# Shear Modulus (GPa) = 20.30570 30.76437 25.53504
#
# Velocity S-wave (km/s) = 3.16212 3.89218 3.54599
# Velocity P-wave (km/s) = 5.12895 6.75454 5.99708
#
# Compressibility (1/GPa) = 0.03795411
#
# Stress axis : x y z
#
# Youngs Moduli (GPa) = 48.34689 55.25394 73.36132
#
# Poissons Ratio (x) = 0.13507 0.03727
# Poissons Ratio (y) = 0.11818 0.31378
# Poissons Ratio (z) = 0.02456 0.23633
#
# Static dielectric constant tensor:
#      x y z
#    x 1.732800 0.008580 0.025300 
#    y 0.008580 1.831150 -0.051580 
#    z 0.025300 -0.051580 1.745680 
# 
# From -- ./inp_files/564397.got.cif
#   From: 2010.05.17/outbox.cif.g08.bks.cpg/sg2_283_cif.got.tgz:564397.got - 2010.06.03 11:33:40.
