data_PCOD9075370
_publ_section_title
;
Structure prediction by ZEFSAII (Michael W. Deem and Ramdas Pophale) SiO2 
 PCOD9075370
Probable space group: P -1
;
_chemical_formula_sum "Si O2"
_cell_formula_units_Z 16
_cell_length_a 12.000000
_cell_length_b 6.000000
_cell_length_c 12.000000
_cell_angle_alpha 100.000000
_cell_angle_beta 120.000000
_cell_angle_gamma 90.000000
_cell_volume 733.050061
_symmetry_space_group_name_H-M "P -1"
_symmetry_group_IT_number 2
_symmetry_cell_setting 'triclinic'
loop_
_space_group_symop_operation_xyz
x,y,z
-x,-y,-z
loop_
_atom_site_type_symbol
_atom_site_label
_atom_site_fract_x
_atom_site_fract_y
_atom_site_fract_z
Si Si1 0.771813 0.834324 0.620700
Si Si2 0.455480 0.347136 0.356814
Si Si3 0.108298 0.559338 0.879996
Si Si4 0.699615 0.074380 0.391960
Si Si5 0.939260 0.438411 0.584142
Si Si6 0.989957 0.941775 0.120973
Si Si7 0.376399 0.516407 0.092424
Si Si8 0.410102 0.155058 0.899781
O O1 0.668225 0.800611 0.665537
O O2 0.847049 0.615475 0.608914
O O3 0.878661 0.027901 0.737408
O O4 0.700042 0.890821 0.475539
O O5 0.500000 0.500000 0.500000
O O6 0.576753 0.215653 0.367128
O O7 0.406230 0.466472 0.231232
O O8 0.072035 0.820710 0.857536
O O9 0.061801 0.438158 0.728848
O O10 0.060196 0.329825 0.913697
O O11 0.247301 0.629736 0.011816
O O12 0.837925 0.218447 0.491782
O O13 0.682213 0.979815 0.248959
O O14 0.000000 0.500000 0.500000
O O15 0.000000 0.000000 0.000000
O O16 0.499060 0.666722 0.114442
O O17 0.349727 0.293189 0.980455
O O18 0.500000 0.000000 0.000000
#
# Coordination Sequence:
#
# PCOD9075370 Si02
#       8
#     2   2   2   2   2   2   2   2
#     4  11  25  45  70 108 146 189 249 308 382 451
#     4  12  24  45  75 105 149 192 242 313 379 449
#     4  11  26  46  73 106 147 195 252 308 375 449
#     4  12  25  46  75 107 147 191 253 306 382 456
#     4  11  27  46  71 105 144 198 249 313 373 450
#     4  11  24  45  71 106 148 196 243 306 375 456
#     4  11  27  46  69 109 146 192 254 309 382 452
#     4  11  26  45  71 102 147 195 247 317 373 446
#
# _framework density 21.826612999999998
#
# number of rings (size 3 to 8) (size 9 to 14) (size 15 to 20)
#    0.000    0.750    3.750    2.250    5.250    4.500 
#    0.000    0.000    0.000    0.000    0.000    0.000 
#    0.000    0.000    0.000    0.000    0.000    0.000 
#
# Total GULP energy -89106.483587 kJ/mol
# GULP energy per Si atom -5569.155224 kJ/mol
# Density = 2.177693 g / cm^3
# Si number density = 21.826613 Si / 1000 Ang^3
#
#
#
# Elastic Constant Matrix: (Units=GPa)
#
#
# Indices 1 2 3 4 5 6 
#
# 1 49.4162 3.7422 14.4687 -5.9091 -2.4020 12.4945
# 2 3.7422 45.0892 6.6601 -7.4929 -6.2175 -2.5142
# 3 14.4687 6.6601 181.1732 -20.1474 -9.3188 -6.7180
# 4 -5.9091 -7.4929 -20.1474 55.7059 4.7355 -0.3251
# 5 -2.4020 -6.2175 -9.3188 4.7355 39.2520 -9.9913
# 6 12.4945 -2.5142 -6.7180 -0.3251 -9.9913 20.5903
#
#
#
# Elastic Compliance Matrix: (Units=1/GPa)
#
#
# Indices 1 2 3 4 5 6 
#
# 1 0.026164 -0.003226 -0.002752 0.001633 -0.004705 -0.019426
# 2 -0.003226 0.023987 0.000211 0.002557 0.005266 0.007551
# 3 -0.002752 0.000211 0.006238 0.001819 0.002377 0.004913
# 4 0.001633 0.002557 0.001819 0.019253 -0.001518 -0.000517
# 5 -0.004705 0.005266 0.002377 -0.001518 0.031777 0.019669
# 6 -0.019426 0.007551 0.004913 -0.000517 0.019669 0.072415
#
#
# Mechanical properties :
#
#
# Convention : Reuss Voigt Hill
#
# Bulk Modulus (GPa) = 22.29307 36.15782 29.22545
# Shear Modulus (GPa) = 24.23427 39.83015 32.03221
#
# Velocity S-wave (km/s) = 3.33574 4.27645 3.83505
# Velocity P-wave (km/s) = 5.00721 6.40203 5.74709
#
# Compressibility (1/GPa) = 0.04485698
#
# Stress axis : x y z
#
# Youngs Moduli (GPa) = 38.21978 41.68947 160.29885
#
# Poissons Ratio (x) = 0.13448 0.44109
# Poissons Ratio (y) = 0.12329 -0.03383
# Poissons Ratio (z) = 0.10517 -0.00880
#
# Static dielectric constant tensor:
#      x y z
#    x 2.244490 -0.139260 0.114570 
#    y -0.139260 1.970160 0.000080 
#    z 0.114570 0.000080 1.780990 
# 
# From -- ./inp_files/76981.got.cif
#   From: 2010.05.17/outbox.ucp.g08.bks.cvg/sg2_39_cif.got.tgz:76981.got - 2010.06.11 11:32:03.
