data_PCOD9075524
_publ_section_title
;
Structure prediction by ZEFSAII (Michael W. Deem and Ramdas Pophale) SiO2 
 PCOD9075524
Probable space group: P -1
;
_chemical_formula_sum "Si O2"
_cell_formula_units_Z 16
_cell_length_a 6.000000
_cell_length_b 18.000000
_cell_length_c 18.000000
_cell_angle_alpha 30.000000
_cell_angle_beta 130.000000
_cell_angle_gamma 130.000000
_cell_volume 725.531033
_symmetry_space_group_name_H-M "P -1"
_symmetry_group_IT_number 2
_symmetry_cell_setting 'triclinic'
loop_
_space_group_symop_operation_xyz
x,y,z
-x,-y,-z
loop_
_atom_site_type_symbol
_atom_site_label
_atom_site_fract_x
_atom_site_fract_y
_atom_site_fract_z
Si Si1 0.620764 0.136390 0.722869
Si Si2 0.574352 0.861849 0.495164
Si Si3 0.447985 0.434129 0.461513
Si Si4 0.241678 0.802398 0.716601
Si Si5 0.337449 0.899594 0.983190
Si Si6 0.319211 0.279815 0.997059
Si Si7 0.826988 0.403064 0.267983
Si Si8 0.255133 0.302627 0.784107
O O1 0.531655 0.129995 0.621480
O O2 0.462644 0.259068 0.620370
O O3 0.962958 0.192754 0.778481
O O4 0.478827 0.978064 0.869508
O O5 0.359102 0.718558 0.609857
O O6 0.903567 0.828974 0.611163
O O7 0.567734 0.021463 0.396952
O O8 0.500000 0.500000 0.500000
O O9 0.715296 0.527290 0.386437
O O10 0.156888 0.432160 0.349834
O O11 0.240283 0.680340 0.755133
O O12 0.384411 0.748793 0.870912
O O13 0.459095 0.746753 0.147568
O O14 0.978582 0.857518 0.937617
O O15 0.500000 0.000000 0.000000
O O16 0.265025 0.434931 0.888265
O O17 0.301504 0.301589 0.884223
#
# Coordination Sequence:
#
# PCOD9075524 Si02
#       8
#     2   2   2   2   2   2   2   2
#     4  12  24  43  75 102 143 187 224 294 355 416
#     4  11  26  48  73 106 138 184 240 290 356 414
#     4  12  24  44  71 107 143 183 232 290 354 420
#     4  11  27  48  71 105 138 187 239 292 349 418
#     4  12  26  45  68 108 146 183 235 282 354 422
#     4  12  27  46  75 104 142 193 231 291 351 419
#     4  12  25  48  71 103 143 185 238 291 351 415
#     4  12  25  47  70 106 146 180 235 286 356 422
#
# _framework density 22.052813
#
# number of rings (size 3 to 8) (size 9 to 14) (size 15 to 20)
#    0.000    0.250    3.750    5.250    3.500    3.500 
#    0.000    0.000    0.000    0.000    0.000    0.000 
#    0.000    0.000    0.000    0.000    0.000    0.000 
#
# Total GULP energy -89256.159516 kJ/mol
# GULP energy per Si atom -5578.509970 kJ/mol
# Density = 2.200262 g / cm^3
# Si number density = 22.052813 Si / 1000 Ang^3
#
#
#
# Elastic Constant Matrix: (Units=GPa)
#
#
# Indices 1 2 3 4 5 6 
#
# 1 42.4886 48.4279 17.7021 12.7104 -9.9839 -0.4272
# 2 48.4279 198.5207 48.7784 25.6066 -9.9243 -12.4951
# 3 17.7021 48.7784 97.5709 22.3001 0.6561 4.6083
# 4 12.7104 25.6066 22.3001 67.0148 -6.1757 0.6992
# 5 -9.9839 -9.9243 0.6561 -6.1757 44.9541 -8.0771
# 6 -0.4272 -12.4951 4.6083 0.6992 -8.0771 44.5841
#
#
#
# Elastic Compliance Matrix: (Units=1/GPa)
#
#
# Indices 1 2 3 4 5 6 
#
# 1 0.034981 -0.007439 -0.002055 -0.002576 0.005720 -0.000461
# 2 -0.007439 0.007725 -0.002469 -0.000705 0.000430 0.002438
# 3 -0.002055 -0.002469 0.012677 -0.003047 -0.002026 -0.002341
# 4 -0.002576 -0.000705 -0.003047 0.016845 0.001654 0.000128
# 5 0.005720 0.000430 -0.002026 0.001654 0.024737 0.004840
# 6 -0.000461 0.002438 -0.002341 0.000128 0.004840 0.024225
#
#
# Mechanical properties :
#
#
# Convention : Reuss Voigt Hill
#
# Bulk Modulus (GPa) = 31.79090 63.15522 47.47306
# Shear Modulus (GPa) = 32.13327 46.22207 39.17767
#
# Velocity S-wave (km/s) = 3.82135 4.58314 4.21947
# Velocity P-wave (km/s) = 5.82386 7.53042 6.73144
#
# Compressibility (1/GPa) = 0.03145554
#
# Stress axis : x y z
#
# Youngs Moduli (GPa) = 28.58675 129.45814 78.88379
#
# Poissons Ratio (x) = 0.96306 0.16214
# Poissons Ratio (y) = 0.21266 0.19476
# Poissons Ratio (z) = 0.05876 0.31963
#
# Static dielectric constant tensor:
#      x y z
#    x 1.862690 0.011520 0.026090 
#    y 0.011520 1.793610 -0.007570 
#    z 0.026090 -0.007570 1.817920 
# 
# From -- ./inp_files/367990.got.cif
#   From: 2010.05.17/outbox.ucp.g08.bks.cvg/sg2_184_cif.got.tgz:367990.got - 2010.06.11 11:32:03.
