data_PCOD9075847
_publ_section_title
;
Structure prediction by ZEFSAII (Michael W. Deem and Ramdas Pophale) SiO2 
 PCOD9075847
Probable space group: P -1
;
_chemical_formula_sum "Si O2"
_cell_formula_units_Z 12
_cell_length_a 11.776584
_cell_length_b 13.461019
_cell_length_c 5.549921
_cell_angle_alpha 94.143985
_cell_angle_beta 84.486725
_cell_angle_gamma 147.600948
_cell_volume 469.162779
_symmetry_space_group_name_H-M "P -1"
_symmetry_group_IT_number 2
_symmetry_cell_setting 'triclinic'
loop_
_space_group_symop_operation_xyz
x,y,z
-x,-y,-z
loop_
_atom_site_type_symbol
_atom_site_label
_atom_site_fract_x
_atom_site_fract_y
_atom_site_fract_z
Si Si1 0.077405 0.187541 0.256366
Si Si2 0.512476 0.129234 0.543524
Si Si3 0.484271 0.606974 0.744839
Si Si4 0.980426 0.819191 0.232492
Si Si5 0.355100 0.991373 0.051038
Si Si6 0.331059 0.572111 0.272561
O O1 0.137095 0.350805 0.275821
O O2 0.958249 0.084212 0.514071
O O3 0.303089 0.298192 0.242270
O O4 0.972567 0.087331 0.004455
O O5 0.462329 0.125027 0.280840
O O6 0.709749 0.341365 0.638681
O O7 0.500000 0.000000 0.500000
O O8 0.356294 0.032825 0.785096
O O9 0.524313 0.355084 0.517273
O O10 0.270756 0.381784 0.747686
O O11 0.439323 0.637874 0.001936
O O12 0.113073 0.814278 0.166571
O O13 0.500000 0.000000 0.000000
#
# Coordination Sequence:
#
# PCOD9075847 Si02
#       6
#     2   2   2   2   2   2
#     4  10  19  33  58  84 110 140 173 227 280 322
#     4  10  21  37  57  76 104 149 188 222 266 317
#     4  10  19  33  58  84 110 140 173 227 280 322
#     4  10  18  32  56  82 108 141 179 220 276 325
#     4  10  21  37  57  76 104 149 188 222 266 317
#     4  10  18  32  56  82 108 141 179 220 276 325
#
# _framework density 25.577473999999999
#
# number of rings (size 3 to 8) (size 9 to 14) (size 15 to 20)
#    0.000    2.000    0.000    7.000    0.000    0.000 
#    0.000    0.000    0.000  130.000    0.000    0.000 
#    0.000    0.000    0.000    0.000    0.000    0.000 
#
# Total GULP energy -66815.323201 kJ/mol
# GULP energy per Si atom -5567.943600 kJ/mol
# Density = 2.551926 g / cm^3
# Si number density = 25.577474 Si / 1000 Ang^3
#
#
#
# Elastic Constant Matrix: (Units=GPa)
#
#
# Indices 1 2 3 4 5 6 
#
# 1 69.6821 27.3375 41.3094 -9.7274 0.1310 -2.2121
# 2 27.3375 68.0757 22.0121 12.8316 -15.5583 -17.6351
# 3 41.3094 22.0121 288.7312 -11.3520 33.0301 -7.6760
# 4 -9.7274 12.8316 -11.3520 33.9501 -3.8405 -14.6400
# 5 0.1310 -15.5583 33.0301 -3.8405 46.7801 0.7936
# 6 -2.2121 -17.6351 -7.6760 -14.6400 0.7936 38.3668
#
#
#
# Elastic Compliance Matrix: (Units=1/GPa)
#
#
# Indices 1 2 3 4 5 6 
#
# 1 0.020324 -0.009620 -0.001688 0.008626 -0.001352 -0.000268
# 2 -0.009620 0.024410 -0.001607 -0.008591 0.008457 0.006890
# 3 -0.001688 -0.001607 0.004297 0.001449 -0.003456 0.000648
# 4 0.008626 -0.008591 0.001449 0.040955 -0.000754 0.012482
# 5 -0.001352 0.008457 -0.003456 -0.000754 0.026532 0.002281
# 6 -0.000268 0.006890 0.000648 0.012482 0.002281 0.034061
#
#
# Mechanical properties :
#
#
# Convention : Reuss Voigt Hill
#
# Bulk Modulus (GPa) = 43.10144 67.53413 55.31778
# Shear Modulus (GPa) = 27.15300 46.20808 36.68054
#
# Velocity S-wave (km/s) = 3.26175 4.25501 3.79105
# Velocity P-wave (km/s) = 5.57434 7.11346 6.39040
#
# Compressibility (1/GPa) = 0.02320108
#
# Stress axis : x y z
#
# Youngs Moduli (GPa) = 49.20342 40.96765 232.72684
#
# Poissons Ratio (x) = 0.39412 0.39276
# Poissons Ratio (y) = 0.47335 0.37390
# Poissons Ratio (z) = 0.08304 0.06582
#
# Static dielectric constant tensor:
#      x y z
#    x 2.377660 -0.129490 0.098560 
#    y -0.129490 2.056470 -0.004710 
#    z 0.098560 -0.004710 2.069040 
# 
# From -- ./inp_files/78303.got.cif
#   From: 2010.05.17/outbox.cif.g08.bks.cpg/sg2_40_cif.got.tgz:78303.got - 2010.06.03 11:33:40.
