data_PCOD9075343
_publ_section_title
;
Structure prediction by ZEFSAII (Michael W. Deem and Ramdas Pophale) SiO2 
 PCOD9075343
Probable space group: P -1
;
_chemical_formula_sum "Si O2"
_cell_formula_units_Z 14
_cell_length_a 15.000000
_cell_length_b 15.000000
_cell_length_c 27.000000
_cell_angle_alpha 20.000000
_cell_angle_beta 160.000000
_cell_angle_gamma 160.000000
_cell_volume 621.679612
_symmetry_space_group_name_H-M "P -1"
_symmetry_group_IT_number 2
_symmetry_cell_setting 'triclinic'
loop_
_space_group_symop_operation_xyz
x,y,z
-x,-y,-z
loop_
_atom_site_type_symbol
_atom_site_label
_atom_site_fract_x
_atom_site_fract_y
_atom_site_fract_z
Si Si1 0.373122 0.658226 0.735915
Si Si2 0.107329 0.586861 0.944030
Si Si3 0.783180 0.387944 0.127532
Si Si4 0.420818 0.294144 0.752253
Si Si5 0.457503 0.670768 0.664448
Si Si6 0.707389 0.324368 0.589162
Si Si7 0.402753 0.755583 0.314044
O O1 0.282626 0.560979 0.682254
O O2 0.062222 0.525068 0.671281
O O3 0.571203 0.016482 0.648044
O O4 0.559774 0.521735 0.931558
O O5 0.108721 0.615847 0.869916
O O6 0.771758 0.415408 0.877204
O O7 0.261172 0.936152 0.857739
O O8 0.261563 0.385156 0.144691
O O9 0.071598 0.606552 0.195860
O O10 0.615102 0.059213 0.236442
O O11 0.320714 0.441851 0.666697
O O12 0.389742 0.447962 0.604990
O O13 0.500000 0.000000 0.500000
O O14 0.598979 0.188376 0.657871
O O15 0.500000 0.500000 0.500000
#
# Coordination Sequence:
#
# PCOD9075343 Si02
#       7
#     2   2   2   2   2   2   2
#     4  11  26  45  67 102 134 183 220 280 352 406
#     4  11  25  46  71 104 138 184 231 283 346 407
#     4  11  24  44  69  97 142 174 226 285 339 406
#     4  12  25  46  71 102 141 184 231 286 339 408
#     4  11  25  48  72 103 141 183 231 286 345 413
#     4  12  25  43  70  99 139 175 230 279 340 410
#     4  12  25  43  69 100 130 181 227 282 341 404
#
# _framework density 22.519638
#
# number of rings (size 3 to 8) (size 9 to 14) (size 15 to 20)
#    0.000    0.571    1.429    6.429    0.000    8.571 
#    0.000    0.000    0.000    0.000    0.000    0.000 
#    0.000    0.000    0.000    0.000    0.000    0.000 
#
# Total GULP energy -78266.509505 kJ/mol
# GULP energy per Si atom -5590.464965 kJ/mol
# Density = 2.246838 g / cm^3
# Si number density = 22.519638 Si / 1000 Ang^3
#
#
#
# Elastic Constant Matrix: (Units=GPa)
#
#
# Indices 1 2 3 4 5 6 
#
# 1 88.2567 4.4803 30.1807 -0.8734 -32.8001 -13.2695
# 2 4.4803 115.0540 35.6975 -13.1678 6.0012 3.8358
# 3 30.1807 35.6975 135.5927 -14.2274 -5.1557 8.0662
# 4 -0.8734 -13.1678 -14.2274 45.7328 0.7070 -4.9236
# 5 -32.8001 6.0012 -5.1557 0.7070 32.5906 -9.3525
# 6 -13.2695 3.8358 8.0662 -4.9236 -9.3525 30.6157
#
#
#
# Elastic Compliance Matrix: (Units=1/GPa)
#
#
# Indices 1 2 3 4 5 6 
#
# 1 0.033967 -0.002264 -0.007102 0.000343 0.042013 0.029766
# 2 -0.002264 0.009988 -0.001940 0.001985 -0.005338 -0.003033
# 3 -0.007102 -0.001940 0.009801 0.001672 -0.007402 -0.007410
# 4 0.000343 0.001985 0.001672 0.023322 0.000722 0.003431
# 5 0.042013 -0.005338 -0.007402 0.000722 0.086342 0.047320
# 6 0.029766 -0.003033 -0.007410 0.003431 0.047320 0.062904
#
#
# Mechanical properties :
#
#
# Convention : Reuss Voigt Hill
#
# Bulk Modulus (GPa) = 32.10765 53.29115 42.69940
# Shear Modulus (GPa) = 19.28139 39.69080 29.48610
#
# Velocity S-wave (km/s) = 2.92927 4.20277 3.62242
# Velocity P-wave (km/s) = 5.07242 6.87508 6.04136
#
# Compressibility (1/GPa) = 0.03114523
#
# Stress axis : x y z
#
# Youngs Moduli (GPa) = 29.44068 100.11632 102.02809
#
# Poissons Ratio (x) = 0.22664 0.72457
# Poissons Ratio (y) = 0.06665 0.19794
# Poissons Ratio (z) = 0.20908 0.19423
#
# Static dielectric constant tensor:
#      x y z
#    x 2.002100 -0.104430 0.051900 
#    y -0.104430 1.803280 0.038580 
#    z 0.051900 0.038580 1.832930 
# 
# From -- ./inp_files/479407.got.cif
#   From: 2010.05.17/outbox.ucp.g08.bks.cvg/sg2_240_cif.got.tgz:479407.got - 2010.06.11 11:32:03.
