data_PCOD9075136
_publ_section_title
;
Structure prediction by ZEFSAII (Michael W. Deem and Ramdas Pophale) SiO2 
 PCOD9075136
Probable space group: P -1
;
_chemical_formula_sum "Si O2"
_cell_formula_units_Z 16
_cell_length_a 15.000000
_cell_length_b 15.000000
_cell_length_c 9.000000
_cell_angle_alpha 90.000000
_cell_angle_beta 70.000000
_cell_angle_gamma 30.000000
_cell_volume 738.562284
_symmetry_space_group_name_H-M "P -1"
_symmetry_group_IT_number 2
_symmetry_cell_setting 'triclinic'
loop_
_space_group_symop_operation_xyz
x,y,z
-x,-y,-z
loop_
_atom_site_type_symbol
_atom_site_label
_atom_site_fract_x
_atom_site_fract_y
_atom_site_fract_z
Si Si1 0.338750 0.387655 0.430731
Si Si2 0.684195 0.808694 0.113398
Si Si3 0.797986 0.198371 0.239868
Si Si4 0.869950 0.685993 0.676016
Si Si5 0.184564 0.128236 0.796679
Si Si6 0.832824 0.001434 0.447439
Si Si7 0.324730 0.390551 0.792761
Si Si8 0.729187 0.354321 0.569571
O O1 0.331844 0.390220 0.612078
O O2 0.360225 0.467607 0.361108
O O3 0.066296 0.593819 0.543288
O O4 0.581778 0.120228 0.254919
O O5 0.755423 0.818309 0.203049
O O6 0.708451 0.684567 0.144989
O O7 0.399612 0.066769 0.234321
O O8 0.833030 0.697814 0.873998
O O9 0.853176 0.223549 0.338808
O O10 0.545443 0.449940 0.301474
O O11 0.781567 0.122189 0.351683
O O12 0.000000 0.000000 0.000000
O O13 0.000000 0.500000 0.500000
O O14 0.157480 0.101676 0.651139
O O15 0.914229 0.350436 0.016982
O O16 0.067333 0.829907 0.413826
O O17 0.590199 0.199035 0.687999
#
# Coordination Sequence:
#
# PCOD9075136 Si02
#       8
#     2   2   2   2   2   2   2   2
#     4  11  23  41  65  97 135 186 216 288 345 403
#     4  11  24  40  62  98 131 192 237 291 341 396
#     4  11  26  46  79 107 136 179 221 281 353 422
#     4  11  23  40  64  93 138 181 242 289 343 405
#     4  11  23  41  66  95 137 182 236 278 343 405
#     4  11  26  47  72 107 135 185 223 284 352 408
#     4  11  24  43  64  94 139 179 237 286 334 404
#     4  11  25  48  72 105 145 172 228 281 349 417
#
# _framework density 21.663710999999999
#
# number of rings (size 3 to 8) (size 9 to 14) (size 15 to 20)
#    0.000    1.000    5.000    1.500    1.750    6.500 
#    0.000    0.000    0.000    0.000    0.000    0.000 
#    0.000    0.000    0.000    0.000    0.000    0.000 
#
# Total GULP energy -89160.408792 kJ/mol
# GULP energy per Si atom -5572.525549 kJ/mol
# Density = 2.161440 g / cm^3
# Si number density = 21.663711 Si / 1000 Ang^3
#
#
#
# Elastic Constant Matrix: (Units=GPa)
#
#
# Indices 1 2 3 4 5 6 
#
# 1 73.7343 30.2116 21.2041 2.3225 -2.5121 -29.1277
# 2 30.2116 104.0625 38.0881 22.7689 -7.9065 -22.3234
# 3 21.2041 38.0881 117.2298 41.0417 6.8168 -1.3555
# 4 2.3225 22.7689 41.0417 35.6565 -1.7110 -3.2493
# 5 -2.5121 -7.9065 6.8168 -1.7110 27.4856 -1.9489
# 6 -29.1277 -22.3234 -1.3555 -3.2493 -1.9489 42.4543
#
#
#
# Elastic Compliance Matrix: (Units=1/GPa)
#
#
# Indices 1 2 3 4 5 6 
#
# 1 0.022066 -0.002613 -0.006452 0.009190 0.004463 0.014468
# 2 -0.002613 0.013836 -0.002383 -0.005237 0.004375 0.005206
# 3 -0.006452 -0.002383 0.017555 -0.019247 -0.007319 -0.006929
# 4 0.009190 -0.005237 -0.019247 0.054006 0.007996 0.007438
# 5 0.004463 0.004375 -0.007319 0.007996 0.040902 0.007619
# 6 0.014468 0.005206 -0.006929 0.007438 0.007619 0.036916
#
#
# Mechanical properties :
#
#
# Convention : Reuss Voigt Hill
#
# Bulk Modulus (GPa) = 32.72170 52.67047 42.69608
# Shear Modulus (GPa) = 22.89731 34.82081 28.85906
#
# Velocity S-wave (km/s) = 3.25459 4.01351 3.65381
# Velocity P-wave (km/s) = 5.40928 6.77076 6.12795
#
# Compressibility (1/GPa) = 0.03056076
#
# Stress axis : x y z
#
# Youngs Moduli (GPa) = 45.31828 72.27690 56.96221
#
# Poissons Ratio (x) = 0.18885 0.36752
# Poissons Ratio (y) = 0.11841 0.13577
# Poissons Ratio (z) = 0.29240 0.17227
#
# Static dielectric constant tensor:
#      x y z
#    x 2.120350 -0.085800 -0.093940 
#    y -0.085800 1.864740 0.065190 
#    z -0.093940 0.065190 1.807830 
# 
# From -- ./inp_files/315219.got.cif
#   From: 2010.05.17/outbox.ucp.g08.bks.cvg/sg2_158_cif.got.tgz:315219.got - 2010.06.11 11:32:03.
