data_PCOD9075457
_publ_section_title
;
Structure prediction by ZEFSAII (Michael W. Deem and Ramdas Pophale) SiO2 
 PCOD9075457
Probable space group: P -1
;
_chemical_formula_sum "Si O2"
_cell_formula_units_Z 16
_cell_length_a 21.000000
_cell_length_b 9.000000
_cell_length_c 18.000000
_cell_angle_alpha 40.000000
_cell_angle_beta 160.000000
_cell_angle_gamma 140.000000
_cell_volume 731.217405
_symmetry_space_group_name_H-M "P -1"
_symmetry_group_IT_number 2
_symmetry_cell_setting 'triclinic'
loop_
_space_group_symop_operation_xyz
x,y,z
-x,-y,-z
loop_
_atom_site_type_symbol
_atom_site_label
_atom_site_fract_x
_atom_site_fract_y
_atom_site_fract_z
Si Si1 0.278937 0.622247 0.025662
Si Si2 0.612595 0.554218 0.527906
Si Si3 0.524831 0.438879 0.252092
Si Si4 0.206020 0.564044 0.663397
Si Si5 0.392391 0.194367 0.931250
Si Si6 0.739229 0.060739 0.836548
Si Si7 0.872823 0.262198 0.749837
Si Si8 0.873558 0.044089 0.675933
O O1 0.452122 0.573359 0.284582
O O2 0.344978 0.529169 0.055417
O O3 0.078433 0.451936 0.897754
O O4 0.301629 0.911327 0.936361
O O5 0.500000 0.500000 0.500000
O O6 0.708792 0.326039 0.714463
O O7 0.745608 0.811098 0.588526
O O8 0.606076 0.636395 0.203690
O O9 0.713191 0.422604 0.511210
O O10 0.435710 0.155460 0.251858
O O11 0.283551 0.326598 0.821877
O O12 0.170882 0.713927 0.496122
O O13 0.000000 0.500000 0.500000
O O14 0.381472 0.745530 0.825328
O O15 0.807675 0.088835 0.814796
O O16 0.915824 0.990719 0.098484
O O17 0.854307 0.085732 0.726741
#
# Coordination Sequence:
#
# PCOD9075457 Si02
#       8
#     2   2   2   2   2   2   2   2
#     4  12  27  48  73 110 148 195 246 306 365 440
#     4  12  27  44  71 109 151 188 241 307 364 438
#     4  12  25  46  76 104 148 195 246 302 370 431
#     4  11  25  45  75 104 145 194 243 301 372 433
#     4  11  26  48  73 107 147 193 247 307 360 439
#     4  12  26  46  77 110 148 196 247 302 371 444
#     4  12  26  46  77 109 146 198 246 298 373 440
#     4  12  24  47  72 109 145 191 243 297 374 435
#
# _framework density 21.881316999999999
#
# number of rings (size 3 to 8) (size 9 to 14) (size 15 to 20)
#    0.000    0.250    5.000    3.750    1.750    3.500 
#    0.000    0.000    0.000    0.000    0.000    0.000 
#    0.000    0.000    0.000    0.000    0.000    0.000 
#
# Total GULP energy -89215.382025 kJ/mol
# GULP energy per Si atom -5575.961377 kJ/mol
# Density = 2.183151 g / cm^3
# Si number density = 21.881317 Si / 1000 Ang^3
#
#
#
# Elastic Constant Matrix: (Units=GPa)
#
#
# Indices 1 2 3 4 5 6 
#
# 1 32.2924 -2.7779 -0.1119 -1.9713 9.1991 0.4385
# 2 -2.7779 120.7402 21.4587 -2.6740 15.7090 -6.9826
# 3 -0.1119 21.4587 109.0483 1.8039 16.6821 0.4361
# 4 -1.9713 -2.6740 1.8039 50.2705 10.5025 4.9371
# 5 9.1991 15.7090 16.6821 10.5025 34.0816 -3.3339
# 6 0.4385 -6.9826 0.4361 4.9371 -3.3339 30.3453
#
#
#
# Elastic Compliance Matrix: (Units=1/GPa)
#
#
# Indices 1 2 3 4 5 6 
#
# 1 0.035079 0.002171 0.001494 0.004307 -0.012736 -0.002129
# 2 0.002171 0.009245 -0.001143 0.001444 -0.004598 0.001372
# 3 0.001494 -0.001143 0.010188 0.000838 -0.005233 -0.001142
# 4 0.004307 0.001444 0.000838 0.022558 -0.009627 -0.004470
# 5 -0.012736 -0.004598 -0.005233 -0.009627 0.040942 0.005265
# 6 -0.002129 0.001372 -0.001142 -0.004470 0.005265 0.034623
#
#
# Mechanical properties :
#
#
# Convention : Reuss Voigt Hill
#
# Bulk Modulus (GPa) = 16.79084 33.24650 25.01867
# Shear Modulus (GPa) = 29.86109 39.17360 34.51734
#
# Velocity S-wave (km/s) = 3.69817 4.23576 3.97606
# Velocity P-wave (km/s) = 5.09171 6.25693 5.70415
#
# Compressibility (1/GPa) = 0.05955627
#
# Stress axis : x y z
#
# Youngs Moduli (GPa) = 28.50720 108.16744 98.15498
#
# Poissons Ratio (x) = -0.23481 -0.14668
# Poissons Ratio (y) = -0.06188 0.11218
# Poissons Ratio (z) = -0.04260 0.12363
#
# Static dielectric constant tensor:
#      x y z
#    x 1.978770 -0.067930 -0.028130 
#    y -0.067930 1.820950 -0.054610 
#    z -0.028130 -0.054610 1.855360 
# 
# From -- ./inp_files/382650.got.cif
#   From: 2010.05.17/outbox.ucp.g08.bks.cvg/sg2_192_cif.got.tgz:382650.got - 2010.06.11 11:32:03.
