data_PCOD9075763
_publ_section_title
;
Structure prediction by ZEFSAII (Michael W. Deem and Ramdas Pophale) SiO2 
 PCOD9075763
Probable space group: P -1
;
_chemical_formula_sum "Si O2"
_cell_formula_units_Z 16
_cell_length_a 9.534741
_cell_length_b 20.397542
_cell_length_c 11.456950
_cell_angle_alpha 30.902343
_cell_angle_beta 144.241220
_cell_angle_gamma 143.976051
_cell_volume 619.987561
_symmetry_space_group_name_H-M "P -1"
_symmetry_group_IT_number 2
_symmetry_cell_setting 'triclinic'
loop_
_space_group_symop_operation_xyz
x,y,z
-x,-y,-z
loop_
_atom_site_type_symbol
_atom_site_label
_atom_site_fract_x
_atom_site_fract_y
_atom_site_fract_z
Si Si1 0.664171 0.100209 0.232126
Si Si2 0.263572 0.543644 0.038133
Si Si3 0.199711 0.200546 0.581477
Si Si4 0.730668 0.629204 0.907534
Si Si5 0.329478 0.283392 0.777902
Si Si6 0.480190 0.198131 0.343413
Si Si7 0.030480 0.894785 0.015683
Si Si8 0.745779 0.219596 0.861053
O O1 0.719380 0.111134 0.114102
O O2 0.941440 0.151494 0.405346
O O3 0.487700 0.944480 0.386035
O O4 0.534979 0.207766 0.017607
O O5 0.310129 0.671465 0.781625
O O6 0.246576 0.414346 0.143131
O O7 0.516480 0.595430 0.213691
O O8 0.000000 0.500000 0.000000
O O9 0.252456 0.309962 0.555076
O O10 0.473957 0.235692 0.650152
O O11 0.157539 0.057950 0.842986
O O12 0.643580 0.752069 0.705005
O O13 0.003104 0.652939 0.119433
O O14 0.500000 0.500000 0.000000
O O15 0.063426 0.183511 0.808226
O O16 0.245593 0.146380 0.172450
O O17 0.188471 0.829185 0.142390
#
# Coordination Sequence:
#
# PCOD9075763 Si02
#       8
#     2   2   2   2   2   2   2   2
#     4  10  21  38  59  90 125 151 192 243 304 367
#     4  10  18  32  55  81 109 150 200 239 279 337
#     4  10  20  34  55  84 120 159 191 233 299 361
#     4   9  18  35  58  82 111 153 201 241 286 343
#     4  10  21  37  58  86 121 159 193 238 298 362
#     4   8  18  32  52  82 114 148 187 238 293 349
#     4   9  18  33  53  83 118 149 188 234 293 353
#     4  10  20  37  61  88 117 153 198 249 295 349
#
# _framework density 25.806968000000001
#
# number of rings (size 3 to 8) (size 9 to 14) (size 15 to 20)
#    0.000    2.500    0.000    3.000    0.000    9.000 
#    0.000    2.500    0.000    7.500    0.000   33.250 
#    0.000    0.000    0.000    0.000    0.000    0.000 
#
# Total GULP energy -89510.017837 kJ/mol
# GULP energy per Si atom -5594.376115 kJ/mol
# Density = 2.574823 g / cm^3
# Si number density = 25.806968 Si / 1000 Ang^3
#
#
#
# Elastic Constant Matrix: (Units=GPa)
#
#
# Indices 1 2 3 4 5 6 
#
# 1 33.2101 -232.4088 -104.2277 24.3203 186.8599 122.2730
# 2 -232.4088 -380.6317 -222.7342 29.9214 387.0135 238.4230
# 3 -104.2277 -222.7342 -32.8527 16.9582 183.8878 113.4311
# 4 24.3203 29.9214 16.9582 55.5588 -10.0031 -10.7467
# 5 186.8599 387.0135 183.8878 -10.0031 -243.6765 -145.1835
# 6 122.2730 238.4230 113.4311 -10.7467 -145.1835 -26.9720
#
#
#
# Elastic Compliance Matrix: (Units=1/GPa)
#
#
# Indices 1 2 3 4 5 6 
#
# 1 0.006620 -0.001320 -0.001261 -0.001519 0.002737 -0.001083
# 2 -0.001320 0.005613 -0.003158 -0.000512 0.005739 -0.000332
# 3 -0.001261 -0.003158 0.012031 -0.000873 0.003255 -0.000205
# 4 -0.001519 -0.000512 -0.000873 0.018758 -0.004547 0.001912
# 5 0.002737 0.005739 0.003255 -0.004547 0.016809 -0.011845
# 6 -0.001083 -0.000332 -0.000205 0.001912 -0.011845 0.017208
#
#
# Mechanical properties :
#
#
# Convention : Reuss Voigt Hill
#
# Bulk Modulus (GPa) = 78.20057 -166.55730 -44.17836
# Shear Modulus (GPa) = 53.89147 -31.07819 11.40664
#
# Velocity S-wave (km/s) = 4.57470 -3.47400 2.10466
# Velocity P-wave (km/s) = 7.63359 8.98729 3.35408
#
# Compressibility (1/GPa) = 0.01278763
#
# Stress axis : x y z
#
# Youngs Moduli (GPa) = 151.05169 178.15474 83.11871
#
# Poissons Ratio (x) = 0.23516 0.10479
# Poissons Ratio (y) = 0.19939 0.26246
# Poissons Ratio (z) = 0.19044 0.56255
#
# Static dielectric constant tensor:
#      x y z
#    x 2.027980 0.001350 -0.066690 
#    y 0.001350 2.033030 -0.044180 
#    z -0.066690 -0.044180 2.144730 
# 
# From -- ./inp_files/405452.got.cif
#   From: 2010.05.17/outbox.cif.g08.bks.cpg/sg2_203_cif.got.tgz:405452.got - 2010.06.03 11:33:40.
