data_PCOD9075043
_publ_section_title
;
Structure prediction by ZEFSAII (Michael W. Deem and Ramdas Pophale) SiO2 
 PCOD9075043
Probable space group: P -1
;
_chemical_formula_sum "Si O2"
_cell_formula_units_Z 16
_cell_length_a 15.000000
_cell_length_b 9.000000
_cell_length_c 9.000000
_cell_angle_alpha 80.000000
_cell_angle_beta 90.000000
_cell_angle_gamma 140.000000
_cell_volume 751.948787
_symmetry_space_group_name_H-M "P -1"
_symmetry_group_IT_number 2
_symmetry_cell_setting 'triclinic'
loop_
_space_group_symop_operation_xyz
x,y,z
-x,-y,-z
loop_
_atom_site_type_symbol
_atom_site_label
_atom_site_fract_x
_atom_site_fract_y
_atom_site_fract_z
Si Si1 0.914307 0.706102 0.365059
Si Si2 0.505771 0.426670 0.359163
Si Si3 0.389773 0.752981 0.635942
Si Si4 0.958948 0.057423 0.126721
Si Si5 0.758399 0.837360 0.739866
Si Si6 0.809919 0.565534 0.715734
Si Si7 0.419560 0.987191 0.125265
Si Si8 0.313133 0.160049 0.953223
O O1 0.779475 0.438094 0.341247
O O2 0.899890 0.672569 0.547045
O O3 0.901184 0.862210 0.282385
O O4 0.079675 0.890108 0.296136
O O5 0.500000 0.500000 0.500000
O O6 0.593152 0.392639 0.398110
O O7 0.345292 0.187726 0.344151
O O8 0.578182 0.628618 0.201433
O O9 0.500000 0.000000 0.500000
O O10 0.458972 0.825747 0.785052
O O11 0.094424 0.313309 0.157051
O O12 0.841977 0.025546 0.087596
O O13 0.000000 0.000000 0.000000
O O14 0.752015 0.661587 0.701249
O O15 0.697036 0.743948 0.921546
O O16 0.698569 0.282921 0.764207
O O17 0.500000 0.000000 0.000000
O O18 0.354992 0.053121 0.039317
#
# Coordination Sequence:
#
# PCOD9075043 Si02
#       8
#     2   2   2   2   2   2   2   2
#     4  11  23  43  73 104 139 181 234 289 354 418
#     4  12  27  43  72 103 140 182 245 293 342 423
#     4  12  26  48  71 103 139 185 234 287 365 421
#     4  11  22  41  74 104 136 180 238 293 349 418
#     4  11  23  43  73 102 136 184 240 291 342 414
#     4  11  24  44  69 104 144 185 233 290 358 417
#     4  12  29  45  68 100 150 188 232 295 358 420
#     4  12  25  45  70 105 136 191 236 289 350 418
#
# _framework density 21.278044999999999
#
# number of rings (size 3 to 8) (size 9 to 14) (size 15 to 20)
#    0.000    0.500    6.250    3.375    7.000    0.500 
#    0.000    2.500    0.000    0.000    0.000    0.000 
#    0.000    0.000    0.000    0.000    0.000    0.000 
#
# Total GULP energy -89310.703246 kJ/mol
# GULP energy per Si atom -5581.918953 kJ/mol
# Density = 2.122962 g / cm^3
# Si number density = 21.278045 Si / 1000 Ang^3
#
#
#
# Elastic Constant Matrix: (Units=GPa)
#
#
# Indices 1 2 3 4 5 6 
#
# 1 80.8173 24.6425 28.2850 -0.0291 -0.6496 26.0193
# 2 24.6425 101.9173 32.5338 -2.6302 -9.1657 20.4873
# 3 28.2850 32.5338 122.5176 -4.8776 -16.7652 3.7515
# 4 -0.0291 -2.6302 -4.8776 40.4218 -0.0591 8.3656
# 5 -0.6496 -9.1657 -16.7652 -0.0591 27.0863 4.8617
# 6 26.0193 20.4873 3.7515 8.3656 4.8617 33.9572
#
#
#
# Elastic Compliance Matrix: (Units=1/GPa)
#
#
# Indices 1 2 3 4 5 6 
#
# 1 0.018248 -0.000332 -0.003498 0.002490 0.000698 -0.014109
# 2 -0.000332 0.012787 -0.002374 0.002287 0.004359 -0.008385
# 3 -0.003498 -0.002374 0.010259 0.000656 0.005089 0.002089
# 4 0.002490 0.002287 0.000656 0.027147 0.003184 -0.010504
# 5 0.000698 0.004359 0.005089 0.003184 0.043495 -0.010739
# 6 -0.014109 -0.008385 0.002089 -0.010504 -0.010739 0.049213
#
#
# Mechanical properties :
#
#
# Convention : Reuss Voigt Hill
#
# Bulk Modulus (GPa) = 34.62120 52.90831 43.76476
# Shear Modulus (GPa) = 27.29462 34.94580 31.12021
#
# Velocity S-wave (km/s) = 3.58545 4.05698 3.82848
# Velocity P-wave (km/s) = 5.78332 6.84577 6.33685
#
# Compressibility (1/GPa) = 0.02888403
#
# Stress axis : x y z
#
# Youngs Moduli (GPa) = 54.80057 78.20536 97.47910
#
# Poissons Ratio (x) = 0.02600 0.34097
# Poissons Ratio (y) = 0.01822 0.23145
# Poissons Ratio (z) = 0.19169 0.18569
#
# Static dielectric constant tensor:
#      x y z
#    x 1.784380 0.096740 -0.026670 
#    y 0.096740 1.851270 -0.041030 
#    z -0.026670 -0.041030 1.848300 
# 
# From -- ./inp_files/298263.got.cif
#   From: 2010.05.17/outbox.ucp.g08.bks.cvg/sg2_150_cif.got.tgz:298263.got - 2010.06.11 11:32:03.
