data_PCOD9075377
_publ_section_title
;
Structure prediction by ZEFSAII (Michael W. Deem and Ramdas Pophale) SiO2 
 PCOD9075377
Probable space group: P -1
;
_chemical_formula_sum "Si O2"
_cell_formula_units_Z 16
_cell_length_a 18.000000
_cell_length_b 12.000000
_cell_length_c 9.000000
_cell_angle_alpha 130.000000
_cell_angle_beta 50.000000
_cell_angle_gamma 150.000000
_cell_volume 725.531033
_symmetry_space_group_name_H-M "P -1"
_symmetry_group_IT_number 2
_symmetry_cell_setting 'triclinic'
loop_
_space_group_symop_operation_xyz
x,y,z
-x,-y,-z
loop_
_atom_site_type_symbol
_atom_site_label
_atom_site_fract_x
_atom_site_fract_y
_atom_site_fract_z
Si Si1 0.812643 0.679768 0.292814
Si Si2 0.115768 0.937842 0.305935
Si Si3 0.275259 0.418912 0.033183
Si Si4 0.977810 0.687537 0.766242
Si Si5 0.541496 0.926053 0.262649
Si Si6 0.743555 0.894267 0.044039
Si Si7 0.811713 0.213455 0.666766
Si Si8 0.462861 0.857777 0.781913
O O1 0.778499 0.654210 0.134027
O O2 0.655189 0.412319 0.302902
O O3 0.950161 0.756146 0.277232
O O4 0.848529 0.884857 0.479080
O O5 0.149747 0.831665 0.269905
O O6 0.233659 0.096309 0.153556
O O7 0.316807 0.315678 0.969725
O O8 0.120344 0.311447 0.201711
O O9 0.406492 0.684396 0.140963
O O10 0.866023 0.445871 0.790894
O O11 0.084726 0.732865 0.549933
O O12 0.090580 0.889067 0.912060
O O13 0.642764 0.922009 0.208560
O O14 0.500000 0.000000 0.500000
O O15 0.611932 0.109495 0.202969
O O16 0.635780 0.999905 0.657136
O O17 0.500000 0.000000 0.000000
#
# Coordination Sequence:
#
# PCOD9075377 Si02
#       8
#     2   2   2   2   2   2   2   2
#     4  11  26  47  74 105 149 195 237 305 364 430
#     4  11  27  45  72 112 144 189 249 301 360 426
#     4  12  25  51  73 104 151 195 241 297 374 436
#     4  11  24  45  75 104 143 195 241 301 360 438
#     4  12  28  47  72 110 145 188 246 303 362 430
#     4  12  27  45  73 108 146 193 243 301 363 431
#     4  11  25  45  72 108 143 189 249 296 368 430
#     4  12  24  48  73 102 148 194 243 301 369 433
#
# _framework density 22.052813
#
# number of rings (size 3 to 8) (size 9 to 14) (size 15 to 20)
#    0.000    0.500    3.750    3.000    8.750    1.000 
#    2.250    0.000    0.000    0.000    0.000    0.000 
#    0.000    0.000    0.000    0.000    0.000    0.000 
#
# Total GULP energy -89194.683191 kJ/mol
# GULP energy per Si atom -5574.667699 kJ/mol
# Density = 2.200262 g / cm^3
# Si number density = 22.052813 Si / 1000 Ang^3
#
#
#
# Elastic Constant Matrix: (Units=GPa)
#
#
# Indices 1 2 3 4 5 6 
#
# 1 156.4222 38.0417 24.1188 -7.3257 -14.4311 -19.0560
# 2 38.0417 116.2686 26.7943 10.7724 -3.3494 1.0384
# 3 24.1188 26.7943 45.8636 1.6288 5.6735 -11.1544
# 4 -7.3257 10.7724 1.6288 23.6748 7.5794 -2.1646
# 5 -14.4311 -3.3494 5.6735 7.5794 44.7470 0.0991
# 6 -19.0560 1.0384 -11.1544 -2.1646 0.0991 41.7589
#
#
#
# Elastic Compliance Matrix: (Units=1/GPa)
#
#
# Indices 1 2 3 4 5 6 
#
# 1 0.008104 -0.002357 -0.002479 0.003352 0.002176 0.003263
# 2 -0.002357 0.011522 -0.006336 -0.006491 0.002013 -0.003396
# 3 -0.002479 -0.006336 0.029075 0.002477 -0.005395 0.006934
# 4 0.003352 -0.006491 0.002477 0.049084 -0.008044 0.004916
# 5 0.002176 0.002013 -0.005395 -0.008044 0.025249 -0.000975
# 6 0.003263 -0.003396 0.006934 0.004916 -0.000975 0.027630
#
#
# Mechanical properties :
#
#
# Convention : Reuss Voigt Hill
#
# Bulk Modulus (GPa) = 37.94233 55.16267 46.55250
# Shear Modulus (GPa) = 27.50378 37.34279 32.42328
#
# Velocity S-wave (km/s) = 3.53537 4.11948 3.83855
# Velocity P-wave (km/s) = 5.82303 6.90616 6.38759
#
# Compressibility (1/GPa) = 0.02635579
#
# Stress axis : x y z
#
# Youngs Moduli (GPa) = 123.39927 86.79172 34.39390
#
# Poissons Ratio (x) = 0.20458 0.08527
# Poissons Ratio (y) = 0.29087 0.21792
# Poissons Ratio (z) = 0.30593 0.54991
#
# Static dielectric constant tensor:
#      x y z
#    x 1.634340 -0.047690 -0.167490 
#    y -0.047690 1.816270 -0.096010 
#    z -0.167490 -0.096010 1.844090 
# 
# From -- ./inp_files/333721.got.cif
#   From: 2010.05.17/outbox.ucp.g08.bks.cvg/sg2_167_cif.got.tgz:333721.got - 2010.06.11 11:32:03.
