data_PCOD9075094
_publ_section_title
;
Structure prediction by ZEFSAII (Michael W. Deem and Ramdas Pophale) SiO2 
 PCOD9075094
Probable space group: P -1
;
_chemical_formula_sum "Si O2"
_cell_formula_units_Z 16
_cell_length_a 18.000000
_cell_length_b 21.000000
_cell_length_c 12.000000
_cell_angle_alpha 150.000000
_cell_angle_beta 40.000000
_cell_angle_gamma 160.000000
_cell_volume 744.844803
_symmetry_space_group_name_H-M "P -1"
_symmetry_group_IT_number 2
_symmetry_cell_setting 'triclinic'
loop_
_space_group_symop_operation_xyz
x,y,z
-x,-y,-z
loop_
_atom_site_type_symbol
_atom_site_label
_atom_site_fract_x
_atom_site_fract_y
_atom_site_fract_z
Si Si1 0.902802 0.426355 0.875857
Si Si2 0.861862 0.185614 0.373847
Si Si3 0.091486 0.167443 0.832148
Si Si4 0.349713 0.594978 0.322226
Si Si5 0.388844 0.912644 0.681583
Si Si6 0.844808 0.156242 0.960149
Si Si7 0.416286 0.279930 0.538681
Si Si8 0.189613 0.146458 0.097076
O O1 0.910261 0.299690 0.607670
O O2 0.637264 0.207398 0.854758
O O3 0.000000 0.500000 0.000000
O O4 0.030759 0.650784 0.990836
O O5 0.723425 0.150362 0.400339
O O6 0.103054 0.386620 0.343967
O O7 0.740670 0.933421 0.131760
O O8 0.184918 0.139564 0.610527
O O9 0.988568 0.184293 0.902201
O O10 0.310194 0.436197 0.048949
O O11 0.920847 0.962316 0.816479
O O12 0.409990 0.780665 0.469371
O O13 0.515009 0.716592 0.416905
O O14 0.234422 0.818500 0.817063
O O15 0.632858 0.879872 0.732784
O O16 0.611005 0.561692 0.701462
O O17 0.000000 0.000000 0.000000
#
# Coordination Sequence:
#
# PCOD9075094 Si02
#       8
#     2   2   2   2   2   2   2   2
#     4  12  29  45  71 109 143 185 236 295 356 432
#     4  11  23  47  71 106 140 180 241 296 347 420
#     4  11  25  46  70 103 140 189 240 289 345 423
#     4  11  22  44  74 103 139 184 238 296 347 419
#     4  12  25  46  77 104 140 190 235 298 360 410
#     4  12  27  48  69 106 150 186 234 292 362 420
#     4  12  27  43  71 103 148 192 229 290 356 420
#     4  11  24  43  71 105 136 184 242 290 342 415
#
# _framework density 21.480985
#
# number of rings (size 3 to 8) (size 9 to 14) (size 15 to 20)
#    0.000    0.500    6.250    3.000    5.250    3.500 
#    0.000    0.000    0.000    0.000    0.000    0.000 
#    0.000    0.000    0.000    0.000    0.000    0.000 
#
# Total GULP energy -89574.873708 kJ/mol
# GULP energy per Si atom -5598.429607 kJ/mol
# Density = 2.143209 g / cm^3
# Si number density = 21.480985 Si / 1000 Ang^3
#
#
#
# Elastic Constant Matrix: (Units=GPa)
#
#
# Indices 1 2 3 4 5 6 
#
# 1 111.1904 20.3380 21.6367 9.4358 -2.2779 -17.7186
# 2 20.3380 79.0345 1.9555 3.2905 -3.7473 -12.4530
# 3 21.6367 1.9555 86.4153 5.4365 2.4516 -11.5006
# 4 9.4358 3.2905 5.4365 30.6739 -2.3242 -0.0917
# 5 -2.2779 -3.7473 2.4516 -2.3242 45.8082 2.7097
# 6 -17.7186 -12.4530 -11.5006 -0.0917 2.7097 30.9313
#
#
#
# Elastic Compliance Matrix: (Units=1/GPa)
#
#
# Indices 1 2 3 4 5 6 
#
# 1 0.010667 -0.001847 -0.001837 -0.002739 0.000062 0.004670
# 2 -0.001847 0.013937 0.000830 -0.001009 0.000669 0.004801
# 3 -0.001837 0.000830 0.012703 -0.001842 -0.001039 0.004091
# 4 -0.002739 -0.001009 -0.001842 0.034004 0.001766 -0.002714
# 5 0.000062 0.000669 -0.001039 0.001766 0.022152 -0.002017
# 6 0.004670 0.004801 0.004091 -0.002714 -0.002017 0.038627
#
#
# Mechanical properties :
#
#
# Convention : Reuss Voigt Hill
#
# Bulk Modulus (GPa) = 31.64456 40.50005 36.07231
# Shear Modulus (GPa) = 33.70850 36.99669 35.35260
#
# Velocity S-wave (km/s) = 3.96564 4.15456 4.06120
# Velocity P-wave (km/s) = 5.97761 6.47369 6.23059
#
# Compressibility (1/GPa) = 0.03160100
#
# Stress axis : x y z
#
# Youngs Moduli (GPa) = 93.74961 71.74899 78.72220
#
# Poissons Ratio (x) = 0.13249 0.14460
# Poissons Ratio (y) = 0.17311 -0.06537
# Poissons Ratio (z) = 0.17220 -0.05958
#
# Static dielectric constant tensor:
#      x y z
#    x 1.745590 -0.001590 -0.001530 
#    y -0.001590 1.798110 -0.002970 
#    z -0.001530 -0.002970 1.779820 
# 
# From -- ./inp_files/283212.got.cif
#   From: 2010.05.17/outbox.ucp.g08.bks.cvg/sg2_142_cif.got.tgz:283212.got - 2010.06.11 11:32:03.
