data_PCOD9075568
_publ_section_title
;
Structure prediction by ZEFSAII (Michael W. Deem and Ramdas Pophale) SiO2 
 PCOD9075568
Probable space group: P -1
;
_chemical_formula_sum "Si O2"
_cell_formula_units_Z 16
_cell_length_a 27.000000
_cell_length_b 9.000000
_cell_length_c 27.000000
_cell_angle_alpha 140.000000
_cell_angle_beta 170.000000
_cell_angle_gamma 40.000000
_cell_volume 728.340053
_symmetry_space_group_name_H-M "P -1"
_symmetry_group_IT_number 2
_symmetry_cell_setting 'triclinic'
loop_
_space_group_symop_operation_xyz
x,y,z
-x,-y,-z
loop_
_atom_site_type_symbol
_atom_site_label
_atom_site_fract_x
_atom_site_fract_y
_atom_site_fract_z
Si Si1 0.035961 0.864711 0.680690
Si Si2 0.445412 0.097747 0.415669
Si Si3 0.428790 0.042408 0.828583
Si Si4 0.154739 0.082201 0.958536
Si Si5 0.945250 0.618896 0.378708
Si Si6 0.531435 0.383567 0.171371
Si Si7 0.914103 0.417096 0.948609
Si Si8 0.652693 0.873083 0.460327
O O1 0.947026 0.613535 0.544498
O O2 0.775473 0.004354 0.430625
O O3 0.304717 0.841594 0.902086
O O4 0.125398 0.982079 0.849393
O O5 0.115013 0.190100 0.105733
O O6 0.500000 0.000000 0.500000
O O7 0.553814 0.929328 0.433616
O O8 0.601838 0.330749 0.620426
O O9 0.235443 0.208234 0.717992
O O10 0.531903 0.811170 0.901483
O O11 0.465549 0.033540 0.277052
O O12 0.067617 0.356948 0.942383
O O13 0.965845 0.947492 0.776706
O O14 0.210447 0.714022 0.636126
O O15 0.734675 0.552401 0.110616
O O16 0.621713 0.609975 0.346096
O O17 0.000000 0.500000 0.000000
#
# Coordination Sequence:
#
# PCOD9075568 Si02
#       8
#     2   2   2   2   2   2   2   2
#     4  12  24  43  64  99 129 173 216 274 332 375
#     4  12  26  43  68 103 138 168 214 272 334 382
#     4  12  26  42  66  99 137 163 219 284 323 380
#     4  12  24  41  72  93 131 171 228 267 311 392
#     4  12  23  45  68  95 128 181 220 262 325 403
#     4  12  24  42  68  96 130 177 221 260 333 397
#     4  12  23  44  70  99 126 179 220 264 315 389
#     4  12  22  43  66  95 131 174 213 274 320 389
#
# _framework density 21.967760999999999
#
# number of rings (size 3 to 8) (size 9 to 14) (size 15 to 20)
#    0.000    0.000    5.000    6.000    0.000    2.000 
#    0.000    0.000    0.000    0.000    0.000    0.000 
#    0.000    0.000    0.000    0.000    0.000    0.000 
#
# Total GULP energy -89593.631967 kJ/mol
# GULP energy per Si atom -5599.601998 kJ/mol
# Density = 2.191776 g / cm^3
# Si number density = 21.967761 Si / 1000 Ang^3
#
#
#
# Elastic Constant Matrix: (Units=GPa)
#
#
# Indices 1 2 3 4 5 6 
#
# 1 115.1776 32.9454 -0.2644 1.4613 -11.6808 8.1736
# 2 32.9454 62.6892 -18.2950 -0.3563 -7.3172 -2.3824
# 3 -0.2644 -18.2950 51.7631 -0.7162 -3.3225 5.7051
# 4 1.4613 -0.3563 -0.7162 25.8082 0.3181 0.0543
# 5 -11.6808 -7.3172 -3.3225 0.3181 28.7335 1.2940
# 6 8.1736 -2.3824 5.7051 0.0543 1.2940 37.2413
#
#
#
# Elastic Compliance Matrix: (Units=1/GPa)
#
#
# Indices 1 2 3 4 5 6 
#
# 1 0.010863 -0.005943 -0.001584 -0.000771 0.002846 -0.002619
# 2 -0.005943 0.021879 0.007819 0.000803 0.003989 0.001366
# 3 -0.001584 0.007819 0.022652 0.000782 0.004082 -0.002765
# 4 -0.000771 0.000803 0.000782 0.038829 -0.000451 0.000060
# 5 0.002846 0.003989 0.004082 -0.000451 0.037556 -0.002299
# 6 -0.002619 0.001366 -0.002765 0.000060 -0.002299 0.028018
#
#
# Mechanical properties :
#
#
# Convention : Reuss Voigt Hill
#
# Bulk Modulus (GPa) = 17.86432 28.71131 23.28782
# Shear Modulus (GPa) = 28.11016 32.70619 30.40818
#
# Velocity S-wave (km/s) = 3.58104 3.86272 3.72454
# Velocity P-wave (km/s) = 5.02476 5.74389 5.39632
#
# Compressibility (1/GPa) = 0.05597751
#
# Stress axis : x y z
#
# Youngs Moduli (GPa) = 92.05749 45.70609 44.14648
#
# Poissons Ratio (x) = 0.27162 0.06994
# Poissons Ratio (y) = 0.54708 -0.34518
# Poissons Ratio (z) = 0.14584 -0.35738
#
# Static dielectric constant tensor:
#      x y z
#    x 1.756000 -0.034860 -0.001850 
#    y -0.034860 1.777400 -0.018460 
#    z -0.001850 -0.018460 1.806860 
# 
# From -- ./inp_files/223341.got.cif
#   From: 2010.05.17/outbox.ucp.g08.bks.cvg/sg2_112_cif.got.tgz:223341.got - 2010.06.11 11:32:03.
