data_PCOD9075126
_publ_section_title
;
Structure prediction by ZEFSAII (Michael W. Deem and Ramdas Pophale) SiO2 
 PCOD9075126
Probable space group: P -1
;
_chemical_formula_sum "Si O2"
_cell_formula_units_Z 16
_cell_length_a 12.000000
_cell_length_b 12.000000
_cell_length_c 15.000000
_cell_angle_alpha 150.000000
_cell_angle_beta 120.000000
_cell_angle_gamma 50.000000
_cell_volume 818.222392
_symmetry_space_group_name_H-M "P -1"
_symmetry_group_IT_number 2
_symmetry_cell_setting 'triclinic'
loop_
_space_group_symop_operation_xyz
x,y,z
-x,-y,-z
loop_
_atom_site_type_symbol
_atom_site_label
_atom_site_fract_x
_atom_site_fract_y
_atom_site_fract_z
Si Si1 0.595871 0.617404 0.520641
Si Si2 0.383264 0.112089 0.446194
Si Si3 0.100734 0.594242 0.748028
Si Si4 0.840555 0.594025 0.904350
Si Si5 0.888709 0.387382 0.584048
Si Si6 0.956321 0.185893 0.807563
Si Si7 0.843474 0.045315 0.842151
Si Si8 0.432952 0.878197 0.818671
O O1 0.545438 0.799556 0.541929
O O2 0.765566 0.514854 0.546220
O O3 0.509958 0.775435 0.683240
O O4 0.578333 0.367382 0.321579
O O5 0.242662 0.369748 0.602802
O O6 0.304159 0.970369 0.259638
O O7 0.500000 0.000000 0.500000
O O8 0.018707 0.456710 0.668512
O O9 0.976317 0.788303 0.762413
O O10 0.158154 0.745440 0.941878
O O11 0.822599 0.515290 0.742397
O O12 0.848821 0.375061 0.820652
O O13 0.981871 0.636293 0.000522
O O14 0.721938 0.872077 0.082753
O O15 0.941436 0.085492 0.389416
O O16 0.894380 0.102166 0.807845
O O17 0.500000 0.000000 0.000000
#
# Coordination Sequence:
#
# PCOD9075126 Si02
#       8
#     2   2   2   2   2   2   2   2
#     4  11  25  43  69  97 128 177 229 271 326 406
#     4  12  27  45  65  99 143 180 214 277 344 398
#     4  11  24  41  75 100 127 174 233 276 326 397
#     4  11  24  39  63  99 128 170 212 276 339 383
#     4  12  20  42  71  95 127 167 224 280 326 387
#     4  11  23  39  63  96 134 164 216 276 332 394
#     4  11  23  43  71 100 129 177 228 276 330 399
#     4  11  24  44  67  93 130 172 221 272 327 395
#
# _framework density 19.554586
#
# number of rings (size 3 to 8) (size 9 to 14) (size 15 to 20)
#    0.000    0.750    6.250    1.500    0.000    3.500 
#    0.000    0.000    0.000    0.000    0.000    0.000 
#    0.000    0.000    0.000    0.000    0.000    0.000 
#
# Total GULP energy -89095.658422 kJ/mol
# GULP energy per Si atom -5568.478651 kJ/mol
# Density = 1.951008 g / cm^3
# Si number density = 19.554586 Si / 1000 Ang^3
#
#
#
# Elastic Constant Matrix: (Units=GPa)
#
#
# Indices 1 2 3 4 5 6 
#
# 1 51.6028 35.2819 37.3311 2.3645 4.9851 3.5625
# 2 35.2819 115.1727 37.1759 -20.1266 15.5461 24.6946
# 3 37.3311 37.1759 142.3810 -21.1934 14.4632 18.3553
# 4 2.3645 -20.1266 -21.1934 22.1087 -6.0394 21.0741
# 5 4.9851 15.5461 14.4632 -6.0394 27.4935 -6.6794
# 6 3.5625 24.6946 18.3553 21.0741 -6.6794 8.1424
#
#
#
# Elastic Compliance Matrix: (Units=1/GPa)
#
#
# Indices 1 2 3 4 5 6 
#
# 1 0.023949 -0.002072 -0.002825 0.004918 -0.003957 -0.013800
# 2 -0.002072 0.006653 -0.003927 -0.008622 -0.000404 0.011566
# 3 -0.002825 -0.003927 0.007099 -0.004245 0.000052 0.008173
# 4 0.004918 -0.008622 -0.004245 0.004829 0.015481 0.033766
# 5 -0.003957 -0.000404 0.000052 0.015481 0.039525 -0.004804
# 6 -0.013800 0.011566 0.008173 0.033766 -0.004804 -0.015987
#
#
# Mechanical properties :
#
#
# Convention : Reuss Voigt Hill
#
# Bulk Modulus (GPa) = 49.87073 58.74825 54.30949
# Shear Modulus (GPa) = 55.30932 24.84010 40.07471
#
# Velocity S-wave (km/s) = 5.32409 3.56799 4.53192
# Velocity P-wave (km/s) = 7.95948 6.86167 7.43088
#
# Compressibility (1/GPa) = 0.02005184
#
# Stress axis : x y z
#
# Youngs Moduli (GPa) = 41.75557 150.31082 140.87077
#
# Poissons Ratio (x) = 0.31145 0.39797
# Poissons Ratio (y) = 0.08652 0.55323
# Poissons Ratio (z) = 0.11796 0.59030
#
# Static dielectric constant tensor:
#      x y z
#    x 1.796320 -0.063810 0.020400 
#    y -0.063810 1.757980 -0.014540 
#    z 0.020400 -0.014540 1.672340 
# 
# From -- ./inp_files/451285.got.cif
#   From: 2010.05.17/outbox.ucp.g08.bks.cvg/sg2_226_cif.got.tgz:451285.got - 2010.06.11 11:32:03.
