data_PCOD9075016
_publ_section_title
;
Structure prediction by ZEFSAII (Michael W. Deem and Ramdas Pophale) SiO2 
 PCOD9075016
Probable space group: P -1
;
_chemical_formula_sum "Si O2"
_cell_formula_units_Z 16
_cell_length_a 14.544438
_cell_length_b 12.694770
_cell_length_c 5.453209
_cell_angle_alpha 115.487921
_cell_angle_beta 128.612545
_cell_angle_gamma 53.603921
_cell_volume 630.393320
_symmetry_space_group_name_H-M "P -1"
_symmetry_group_IT_number 2
_symmetry_cell_setting 'triclinic'
loop_
_space_group_symop_operation_xyz
x,y,z
-x,-y,-z
loop_
_atom_site_type_symbol
_atom_site_label
_atom_site_fract_x
_atom_site_fract_y
_atom_site_fract_z
Si Si1 0.497720 0.139456 0.113804
Si Si2 0.131334 0.863145 0.113857
Si Si3 0.467984 0.202663 0.621883
Si Si4 0.805487 0.408503 0.913783
Si Si5 0.798904 0.806950 0.831464
Si Si6 0.643984 0.492493 0.228746
Si Si7 0.841079 0.058300 0.259383
Si Si8 0.817357 0.670613 0.220411
O O1 0.554151 0.160826 0.480857
O O2 0.549987 0.155682 0.957379
O O3 0.344438 0.253454 0.977227
O O4 0.500000 0.000000 0.000000
O O5 0.101970 0.744461 0.030476
O O6 0.207689 0.884215 0.492633
O O7 0.196298 0.840918 0.929658
O O8 0.000000 0.000000 0.000000
O O9 0.360046 0.147606 0.385860
O O10 0.381261 0.358009 0.638565
O O11 0.734001 0.422343 0.545863
O O12 0.705763 0.445805 0.016758
O O13 0.860171 0.515885 0.125566
O O14 0.847727 0.724693 0.577756
O O15 0.858090 0.718910 0.087273
O O16 0.817861 0.935498 0.019422
O O17 0.500000 0.500000 0.000000
O O18 0.000000 0.000000 0.500000
#
# Coordination Sequence:
#
# PCOD9075016 Si02
#       8
#     2   2   2   2   2   2   2   2
#     4  10  18  32  53  79 115 158 198 258 308 357
#     4  10  23  42  68  96 129 172 217 277 337 402
#     4  10  19  37  52  82 117 159 209 257 305 368
#     4  12  21  43  68  92 130 180 218 278 337 387
#     4  10  18  35  63  87 119 160 209 260 315 387
#     4  12  23  40  62  94 135 173 223 271 321 399
#     4  10  21  40  64  92 131 165 202 268 334 401
#     4  10  19  35  61  91 116 165 216 260 317 382
#
# _framework density 25.380979
#
# number of rings (size 3 to 8) (size 9 to 14) (size 15 to 20)
#    0.000    1.500    5.000    2.250    0.000    0.000 
#    0.000   15.000    0.000   18.000    0.000    0.000 
#    0.000    0.000    0.000    0.000    0.000    0.000 
#
# Total GULP energy -89522.812343 kJ/mol
# GULP energy per Si atom -5595.175771 kJ/mol
# Density = 2.532321 g / cm^3
# Si number density = 25.380979 Si / 1000 Ang^3
#
#
#
# Elastic Constant Matrix: (Units=GPa)
#
#
# Indices 1 2 3 4 5 6 
#
# 1 59.9572 20.8403 74.9974 -22.9839 -23.0373 15.5832
# 2 20.8403 169.6949 53.7639 -1.4106 -8.0619 31.0763
# 3 74.9974 53.7639 179.2486 -7.4907 -38.4932 25.9433
# 4 -22.9839 -1.4106 -7.4907 35.1319 22.1585 -13.5506
# 5 -23.0373 -8.0619 -38.4932 22.1585 74.6377 -9.9137
# 6 15.5832 31.0763 25.9433 -13.5506 -9.9137 42.2142
#
#
#
# Elastic Compliance Matrix: (Units=1/GPa)
#
#
# Indices 1 2 3 4 5 6 
#
# 1 0.060123 -0.000171 -0.025354 0.039286 -0.005560 0.004818
# 2 -0.000171 0.007291 -0.001490 -0.002023 -0.000105 -0.005063
# 3 -0.025354 -0.001490 0.017904 -0.018647 0.006106 -0.005099
# 4 0.039286 -0.002023 -0.018647 0.065829 -0.015124 0.016026
# 5 -0.005560 -0.000105 0.006106 -0.015124 0.019043 -0.002005
# 6 0.004818 -0.005063 -0.005099 0.016026 -0.002005 0.033444
#
#
# Mechanical properties :
#
#
# Convention : Reuss Voigt Hill
#
# Bulk Modulus (GPa) = 31.96035 78.67820 55.31927
# Shear Modulus (GPa) = 18.65028 47.68338 33.16683
#
# Velocity S-wave (km/s) = 2.71368 4.33911 3.61883
# Velocity P-wave (km/s) = 4.73691 7.49466 6.26930
#
# Compressibility (1/GPa) = 0.03128877
#
# Stress axis : x y z
#
# Youngs Moduli (GPa) = 16.63263 137.14965 55.85493
#
# Poissons Ratio (x) = 0.02343 1.41613
# Poissons Ratio (y) = 0.00284 0.08322
# Poissons Ratio (z) = 0.42170 0.20433
#
# Static dielectric constant tensor:
#      x y z
#    x 2.144950 -0.011240 -0.062140 
#    y -0.011240 1.959330 -0.037180 
#    z -0.062140 -0.037180 2.006130 
# 
# From -- ./inp_files/109403.got.cif
#   From: 2010.05.17/outbox.cif.g08.bks.cpg/sg2_55_cif.got.tgz:109403.got - 2010.06.03 11:33:40.
