data_PCOD9075092
_publ_section_title
;
Structure prediction by ZEFSAII (Michael W. Deem and Ramdas Pophale) SiO2 
 PCOD9075092
Probable space group: P -1
;
_chemical_formula_sum "Si O2"
_cell_formula_units_Z 15
_cell_length_a 12.000000
_cell_length_b 12.000000
_cell_length_c 12.000000
_cell_angle_alpha 80.000000
_cell_angle_beta 70.000000
_cell_angle_gamma 140.000000
_cell_volume 722.981415
_symmetry_space_group_name_H-M "P -1"
_symmetry_group_IT_number 2
_symmetry_cell_setting 'triclinic'
loop_
_space_group_symop_operation_xyz
x,y,z
-x,-y,-z
loop_
_atom_site_type_symbol
_atom_site_label
_atom_site_fract_x
_atom_site_fract_y
_atom_site_fract_z
Si Si1 0.783823 0.187349 0.400630
Si Si2 0.500000 0.500000 0.000000
Si Si3 0.702514 0.049513 0.698409
Si Si4 0.052305 0.327966 0.744035
Si Si5 0.976355 0.962323 0.147663
Si Si6 0.137432 0.640675 0.046082
Si Si7 0.292170 0.205378 0.342405
Si Si8 0.632687 0.817031 0.444663
O O1 0.791044 0.189025 0.531896
O O2 0.011213 0.450440 0.215224
O O3 0.500000 0.000000 0.500000
O O4 0.804424 0.074329 0.370267
O O5 0.422825 0.395117 0.173039
O O6 0.224466 0.211762 0.094557
O O7 0.900447 0.221496 0.701588
O O8 0.674938 0.894836 0.697105
O O9 0.436780 0.871441 0.873964
O O10 0.054797 0.197181 0.790778
O O11 0.342536 0.617735 0.567825
O O12 0.926579 0.289881 0.896225
O O13 0.741622 0.838689 0.300802
O O14 0.000000 0.000000 0.000000
O O15 0.000000 0.500000 0.000000
O O16 0.395061 0.286308 0.419335
O O17 0.000000 0.000000 0.500000
#
# Coordination Sequence:
#
# PCOD9075092 Si02
#       8
#     2   1   2   2   2   2   2   2
#     4  11  23  46  72 104 130 193 240 283 366 428
#     4  12  24  46  74 106 144 188 246 288 366 422
#     4  11  25  43  70 104 141 180 239 297 355 422
#     4  12  25  48  66 104 148 186 236 306 360 427
#     4  12  28  45  73 111 146 194 246 298 367 437
#     4  12  25  45  75 100 142 187 238 301 357 431
#     4  11  22  44  73 103 141 187 234 296 355 431
#     4  11  24  46  72  99 150 190 237 301 364 433
#
# _framework density 20.747420999999999
#
# number of rings (size 3 to 8) (size 9 to 14) (size 15 to 20)
#    0.000    0.533    5.333    2.400    3.733    1.600 
#    2.400    0.000    0.000    0.000    0.000    0.000 
#    0.000    0.000    0.000    0.000    0.000    0.000 
#
# Total GULP energy -83541.805848 kJ/mol
# GULP energy per Si atom -5569.453723 kJ/mol
# Density = 2.070020 g / cm^3
# Si number density = 20.747421 Si / 1000 Ang^3
#
#
#
# Elastic Constant Matrix: (Units=GPa)
#
#
# Indices 1 2 3 4 5 6 
#
# 1 76.5175 33.0483 39.0073 15.8792 -3.6536 -4.1634
# 2 33.0483 69.5977 33.3476 25.8683 -12.6691 11.0561
# 3 39.0073 33.3476 122.1410 29.7800 4.3743 -13.6963
# 4 15.8792 25.8683 29.7800 45.9705 -3.6491 -1.2186
# 5 -3.6536 -12.6691 4.3743 -3.6491 41.1671 12.4488
# 6 -4.1634 11.0561 -13.6963 -1.2186 12.4488 42.5458
#
#
#
# Elastic Compliance Matrix: (Units=1/GPa)
#
#
# Indices 1 2 3 4 5 6 
#
# 1 0.018238 -0.007948 -0.003316 0.000293 -0.001419 0.003206
# 2 -0.007948 0.028173 -0.004760 -0.009452 0.011659 -0.013313
# 3 -0.003316 -0.004760 0.012579 -0.004587 -0.005445 0.006424
# 4 0.000293 -0.009452 -0.004587 0.029968 -0.000333 0.001964
# 5 -0.001419 0.011659 -0.005445 -0.000333 0.032685 -0.014495
# 6 0.003206 -0.013313 0.006424 0.001964 -0.014495 0.033643
#
#
# Mechanical properties :
#
#
# Convention : Reuss Voigt Hill
#
# Bulk Modulus (GPa) = 37.11344 53.22919 45.17132
# Shear Modulus (GPa) = 25.46932 36.79353 31.13143
#
# Velocity S-wave (km/s) = 3.50750 4.21575 3.87783
# Velocity P-wave (km/s) = 5.85922 7.02910 6.47065
#
# Compressibility (1/GPa) = 0.02694442
#
# Stress axis : x y z
#
# Youngs Moduli (GPa) = 54.83114 35.49454 79.49498
#
# Poissons Ratio (x) = 0.28211 0.26357
# Poissons Ratio (y) = 0.43580 0.37836
# Poissons Ratio (z) = 0.18180 0.16894
#
# Static dielectric constant tensor:
#      x y z
#    x 1.745890 -0.015950 0.025570 
#    y -0.015950 1.822860 -0.063950 
#    z 0.025570 -0.063950 1.720800 
# 
# From -- ./inp_files/283199.got.cif
#   From: 2010.05.17/outbox.ucp.g08.bks.cvg/sg2_142_cif.got.tgz:283199.got - 2010.06.11 11:32:03.
