data_PCOD9075178
_publ_section_title
;
Structure prediction by ZEFSAII (Michael W. Deem and Ramdas Pophale) SiO2 
 PCOD9075178
Probable space group: P -1
;
_chemical_formula_sum "Si O2"
_cell_formula_units_Z 16
_cell_length_a 21.000000
_cell_length_b 9.000000
_cell_length_c 12.000000
_cell_angle_alpha 40.000000
_cell_angle_beta 30.000000
_cell_angle_gamma 50.000000
_cell_volume 727.418465
_symmetry_space_group_name_H-M "P -1"
_symmetry_group_IT_number 2
_symmetry_cell_setting 'triclinic'
loop_
_space_group_symop_operation_xyz
x,y,z
-x,-y,-z
loop_
_atom_site_type_symbol
_atom_site_label
_atom_site_fract_x
_atom_site_fract_y
_atom_site_fract_z
Si Si1 0.320377 0.040910 0.924734
Si Si2 0.688224 0.536443 0.134216
Si Si3 0.918652 0.077366 0.354264
Si Si4 0.194434 0.140136 0.823569
Si Si5 0.030401 0.431020 0.366370
Si Si6 0.395653 0.967185 0.454514
Si Si7 0.366236 0.107909 0.176010
Si Si8 0.158522 0.613265 0.519525
O O1 0.314397 0.267753 0.880306
O O2 0.242733 0.079924 0.907645
O O3 0.468392 0.988069 0.716708
O O4 0.252656 0.825701 0.216461
O O5 0.607819 0.302276 0.421878
O O6 0.832905 0.464496 0.940236
O O7 0.646189 0.659431 0.012133
O O8 0.927095 0.283368 0.312749
O O9 0.948192 0.842165 0.507967
O O10 0.771842 0.037868 0.554421
O O11 0.039546 0.108230 0.069840
O O12 0.228319 0.405907 0.587783
O O13 0.277003 0.996207 0.698123
O O14 0.000000 0.500000 0.500000
O O15 0.921614 0.474009 0.417231
O O16 0.379673 0.124631 0.279250
O O17 0.500000 0.000000 0.000000
#
# Coordination Sequence:
#
# PCOD9075178 Si02
#       8
#     2   2   2   2   2   2   2   2
#     4  12  25  49  71 102 144 194 240 287 356 425
#     4  11  25  44  75 101 140 188 236 296 348 425
#     4  11  23  46  71 102 143 183 238 292 345 432
#     4  12  29  43  71 108 141 186 242 294 357 419
#     4  11  23  42  71 105 144 183 228 298 362 411
#     4  12  28  46  71 106 146 188 237 298 358 417
#     4  11  24  44  73 108 138 182 242 285 354 423
#     4  12  25  46  73 101 144 190 239 291 351 426
#
# _framework density 21.995591999999998
#
# number of rings (size 3 to 8) (size 9 to 14) (size 15 to 20)
#    0.000    0.500    5.000    3.000    7.000    2.000 
#    0.000    0.000    0.000    0.000    0.000    0.000 
#    0.000    0.000    0.000    0.000    0.000    0.000 
#
# Total GULP energy -89466.920597 kJ/mol
# GULP energy per Si atom -5591.682537 kJ/mol
# Density = 2.194553 g / cm^3
# Si number density = 21.995592 Si / 1000 Ang^3
#
#
#
# Elastic Constant Matrix: (Units=GPa)
#
#
# Indices 1 2 3 4 5 6 
#
# 1 64.7807 11.8887 14.6993 18.1630 -5.8857 -9.1809
# 2 11.8887 74.3161 30.3406 9.6151 2.3802 0.6210
# 3 14.6993 30.3406 89.0059 26.9960 -9.3051 -1.6442
# 4 18.1630 9.6151 26.9960 40.0178 -12.7383 5.9497
# 5 -5.8857 2.3802 -9.3051 -12.7383 26.3389 4.2078
# 6 -9.1809 0.6210 -1.6442 5.9497 4.2078 19.3772
#
#
#
# Elastic Compliance Matrix: (Units=1/GPa)
#
#
# Indices 1 2 3 4 5 6 
#
# 1 0.021053 -0.002157 0.001157 -0.013124 -0.003422 0.014915
# 2 -0.002157 0.016219 -0.005517 -0.000258 -0.003846 -0.001096
# 3 0.001157 -0.005517 0.016378 -0.010920 0.000402 0.005380
# 4 -0.013124 -0.000258 -0.010920 0.049142 0.021289 -0.026848
# 5 -0.003422 -0.003846 0.000402 0.021289 0.051036 -0.019083
# 6 0.014915 -0.001096 0.005380 -0.026848 -0.019083 0.071553
#
#
# Mechanical properties :
#
#
# Convention : Reuss Voigt Hill
#
# Bulk Modulus (GPa) = 24.62085 37.99555 31.30820
# Shear Modulus (GPa) = 19.84486 28.55840 24.20163
#
# Velocity S-wave (km/s) = 3.00696 3.60720 3.32067
# Velocity P-wave (km/s) = 4.82427 5.88735 5.38212
#
# Compressibility (1/GPa) = 0.04061598
#
# Stress axis : x y z
#
# Youngs Moduli (GPa) = 47.49999 61.65567 61.05616
#
# Poissons Ratio (x) = 0.13301 -0.07064
# Poissons Ratio (y) = 0.10247 0.33683
# Poissons Ratio (z) = -0.05496 0.34014
#
# Static dielectric constant tensor:
#      x y z
#    x 1.773930 0.016650 -0.023010 
#    y 0.016650 1.827080 0.004160 
#    z -0.023010 0.004160 1.866800 
# 
# From -- ./inp_files/307073.got.cif
#   From: 2010.05.17/outbox.ucp.g08.bks.cvg/sg2_154_cif.got.tgz:307073.got - 2010.06.11 11:32:03.
