data_PCOD9075916
_publ_section_title
;
Structure prediction by ZEFSAII (Michael W. Deem and Ramdas Pophale) SiO2 
 PCOD9075916
Probable space group: P -1
;
_chemical_formula_sum "Si O2"
_cell_formula_units_Z 16
_cell_length_a 9.568682
_cell_length_b 22.080137
_cell_length_c 7.748578
_cell_angle_alpha 43.390640
_cell_angle_beta 61.406914
_cell_angle_gamma 38.840855
_cell_volume 690.654030
_symmetry_space_group_name_H-M "P -1"
_symmetry_group_IT_number 2
_symmetry_cell_setting 'triclinic'
loop_
_space_group_symop_operation_xyz
x,y,z
-x,-y,-z
loop_
_atom_site_type_symbol
_atom_site_label
_atom_site_fract_x
_atom_site_fract_y
_atom_site_fract_z
Si Si1 0.134856 0.562349 0.767288
Si Si2 0.645789 0.933719 0.276279
Si Si3 0.224847 0.633056 0.076698
Si Si4 0.273827 0.192539 0.138143
Si Si5 0.391609 0.408289 0.262952
Si Si6 0.849678 0.257109 0.728156
Si Si7 0.391583 0.235167 0.461113
Si Si8 0.546822 0.700585 0.058206
O O1 0.187618 0.503547 0.046212
O O2 0.198261 0.639749 0.577391
O O3 0.293719 0.443852 0.791674
O O4 0.877186 0.658986 0.652654
O O5 0.700659 0.864935 0.571728
O O6 0.549517 0.891194 0.304668
O O7 0.885867 0.870582 0.188397
O O8 0.462507 0.078464 0.135414
O O9 0.319616 0.495403 0.287830
O O10 0.972611 0.730442 0.948694
O O11 0.391620 0.629457 0.874360
O O12 0.204254 0.681023 0.179686
O O13 0.320009 0.277112 0.965188
O O14 0.424939 0.289873 0.485119
O O15 0.677736 0.245486 0.827703
O O16 0.517071 0.228970 0.234675
#
# Coordination Sequence:
#
# PCOD9075916 Si02
#       8
#     2   2   2   2   2   2   2   2
#     4  10  18  33  57  81 110 151 182 212 263 342
#     4   9  21  39  63  75 103 148 195 226 261 327
#     4  11  21  33  55  86 116 141 172 231 280 317
#     4  10  21  41  60  77 104 149 194 222 266 327
#     4  10  19  33  56  82 115 147 177 213 274 338
#     4  11  21  34  57  85 114 140 178 230 279 312
#     4   9  16  33  57  81 102 146 192 214 255 332
#     4  10  18  32  57  81 109 144 184 217 268 333
#
# _framework density 23.166446000000001
#
# number of rings (size 3 to 8) (size 9 to 14) (size 15 to 20)
#    0.000    2.000    2.500    4.875    0.000    1.000 
#    0.000    6.250    0.000    0.000    0.000    0.000 
#    0.000    0.000    0.000    0.000    0.000    0.000 
#
# Total GULP energy -89503.553062 kJ/mol
# GULP energy per Si atom -5593.972066 kJ/mol
# Density = 2.311372 g / cm^3
# Si number density = 23.166446 Si / 1000 Ang^3
#
#
#
# Elastic Constant Matrix: (Units=GPa)
#
#
# Indices 1 2 3 4 5 6 
#
# 1 117.3784 46.5896 14.9094 -7.6574 -21.1430 2.4695
# 2 46.5896 165.2206 16.3092 -5.0946 -15.6423 0.4564
# 3 14.9094 16.3092 32.7086 11.0065 -7.6682 -3.7331
# 4 -7.6574 -5.0946 11.0065 30.8726 6.7308 -1.5456
# 5 -21.1430 -15.6423 -7.6682 6.7308 34.4950 14.6143
# 6 2.4695 0.4564 -3.7331 -1.5456 14.6143 26.6928
#
#
#
# Elastic Compliance Matrix: (Units=1/GPa)
#
#
# Indices 1 2 3 4 5 6 
#
# 1 0.011326 -0.002084 -0.003764 0.002021 0.006990 -0.005248
# 2 -0.002084 0.007102 -0.002776 0.001254 0.001543 -0.001089
# 3 -0.003764 -0.002776 0.042073 -0.018422 0.009339 0.000100
# 4 0.002021 0.001254 -0.018422 0.043027 -0.013748 0.007234
# 5 0.006990 0.001543 0.009339 -0.013748 0.050520 -0.027822
# 6 -0.005248 -0.001089 0.000100 0.007234 -0.027822 0.053633
#
#
# Mechanical properties :
#
#
# Convention : Reuss Voigt Hill
#
# Bulk Modulus (GPa) = 23.11939 52.32490 37.72214
# Shear Modulus (GPa) = 20.89038 34.24537 27.56787
#
# Velocity S-wave (km/s) = 3.00618 3.84895 3.45337
# Velocity P-wave (km/s) = 4.69583 6.51061 5.67622
#
# Compressibility (1/GPa) = 0.04325374
#
# Stress axis : x y z
#
# Youngs Moduli (GPa) = 88.29369 140.80903 23.76827
#
# Poissons Ratio (x) = 0.29339 0.08946
# Poissons Ratio (y) = 0.18397 0.06598
# Poissons Ratio (z) = 0.33233 0.39086
#
# Static dielectric constant tensor:
#      x y z
#    x 1.878450 0.031540 0.014260 
#    y 0.031540 1.868150 0.030940 
#    z 0.014260 0.030940 1.951050 
# 
# From -- ./inp_files/221797.got.cif
#   From: 2010.05.17/outbox.cif.g08.bks.cpg/sg2_111_cif.got.tgz:221797.got - 2010.06.03 11:33:40.
