data_PCOD9075736
_publ_section_title
;
Structure prediction by ZEFSAII (Michael W. Deem and Ramdas Pophale) SiO2 
 PCOD9075736
Probable space group: P -1
;
_chemical_formula_sum "Si O2"
_cell_formula_units_Z 14
_cell_length_a 17.294338
_cell_length_b 6.850271
_cell_length_c 8.266204
_cell_angle_alpha 109.130911
_cell_angle_beta 42.368859
_cell_angle_gamma 120.440849
_cell_volume 567.148669
_symmetry_space_group_name_H-M "P -1"
_symmetry_group_IT_number 2
_symmetry_cell_setting 'triclinic'
loop_
_space_group_symop_operation_xyz
x,y,z
-x,-y,-z
loop_
_atom_site_type_symbol
_atom_site_label
_atom_site_fract_x
_atom_site_fract_y
_atom_site_fract_z
Si Si1 0.773610 0.965973 0.986884
Si Si2 0.357023 0.938121 0.255540
Si Si3 0.980677 0.655342 0.710681
Si Si4 0.184451 0.151540 0.445785
Si Si5 0.446853 0.128377 0.494782
Si Si6 0.287682 0.643724 0.994937
Si Si7 0.001696 0.211932 0.946230
O O1 0.799062 0.823972 0.764438
O O2 0.888665 0.107689 0.965392
O O3 0.740250 0.156647 0.997378
O O4 0.650349 0.810065 0.235847
O O5 0.304021 0.120572 0.327944
O O6 0.361161 0.950753 0.444216
O O7 0.284109 0.707058 0.206892
O O8 0.500000 0.000000 0.000000
O O9 0.000000 0.500000 0.500000
O O10 0.068836 0.904158 0.579329
O O11 0.830695 0.584791 0.930429
O O12 0.014399 0.635043 0.841752
O O13 0.134413 0.305439 0.669781
O O14 0.571294 0.312549 0.266209
O O15 0.500000 0.000000 0.500000
O O16 0.000000 0.000000 0.000000
#
# Coordination Sequence:
#
# PCOD9075736 Si02
#       7
#     2   2   2   2   2   2   2
#     4  10  18  32  55  77 107 139 181 220 259 318
#     4   9  16  30  53  74 101 136 175 216 256 307
#     4  11  19  35  54  77 111 137 178 224 265 317
#     4  10  20  36  54  81 108 141 180 216 268 321
#     4   9  17  29  48  79 106 134 175 222 260 309
#     4   9  19  32  51  81 106 136 177 226 267 303
#     4  10  22  34  54  77 108 148 177 216 269 322
#
# _framework density 24.684887
#
# number of rings (size 3 to 8) (size 9 to 14) (size 15 to 20)
#    0.000    2.286    2.857    3.000    0.000    0.571 
#    0.000    0.000    0.000   14.571    0.000    0.000 
#    0.000    0.000    0.000    0.000    0.000    0.000 
#
# Total GULP energy -78168.601360 kJ/mol
# GULP energy per Si atom -5583.471526 kJ/mol
# Density = 2.462870 g / cm^3
# Si number density = 24.684887 Si / 1000 Ang^3
#
#
#
# Elastic Constant Matrix: (Units=GPa)
#
#
# Indices 1 2 3 4 5 6 
#
# 1 160.5440 27.9178 60.9091 15.0703 15.1587 28.0380
# 2 27.9178 60.7378 19.0916 3.1113 2.1684 1.9663
# 3 60.9091 19.0916 211.5097 18.5347 13.7343 16.8055
# 4 15.0703 3.1113 18.5347 25.0215 15.4249 -2.6825
# 5 15.1587 2.1684 13.7343 15.4249 55.2558 8.9707
# 6 28.0380 1.9663 16.8055 -2.6825 8.9707 29.2851
#
#
#
# Elastic Compliance Matrix: (Units=1/GPa)
#
#
# Indices 1 2 3 4 5 6 
#
# 1 0.009251 -0.003322 -0.001225 -0.005758 0.000923 -0.008741
# 2 -0.003322 0.018169 -0.000957 0.000887 -0.000244 0.002666
# 3 -0.001225 -0.000957 0.005680 -0.003905 0.000461 -0.002521
# 4 -0.005758 0.000887 -0.003905 0.058504 -0.016769 0.018190
# 5 0.000923 -0.000244 0.000461 -0.016769 0.024050 -0.010035
# 6 -0.008741 0.002666 -0.002521 0.018190 -0.010035 0.048524
#
#
# Mechanical properties :
#
#
# Convention : Reuss Voigt Hill
#
# Bulk Modulus (GPa) = 45.26660 72.06981 58.66821
# Shear Modulus (GPa) = 27.38972 43.57068 35.48020
#
# Velocity S-wave (km/s) = 3.33464 4.20584 3.79532
# Velocity P-wave (km/s) = 5.76229 7.26944 6.55930
#
# Compressibility (1/GPa) = 0.02209134
#
# Stress axis : x y z
#
# Youngs Moduli (GPa) = 108.09324 55.03873 176.06713
#
# Poissons Ratio (x) = 0.18285 0.21570
# Poissons Ratio (y) = 0.35911 0.16849
# Poissons Ratio (z) = 0.13242 0.05267
#
# Static dielectric constant tensor:
#      x y z
#    x 1.992990 -0.044220 0.002020 
#    y -0.044220 2.078870 0.101160 
#    z 0.002020 0.101160 2.049310 
# 
# From -- ./inp_files/326372.got.cif
#   From: 2010.05.17/outbox.cif.g08.bks.cpg/sg2_164_cif.got.tgz:326372.got - 2010.06.03 11:33:40.
