data_PCOD9075935
_publ_section_title
;
Structure prediction by ZEFSAII (Michael W. Deem and Ramdas Pophale) SiO2 
 PCOD9075935
Probable space group: P -1
;
_chemical_formula_sum "Si O2"
_cell_formula_units_Z 14
_cell_length_a 14.585462
_cell_length_b 14.772874
_cell_length_c 7.562854
_cell_angle_alpha 140.940395
_cell_angle_beta 143.267635
_cell_angle_gamma 37.297175
_cell_volume 545.433078
_symmetry_space_group_name_H-M "P -1"
_symmetry_group_IT_number 2
_symmetry_cell_setting 'triclinic'
loop_
_space_group_symop_operation_xyz
x,y,z
-x,-y,-z
loop_
_atom_site_type_symbol
_atom_site_label
_atom_site_fract_x
_atom_site_fract_y
_atom_site_fract_z
Si Si1 0.505390 0.154959 0.878090
Si Si2 0.678306 0.934014 0.292900
Si Si3 0.162767 0.085917 0.829891
Si Si4 0.681068 0.662612 0.477464
Si Si5 0.483789 0.390116 0.517423
Si Si6 0.968688 0.571681 0.258784
Si Si7 0.200612 0.642163 0.239219
O O1 0.464439 0.272540 0.163868
O O2 0.415034 0.041040 0.619856
O O3 0.416357 0.268051 0.748436
O O4 0.711216 0.048479 0.043043
O O5 0.837825 0.757776 0.317902
O O6 0.785929 0.987656 0.401113
O O7 0.500000 0.000000 0.000000
O O8 0.231973 0.222914 0.154058
O O9 0.961447 0.183483 0.711976
O O10 0.551852 0.660215 0.423674
O O11 0.843016 0.484569 0.456826
O O12 0.332756 0.567195 0.496856
O O13 0.671339 0.371180 0.739837
O O14 0.883303 0.478586 0.093574
O O15 0.000000 0.500000 0.000000
#
# Coordination Sequence:
#
# PCOD9075935 Si02
#       7
#     2   2   2   2   2   2   2
#     4  11  22  35  60  89 115 149 195 235 287 338
#     4  10  18  32  57  86 109 139 182 234 281 329
#     4  10  19  38  60  85 118 148 191 242 286 333
#     4  11  21  36  63  85 117 149 191 241 286 332
#     4  11  21  39  60  81 115 156 195 230 283 346
#     4  11  16  36  62  83 110 148 187 234 286 331
#     4  10  20  36  63  81 113 160 188 231 292 332
#
# _framework density 25.667677999999999
#
# number of rings (size 3 to 8) (size 9 to 14) (size 15 to 20)
#    0.000    1.429    7.143    0.429    0.000    1.143 
#    0.000    3.571    6.286    0.000    0.000    0.000 
#    0.000    0.000    0.000    0.000    0.000    0.000 
#
# Total GULP energy -78117.254221 kJ/mol
# GULP energy per Si atom -5579.803873 kJ/mol
# Density = 2.560926 g / cm^3
# Si number density = 25.667678 Si / 1000 Ang^3
#
#
#
# Elastic Constant Matrix: (Units=GPa)
#
#
# Indices 1 2 3 4 5 6 
#
# 1 203.7712 52.5301 89.4589 -54.8058 18.9905 20.3252
# 2 52.5301 153.2707 53.3365 -67.6239 -5.8428 -11.0486
# 3 89.4589 53.3365 91.1543 -37.1740 0.3968 7.9886
# 4 -54.8058 -67.6239 -37.1740 57.0465 2.8038 6.2593
# 5 18.9905 -5.8428 0.3968 2.8038 41.2471 -20.3411
# 6 20.3252 -11.0486 7.9886 6.2593 -20.3411 49.0829
#
#
#
# Elastic Compliance Matrix: (Units=1/GPa)
#
#
# Indices 1 2 3 4 5 6 
#
# 1 0.013262 0.002525 -0.008902 0.011533 -0.011168 -0.009574
# 2 0.002525 0.014697 -0.004231 0.016981 0.000243 0.000886
# 3 -0.008902 -0.004231 0.022495 0.000883 0.003406 0.000372
# 4 0.011533 0.016981 0.000883 0.051364 -0.012789 -0.012947
# 5 -0.011168 0.000243 0.003406 -0.012789 0.041597 0.022995
# 6 -0.009574 0.000886 0.000372 -0.012947 0.022995 0.035658
#
#
# Mechanical properties :
#
#
# Convention : Reuss Voigt Hill
#
# Bulk Modulus (GPa) = 34.20208 93.20525 63.70366
# Shear Modulus (GPa) = 23.80555 46.33334 35.06945
#
# Velocity S-wave (km/s) = 3.04871 4.25328 3.70034
# Velocity P-wave (km/s) = 5.07413 7.77893 6.56729
#
# Compressibility (1/GPa) = 0.02923799
#
# Stress axis : x y z
#
# Youngs Moduli (GPa) = 75.40136 68.04223 44.45389
#
# Poissons Ratio (x) = -0.17181 0.39574
# Poissons Ratio (y) = -0.19039 0.18808
# Poissons Ratio (z) = 0.67124 0.28788
#
# Static dielectric constant tensor:
#      x y z
#    x 2.083440 -0.027110 0.006640 
#    y -0.027110 2.187160 0.161760 
#    z 0.006640 0.161760 2.115380 
# 
# From -- ./inp_files/314028.got.cif
#   From: 2010.05.17/outbox.cif.g08.bks.cpg/sg2_158_cif.got.tgz:314028.got - 2010.06.03 11:33:40.
