data_PCOD9075381
_publ_section_title
;
Structure prediction by ZEFSAII (Michael W. Deem and Ramdas Pophale) SiO2 
 PCOD9075381
Probable space group: P -1
;
_chemical_formula_sum "Si O2"
_cell_formula_units_Z 16
_cell_length_a 15.000000
_cell_length_b 9.000000
_cell_length_c 21.000000
_cell_angle_alpha 110.000000
_cell_angle_beta 20.000000
_cell_angle_gamma 120.000000
_cell_volume 757.501203
_symmetry_space_group_name_H-M "P -1"
_symmetry_group_IT_number 2
_symmetry_cell_setting 'triclinic'
loop_
_space_group_symop_operation_xyz
x,y,z
-x,-y,-z
loop_
_atom_site_type_symbol
_atom_site_label
_atom_site_fract_x
_atom_site_fract_y
_atom_site_fract_z
Si Si1 0.848111 0.650302 0.763207
Si Si2 0.918010 0.998076 0.249908
Si Si3 0.206126 0.244844 0.523234
Si Si4 0.318425 0.678054 0.670660
Si Si5 0.893256 0.839742 0.994339
Si Si6 0.756770 0.514987 0.576263
Si Si7 0.826342 0.824648 0.670907
Si Si8 0.849305 0.241885 0.878090
O O1 0.827189 0.748911 0.728924
O O2 0.011226 0.541718 0.615232
O O3 0.500000 0.500000 0.000000
O O4 0.024234 0.820643 0.722034
O O5 0.556951 0.821692 0.476920
O O6 0.112068 0.914495 0.136056
O O7 0.026157 0.063234 0.114922
O O8 0.458485 0.282193 0.412821
O O9 0.347573 0.420841 0.406256
O O10 0.919751 0.225275 0.753873
O O11 0.080237 0.052108 0.538988
O O12 0.085717 0.740968 0.854311
O O13 0.119922 0.457590 0.750126
O O14 0.530067 0.670801 0.223836
O O15 0.000000 0.000000 0.000000
O O16 0.882697 0.696536 0.565799
O O17 0.483510 0.789501 0.887785
#
# Coordination Sequence:
#
# PCOD9075381 Si02
#       8
#     2   2   2   2   2   2   2   2
#     4  12  26  47  75 101 144 194 243 290 356 436
#     4  11  25  47  74 107 138 194 246 292 344 433
#     4  11  25  44  75 103 144 189 242 298 353 426
#     4  11  24  49  74 105 140 191 247 295 346 425
#     4  12  28  45  71 106 152 188 231 297 370 426
#     4  12  28  46  70 109 147 189 236 301 363 428
#     4  12  24  49  69 110 143 189 240 302 361 416
#     4  11  24  45  79 105 140 185 254 294 350 422
#
# _framework density 21.122078999999999
#
# number of rings (size 3 to 8) (size 9 to 14) (size 15 to 20)
#    0.000    0.500    3.750    5.250    7.000    1.500 
#    0.000    0.000    0.000    0.000    0.000    0.000 
#    0.000    0.000    0.000    0.000    0.000    0.000 
#
# Total GULP energy -89559.690505 kJ/mol
# GULP energy per Si atom -5597.480657 kJ/mol
# Density = 2.107400 g / cm^3
# Si number density = 21.122079 Si / 1000 Ang^3
#
#
#
# Elastic Constant Matrix: (Units=GPa)
#
#
# Indices 1 2 3 4 5 6 
#
# 1 102.0188 42.7404 35.7710 0.2136 22.9279 6.5947
# 2 42.7404 165.3436 50.4150 11.0000 2.6952 30.4531
# 3 35.7710 50.4150 104.9513 8.0351 8.4586 -0.5322
# 4 0.2136 11.0000 8.0351 47.5287 2.4952 4.4548
# 5 22.9279 2.6952 8.4586 2.4952 32.1787 -1.6701
# 6 6.5947 30.4531 -0.5322 4.4548 -1.6701 42.4794
#
#
#
# Elastic Compliance Matrix: (Units=1/GPa)
#
#
# Indices 1 2 3 4 5 6 
#
# 1 0.014004 -0.002499 -0.002960 0.001586 -0.009163 -0.000946
# 2 -0.002499 0.008878 -0.003506 -0.000994 0.001732 -0.005848
# 3 -0.002960 -0.003506 0.012402 -0.001549 -0.000567 0.003269
# 4 0.001586 -0.000994 -0.001549 0.021834 -0.002433 -0.001939
# 5 -0.009163 0.001732 -0.000567 -0.002433 0.037897 0.001919
# 6 -0.000946 -0.005848 0.003269 -0.001939 0.001919 0.028200
#
#
# Mechanical properties :
#
#
# Convention : Reuss Voigt Hill
#
# Bulk Modulus (GPa) = 57.62595 70.01850 63.82222
# Shear Modulus (GPa) = 34.02940 40.66317 37.34629
#
# Velocity S-wave (km/s) = 4.01818 4.39241 4.20946
# Velocity P-wave (km/s) = 6.99066 7.67762 7.34218
#
# Compressibility (1/GPa) = 0.01735329
#
# Stress axis : x y z
#
# Youngs Moduli (GPa) = 71.40691 112.63649 80.63047
#
# Poissons Ratio (x) = 0.28151 0.23869
# Poissons Ratio (y) = 0.17847 0.28270
# Poissons Ratio (z) = 0.21138 0.39491
#
# Static dielectric constant tensor:
#      x y z
#    x 1.769750 -0.009780 -0.011820 
#    y -0.009780 1.755660 -0.009160 
#    z -0.011820 -0.009160 1.771970 
# 
# From -- ./inp_files/589690.got.cif
#   From: 2010.05.17/outbox.ucp.g08.bks.cvg/sg2_295_cif.got.tgz:589690.got - 2010.06.11 11:32:03.
