data_PCOD9075623
_publ_section_title
;
Structure prediction by ZEFSAII (Michael W. Deem and Ramdas Pophale) SiO2 
 PCOD9075623
Probable space group: P -1
;
_chemical_formula_sum "Si O2"
_cell_formula_units_Z 14
_cell_length_a 6.000000
_cell_length_b 9.000000
_cell_length_c 18.000000
_cell_angle_alpha 120.000000
_cell_angle_beta 60.000000
_cell_angle_gamma 130.000000
_cell_volume 621.029576
_symmetry_space_group_name_H-M "P -1"
_symmetry_group_IT_number 2
_symmetry_cell_setting 'triclinic'
loop_
_space_group_symop_operation_xyz
x,y,z
-x,-y,-z
loop_
_atom_site_type_symbol
_atom_site_label
_atom_site_fract_x
_atom_site_fract_y
_atom_site_fract_z
Si Si1 0.582691 0.145332 0.453325
Si Si2 0.358540 0.105460 0.992908
Si Si3 0.244918 0.783842 0.306747
Si Si4 0.809669 0.740827 0.699986
Si Si5 0.504948 0.498309 0.839109
Si Si6 0.369784 0.446203 0.588963
Si Si7 0.874612 0.158621 0.817434
O O1 0.460461 0.279877 0.543112
O O2 0.926172 0.256685 0.392538
O O3 0.500000 0.000000 0.500000
O O4 0.421016 0.997898 0.372270
O O5 0.423919 0.318237 0.070535
O O6 0.559923 0.124872 0.892325
O O7 0.500000 0.000000 0.000000
O O8 0.000000 0.000000 0.000000
O O9 0.405473 0.673386 0.216309
O O10 0.078020 0.802863 0.268362
O O11 0.983797 0.641448 0.371744
O O12 0.679780 0.605801 0.761036
O O13 0.527788 0.636291 0.664443
O O14 0.893533 0.959286 0.770769
O O15 0.143170 0.357763 0.860396
O O16 0.500000 0.500000 0.500000
#
# Coordination Sequence:
#
# PCOD9075623 Si02
#       7
#     2   2   2   2   2   2   2
#     4  12  24  44  69 105 151 200 261 323 384 455
#     4  12  31  53  88 121 158 205 259 323 401 484
#     4  12  26  44  76 110 148 204 260 318 392 464
#     4  12  24  46  74 104 152 198 260 317 386 464
#     4  12  27  51  77 112 155 199 258 316 401 470
#     4  12  24  42  67 105 149 196 259 317 380 453
#     4  12  27  51  77 112 157 197 260 323 393 476
#
# _framework density 22.543209999999998
#
# number of rings (size 3 to 8) (size 9 to 14) (size 15 to 20)
#    0.000    0.000    4.286    5.571    8.000    0.571 
#    0.000    0.000    0.000    0.000    0.000    0.000 
#    0.000    0.000    0.000    0.000    0.000    0.000 
#
# Total GULP energy -77957.208045 kJ/mol
# GULP energy per Si atom -5568.372003 kJ/mol
# Density = 2.249190 g / cm^3
# Si number density = 22.543210 Si / 1000 Ang^3
#
#
#
# Elastic Constant Matrix: (Units=GPa)
#
#
# Indices 1 2 3 4 5 6 
#
# 1 63.4220 43.3586 10.9282 3.1027 -13.6535 18.5305
# 2 43.3586 93.1559 18.7852 22.5664 4.3238 5.8109
# 3 10.9282 18.7852 115.8534 5.1089 -21.8666 8.1195
# 4 3.1027 22.5664 5.1089 32.3930 16.9153 18.7684
# 5 -13.6535 4.3238 -21.8666 16.9153 46.7253 -7.0998
# 6 18.5305 5.8109 8.1195 18.7684 -7.0998 40.1205
#
#
#
# Elastic Compliance Matrix: (Units=1/GPa)
#
#
# Indices 1 2 3 4 5 6 
#
# 1 0.038079 -0.023203 0.000555 0.029823 -0.001604 -0.028574
# 2 -0.023203 0.028381 -0.001443 -0.034416 0.006034 0.024066
# 3 0.000555 -0.001443 0.010337 -0.005601 0.007434 0.001796
# 4 0.029823 -0.034416 -0.005601 0.115542 -0.043085 -0.069331
# 5 -0.001604 0.006034 0.007434 -0.043085 0.043432 0.026204
# 6 -0.028574 0.024066 0.001796 -0.069331 0.026204 0.071344
#
#
# Mechanical properties :
#
#
# Convention : Reuss Voigt Hill
#
# Bulk Modulus (GPa) = 34.94649 46.50837 40.72743
# Shear Modulus (GPa) = 13.70479 37.13838 25.42158
#
# Velocity S-wave (km/s) = 2.46831 4.06326 3.36174
# Velocity P-wave (km/s) = 4.86406 6.53368 5.75969
#
# Compressibility (1/GPa) = 0.02861518
#
# Stress axis : x y z
#
# Youngs Moduli (GPa) = 26.26141 35.23482 96.73532
#
# Poissons Ratio (x) = 0.81755 -0.05369
# Poissons Ratio (y) = 0.60934 0.13961
# Poissons Ratio (z) = -0.01457 0.05085
#
# Static dielectric constant tensor:
#      x y z
#    x 1.910620 -0.063770 0.035910 
#    y -0.063770 2.091420 0.036030 
#    z 0.035910 0.036030 1.744880 
# 
# From -- ./inp_files/38295.got.cif
#   From: 2010.05.17/outbox.ucp.g08.bks.cvg/sg2_20_cif.got.tgz:38295.got - 2010.06.11 11:32:03.
