data_PCOD9075972
_publ_section_title
;
Structure prediction by ZEFSAII (Michael W. Deem and Ramdas Pophale) SiO2 
 PCOD9075972
Probable space group: P -1
;
_chemical_formula_sum "Si O2"
_cell_formula_units_Z 16
_cell_length_a 9.144646
_cell_length_b 22.201424
_cell_length_c 16.483757
_cell_angle_alpha 147.646815
_cell_angle_beta 146.476295
_cell_angle_gamma 37.141588
_cell_volume 938.941189
_symmetry_space_group_name_H-M "P -1"
_symmetry_group_IT_number 2
_symmetry_cell_setting 'triclinic'
loop_
_space_group_symop_operation_xyz
x,y,z
-x,-y,-z
loop_
_atom_site_type_symbol
_atom_site_label
_atom_site_fract_x
_atom_site_fract_y
_atom_site_fract_z
Si Si1 0.451079 0.457162 0.642801
Si Si2 0.250145 0.226514 0.822177
Si Si3 0.135905 0.899119 0.013873
Si Si4 0.247718 0.610919 0.125157
Si Si5 0.513794 0.999394 0.601548
Si Si6 0.929648 0.688240 0.653526
Si Si7 0.957418 0.607395 0.238109
Si Si8 0.328136 0.270168 0.597643
O O1 0.572947 0.445861 0.777179
O O2 0.225801 0.585224 0.674428
O O3 0.716051 0.429237 0.674705
O O4 0.284967 0.361358 0.452386
O O5 0.552267 0.189747 0.963114
O O6 0.204548 0.321363 0.835218
O O7 0.005761 0.280794 0.833866
O O8 0.261179 0.103508 0.643450
O O9 0.214600 0.965475 0.203273
O O10 0.953598 0.811496 0.838348
O O11 0.000000 0.000000 0.000000
O O12 0.442913 0.660890 0.216202
O O13 0.127953 0.510729 0.921861
O O14 0.531157 0.870597 0.493786
O O15 0.500000 0.000000 0.500000
O O16 0.828737 0.703261 0.530655
O O17 0.870416 0.688018 0.369010
#
# Coordination Sequence:
#
# PCOD9075972 Si02
#       8
#     2   2   2   2   2   2   2   2
#     4   9  20  32  56  76 110 143 180 223 264 333
#     4   9  19  33  58  76 105 144 179 225 262 328
#     4  10  18  32  58  78 107 143 180 224 268 326
#     4  10  20  34  53  84 105 141 189 224 268 319
#     4  10  20  36  55  83 104 145 180 225 279 312
#     4  10  18  35  52  83 106 143 185 218 270 324
#     4  11  19  35  53  80 112 145 177 225 280 317
#     4  11  21  33  54  79 112 141 183 231 267 325
#
# _framework density 17.040469999999999
#
# number of rings (size 3 to 8) (size 9 to 14) (size 15 to 20)
#    0.750    1.250    2.500    3.375    0.000    1.000 
#    0.000    0.000    0.000    0.750    0.000    0.000 
#    0.000    0.000    0.000    0.000    0.000    0.000 
#
# Total GULP energy -89077.903117 kJ/mol
# GULP energy per Si atom -5567.368945 kJ/mol
# Density = 1.700169 g / cm^3
# Si number density = 17.040470 Si / 1000 Ang^3
#
#
#
# Elastic Constant Matrix: (Units=GPa)
#
#
# Indices 1 2 3 4 5 6 
#
# 1 46.9243 16.0834 32.2770 4.4840 4.9768 -5.7621
# 2 16.0834 97.8927 47.0210 6.9550 9.0586 -4.7319
# 3 32.2770 47.0210 109.3372 17.6518 9.8126 0.9925
# 4 4.4840 6.9550 17.6518 32.2182 2.8751 -3.5161
# 5 4.9768 9.0586 9.8126 2.8751 23.9101 0.2959
# 6 -5.7621 -4.7319 0.9925 -3.5161 0.2959 17.4210
#
#
#
# Elastic Compliance Matrix: (Units=1/GPa)
#
#
# Indices 1 2 3 4 5 6 
#
# 1 0.028629 0.000076 -0.008673 0.002144 -0.002816 0.010465
# 2 0.000076 0.013341 -0.005690 0.000946 -0.002901 0.004213
# 3 -0.008673 -0.005690 0.015412 -0.006596 -0.001489 -0.006598
# 4 0.002144 0.000946 -0.006596 0.035296 -0.002447 0.008507
# 5 -0.002816 -0.002901 -0.001489 -0.002447 0.044450 -0.002883
# 6 0.010465 0.004213 -0.006598 0.008507 -0.002883 0.064150
#
#
# Mechanical properties :
#
#
# Convention : Reuss Voigt Hill
#
# Bulk Modulus (GPa) = 34.71258 49.43524 42.07391
# Shear Modulus (GPa) = 20.88087 25.29471 23.08779
#
# Velocity S-wave (km/s) = 3.50433 3.85696 3.68486
# Velocity P-wave (km/s) = 6.06536 6.99345 6.54587
#
# Compressibility (1/GPa) = 0.02880800
#
# Stress axis : x y z
#
# Youngs Moduli (GPa) = 34.92953 74.95724 64.88531
#
# Poissons Ratio (x) = -0.00571 0.56273
# Poissons Ratio (y) = -0.00266 0.36923
# Poissons Ratio (z) = 0.30293 0.42654
#
# Static dielectric constant tensor:
#      x y z
#    x 1.544440 0.000070 0.009250 
#    y 0.000070 1.579440 0.000290 
#    z 0.009250 0.000290 1.604830 
# 
# From -- ./inp_files/309892.got.cif
#   From: 2010.05.17/outbox.cif.g08.bks.cpg/sg2_155_cif.got.tgz:309892.got - 2010.06.03 11:33:40.
