data_PCOD9075027
_publ_section_title
;
Structure prediction by ZEFSAII (Michael W. Deem and Ramdas Pophale) SiO2 
 PCOD9075027
Probable space group: P -1
;
_chemical_formula_sum "Si O2"
_cell_formula_units_Z 16
_cell_length_a 12.000000
_cell_length_b 9.000000
_cell_length_c 18.000000
_cell_angle_alpha 120.000000
_cell_angle_beta 150.000000
_cell_angle_gamma 50.000000
_cell_volume 736.400153
_symmetry_space_group_name_H-M "P -1"
_symmetry_group_IT_number 2
_symmetry_cell_setting 'triclinic'
loop_
_space_group_symop_operation_xyz
x,y,z
-x,-y,-z
loop_
_atom_site_type_symbol
_atom_site_label
_atom_site_fract_x
_atom_site_fract_y
_atom_site_fract_z
Si Si1 0.836132 0.430728 0.486757
Si Si2 0.447347 0.421428 0.373285
Si Si3 0.108252 0.179043 0.371698
Si Si4 0.588738 0.359835 0.180663
Si Si5 0.091561 0.348053 0.946265
Si Si6 0.692966 0.219613 0.898531
Si Si7 0.908719 0.060552 0.830447
Si Si8 0.325865 0.045893 0.627216
O O1 0.601005 0.477118 0.416201
O O2 0.727827 0.420686 0.340646
O O3 0.907893 0.604494 0.587572
O O4 0.078446 0.206389 0.571883
O O5 0.500000 0.500000 0.500000
O O6 0.141458 0.532949 0.215698
O O7 0.567111 0.187799 0.367453
O O8 0.827249 0.203873 0.232446
O O9 0.265157 0.093142 0.516525
O O10 0.202981 0.028463 0.318581
O O11 0.447966 0.557377 0.101944
O O12 0.372517 0.308209 0.072555
O O13 0.065659 0.157766 0.907155
O O14 0.000000 0.500000 0.000000
O O15 0.739960 0.217657 0.836042
O O16 0.539902 0.100706 0.788472
O O17 0.932172 0.115173 0.064253
#
# Coordination Sequence:
#
# PCOD9075027 Si02
#       8
#     2   2   2   2   2   2   2   2
#     4  11  22  45  69  95 133 176 215 264 332 390
#     4  12  27  42  65 102 133 169 220 275 321 380
#     4  11  24  45  67  99 132 168 221 271 325 382
#     4  11  22  44  70  93 131 176 217 267 320 397
#     4  12  23  45  68  92 131 177 217 260 329 391
#     4  11  22  41  64  96 130 169 222 259 325 391
#     4  11  26  40  65 100 130 174 214 272 327 382
#     4  11  23  43  67  95 129 175 218 262 325 392
#
# _framework density 21.727318
#
# number of rings (size 3 to 8) (size 9 to 14) (size 15 to 20)
#    0.000    0.750    5.000    2.625    3.500    1.500 
#    2.250    0.000    0.000    0.000    0.000    0.000 
#    0.000    0.000    0.000    0.000    0.000    0.000 
#
# Total GULP energy -89225.651683 kJ/mol
# GULP energy per Si atom -5576.603230 kJ/mol
# Density = 2.167787 g / cm^3
# Si number density = 21.727318 Si / 1000 Ang^3
#
#
#
# Elastic Constant Matrix: (Units=GPa)
#
#
# Indices 1 2 3 4 5 6 
#
# 1 22.7275 8.8795 -0.1187 2.1520 5.3273 11.1050
# 2 8.8795 66.1768 0.1953 15.0770 -0.2606 17.3100
# 3 -0.1187 0.1953 70.4238 10.6962 0.5616 5.9153
# 4 2.1520 15.0770 10.6962 40.4305 -1.5383 4.4724
# 5 5.3273 -0.2606 0.5616 -1.5383 40.5342 13.8321
# 6 11.1050 17.3100 5.9153 4.4724 13.8321 23.8342
#
#
#
# Elastic Compliance Matrix: (Units=1/GPa)
#
#
# Indices 1 2 3 4 5 6 
#
# 1 0.057527 -0.000181 0.002536 -0.000441 0.002088 -0.028430
# 2 -0.000181 0.021432 0.002406 -0.006339 0.006195 -0.018484
# 3 0.002536 0.002406 0.015416 -0.004282 0.001667 -0.006919
# 4 -0.000441 -0.006339 -0.004282 0.028314 0.001198 -0.000136
# 5 0.002088 0.006195 0.001667 0.001198 0.033098 -0.025319
# 6 -0.028430 -0.018484 -0.006919 -0.000136 -0.025319 0.085064
#
#
# Mechanical properties :
#
#
# Convention : Reuss Voigt Hill
#
# Bulk Modulus (GPa) = 9.62500 19.69337 14.65918
# Shear Modulus (GPa) = 18.79973 30.98459 24.89216
#
# Velocity S-wave (km/s) = 2.94472 3.78043 3.38843
# Velocity P-wave (km/s) = 4.00017 5.30462 4.69789
#
# Compressibility (1/GPa) = 0.10389616
#
# Stress axis : x y z
#
# Youngs Moduli (GPa) = 17.38306 46.66006 64.86961
#
# Poissons Ratio (x) = 0.00845 -0.16450
# Poissons Ratio (y) = 0.00315 -0.15609
# Poissons Ratio (z) = -0.04408 -0.11227
#
# Static dielectric constant tensor:
#      x y z
#    x 1.832570 -0.001560 0.019100 
#    y -0.001560 1.824710 -0.058490 
#    z 0.019100 -0.058490 1.836700 
# 
# From -- ./inp_files/259828.got.cif
#   From: 2010.05.17/outbox.ucp.g08.bks.cvg/sg2_130_cif.got.tgz:259828.got - 2010.06.11 11:32:03.
