data_PCOD9075633
_publ_section_title
;
Structure prediction by ZEFSAII (Michael W. Deem and Ramdas Pophale) SiO2 
 PCOD9075633
Probable space group: P -1
;
_chemical_formula_sum "Si O2"
_cell_formula_units_Z 15
_cell_length_a 9.000000
_cell_length_b 21.000000
_cell_length_c 12.000000
_cell_angle_alpha 150.000000
_cell_angle_beta 120.000000
_cell_angle_gamma 40.000000
_cell_volume 627.666119
_symmetry_space_group_name_H-M "P -1"
_symmetry_group_IT_number 2
_symmetry_cell_setting 'triclinic'
loop_
_space_group_symop_operation_xyz
x,y,z
-x,-y,-z
loop_
_atom_site_type_symbol
_atom_site_label
_atom_site_fract_x
_atom_site_fract_y
_atom_site_fract_z
Si Si1 0.118253 0.522301 0.981886
Si Si2 0.282791 0.812911 0.263863
Si Si3 0.500000 0.500000 0.500000
Si Si4 0.014690 0.484619 0.319955
Si Si5 0.791879 0.883596 0.901945
Si Si6 0.254424 0.051540 0.442664
Si Si7 0.248265 0.595900 0.790016
Si Si8 0.373738 0.862677 0.970850
O O1 0.433493 0.317080 0.769730
O O2 0.984124 0.560740 0.874685
O O3 0.000000 0.500000 0.000000
O O4 0.018718 0.719449 0.278902
O O5 0.278025 0.904445 0.291736
O O6 0.318389 0.644700 0.992705
O O7 0.000000 0.000000 0.500000
O O8 0.446230 0.501282 0.617191
O O9 0.380579 0.714173 0.791069
O O10 0.950510 0.671594 0.586390
O O11 0.810097 0.514365 0.358399
O O12 0.316557 0.286531 0.170670
O O13 0.961736 0.813586 0.969221
O O14 0.500000 0.000000 0.000000
O O15 0.785791 0.003880 0.996606
O O16 0.500000 0.000000 0.500000
O O17 0.280472 0.008648 0.256734
#
# Coordination Sequence:
#
# PCOD9075633 Si02
#       8
#     2   2   1   2   2   2   2   2
#     4  12  26  47  80 112 150 208 260 314 397 474
#     4  12  29  50  73 114 158 199 256 328 393 454
#     4  12  26  50  72 108 158 200 246 320 394 446
#     4  12  25  47  77 110 152 200 262 321 384 471
#     4  12  26  45  77 109 140 205 260 306 387 464
#     4  12  24  46  77 111 151 200 259 317 387 467
#     4  12  27  49  72 109 157 199 254 326 385 460
#     4  12  25  48  77 112 154 200 257 328 384 471
#
# _framework density 23.898056
#
# number of rings (size 3 to 8) (size 9 to 14) (size 15 to 20)
#    0.000    0.000    6.667    2.800    1.867    3.733 
#    2.400    0.000    0.000    0.000    0.000    0.000 
#    0.000    0.000    0.000    0.000    0.000    0.000 
#
# Total GULP energy -83716.790325 kJ/mol
# GULP energy per Si atom -5581.119355 kJ/mol
# Density = 2.384366 g / cm^3
# Si number density = 23.898056 Si / 1000 Ang^3
#
#
#
# Elastic Constant Matrix: (Units=GPa)
#
#
# Indices 1 2 3 4 5 6 
#
# 1 80.4807 15.8538 6.9933 -2.0953 7.5070 15.6404
# 2 15.8538 66.0803 12.7659 1.4006 0.8567 6.9127
# 3 6.9933 12.7659 112.3011 0.4392 -7.2818 -1.6698
# 4 -2.0953 1.4006 0.4392 33.1578 5.8459 -3.2102
# 5 7.5070 0.8567 -7.2818 5.8459 54.5652 14.1013
# 6 15.6404 6.9127 -1.6698 -3.2102 14.1013 41.6160
#
#
#
# Elastic Compliance Matrix: (Units=1/GPa)
#
#
# Indices 1 2 3 4 5 6 
#
# 1 0.014001 -0.002763 -0.000685 0.000736 -0.000898 -0.004469
# 2 -0.002763 0.016348 -0.001677 -0.001134 0.000542 -0.002015
# 3 -0.000685 -0.001677 0.009228 -0.000273 0.001263 0.000457
# 4 0.000736 -0.001134 -0.000273 0.031418 -0.004479 0.003842
# 5 -0.000898 0.000542 0.001263 -0.004479 0.020936 -0.007141
# 6 -0.004469 -0.002015 0.000457 0.003842 -0.007141 0.028778
#
#
# Mechanical properties :
#
#
# Convention : Reuss Voigt Hill
#
# Bulk Modulus (GPa) = 34.09942 36.67645 35.38793
# Shear Modulus (GPa) = 35.52810 40.75109 38.13959
#
# Velocity S-wave (km/s) = 3.85990 4.13389 3.99924
# Velocity P-wave (km/s) = 5.84506 6.17785 6.01376
#
# Compressibility (1/GPa) = 0.02932601
#
# Stress axis : x y z
#
# Youngs Moduli (GPa) = 71.42522 61.17055 108.36962
#
# Poissons Ratio (x) = 0.16902 0.07427
# Poissons Ratio (y) = 0.19735 0.18170
# Poissons Ratio (z) = 0.04895 0.10256
#
# Static dielectric constant tensor:
#      x y z
#    x 1.984010 -0.183350 -0.029680 
#    y -0.183350 1.908560 0.049340 
#    z -0.029680 0.049340 1.904020 
# 
# From -- ./inp_files/333564.got.cif
#   From: 2010.05.17/outbox.ucp.g08.bks.cvg/sg2_167_cif.got.tgz:333564.got - 2010.06.11 11:32:03.
