data_PCOD9075161
_publ_section_title
;
Structure prediction by ZEFSAII (Michael W. Deem and Ramdas Pophale) SiO2 
 PCOD9075161
Probable space group: P -1
;
_chemical_formula_sum "Si O2"
_cell_formula_units_Z 14
_cell_length_a 15.000000
_cell_length_b 15.000000
_cell_length_c 9.000000
_cell_angle_alpha 80.000000
_cell_angle_beta 60.000000
_cell_angle_gamma 30.000000
_cell_volume 702.152635
_symmetry_space_group_name_H-M "P -1"
_symmetry_group_IT_number 2
_symmetry_cell_setting 'triclinic'
loop_
_space_group_symop_operation_xyz
x,y,z
-x,-y,-z
loop_
_atom_site_type_symbol
_atom_site_label
_atom_site_fract_x
_atom_site_fract_y
_atom_site_fract_z
Si Si1 0.516723 0.609418 0.320153
Si Si2 0.239926 0.232968 0.732034
Si Si3 0.084551 0.873413 0.819108
Si Si4 0.276487 0.108555 0.203476
Si Si5 0.120097 0.533364 0.801372
Si Si6 0.590567 0.195615 0.950332
Si Si7 0.042883 0.567597 0.381312
O O1 0.262893 0.784482 0.574770
O O2 0.720618 0.362600 0.221219
O O3 0.669599 0.565575 0.292549
O O4 0.455302 0.696457 0.179620
O O5 0.233546 0.341194 0.763750
O O6 0.014987 0.399569 0.753335
O O7 0.500000 0.000000 0.500000
O O8 0.137958 0.254109 0.945857
O O9 0.829437 0.038049 0.900208
O O10 0.000000 0.000000 0.000000
O O11 0.002249 0.352524 0.289700
O O12 0.191066 0.187352 0.423341
O O13 0.345166 0.952854 0.137681
O O14 0.500000 0.000000 0.000000
O O15 0.323802 0.387740 0.205017
O O16 0.000000 0.500000 0.500000
#
# Coordination Sequence:
#
# PCOD9075161 Si02
#       7
#     2   2   2   2   2   2   2
#     4  11  26  49  71 105 137 174 243 288 350 421
#     4  11  24  38  63  98 140 188 228 276 336 407
#     4  11  28  49  79 101 130 180 235 302 356 408
#     4  12  24  41  67  98 143 189 223 274 343 406
#     4  11  23  42  63  97 141 181 229 283 337 415
#     4  12  26  47  71 102 146 183 224 287 355 403
#     4  12  24  39  62 101 138 183 234 266 323 421
#
# _framework density 19.938685
#
# number of rings (size 3 to 8) (size 9 to 14) (size 15 to 20)
#    0.000    0.571    5.714    1.286    6.000    2.857 
#    0.000    0.000    0.000    0.000    0.000    0.000 
#    0.000    0.000    0.000    0.000    0.000    0.000 
#
# Total GULP energy -78146.039819 kJ/mol
# GULP energy per Si atom -5581.859987 kJ/mol
# Density = 1.989330 g / cm^3
# Si number density = 19.938685 Si / 1000 Ang^3
#
#
#
# Elastic Constant Matrix: (Units=GPa)
#
#
# Indices 1 2 3 4 5 6 
#
# 1 150.0335 41.0392 64.7199 13.0720 -10.3552 -5.7111
# 2 41.0392 91.9204 34.5914 -0.6144 -10.2343 -4.6619
# 3 64.7199 34.5914 165.7609 20.4270 -15.0349 8.9663
# 4 13.0720 -0.6144 20.4270 40.6856 -2.3593 1.1026
# 5 -10.3552 -10.2343 -15.0349 -2.3593 44.1260 7.8318
# 6 -5.7111 -4.6619 8.9663 1.1026 7.8318 39.8200
#
#
#
# Elastic Compliance Matrix: (Units=1/GPa)
#
#
# Indices 1 2 3 4 5 6 
#
# 1 0.008822 -0.002825 -0.002739 -0.001537 0.000121 0.001570
# 2 -0.002825 0.013071 -0.001791 0.002070 0.001666 0.001143
# 3 -0.002739 -0.001791 0.008190 -0.003064 0.002060 -0.002767
# 4 -0.001537 0.002070 -0.003064 0.026676 0.000524 -0.000130
# 5 0.000121 0.001666 0.002060 0.000524 0.024717 -0.005127
# 6 0.001570 0.001143 -0.002767 -0.000130 -0.005127 0.027107
#
#
# Mechanical properties :
#
#
# Convention : Reuss Voigt Hill
#
# Bulk Modulus (GPa) = 65.04691 76.49065 70.76878
# Shear Modulus (GPa) = 38.93547 42.75062 40.84304
#
# Velocity S-wave (km/s) = 4.42380 4.63547 4.53087
# Velocity P-wave (km/s) = 7.66731 8.19124 7.93360
#
# Compressibility (1/GPa) = 0.01537352
#
# Stress axis : x y z
#
# Youngs Moduli (GPa) = 113.35840 76.50325 122.09807
#
# Poissons Ratio (x) = 0.21611 0.33447
# Poissons Ratio (y) = 0.32022 0.21862
# Poissons Ratio (z) = 0.31053 0.13698
#
# Static dielectric constant tensor:
#      x y z
#    x 1.703950 -0.006840 0.024300 
#    y -0.006840 1.762870 -0.032770 
#    z 0.024300 -0.032770 1.722710 
# 
# From -- ./inp_files/288420.got.cif
#   From: 2010.05.17/outbox.ucp.g08.bks.cvg/sg2_145_cif.got.tgz:288420.got - 2010.06.11 11:32:03.
