data_PCOD9075978
_publ_section_title
;
Structure prediction by ZEFSAII (Michael W. Deem and Ramdas Pophale) SiO2 
 PCOD9075978
Probable space group: P -1
;
_chemical_formula_sum "Si O2"
_cell_formula_units_Z 16
_cell_length_a 13.866286
_cell_length_b 19.109145
_cell_length_c 9.491634
_cell_angle_alpha 84.335353
_cell_angle_beta 71.807812
_cell_angle_gamma 22.750450
_cell_volume 792.028232
_symmetry_space_group_name_H-M "P -1"
_symmetry_group_IT_number 2
_symmetry_cell_setting 'triclinic'
loop_
_space_group_symop_operation_xyz
x,y,z
-x,-y,-z
loop_
_atom_site_type_symbol
_atom_site_label
_atom_site_fract_x
_atom_site_fract_y
_atom_site_fract_z
Si Si1 0.633465 0.201184 0.537811
Si Si2 0.810908 0.233596 0.515107
Si Si3 0.681533 0.699706 0.523777
Si Si4 0.693076 0.777581 0.219908
Si Si5 0.128602 0.689450 0.760524
Si Si6 0.587503 0.096227 0.111310
Si Si7 0.634571 0.672574 0.082700
Si Si8 0.275659 0.159136 0.200589
O O1 0.746228 0.205886 0.456980
O O2 0.391366 0.325829 0.517274
O O3 0.526219 0.269352 0.737477
O O4 0.926279 0.958024 0.457665
O O5 0.481282 0.465476 0.684315
O O6 0.914150 0.227654 0.364948
O O7 0.684377 0.754364 0.386273
O O8 0.424400 0.877912 0.724824
O O9 0.000000 0.500000 0.500000
O O10 0.642337 0.743528 0.145908
O O11 0.442945 0.001846 0.272320
O O12 0.034896 0.574751 0.057020
O O13 0.034436 0.675645 0.739183
O O14 0.894788 0.860866 0.957331
O O15 0.314104 0.216789 0.194819
O O16 0.519765 0.206690 0.019005
O O17 0.500000 0.000000 0.000000
#
# Coordination Sequence:
#
# PCOD9075978 Si02
#       8
#     2   2   2   2   2   2   2   2
#     4  10  22  38  61  87 112 154 209 246 285 340
#     4  10  21  38  63  85 110 156 209 253 274 334
#     4  11  23  37  58  89 129 154 189 241 310 356
#     4  10  19  33  54  85 117 157 185 235 290 355
#     4  10  20  36  58  89 114 150 204 247 295 334
#     4  11  21  37  57  90 125 156 184 245 308 357
#     4  10  18  32  58  81 116 149 201 238 286 341
#     4  10  20  33  59  90 118 149 194 246 297 348
#
# _framework density 20.2013
#
# number of rings (size 3 to 8) (size 9 to 14) (size 15 to 20)
#    0.000    1.750    5.000    0.750    5.250    0.500 
#    0.000    1.250    0.000    0.000    0.000    0.000 
#    0.000    0.000    0.000    0.000    0.000    0.000 
#
# Total GULP energy -89229.342877 kJ/mol
# GULP energy per Si atom -5576.833930 kJ/mol
# Density = 2.015532 g / cm^3
# Si number density = 20.201300 Si / 1000 Ang^3
#
#
#
# Elastic Constant Matrix: (Units=GPa)
#
#
# Indices 1 2 3 4 5 6 
#
# 1 71.9716 4.4358 26.1951 -7.8390 -10.1088 -1.3774
# 2 4.4358 76.3375 30.9222 0.4187 -1.2431 -6.0297
# 3 26.1951 30.9222 127.7124 1.3679 1.6550 -7.6522
# 4 -7.8390 0.4187 1.3679 40.2735 -1.3702 -6.5123
# 5 -10.1088 -1.2431 1.6550 -1.3702 23.0449 -0.0413
# 6 -1.3774 -6.0297 -7.6522 -6.5123 -0.0413 25.8229
#
#
#
# Elastic Compliance Matrix: (Units=1/GPa)
#
#
# Indices 1 2 3 4 5 6 
#
# 1 0.016730 0.000703 -0.003688 0.003793 0.007869 0.000933
# 2 0.000703 0.014732 -0.003582 0.000567 0.001399 0.002561
# 3 -0.003688 -0.003582 0.009591 -0.000835 -0.002547 0.001594
# 4 0.003793 0.000567 -0.000835 0.026814 0.003361 0.006855
# 5 0.007869 0.001399 -0.002547 0.003361 0.047305 0.000915
# 6 0.000933 0.002561 0.001594 0.006855 0.000915 0.041576
#
#
# Mechanical properties :
#
#
# Convention : Reuss Voigt Hill
#
# Bulk Modulus (GPa) = 35.81887 44.34750 40.08319
# Shear Modulus (GPa) = 27.90370 32.12614 30.01492
#
# Velocity S-wave (km/s) = 3.72059 3.99218 3.85878
# Velocity P-wave (km/s) = 6.01885 6.57651 6.30385
#
# Compressibility (1/GPa) = 0.02791825
#
# Stress axis : x y z
#
# Youngs Moduli (GPa) = 59.77428 67.88065 104.26078
#
# Poissons Ratio (x) = -0.04771 0.38455
# Poissons Ratio (y) = -0.04202 0.37344
# Poissons Ratio (z) = 0.22047 0.24314
#
# Static dielectric constant tensor:
#      x y z
#    x 2.022920 0.304240 -0.051830 
#    y 0.304240 2.088100 0.003350 
#    z -0.051830 0.003350 1.725500 
# 
# From -- ./inp_files/319356.got.cif
#   From: 2010.05.17/outbox.cif.g08.bks.cpg/sg2_160_cif.got.tgz:319356.got - 2010.06.03 11:33:40.
