data_PCOD9075295
_publ_section_title
;
Structure prediction by ZEFSAII (Michael W. Deem and Ramdas Pophale) SiO2 
 PCOD9075295
Probable space group: P -1
;
_chemical_formula_sum "Si O2"
_cell_formula_units_Z 16
_cell_length_a 27.000000
_cell_length_b 9.000000
_cell_length_c 27.000000
_cell_angle_alpha 140.000000
_cell_angle_beta 170.000000
_cell_angle_gamma 40.000000
_cell_volume 728.340053
_symmetry_space_group_name_H-M "P -1"
_symmetry_group_IT_number 2
_symmetry_cell_setting 'triclinic'
loop_
_space_group_symop_operation_xyz
x,y,z
-x,-y,-z
loop_
_atom_site_type_symbol
_atom_site_label
_atom_site_fract_x
_atom_site_fract_y
_atom_site_fract_z
Si Si1 0.464075 0.848915 0.736476
Si Si2 0.125317 0.196641 0.331138
Si Si3 0.633380 0.775648 0.603509
Si Si4 0.096572 0.726398 0.125902
Si Si5 0.732776 0.435568 0.283206
Si Si6 0.578455 0.230304 0.862990
Si Si7 0.254315 0.212532 0.695916
Si Si8 0.007441 0.523188 0.201781
O O1 0.149539 0.765331 0.402080
O O2 0.543209 0.016876 0.812216
O O3 0.441944 0.986190 0.801926
O O4 0.676884 0.611488 0.888551
O O5 0.435217 0.206708 0.662590
O O6 0.056703 0.375847 0.263582
O O7 0.132259 0.932068 0.251752
O O8 0.906669 0.243955 0.174277
O O9 0.378702 0.666567 0.354334
O O10 0.831433 0.620700 0.720677
O O11 0.500000 0.000000 0.500000
O O12 0.848003 0.836834 0.873127
O O13 0.000000 0.500000 0.000000
O O14 0.593641 0.542480 0.223521
O O15 0.844479 0.652022 0.417946
O O16 0.981837 0.224088 0.467138
O O17 0.466589 0.357859 0.971593
#
# Coordination Sequence:
#
# PCOD9075295 Si02
#       8
#     2   2   2   2   2   2   2   2
#     4  11  24  41  67 101 127 168 220 271 316 373
#     4  12  26  44  65  93 136 175 207 262 333 391
#     4  12  26  48  70  94 127 174 223 259 315 396
#     4  12  28  46  70  99 129 167 214 276 326 371
#     4   9  17  33  60  92 124 165 204 263 320 368
#     4  11  24  41  67  98 131 167 219 267 321 383
#     4   9  17  33  60  92 127 157 211 266 312 368
#     4  12  26  43  67  92 132 176 211 265 322 388
#
# _framework density 21.967760999999999
#
# number of rings (size 3 to 8) (size 9 to 14) (size 15 to 20)
#    0.000    1.000    1.250    5.250    7.000    4.000 
#    0.000    0.000    0.000   15.000    0.000    0.000 
#    0.000    0.000    0.000    0.000    0.000    0.000 
#
# Total GULP energy -89323.039280 kJ/mol
# GULP energy per Si atom -5582.689955 kJ/mol
# Density = 2.191776 g / cm^3
# Si number density = 21.967761 Si / 1000 Ang^3
#
#
#
# Elastic Constant Matrix: (Units=GPa)
#
#
# Indices 1 2 3 4 5 6 
#
# 1 97.1089 41.0618 8.6109 -0.3837 18.6326 -22.5510
# 2 41.0618 48.0124 0.6895 -18.1765 9.2884 -20.4625
# 3 8.6109 0.6895 68.2908 -8.3946 3.0271 -8.0573
# 4 -0.3837 -18.1765 -8.3946 33.4357 -2.7705 4.5670
# 5 18.6326 9.2884 3.0271 -2.7705 44.3999 3.1254
# 6 -22.5510 -20.4625 -8.0573 4.5670 3.1254 30.8683
#
#
#
# Elastic Compliance Matrix: (Units=1/GPa)
#
#
# Indices 1 2 3 4 5 6 
#
# 1 0.020774 -0.019825 -0.003274 -0.012289 -0.005363 0.003541
# 2 -0.019825 0.060506 0.008737 0.031228 -0.004658 0.023758
# 3 -0.003274 0.008737 0.016806 0.007874 -0.001586 0.006782
# 4 -0.012289 0.031228 0.007874 0.047864 0.000607 0.006635
# 5 -0.005363 -0.004658 -0.001586 0.000607 0.026612 -0.010204
# 6 0.003541 0.023758 0.006782 0.006635 -0.010204 0.052553
#
#
# Mechanical properties :
#
#
# Convention : Reuss Voigt Hill
#
# Bulk Modulus (GPa) = 14.41719 34.90406 24.66063
# Shear Modulus (GPa) = 18.05305 32.61078 25.33192
#
# Velocity S-wave (km/s) = 2.86981 3.85708 3.39948
# Velocity P-wave (km/s) = 4.19025 5.97991 5.16321
#
# Compressibility (1/GPa) = 0.06936164
#
# Stress axis : x y z
#
# Youngs Moduli (GPa) = 48.13761 16.52717 59.50155
#
# Poissons Ratio (x) = 0.32765 0.19483
# Poissons Ratio (y) = 0.95434 -0.51987
# Poissons Ratio (z) = 0.15762 -0.14440
#
# Static dielectric constant tensor:
#      x y z
#    x 1.818710 -0.017910 0.038430 
#    y -0.017910 1.888240 0.123510 
#    z 0.038430 0.123510 1.968280 
# 
# From -- ./inp_files/357994.got.cif
#   From: 2010.05.17/outbox.ucp.g08.bks.cvg/sg2_179_cif.got.tgz:357994.got - 2010.06.11 11:32:03.
