data_PCOD9075175
_publ_section_title
;
Structure prediction by ZEFSAII (Michael W. Deem and Ramdas Pophale) SiO2 
 PCOD9075175
Probable space group: P -1
;
_chemical_formula_sum "Si O2"
_cell_formula_units_Z 16
_cell_length_a 12.000000
_cell_length_b 9.000000
_cell_length_c 18.000000
_cell_angle_alpha 30.000000
_cell_angle_beta 130.000000
_cell_angle_gamma 130.000000
_cell_volume 725.531033
_symmetry_space_group_name_H-M "P -1"
_symmetry_group_IT_number 2
_symmetry_cell_setting 'triclinic'
loop_
_space_group_symop_operation_xyz
x,y,z
-x,-y,-z
loop_
_atom_site_type_symbol
_atom_site_label
_atom_site_fract_x
_atom_site_fract_y
_atom_site_fract_z
Si Si1 0.472563 0.260165 0.701814
Si Si2 0.594635 0.941606 0.403736
Si Si3 0.782972 0.709955 0.314140
Si Si4 0.341510 0.281584 0.166651
Si Si5 0.609442 0.842873 0.037074
Si Si6 0.841816 0.756142 0.046251
Si Si7 0.071362 0.727996 0.617270
Si Si8 0.094439 0.801083 0.346118
O O1 0.556037 0.597864 0.566020
O O2 0.444322 0.065840 0.698048
O O3 0.308648 0.239510 0.674347
O O4 0.573596 0.149689 0.855447
O O5 0.471655 0.102192 0.315513
O O6 0.765621 0.114041 0.414572
O O7 0.685625 0.795772 0.167895
O O8 0.808403 0.369031 0.485727
O O9 0.953665 0.874820 0.297457
O O10 0.442764 0.623404 0.063860
O O11 0.201833 0.113127 0.229459
O O12 0.263580 0.240762 0.070453
O O13 0.733031 0.779452 0.058959
O O14 0.893688 0.447256 0.218475
O O15 0.000000 0.000000 0.000000
O O16 0.974890 0.459507 0.636185
O O17 0.000000 0.000000 0.500000
#
# Coordination Sequence:
#
# PCOD9075175 Si02
#       8
#     2   2   2   2   2   2   2   2
#     4  11  24  41  70  99 133 169 219 286 323 389
#     4  11  23  42  71 101 131 167 228 275 338 383
#     4  11  23  45  66  91 135 184 217 265 334 397
#     4  12  22  44  70 100 128 176 222 280 327 391
#     4  12  24  42  68  98 134 172 229 268 329 395
#     4  12  23  40  67  99 138 171 210 275 340 391
#     4  12  25  42  66 105 133 171 217 278 334 395
#     4  11  24  44  67  93 137 177 220 269 332 399
#
# _framework density 22.052813
#
# number of rings (size 3 to 8) (size 9 to 14) (size 15 to 20)
#    0.000    0.500    6.250    2.250    3.500    0.500 
#    4.500    0.625    0.000    0.000    0.000    0.000 
#    0.000    0.000    0.000    0.000    0.000    0.000 
#
# Total GULP energy -89271.116063 kJ/mol
# GULP energy per Si atom -5579.444754 kJ/mol
# Density = 2.200262 g / cm^3
# Si number density = 22.052813 Si / 1000 Ang^3
#
#
#
# Elastic Constant Matrix: (Units=GPa)
#
#
# Indices 1 2 3 4 5 6 
#
# 1 137.2107 14.1386 24.9478 -8.7894 -11.1580 33.3614
# 2 14.1386 37.0430 30.6820 3.2679 -2.8474 23.5879
# 3 24.9478 30.6820 104.6717 8.7514 -4.3260 20.4688
# 4 -8.7894 3.2679 8.7514 31.5612 7.2578 -8.0786
# 5 -11.1580 -2.8474 -4.3260 7.2578 44.2306 1.7444
# 6 33.3614 23.5879 20.4688 -8.0786 1.7444 28.0701
#
#
#
# Elastic Compliance Matrix: (Units=1/GPa)
#
#
# Indices 1 2 3 4 5 6 
#
# 1 0.014008 0.018846 -0.001121 -0.008262 0.007354 -0.034502
# 2 0.018846 0.108584 -0.008632 -0.039417 0.022103 -0.120068
# 3 -0.001121 -0.008632 0.013157 -0.003901 0.001175 -0.002203
# 4 -0.008262 -0.039417 -0.003901 0.054291 -0.016374 0.062429
# 5 0.007354 0.022103 0.001175 -0.016374 0.030059 -0.034751
# 6 -0.034502 -0.120068 -0.002203 0.062429 -0.034751 0.199260
#
#
# Mechanical properties :
#
#
# Convention : Reuss Voigt Hill
#
# Bulk Modulus (GPa) = 6.49626 46.49580 26.49603
# Shear Modulus (GPa) = 11.05010 34.71619 22.88314
#
# Velocity S-wave (km/s) = 2.24090 3.97196 3.22476
# Velocity P-wave (km/s) = 3.10607 6.49345 5.08982
#
# Compressibility (1/GPa) = 0.15393473
#
# Stress axis : x y z
#
# Youngs Moduli (GPa) = 71.38994 9.20943 76.00627
#
# Poissons Ratio (x) = -0.17357 0.08523
# Poissons Ratio (y) = -1.34545 0.65610
# Poissons Ratio (z) = 0.08005 0.07950
#
# Static dielectric constant tensor:
#      x y z
#    x 1.857840 -0.044190 -0.008090 
#    y -0.044190 1.852330 -0.033700 
#    z -0.008090 -0.033700 1.849040 
# 
# From -- ./inp_files/448254.got.cif
#   From: 2010.05.17/outbox.ucp.g08.bks.cvg/sg2_225_cif.got.tgz:448254.got - 2010.06.11 11:32:03.
