data_PCOD9075653
_publ_section_title
;
Structure prediction by ZEFSAII (Michael W. Deem and Ramdas Pophale) SiO2 
 PCOD9075653
Probable space group: P -1
;
_chemical_formula_sum "Si O2"
_cell_formula_units_Z 14
_cell_length_a 27.000000
_cell_length_b 30.000000
_cell_length_c 9.000000
_cell_angle_alpha 150.000000
_cell_angle_beta 150.000000
_cell_angle_gamma 10.000000
_cell_volume 625.638279
_symmetry_space_group_name_H-M "P -1"
_symmetry_group_IT_number 2
_symmetry_cell_setting 'triclinic'
loop_
_space_group_symop_operation_xyz
x,y,z
-x,-y,-z
loop_
_atom_site_type_symbol
_atom_site_label
_atom_site_fract_x
_atom_site_fract_y
_atom_site_fract_z
Si Si1 0.630446 0.139666 0.158012
Si Si2 0.652495 0.167986 0.763027
Si Si3 0.287745 0.379594 0.680538
Si Si4 0.805768 0.426160 0.517074
Si Si5 0.697204 0.909897 0.824251
Si Si6 0.785298 0.762218 0.956807
Si Si7 0.159438 0.820881 0.544192
O O1 0.375620 0.421423 0.360087
O O2 0.536040 0.171578 0.851719
O O3 0.935231 0.932523 0.334668
O O4 0.582118 0.105871 0.062645
O O5 0.427816 0.311961 0.711182
O O6 0.445443 0.373954 0.683057
O O7 0.808809 0.124125 0.102377
O O8 0.922126 0.870113 0.601162
O O9 0.158973 0.389741 0.349039
O O10 0.004995 0.662683 0.831067
O O11 0.967842 0.381093 0.756994
O O12 0.730468 0.849858 0.905082
O O13 0.500000 0.000000 0.500000
O O14 0.500000 0.000000 0.000000
O O15 0.500000 0.500000 0.500000
O O16 0.000000 0.000000 0.500000
#
# Coordination Sequence:
#
# PCOD9075653 Si02
#       7
#     2   2   2   2   2   2   2
#     4  12  27  48  76 105 152 196 250 316 374 445
#     4  12  28  49  76 110 152 194 255 308 373 447
#     4  12  25  44  73 107 148 199 251 312 368 451
#     4  12  28  49  71 112 155 198 246 308 382 443
#     4  12  25  44  72 108 149 197 253 308 372 449
#     4  12  25  45  70 110 152 200 248 307 379 444
#     4  12  27  49  82 116 145 195 255 312 376 442
#
# _framework density 22.377147000000001
#
# number of rings (size 3 to 8) (size 9 to 14) (size 15 to 20)
#    0.000    0.000    5.714    3.857    4.000    1.714 
#    0.000    0.000    0.000    0.000    0.000    0.000 
#    0.000    0.000    0.000    0.000    0.000    0.000 
#
# Total GULP energy -78107.358937 kJ/mol
# GULP energy per Si atom -5579.097067 kJ/mol
# Density = 2.232622 g / cm^3
# Si number density = 22.377147 Si / 1000 Ang^3
#
#
#
# Elastic Constant Matrix: (Units=GPa)
#
#
# Indices 1 2 3 4 5 6 
#
# 1 11.0046 -4.0652 -36.2981 18.2476 11.1520 -10.5945
# 2 -4.0652 143.0513 21.9828 -3.8996 1.1832 -23.7895
# 3 -36.2981 21.9828 87.8730 -23.9524 21.6848 -7.1222
# 4 18.2476 -3.8996 -23.9524 47.2762 -3.2368 -3.6920
# 5 11.1520 1.1832 21.6848 -3.2368 40.8080 -13.2810
# 6 -10.5945 -23.7895 -7.1222 -3.6920 -13.2810 43.3349
#
#
#
# Elastic Compliance Matrix: (Units=1/GPa)
#
#
# Indices 1 2 3 4 5 6 
#
# 1 -0.056709 0.001517 -0.029316 0.008505 0.029028 -0.008229
# 2 0.001517 0.008088 -0.001459 -0.000137 0.001776 0.005104
# 3 -0.029316 -0.001459 0.000684 0.011661 0.007089 -0.004690
# 4 0.008505 -0.000137 0.011661 0.023748 -0.005219 0.004344
# 5 0.029028 0.001776 0.007089 -0.005219 0.016886 0.013967
# 6 -0.008229 0.005104 -0.004690 0.004344 0.013967 0.027746
#
#
# Mechanical properties :
#
#
# Convention : Reuss Voigt Hill
#
# Bulk Modulus (GPa) = -9.39384 22.79643 6.70130
# Shear Modulus (GPa) = 115.00572 43.63780 79.32176
#
# Velocity S-wave (km/s) = 7.17676 4.42079 5.96025
# Velocity P-wave (km/s) = 8.02916 6.02224 7.09700
#
# Compressibility (1/GPa) = -0.10645279
#
# Stress axis : x y z
#
# Youngs Moduli (GPa) = -17.63403 123.63770 1461.38296
#
# Poissons Ratio (x) = -0.18754 42.84233
# Poissons Ratio (y) = 0.02675 2.13202
# Poissons Ratio (z) = -0.51696 0.18038
#
# Static dielectric constant tensor:
#      x y z
#    x 1.820340 -0.008460 -0.131590 
#    y -0.008460 1.803380 0.098560 
#    z -0.131590 0.098560 2.007950 
# 
# From -- ./inp_files/40362.got.cif
#   From: 2010.05.17/outbox.ucp.g08.bks.cvg/sg2_21_cif.got.tgz:40362.got - 2010.06.11 11:32:03.
