data_PCOD9075530
_publ_section_title
;
Structure prediction by ZEFSAII (Michael W. Deem and Ramdas Pophale) SiO2 
 PCOD9075530
Probable space group: P -1
;
_chemical_formula_sum "Si O2"
_cell_formula_units_Z 10
_cell_length_a 6.000000
_cell_length_b 15.000000
_cell_length_c 6.000000
_cell_angle_alpha 120.000000
_cell_angle_beta 80.000000
_cell_angle_gamma 120.000000
_cell_volume 402.895878
_symmetry_space_group_name_H-M "P -1"
_symmetry_group_IT_number 2
_symmetry_cell_setting 'triclinic'
loop_
_space_group_symop_operation_xyz
x,y,z
-x,-y,-z
loop_
_atom_site_type_symbol
_atom_site_label
_atom_site_fract_x
_atom_site_fract_y
_atom_site_fract_z
Si Si1 0.255544 0.026458 0.629574
Si Si2 0.261390 0.255098 0.983187
Si Si3 0.785769 0.444913 0.271176
Si Si4 0.005562 0.323922 0.739934
Si Si5 0.764905 0.117914 0.185247
O O1 0.365324 0.161732 0.834639
O O2 0.500000 0.000000 0.500000
O O3 0.120027 0.944756 0.759837
O O4 0.000000 0.000000 0.500000
O O5 0.201255 0.290985 0.796958
O O6 0.474775 0.358517 0.229693
O O7 0.969362 0.187362 0.046297
O O8 0.822093 0.560555 0.286666
O O9 0.000000 0.500000 0.500000
O O10 0.876547 0.370777 0.003729
O O11 0.796341 0.222795 0.481938
O O12 0.500000 0.000000 0.000000
#
# Coordination Sequence:
#
# PCOD9075530 Si02
#       5
#     2   2   2   2   2
#     4  12  26  51  81 117 166 220 270 337 418 491
#     4  12  27  48  78 113 159 214 270 337 408 490
#     4  11  27  50  82 113 154 212 275 342 406 486
#     4  11  26  51  77 112 161 209 269 337 411 478
#     4  12  28  48  81 119 163 213 273 334 410 496
#
# _framework density 24.820309000000002
#
# number of rings (size 3 to 8) (size 9 to 14) (size 15 to 20)
#    0.000    0.400    2.000    4.800    5.600    6.400 
#    0.000    0.000    0.000    0.000    0.000    0.000 
#    0.000    0.000    0.000    0.000    0.000    0.000 
#
# Total GULP energy -55714.857027 kJ/mol
# GULP energy per Si atom -5571.485703 kJ/mol
# Density = 2.476382 g / cm^3
# Si number density = 24.820309 Si / 1000 Ang^3
#
#
#
# Elastic Constant Matrix: (Units=GPa)
#
#
# Indices 1 2 3 4 5 6 
#
# 1 103.7130 58.7948 56.3610 8.8882 15.9221 13.2565
# 2 58.7948 175.1076 58.2793 29.9209 18.2868 -6.8053
# 3 56.3610 58.2793 177.9438 45.1671 7.9781 13.5801
# 4 8.8882 29.9209 45.1671 46.3867 4.8934 19.6395
# 5 15.9221 18.2868 7.9781 4.8934 67.4835 12.5611
# 6 13.2565 -6.8053 13.5801 19.6395 12.5611 63.4532
#
#
#
# Elastic Compliance Matrix: (Units=1/GPa)
#
#
# Indices 1 2 3 4 5 6 
#
# 1 0.014923 -0.004666 -0.004448 0.006491 -0.001382 -0.004401
# 2 -0.004666 0.008684 -0.000018 -0.006289 -0.001570 0.004167
# 3 -0.004448 -0.000018 0.009112 -0.008726 0.000309 0.001617
# 4 0.006491 -0.006289 -0.008726 0.037886 0.000696 -0.012027
# 5 -0.001382 -0.001570 0.000309 0.000696 0.016106 -0.003349
# 6 -0.004401 0.004167 0.001617 -0.012027 -0.003349 0.021166
#
#
# Mechanical properties :
#
#
# Convention : Reuss Voigt Hill
#
# Bulk Modulus (GPa) = 69.17800 89.29274 79.23537
# Shear Modulus (GPa) = 38.18013 54.35331 46.26672
#
# Velocity S-wave (km/s) = 3.92632 4.68468 4.32217
# Velocity P-wave (km/s) = 6.96324 8.08180 7.54328
#
# Compressibility (1/GPa) = 0.01445546
#
# Stress axis : x y z
#
# Youngs Moduli (GPa) = 67.01126 115.15766 109.74515
#
# Poissons Ratio (x) = 0.53732 0.48816
# Poissons Ratio (y) = 0.31267 0.00192
# Poissons Ratio (z) = 0.29807 0.00202
#
# Static dielectric constant tensor:
#      x y z
#    x 1.977070 0.022950 -0.040950 
#    y 0.022950 2.042200 -0.003470 
#    z -0.040950 -0.003470 2.248130 
# 
# From -- ./inp_files/4743.got.cif
#   From: 2010.05.17/outbox.ucp.g08.bks.cvg/sg2_3_cif.got.tgz:4743.got - 2010.06.11 11:32:03.
