data_PCOD9075265
_publ_section_title
;
Structure prediction by ZEFSAII (Michael W. Deem and Ramdas Pophale) SiO2 
 PCOD9075265
Probable space group: P -1
;
_chemical_formula_sum "Si O2"
_cell_formula_units_Z 16
_cell_length_a 12.000000
_cell_length_b 9.000000
_cell_length_c 15.000000
_cell_angle_alpha 70.000000
_cell_angle_beta 30.000000
_cell_angle_gamma 70.000000
_cell_volume 757.522634
_symmetry_space_group_name_H-M "P -1"
_symmetry_group_IT_number 2
_symmetry_cell_setting 'triclinic'
loop_
_space_group_symop_operation_xyz
x,y,z
-x,-y,-z
loop_
_atom_site_type_symbol
_atom_site_label
_atom_site_fract_x
_atom_site_fract_y
_atom_site_fract_z
Si Si1 0.968424 0.817412 0.358051
Si Si2 0.887831 0.280544 0.993935
Si Si3 0.077250 0.184123 0.404584
Si Si4 0.459628 0.321495 0.400960
Si Si5 0.677107 0.142556 0.449283
Si Si6 0.124841 0.566688 0.663968
Si Si7 0.572133 0.072430 0.029379
Si Si8 0.735730 0.928630 0.119843
O O1 0.975495 0.768187 0.466854
O O2 0.776169 0.721002 0.468703
O O3 0.864096 0.996432 0.368122
O O4 0.225580 0.816230 0.147930
O O5 0.656606 0.345586 0.189586
O O6 0.823257 0.107464 0.033834
O O7 0.985253 0.422929 0.835280
O O8 0.075474 0.209547 0.950582
O O9 0.344483 0.161613 0.208339
O O10 0.978296 0.317970 0.372003
O O11 0.000000 0.000000 0.500000
O O12 0.559130 0.179832 0.427481
O O13 0.366102 0.477857 0.487019
O O14 0.806756 0.299136 0.342978
O O15 0.477965 0.102325 0.663565
O O16 0.656928 0.935658 0.070251
O O17 0.500000 0.000000 0.000000
#
# Coordination Sequence:
#
# PCOD9075265 Si02
#       8
#     2   2   2   2   2   2   2   2
#     4  12  25  45  75 103 137 193 242 284 351 435
#     4  11  25  46  73 109 146 185 235 297 356 425
#     4  12  24  49  70 101 145 188 239 299 353 417
#     4  12  26  45  72 108 144 187 234 293 363 423
#     4  12  23  47  76 102 150 186 230 300 355 425
#     4  12  27  46  71 106 147 186 235 302 362 410
#     4  12  23  40  72 106 132 182 245 289 336 419
#     4  11  23  45  76 105 145 190 236 290 357 424
#
# _framework density 21.121480999999999
#
# number of rings (size 3 to 8) (size 9 to 14) (size 15 to 20)
#    0.000    0.250    6.250    2.250    1.750    2.000 
#    4.500    4.375    0.000    0.000    0.000    0.000 
#    0.000    0.000    0.000    0.000    0.000    0.000 
#
# Total GULP energy -89241.077326 kJ/mol
# GULP energy per Si atom -5577.567333 kJ/mol
# Density = 2.107341 g / cm^3
# Si number density = 21.121481 Si / 1000 Ang^3
#
#
#
# Elastic Constant Matrix: (Units=GPa)
#
#
# Indices 1 2 3 4 5 6 
#
# 1 129.5510 5.8075 31.5848 -18.7681 10.7201 -30.9687
# 2 5.8075 77.0487 16.3471 -16.8419 0.1234 -23.1779
# 3 31.5848 16.3471 181.7680 -8.5391 -3.0930 -18.5115
# 4 -18.7681 -16.8419 -8.5391 42.8512 -9.9556 -1.0462
# 5 10.7201 0.1234 -3.0930 -9.9556 40.1733 -5.6742
# 6 -30.9687 -23.1779 -18.5115 -1.0462 -5.6742 41.3718
#
#
#
# Elastic Compliance Matrix: (Units=1/GPa)
#
#
# Indices 1 2 3 4 5 6 
#
# 1 0.011166 0.003858 -0.000938 0.006468 -0.000011 0.010262
# 2 0.003858 0.019325 -0.000410 0.010356 0.003461 0.014268
# 3 -0.000938 -0.000410 0.005963 0.000946 0.001217 0.001927
# 4 0.006468 0.010356 0.000946 0.032662 0.008249 0.013024
# 5 -0.000011 0.003461 0.001217 0.008249 0.027943 0.006516
# 6 0.010262 0.014268 0.001927 0.013024 0.006516 0.041931
#
#
# Mechanical properties :
#
#
# Convention : Reuss Voigt Hill
#
# Bulk Modulus (GPa) = 24.11196 55.09405 39.60300
# Shear Modulus (GPa) = 33.83067 47.18780 40.50924
#
# Velocity S-wave (km/s) = 4.00649 4.73177 4.38415
# Velocity P-wave (km/s) = 5.73090 7.48290 6.66472
#
# Compressibility (1/GPa) = 0.04147320
#
# Stress axis : x y z
#
# Youngs Moduli (GPa) = 89.55963 51.74603 167.70541
#
# Poissons Ratio (x) = -0.19965 0.15739
# Poissons Ratio (y) = -0.34554 0.06875
# Poissons Ratio (z) = 0.08405 0.02121
#
# Static dielectric constant tensor:
#      x y z
#    x 1.835460 0.073620 0.017970 
#    y 0.073620 1.804180 0.024190 
#    z 0.017970 0.024190 1.766400 
# 
# From -- ./inp_files/515283.got.cif
#   From: 2010.05.17/outbox.ucp.g08.bks.cvg/sg2_258_cif.got.tgz:515283.got - 2010.06.11 11:32:03.
