data_PCOD9075155
_publ_section_title
;
Structure prediction by ZEFSAII (Michael W. Deem and Ramdas Pophale) SiO2 
 PCOD9075155
Probable space group: P -1
;
_chemical_formula_sum "Si O2"
_cell_formula_units_Z 14
_cell_length_a 12.000000
_cell_length_b 9.000000
_cell_length_c 21.000000
_cell_angle_alpha 140.000000
_cell_angle_beta 30.000000
_cell_angle_gamma 120.000000
_cell_volume 627.666119
_symmetry_space_group_name_H-M "P -1"
_symmetry_group_IT_number 2
_symmetry_cell_setting 'triclinic'
loop_
_space_group_symop_operation_xyz
x,y,z
-x,-y,-z
loop_
_atom_site_type_symbol
_atom_site_label
_atom_site_fract_x
_atom_site_fract_y
_atom_site_fract_z
Si Si1 0.863668 0.321213 0.021631
Si Si2 0.630008 0.287364 0.526661
Si Si3 0.975971 0.559319 0.441659
Si Si4 0.635498 0.187750 0.352687
Si Si5 0.986537 0.999889 0.654020
Si Si6 0.703632 0.992533 0.610048
Si Si7 0.526563 0.379054 0.083239
O O1 0.630986 0.495585 0.241052
O O2 0.716898 0.305797 0.025851
O O3 0.057942 0.031394 0.862451
O O4 0.000000 0.500000 0.000000
O O5 0.806108 0.421354 0.471889
O O6 0.561489 0.197418 0.466231
O O7 0.806605 0.050996 0.410108
O O8 0.836457 0.813182 0.546224
O O9 0.003541 0.715050 0.540029
O O10 0.275704 0.353331 0.209815
O O11 0.500000 0.500000 0.500000
O O12 0.518342 0.057481 0.322277
O O13 0.076193 0.099665 0.582637
O O14 0.699466 0.200503 0.882248
O O15 0.584853 0.309944 0.776638
#
# Coordination Sequence:
#
# PCOD9075155 Si02
#       7
#     2   2   2   2   2   2   2
#     4  12  25  45  72 102 137 181 235 284 336 411
#     4  12  25  44  72 100 136 181 225 288 343 404
#     4  11  25  45  65 102 145 173 226 290 345 402
#     4  12  26  46  68 103 141 180 226 287 352 401
#     4  11  23  41  72 100 130 184 230 277 341 407
#     4  11  24  45  67  98 146 175 226 290 337 413
#     4  11  23  42  72 101 131 181 235 284 332 409
#
# _framework density 22.304852
#
# number of rings (size 3 to 8) (size 9 to 14) (size 15 to 20)
#    0.000    0.571    7.143    2.143    2.000    5.714 
#    2.571    0.000    0.000    0.000    0.000    0.000 
#    0.000    0.000    0.000    0.000    0.000    0.000 
#
# Total GULP energy -78171.642449 kJ/mol
# GULP energy per Si atom -5583.688746 kJ/mol
# Density = 2.225409 g / cm^3
# Si number density = 22.304852 Si / 1000 Ang^3
#
#
#
# Elastic Constant Matrix: (Units=GPa)
#
#
# Indices 1 2 3 4 5 6 
#
# 1 53.3718 0.0162 -14.7513 16.8935 -38.9880 -19.8475
# 2 0.0162 54.8120 8.4755 -7.0421 -26.8515 12.3185
# 3 -14.7513 8.4755 154.6856 -11.6601 -18.4828 -3.7460
# 4 16.8935 -7.0421 -11.6601 10.1636 3.6743 -2.7940
# 5 -38.9880 -26.8515 -18.4828 3.6743 32.8648 -13.9201
# 6 -19.8475 12.3185 -3.7460 -2.7940 -13.9201 0.1708
#
#
#
# Elastic Compliance Matrix: (Units=1/GPa)
#
#
# Indices 1 2 3 4 5 6 
#
# 1 0.008469 0.005969 -0.002567 -0.023893 -0.001827 -0.042446
# 2 0.005969 0.037088 0.000524 -0.001262 0.024023 -0.032571
# 3 -0.002567 0.000524 0.007091 0.012697 -0.000342 -0.000692
# 4 -0.023893 -0.001262 0.012697 0.177667 -0.005053 0.087461
# 5 -0.001827 0.024023 -0.000342 -0.005053 0.024275 -0.056627
# 6 -0.042446 -0.032571 -0.000692 0.087461 -0.056627 0.072026
#
#
# Mechanical properties :
#
#
# Convention : Reuss Voigt Hill
#
# Bulk Modulus (GPa) = 16.52920 27.81669 22.17294
# Shear Modulus (GPa) = 14.75228 26.58177 20.66702
#
# Velocity S-wave (km/s) = 2.57455 3.45592 3.04726
# Velocity P-wave (km/s) = 4.03291 5.33129 4.72690
#
# Compressibility (1/GPa) = 0.06049900
#
# Stress axis : x y z
#
# Youngs Moduli (GPa) = 118.08106 26.96306 141.02909
#
# Poissons Ratio (x) = -0.16094 0.36198
# Poissons Ratio (y) = -0.70482 -0.07385
# Poissons Ratio (z) = 0.30308 -0.01412
#
# Static dielectric constant tensor:
#      x y z
#    x 1.834040 -0.023640 0.051700 
#    y -0.023640 1.853320 -0.013730 
#    z 0.051700 -0.013730 1.913790 
# 
# From -- ./inp_files/242248.got.cif
#   From: 2010.05.17/outbox.ucp.g08.bks.cvg/sg2_122_cif.got.tgz:242248.got - 2010.06.11 11:32:03.
