data_PCOD9075943
_publ_section_title
;
Structure prediction by ZEFSAII (Michael W. Deem and Ramdas Pophale) SiO2 
 PCOD9075943
Probable space group: P -1
;
_chemical_formula_sum "Si O2"
_cell_formula_units_Z 16
_cell_length_a 18.410173
_cell_length_b 8.769182
_cell_length_c 9.456833
_cell_angle_alpha 75.690295
_cell_angle_beta 134.414894
_cell_angle_gamma 78.792833
_cell_volume 895.592311
_symmetry_space_group_name_H-M "P -1"
_symmetry_group_IT_number 2
_symmetry_cell_setting 'triclinic'
loop_
_space_group_symop_operation_xyz
x,y,z
-x,-y,-z
loop_
_atom_site_type_symbol
_atom_site_label
_atom_site_fract_x
_atom_site_fract_y
_atom_site_fract_z
Si Si1 0.178328 0.737111 0.365333
Si Si2 0.180041 0.175247 0.881144
Si Si3 0.826145 0.600446 0.928816
Si Si4 0.985374 0.765578 0.606553
Si Si5 0.356790 0.492258 0.430051
Si Si6 0.915619 0.852309 0.956906
Si Si7 0.829482 0.193574 0.342968
Si Si8 0.636317 0.236619 0.853224
O O1 0.291595 0.588142 0.465070
O O2 0.194146 0.710619 0.560336
O O3 0.057631 0.744628 0.152310
O O4 0.148070 0.943466 0.240112
O O5 0.099397 0.258541 0.613032
O O6 0.106272 0.130208 0.905932
O O7 0.202241 0.314289 0.969411
O O8 0.298281 0.979674 0.049690
O O9 0.719801 0.584851 0.726447
O O10 0.855388 0.738031 0.855251
O O11 0.947008 0.399742 0.153328
O O12 0.089427 0.764253 0.656970
O O13 0.906447 0.969710 0.518708
O O14 0.496009 0.334858 0.670015
O O15 0.349039 0.650737 0.280548
O O16 0.710006 0.245823 0.083567
#
# Coordination Sequence:
#
# PCOD9075943 Si02
#       8
#     2   2   2   2   2   2   2   2
#     4  11  21  37  55  83 117 151 173 228 281 341
#     4   9  18  36  53  81 112 138 179 229 275 326
#     4  10  20  34  56  88 110 143 180 237 276 325
#     4  10  18  32  57  87 112 141 182 228 281 332
#     4  11  22  35  59  80 112 146 195 228 263 327
#     4   9  21  33  55  82 116 140 176 221 292 330
#     4  10  20  33  59  81 113 147 183 225 279 327
#     4  10  21  39  56  81 105 154 196 224 261 329
#
# _framework density 17.865271
#
# number of rings (size 3 to 8) (size 9 to 14) (size 15 to 20)
#    0.750    1.250    3.750    0.375    3.500    1.500 
#    0.000    0.000    0.000    0.750    0.000    0.000 
#    0.000    0.000    0.000    0.000    0.000    0.000 
#
# Total GULP energy -89236.670239 kJ/mol
# GULP energy per Si atom -5577.291890 kJ/mol
# Density = 1.782461 g / cm^3
# Si number density = 17.865271 Si / 1000 Ang^3
#
#
#
# Elastic Constant Matrix: (Units=GPa)
#
#
# Indices 1 2 3 4 5 6 
#
# 1 66.7024 32.4760 31.1946 1.8655 22.2913 -16.8685
# 2 32.4760 69.3273 43.4954 8.9046 14.3318 -7.9920
# 3 31.1946 43.4954 94.7880 -0.7237 29.3859 -7.7932
# 4 1.8655 8.9046 -0.7237 21.6652 -7.4877 -0.9818
# 5 22.2913 14.3318 29.3859 -7.4877 19.1455 -1.0768
# 6 -16.8685 -7.9920 -7.7932 -0.9818 -1.0768 21.7958
#
#
#
# Elastic Compliance Matrix: (Units=1/GPa)
#
#
# Indices 1 2 3 4 5 6 
#
# 1 0.050970 -0.008337 0.017720 -0.029753 -0.089861 0.036947
# 2 -0.008337 0.024936 -0.009412 -0.009267 0.001805 -0.001002
# 3 0.017720 -0.009412 0.031668 -0.019627 -0.068897 0.017299
# 4 -0.029753 -0.009267 -0.019627 0.086808 0.104283 -0.024380
# 5 -0.089861 0.001805 -0.068897 0.104283 0.297871 -0.074106
# 6 0.036947 -0.001002 0.017299 -0.024380 -0.074106 0.075533
#
#
# Mechanical properties :
#
#
# Convention : Reuss Voigt Hill
#
# Bulk Modulus (GPa) = 9.30075 49.46110 29.38092
# Shear Modulus (GPa) = 8.28249 20.76475 14.52362
#
# Velocity S-wave (km/s) = 2.15549 3.41295 2.85433
# Velocity P-wave (km/s) = 3.37820 6.57850 5.22919
#
# Compressibility (1/GPa) = 0.10751818
#
# Stress axis : x y z
#
# Youngs Moduli (GPa) = 19.61935 40.10274 31.57717
#
# Poissons Ratio (x) = 0.33433 -0.55956
# Poissons Ratio (y) = 0.16356 0.29719
# Poissons Ratio (z) = -0.34766 0.37743
#
# Static dielectric constant tensor:
#      x y z
#    x 1.603780 -0.000070 -0.022140 
#    y -0.000070 1.622360 0.005560 
#    z -0.022140 0.005560 1.586460 
# 
# From -- ./inp_files/276958.got.cif
#   From: 2010.05.17/outbox.cif.g08.bks.cpg/sg2_139_cif.got.tgz:276958.got - 2010.06.03 11:33:40.
