data_PCOD9075987
_publ_section_title
;
Structure prediction by ZEFSAII (Michael W. Deem and Ramdas Pophale) SiO2 
 PCOD9075987
Probable space group: P -1
;
_chemical_formula_sum "Si O2"
_cell_formula_units_Z 16
_cell_length_a 14.568138
_cell_length_b 14.362802
_cell_length_c 9.466565
_cell_angle_alpha 46.668476
_cell_angle_beta 132.633807
_cell_angle_gamma 139.289341
_cell_volume 886.702834
_symmetry_space_group_name_H-M "P -1"
_symmetry_group_IT_number 2
_symmetry_cell_setting 'triclinic'
loop_
_space_group_symop_operation_xyz
x,y,z
-x,-y,-z
loop_
_atom_site_type_symbol
_atom_site_label
_atom_site_fract_x
_atom_site_fract_y
_atom_site_fract_z
Si Si1 0.637033 0.927408 0.446024
Si Si2 0.872521 0.158733 0.950315
Si Si3 0.365152 0.133182 0.821279
Si Si4 0.094694 0.457836 0.048079
Si Si5 0.666305 0.244402 0.182535
Si Si6 0.616892 0.166793 0.513792
Si Si7 0.932500 0.954942 0.708931
Si Si8 0.159777 0.237410 0.481034
O O1 0.606177 0.881852 0.296641
O O2 0.484709 0.822889 0.484157
O O3 0.777783 0.919462 0.647050
O O4 0.688195 0.104037 0.331326
O O5 0.756405 0.167863 0.721156
O O6 0.983765 0.321406 0.968660
O O7 0.970647 0.096766 0.053045
O O8 0.772115 0.032335 0.097041
O O9 0.311562 0.249027 0.663748
O O10 0.505001 0.181033 0.013807
O O11 0.167228 0.390158 0.294529
O O12 0.215252 0.605661 0.933880
O O13 0.000000 0.500000 0.000000
O O14 0.667497 0.275966 0.317583
O O15 0.500000 0.000000 0.500000
O O16 0.889651 0.858310 0.618217
O O17 0.037947 0.130507 0.583567
#
# Coordination Sequence:
#
# PCOD9075987 Si02
#       8
#     2   2   2   2   2   2   2   2
#     4  10  18  32  58  84 106 136 190 232 260 311
#     4  10  19  36  58  80 110 147 177 222 280 315
#     4  10  18  33  62  81 102 141 189 228 267 309
#     4  11  22  33  55  83 115 137 179 225 275 324
#     4  11  22  34  52  82 115 143 175 224 273 323
#     4  10  21  36  54  79 112 144 185 221 267 322
#     4   8  15  30  55  81 106 134 182 229 267 311
#     4   8  16  31  50  81 110 137 172 228 278 315
#
# _framework density 18.044374999999999
#
# number of rings (size 3 to 8) (size 9 to 14) (size 15 to 20)
#    0.000    2.250    2.500    4.125    1.750    1.000 
#    0.000    2.500    2.750    6.750    0.000    0.000 
#    0.000    0.000    0.000    0.000    0.000    0.000 
#
# Total GULP energy -89175.793400 kJ/mol
# GULP energy per Si atom -5573.487087 kJ/mol
# Density = 1.800331 g / cm^3
# Si number density = 18.044375 Si / 1000 Ang^3
#
#
#
# Elastic Constant Matrix: (Units=GPa)
#
#
# Indices 1 2 3 4 5 6 
#
# 1 92.6904 16.0134 81.5878 -8.3843 30.7839 13.6406
# 2 16.0134 46.1135 35.7435 -12.4429 17.4671 9.6175
# 3 81.5878 35.7435 77.7896 -1.1270 13.4456 10.9294
# 4 -8.3843 -12.4429 -1.1270 33.5908 7.6193 1.2205
# 5 30.7839 17.4671 13.4456 7.6193 24.4654 3.9640
# 6 13.6406 9.6175 10.9294 1.2205 3.9640 19.5120
#
#
#
# Elastic Compliance Matrix: (Units=1/GPa)
#
#
# Indices 1 2 3 4 5 6 
#
# 1 -0.009734 -0.024164 0.015937 -0.016730 0.025019 0.005752
# 2 -0.024164 0.007232 0.019064 -0.006522 0.016854 -0.000367
# 3 0.015937 0.019064 -0.004561 0.019313 -0.035222 -0.012036
# 4 -0.016730 -0.006522 0.019313 0.021954 0.008081 0.001077
# 5 0.025019 0.016854 -0.035222 0.008081 0.015786 -0.009781
# 6 0.005752 -0.000367 -0.012036 0.001077 -0.009781 0.056072
#
#
# Mechanical properties :
#
#
# Convention : Reuss Voigt Hill
#
# Bulk Modulus (GPa) = 68.43342 53.69810 61.06576
# Shear Modulus (GPa) = 71.48503 21.06357 46.27430
#
# Velocity S-wave (km/s) = 6.30097 3.42031 5.06956
# Velocity P-wave (km/s) = 9.53644 6.73955 8.25728
#
# Compressibility (1/GPa) = 0.01461274
#
# Stress axis : x y z
#
# Youngs Moduli (GPa) = -102.73343 138.27086 -219.24449
#
# Poissons Ratio (x) = 3.34112 3.49414
# Poissons Ratio (y) = -2.48241 4.17972
# Poissons Ratio (z) = 1.63728 -2.63602
#
# Static dielectric constant tensor:
#      x y z
#    x 1.655500 0.002890 0.016810 
#    y 0.002890 1.597770 0.000470 
#    z 0.016810 0.000470 1.669890 
# 
# From -- ./inp_files/311037.got.cif
#   From: 2010.05.17/outbox.cif.g08.bks.cpg/sg2_156_cif.got.tgz:311037.got - 2010.06.03 11:33:40.
