data_PCOD9075317
_publ_section_title
;
Structure prediction by ZEFSAII (Michael W. Deem and Ramdas Pophale) SiO2 
 PCOD9075317
Probable space group: P -1
;
_chemical_formula_sum "Si O2"
_cell_formula_units_Z 14
_cell_length_a 27.000000
_cell_length_b 27.000000
_cell_length_c 15.000000
_cell_angle_alpha 20.000000
_cell_angle_beta 20.000000
_cell_angle_gamma 10.000000
_cell_volume 630.401208
_symmetry_space_group_name_H-M "P -1"
_symmetry_group_IT_number 2
_symmetry_cell_setting 'triclinic'
loop_
_space_group_symop_operation_xyz
x,y,z
-x,-y,-z
loop_
_atom_site_type_symbol
_atom_site_label
_atom_site_fract_x
_atom_site_fract_y
_atom_site_fract_z
Si Si1 0.077406 0.946936 0.094870
Si Si2 0.558643 0.329415 0.614094
Si Si3 0.401700 0.504036 0.904317
Si Si4 0.738443 0.013354 0.439704
Si Si5 0.273358 0.277406 0.478206
Si Si6 0.066113 0.270756 0.011019
Si Si7 0.118728 0.423046 0.828675
O O1 0.819405 0.268115 0.027269
O O2 0.936209 0.931194 0.313566
O O3 0.279459 0.733152 0.197190
O O4 0.263028 0.880995 0.822129
O O5 0.500000 0.500000 0.500000
O O6 0.644830 0.350362 0.346832
O O7 0.280581 0.462158 0.850555
O O8 0.811156 0.994269 0.772971
O O9 0.372160 0.358620 0.183009
O O10 0.422913 0.246509 0.617045
O O11 0.895090 0.724586 0.645882
O O12 0.188556 0.275580 0.719683
O O13 0.000000 0.500000 0.500000
O O14 0.500000 0.000000 0.500000
O O15 0.154914 0.254021 0.987508
O O16 0.000000 0.500000 0.000000
#
# Coordination Sequence:
#
# PCOD9075317 Si02
#       7
#     2   2   2   2   2   2   2
#     4  11  24  42  72  99 133 181 224 297 338 408
#     4  12  27  47  70 103 142 182 230 291 354 420
#     4  12  25  43  72 100 137 177 241 278 353 419
#     4  11  24  45  67 100 141 174 237 283 346 398
#     4  12  25  45  72 103 137 181 234 295 356 419
#     4  12  26  46  73 102 144 186 230 289 358 413
#     4  12  27  44  70 100 144 189 235 279 344 428
#
# _framework density 22.208079000000001
#
# number of rings (size 3 to 8) (size 9 to 14) (size 15 to 20)
#    0.000    0.286    0.000    9.429    6.000    2.286 
#    0.000    0.000    0.000    0.000    0.000    0.000 
#    0.000    0.000    0.000    0.000    0.000    0.000 
#
# Total GULP energy -78270.660160 kJ/mol
# GULP energy per Si atom -5590.761440 kJ/mol
# Density = 2.215753 g / cm^3
# Si number density = 22.208079 Si / 1000 Ang^3
#
#
#
# Elastic Constant Matrix: (Units=GPa)
#
#
# Indices 1 2 3 4 5 6 
#
# 1 95.9397 -0.8272 24.1919 10.2198 9.8573 17.9982
# 2 -0.8272 91.1762 9.1596 6.8411 -2.4762 6.9506
# 3 24.1919 9.1596 120.7069 17.9426 11.6158 11.1941
# 4 10.2198 6.8411 17.9426 51.5719 22.5920 3.4792
# 5 9.8573 -2.4762 11.6158 22.5920 53.1665 1.3211
# 6 17.9982 6.9506 11.1941 3.4792 1.3211 36.3711
#
#
#
# Elastic Compliance Matrix: (Units=1/GPa)
#
#
# Indices 1 2 3 4 5 6 
#
# 1 0.012124 0.000737 -0.001710 -0.000970 -0.001292 -0.005474
# 2 0.000737 0.011389 -0.000661 -0.001889 0.001396 -0.002208
# 3 -0.001710 -0.000661 0.009247 -0.002383 -0.000681 -0.001621
# 4 -0.000970 -0.001889 -0.002383 0.025091 -0.010038 -0.000461
# 5 -0.001292 0.001396 -0.000681 -0.010038 0.023510 0.000688
# 6 -0.005474 -0.002208 -0.001621 -0.000461 0.000688 0.031143
#
#
# Mechanical properties :
#
#
# Convention : Reuss Voigt Hill
#
# Bulk Modulus (GPa) = 33.90610 41.43015 37.66813
# Shear Modulus (GPa) = 39.80826 46.57515 43.19170
#
# Velocity S-wave (km/s) = 4.23840 4.58451 4.41485
# Velocity P-wave (km/s) = 6.26519 6.83517 6.55638
#
# Compressibility (1/GPa) = 0.02949322
#
# Stress axis : x y z
#
# Youngs Moduli (GPa) = 82.48324 87.80553 108.13829
#
# Poissons Ratio (x) = -0.06469 0.18486
# Poissons Ratio (y) = -0.06077 0.07144
# Poissons Ratio (z) = 0.14101 0.05801
#
# Static dielectric constant tensor:
#      x y z
#    x 1.790680 -0.050520 -0.013840 
#    y -0.050520 1.838230 -0.037870 
#    z -0.013840 -0.037870 1.759480 
# 
# From -- ./inp_files/208596.got.cif
#   From: 2010.05.17/outbox.ucp.g08.bks.cvg/sg2_105_cif.got.tgz:208596.got - 2010.06.11 11:32:03.
