data_PCOD9075821
_publ_section_title
;
Structure prediction by ZEFSAII (Michael W. Deem and Ramdas Pophale) SiO2 
 PCOD9075821
Probable space group: P -1
;
_chemical_formula_sum "Si O2"
_cell_formula_units_Z 14
_cell_length_a 8.994963
_cell_length_b 19.623850
_cell_length_c 7.981736
_cell_angle_alpha 52.720774
_cell_angle_beta 84.949377
_cell_angle_gamma 126.612237
_cell_volume 639.593675
_symmetry_space_group_name_H-M "P -1"
_symmetry_group_IT_number 2
_symmetry_cell_setting 'triclinic'
loop_
_space_group_symop_operation_xyz
x,y,z
-x,-y,-z
loop_
_atom_site_type_symbol
_atom_site_label
_atom_site_fract_x
_atom_site_fract_y
_atom_site_fract_z
Si Si1 0.263128 0.313889 0.476685
Si Si2 0.312523 0.155141 0.765339
Si Si3 0.717355 0.032866 0.792523
Si Si4 0.742634 0.352073 0.143572
Si Si5 0.507030 0.399705 0.948326
Si Si6 0.016931 0.906465 0.666293
Si Si7 0.492881 0.064400 0.555352
O O1 0.342971 0.268649 0.645281
O O2 0.394808 0.362321 0.205789
O O3 0.955432 0.168738 0.687831
O O4 0.350571 0.445845 0.340856
O O5 0.493283 0.235296 0.465351
O O6 0.400336 0.113992 0.923276
O O7 0.000000 0.000000 0.000000
O O8 0.853974 0.072278 0.544346
O O9 0.542927 0.033164 0.764418
O O10 0.687425 0.400406 0.942812
O O11 0.718216 0.242703 0.245032
O O12 0.000000 0.500000 0.000000
O O13 0.269203 0.267067 0.047566
O O14 0.209327 0.974235 0.697712
O O15 0.000000 0.000000 0.500000
O O16 0.500000 0.000000 0.500000
#
# Coordination Sequence:
#
# PCOD9075821 Si02
#       7
#     2   2   2   2   2   2   2
#     4   8  15  29  52  79 106 138 178 228 286 328
#     4   9  19  34  56  85 115 149 183 238 288 340
#     4   9  18  33  52  81 112 143 183 235 289 329
#     4  11  21  34  58  88 115 146 191 238 291 337
#     4   9  16  29  51  79 106 137 185 233 270 327
#     4  10  18  32  56  78 106 151 197 228 267 344
#     4  10  21  34  53  85 116 150 190 235 284 338
#
# _framework density 21.888897
#
# number of rings (size 3 to 8) (size 9 to 14) (size 15 to 20)
#    0.000    2.571    1.429    1.714    0.000    4.000 
#    0.000    0.000    0.000    8.571    7.429    0.000 
#    0.000    0.000    0.000    0.000    0.000    0.000 
#
# Total GULP energy -78062.733319 kJ/mol
# GULP energy per Si atom -5575.909523 kJ/mol
# Density = 2.183908 g / cm^3
# Si number density = 21.888897 Si / 1000 Ang^3
#
#
#
# Elastic Constant Matrix: (Units=GPa)
#
#
# Indices 1 2 3 4 5 6 
#
# 1 161.8202 54.5453 52.7363 -32.5796 52.6898 20.3990
# 2 54.5453 87.6121 41.6487 -42.0341 23.5104 -0.2062
# 3 52.7363 41.6487 76.3358 -31.0676 33.4176 -7.7758
# 4 -32.5796 -42.0341 -31.0676 37.1012 -14.5001 0.7627
# 5 52.6898 23.5104 33.4176 -14.5001 54.3727 4.3800
# 6 20.3990 -0.2062 -7.7758 0.7627 4.3800 33.2804
#
#
#
# Elastic Compliance Matrix: (Units=1/GPa)
#
#
# Indices 1 2 3 4 5 6 
#
# 1 0.011885 -0.003295 -0.003675 0.001053 -0.006967 -0.007271
# 2 -0.003295 0.026775 -0.001234 0.026072 -0.000786 0.001403
# 3 -0.003675 -0.001234 0.027335 0.014289 -0.009665 0.009576
# 4 0.001053 0.026072 0.014289 0.068161 -0.003035 0.001692
# 5 -0.006967 -0.000786 -0.009665 -0.003035 0.030773 -0.001973
# 6 -0.007271 0.001403 0.009576 0.001692 -0.001973 0.036972
#
#
# Mechanical properties :
#
#
# Convention : Reuss Voigt Hill
#
# Bulk Modulus (GPa) = 20.16677 69.29207 44.72942
# Shear Modulus (GPa) = 21.29128 36.74006 29.01567
#
# Velocity S-wave (km/s) = 3.12219 4.10137 3.64481
# Velocity P-wave (km/s) = 4.71494 7.35889 6.17997
#
# Compressibility (1/GPa) = 0.04958652
#
# Stress axis : x y z
#
# Youngs Moduli (GPa) = 84.13803 37.34855 36.58338
#
# Poissons Ratio (x) = 0.12305 0.13446
# Poissons Ratio (y) = 0.27720 0.04515
# Poissons Ratio (z) = 0.30924 0.04609
#
# Static dielectric constant tensor:
#      x y z
#    x 2.827390 -1.327510 -0.160740 
#    y -1.327510 3.694030 0.283230 
#    z -0.160740 0.283230 1.849750 
# 
# From -- ./inp_files/207754.got.cif
#   From: 2010.05.17/outbox.cif.g08.bks.cpg/sg2_104_cif.got.tgz:207754.got - 2010.06.03 11:33:40.
