data_PCOD9075724
_publ_section_title
;
Structure prediction by ZEFSAII (Michael W. Deem and Ramdas Pophale) SiO2 
 PCOD9075724
Probable space group: P -1
;
_chemical_formula_sum "Si O2"
_cell_formula_units_Z 16
_cell_length_a 13.808585
_cell_length_b 8.421040
_cell_length_c 9.440513
_cell_angle_alpha 114.401493
_cell_angle_beta 130.824249
_cell_angle_gamma 96.187471
_cell_volume 632.634122
_symmetry_space_group_name_H-M "P -1"
_symmetry_group_IT_number 2
_symmetry_cell_setting 'triclinic'
loop_
_space_group_symop_operation_xyz
x,y,z
-x,-y,-z
loop_
_atom_site_type_symbol
_atom_site_label
_atom_site_fract_x
_atom_site_fract_y
_atom_site_fract_z
Si Si1 0.827929 0.523376 0.844189
Si Si2 0.912524 0.106387 0.132133
Si Si3 0.544035 0.156457 0.734656
Si Si4 0.899316 0.468090 0.175475
Si Si5 0.215539 0.807245 0.526121
Si Si6 0.548688 0.503625 0.710903
Si Si7 0.875384 0.027464 0.745796
Si Si8 0.609150 0.928740 0.950569
O O1 0.777477 0.379072 0.606165
O O2 0.712835 0.544555 0.840963
O O3 0.880550 0.417867 0.969764
O O4 0.959440 0.754333 0.019494
O O5 0.840213 0.005577 0.870615
O O6 0.768899 0.981811 0.051489
O O7 0.958376 0.342139 0.263292
O O8 0.069423 0.119701 0.307974
O O9 0.479745 0.299200 0.671034
O O10 0.500000 0.000000 0.500000
O O11 0.527155 0.998194 0.786182
O O12 0.722579 0.345935 0.008843
O O13 0.043593 0.706330 0.392632
O O14 0.228916 0.953061 0.461702
O O15 0.336044 0.926414 0.807022
O O16 0.500000 0.500000 0.500000
O O17 0.534944 0.686440 0.830239
#
# Coordination Sequence:
#
# PCOD9075724 Si02
#       8
#     2   2   2   2   2   2   2   2
#     4  10  18  37  59  84 114 168 204 238 302 380
#     4  10  18  32  54  88 120 159 215 237 288 374
#     4  10  21  39  64  88 119 160 217 255 291 360
#     4   9  18  34  59  83 118 166 200 236 302 372
#     4  11  21  38  57  92 135 157 191 256 328 366
#     4  11  22  42  68  87 113 163 221 252 294 372
#     4  10  18  33  57  84 125 168 202 234 296 387
#     4  11  24  39  61  97 125 159 203 264 316 352
#
# _framework density 25.291077999999999
#
# number of rings (size 3 to 8) (size 9 to 14) (size 15 to 20)
#    0.000    1.750    5.000    0.750    0.000    2.500 
#    2.250    0.625    0.000    0.750    0.000    0.000 
#    0.000    0.000    0.000    0.000    0.000    0.000 
#
# Total GULP energy -89121.006829 kJ/mol
# GULP energy per Si atom -5570.062927 kJ/mol
# Density = 2.523351 g / cm^3
# Si number density = 25.291078 Si / 1000 Ang^3
#
#
#
# Elastic Constant Matrix: (Units=GPa)
#
#
# Indices 1 2 3 4 5 6 
#
# 1 45.0385 2.5447 1.0813 -4.7442 -0.3905 10.3850
# 2 2.5447 175.4262 50.6036 -4.9542 -7.5556 -10.0676
# 3 1.0813 50.6036 122.9686 -15.9354 -3.1393 -12.1530
# 4 -4.7442 -4.9542 -15.9354 28.8530 1.8367 6.3890
# 5 -0.3905 -7.5556 -3.1393 1.8367 25.7729 -0.4144
# 6 10.3850 -10.0676 -12.1530 6.3890 -0.4144 32.9669
#
#
#
# Elastic Compliance Matrix: (Units=1/GPa)
#
#
# Indices 1 2 3 4 5 6 
#
# 1 0.025024 -0.000725 -0.000070 0.006039 -0.000422 -0.009306
# 2 -0.000725 0.006604 -0.002636 -0.000873 0.001690 0.001463
# 3 -0.000070 -0.002636 0.010019 0.004613 0.000150 0.002018
# 4 0.006039 -0.000873 0.004613 0.040043 -0.002589 -0.008261
# 5 -0.000422 0.001690 0.000150 -0.002589 0.039520 0.001703
# 6 -0.009306 0.001463 0.002018 -0.008261 0.001703 0.036078
#
#
# Mechanical properties :
#
#
# Convention : Reuss Voigt Hill
#
# Bulk Modulus (GPa) = 28.74813 50.21027 39.47920
# Shear Modulus (GPa) = 28.45054 36.79881 32.62468
#
# Velocity S-wave (km/s) = 3.35763 3.81860 3.59551
# Velocity P-wave (km/s) = 5.14034 6.27203 5.73417
#
# Compressibility (1/GPa) = 0.03478487
#
# Stress axis : x y z
#
# Youngs Moduli (GPa) = 39.96163 151.43430 99.81274
#
# Poissons Ratio (x) = 0.10972 0.00696
# Poissons Ratio (y) = 0.02895 0.26315
# Poissons Ratio (z) = 0.00279 0.39925
#
# Static dielectric constant tensor:
#      x y z
#    x 0.536420 1.478790 -0.208900 
#    y 1.478790 0.712150 0.254640 
#    z -0.208900 0.254640 1.973870 
# 
# From -- ./inp_files/329485.got.cif
#   From: 2010.05.17/outbox.cif.g08.bks.cpg/sg2_165_cif.got.tgz:329485.got - 2010.06.03 11:33:40.
