data_PCOD9075508
_publ_section_title
;
Structure prediction by ZEFSAII (Michael W. Deem and Ramdas Pophale) SiO2 
 PCOD9075508
Probable space group: P -1
;
_chemical_formula_sum "Si O2"
_cell_formula_units_Z 16
_cell_length_a 9.666480
_cell_length_b 15.384462
_cell_length_c 7.179602
_cell_angle_alpha 69.316205
_cell_angle_beta 140.239447
_cell_angle_gamma 103.597289
_cell_volume 637.682245
_symmetry_space_group_name_H-M "P -1"
_symmetry_group_IT_number 2
_symmetry_cell_setting 'triclinic'
loop_
_space_group_symop_operation_xyz
x,y,z
-x,-y,-z
loop_
_atom_site_type_symbol
_atom_site_label
_atom_site_fract_x
_atom_site_fract_y
_atom_site_fract_z
Si Si1 0.784417 0.687435 0.176665
Si Si2 0.516222 0.643766 0.275992
Si Si3 0.903847 0.238638 0.140969
Si Si4 0.546704 0.168839 0.425274
Si Si5 0.565111 0.544929 0.788389
Si Si6 0.165774 0.657672 0.342006
Si Si7 0.879815 0.099245 0.507839
Si Si8 0.776546 0.056743 0.029643
O O1 0.681728 0.785663 0.914349
O O2 0.681238 0.601540 0.022155
O O3 0.702562 0.675970 0.310424
O O4 0.027784 0.670193 0.373633
O O5 0.598795 0.593410 0.587390
O O6 0.385623 0.564632 0.095803
O O7 0.344254 0.727866 0.085221
O O8 0.978853 0.191021 0.448697
O O9 0.922488 0.146612 0.099635
O O10 0.966741 0.319116 0.004227
O O11 0.661085 0.262937 0.531015
O O12 0.699063 0.124988 0.452814
O O13 0.565460 0.092853 0.668172
O O14 0.306017 0.561799 0.541119
O O15 0.763646 0.051176 0.245514
O O16 0.081328 0.031280 0.830324
#
# Coordination Sequence:
#
# PCOD9075508 Si02
#       8
#     2   2   2   2   2   2   2   2
#     4  11  20  35  55  78 106 141 170 213 263 303
#     4  10  18  36  55  78 104 135 180 213 251 317
#     4   8  15  32  51  73 106 133 166 215 254 296
#     4  10  18  32  54  77 104 140 171 209 260 304
#     4   9  21  37  55  74 107 140 169 218 261 297
#     4   9  20  35  51  79 110 132 176 216 251 312
#     4   9  15  29  55  77  99 139 172 212 256 304
#     4   8  16  28  51  82  99 129 182 209 248 316
#
# _framework density 25.090865000000001
#
# number of rings (size 3 to 8) (size 9 to 14) (size 15 to 20)
#    0.750    2.000    1.250    1.500    0.000    0.500 
#    2.250    5.625    0.000    7.500    0.000    0.000 
#    0.000    0.000    0.000    0.000    0.000    0.000 
#
# Total GULP energy -89193.971079 kJ/mol
# GULP energy per Si atom -5574.623192 kJ/mol
# Density = 2.503376 g / cm^3
# Si number density = 25.090865 Si / 1000 Ang^3
#
#
#
# Elastic Constant Matrix: (Units=GPa)
#
#
# Indices 1 2 3 4 5 6 
#
# 1 118.3196 29.7304 34.5069 -8.5854 -2.0867 -20.1947
# 2 29.7304 58.5138 24.5083 -12.9936 11.9734 -11.2368
# 3 34.5069 24.5083 90.8361 -18.0988 -11.6464 4.0927
# 4 -8.5854 -12.9936 -18.0988 22.7500 -5.2937 -1.3105
# 5 -2.0867 11.9734 -11.6464 -5.2937 28.8512 -4.1259
# 6 -20.1947 -11.2368 4.0927 -1.3105 -4.1259 30.1472
#
#
#
# Elastic Compliance Matrix: (Units=1/GPa)
#
#
# Indices 1 2 3 4 5 6 
#
# 1 0.011627 -0.003312 -0.003480 0.000608 0.001970 0.007323
# 2 -0.003312 0.026744 -0.006479 0.006569 -0.011703 0.007313
# 3 -0.003480 -0.006479 0.018058 0.011643 0.011123 -0.005169
# 4 0.000608 0.006569 0.011643 0.060795 0.014007 0.005835
# 5 0.001970 -0.011703 0.011123 0.014007 0.047077 0.002499
# 6 0.007323 0.007313 -0.005169 0.005835 0.002499 0.042099
#
#
# Mechanical properties :
#
#
# Convention : Reuss Voigt Hill
#
# Bulk Modulus (GPa) = 33.45793 49.46232 41.46013
# Shear Modulus (GPa) = 20.58423 28.27795 24.43109
#
# Velocity S-wave (km/s) = 2.86735 3.36076 3.12381
# Velocity P-wave (km/s) = 4.93213 5.90048 5.43790
#
# Compressibility (1/GPa) = 0.02988828
#
# Stress axis : x y z
#
# Youngs Moduli (GPa) = 86.00333 37.39137 55.37864
#
# Poissons Ratio (x) = 0.12385 0.19270
# Poissons Ratio (y) = 0.28486 0.35878
# Poissons Ratio (z) = 0.29926 0.24225
#
# Static dielectric constant tensor:
#      x y z
#    x 1.947220 0.002050 -0.065560 
#    y 0.002050 2.044630 0.107050 
#    z -0.065560 0.107050 2.090050 
# 
# From -- ./inp_files/219471.got.cif
#   From: 2010.05.17/outbox.cif.g08.bks.cpg/sg2_110_cif.got.tgz:219471.got - 2010.06.03 11:33:40.
