data_PCOD9075468
_publ_section_title
;
Structure prediction by ZEFSAII (Michael W. Deem and Ramdas Pophale) SiO2 
 PCOD9075468
Probable space group: P -1
;
_chemical_formula_sum "Si O2"
_cell_formula_units_Z 12
_cell_length_a 9.000000
_cell_length_b 15.000000
_cell_length_c 12.000000
_cell_angle_alpha 30.000000
_cell_angle_beta 50.000000
_cell_angle_gamma 70.000000
_cell_volume 513.903451
_symmetry_space_group_name_H-M "P -1"
_symmetry_group_IT_number 2
_symmetry_cell_setting 'triclinic'
loop_
_space_group_symop_operation_xyz
x,y,z
-x,-y,-z
loop_
_atom_site_type_symbol
_atom_site_label
_atom_site_fract_x
_atom_site_fract_y
_atom_site_fract_z
Si Si1 0.977448 0.499333 0.642903
Si Si2 0.545818 0.842977 0.725032
Si Si3 0.692366 0.651004 0.333970
Si Si4 0.771452 0.094390 0.765643
Si Si5 0.306881 0.438828 0.938187
Si Si6 0.181727 0.783003 0.644704
O O1 0.098071 0.378571 0.751132
O O2 0.105019 0.727324 0.392641
O O3 0.000000 0.500000 0.500000
O O4 0.707424 0.369685 0.937583
O O5 0.500000 0.000000 0.500000
O O6 0.637432 0.987563 0.636185
O O7 0.691451 0.726390 0.795282
O O8 0.500000 0.500000 0.500000
O O9 0.550526 0.564048 0.614372
O O10 0.791176 0.897450 0.996756
O O11 0.837419 0.192890 0.504177
O O12 0.500000 0.000000 0.000000
O O13 0.263982 0.621773 0.803216
O O14 0.088621 0.310907 0.093785
#
# Coordination Sequence:
#
# PCOD9075468 Si02
#       6
#     2   2   2   2   2   2
#     4  12  27  47  69 107 146 180 237 300 355 414
#     4  12  29  46  69 105 148 186 234 295 364 409
#     4  12  24  43  77 104 139 186 240 289 350 427
#     4  12  24  44  77 104 137 188 238 286 353 422
#     4  11  25  46  73 102 142 186 242 287 351 428
#     4  11  26  48  74 101 143 188 242 288 350 433
#
# _framework density 23.35069
#
# number of rings (size 3 to 8) (size 9 to 14) (size 15 to 20)
#    0.000    0.333    5.000    2.500    9.333    2.667 
#    0.000    0.000    0.000    0.000    0.000    0.000 
#    0.000    0.000    0.000    0.000    0.000    0.000 
#
# Total GULP energy -66928.723069 kJ/mol
# GULP energy per Si atom -5577.393589 kJ/mol
# Density = 2.329754 g / cm^3
# Si number density = 23.350690 Si / 1000 Ang^3
#
#
#
# Elastic Constant Matrix: (Units=GPa)
#
#
# Indices 1 2 3 4 5 6 
#
# 1 163.5109 73.0443 47.6317 -29.0238 5.3115 -25.8695
# 2 73.0443 100.8911 55.2932 -48.0346 1.2523 -2.3669
# 3 47.6317 55.2932 102.0431 -36.9150 3.2866 5.7946
# 4 -29.0238 -48.0346 -36.9150 55.9929 -0.1859 2.5227
# 5 5.3115 1.2523 3.2866 -0.1859 63.0611 -8.8952
# 6 -25.8695 -2.3669 5.7946 2.5227 -8.8952 62.7969
#
#
#
# Elastic Compliance Matrix: (Units=1/GPa)
#
#
# Indices 1 2 3 4 5 6 
#
# 1 0.010219 -0.007487 -0.001873 -0.002550 -0.000030 0.004198
# 2 -0.007487 0.024569 -0.004507 0.014329 0.000095 -0.002305
# 3 -0.001873 -0.004507 0.015221 0.005316 -0.000910 -0.002688
# 4 -0.002550 0.014329 0.005316 0.032440 -0.000588 -0.002387
# 5 -0.000030 0.000095 -0.000910 -0.000588 0.016242 0.002400
# 6 0.004198 -0.002305 -0.002688 -0.002387 0.002400 0.018251
#
#
# Mechanical properties :
#
#
# Convention : Reuss Voigt Hill
#
# Bulk Modulus (GPa) = 44.89233 79.82037 62.35635
# Shear Modulus (GPa) = 32.87295 49.06858 40.97077
#
# Velocity S-wave (km/s) = 3.75613 4.58905 4.19332
# Velocity P-wave (km/s) = 6.17076 7.89536 7.08573
#
# Compressibility (1/GPa) = 0.02227552
#
# Stress axis : x y z
#
# Youngs Moduli (GPa) = 97.86130 40.70180 65.69818
#
# Poissons Ratio (x) = 0.30473 0.12305
# Poissons Ratio (y) = 0.73268 0.29608
# Poissons Ratio (z) = 0.18328 0.18343
#
# Static dielectric constant tensor:
#      x y z
#    x 2.040070 -0.036520 0.089520 
#    y -0.036520 1.712220 -0.004540 
#    z 0.089520 -0.004540 1.948270 
# 
# From -- ./inp_files/244416.got.cif
#   From: 2010.05.17/outbox.ucp.g08.bks.cvg/sg2_123_cif.got.tgz:244416.got - 2010.06.11 11:32:03.
