data_PCOD9075755
_publ_section_title
;
Structure prediction by ZEFSAII (Michael W. Deem and Ramdas Pophale) SiO2 
 PCOD9075755
Probable space group: P -1
;
_chemical_formula_sum "Si O2"
_cell_formula_units_Z 14
_cell_length_a 9.837771
_cell_length_b 8.101283
_cell_length_c 7.983055
_cell_angle_alpha 79.243600
_cell_angle_beta 54.249455
_cell_angle_gamma 77.701203
_cell_volume 502.946898
_symmetry_space_group_name_H-M "P -1"
_symmetry_group_IT_number 2
_symmetry_cell_setting 'triclinic'
loop_
_space_group_symop_operation_xyz
x,y,z
-x,-y,-z
loop_
_atom_site_type_symbol
_atom_site_label
_atom_site_fract_x
_atom_site_fract_y
_atom_site_fract_z
Si Si1 0.235595 0.452146 0.186382
Si Si2 0.864741 0.237197 0.996631
Si Si3 0.497905 0.114764 0.313631
Si Si4 0.342348 0.397448 0.597509
Si Si5 0.020143 0.050638 0.245847
Si Si6 0.880084 0.334421 0.484827
Si Si7 0.378181 0.164843 0.944293
O O1 0.174188 0.565410 0.047098
O O2 0.246940 0.597128 0.289130
O O3 0.072279 0.365371 0.373714
O O4 0.388379 0.311743 0.048149
O O5 0.973744 0.141405 0.783449
O O6 0.682412 0.172377 0.150476
O O7 0.961336 0.165800 0.104523
O O8 0.373409 0.280001 0.429905
O O9 0.500000 0.000000 0.500000
O O10 0.482936 0.987641 0.191701
O O11 0.500000 0.500000 0.500000
O O12 0.188426 0.540775 0.640824
O O13 0.334341 0.273582 0.783688
O O14 0.894563 0.137777 0.460891
O O15 0.210674 0.084805 0.128644
#
# Coordination Sequence:
#
# PCOD9075755 Si02
#       7
#     2   2   2   2   2   2   2
#     4  10  20  35  55  76 106 139 173 216 258 309
#     4  10  18  32  55  80 101 134 178 216 260 304
#     4   9  19  33  51  76 105 133 167 216 261 304
#     4  11  20  33  55  78 104 137 175 214 255 311
#     4   9  18  32  54  79 102 130 174 226 260 298
#     4  10  21  35  51  78 109 139 171 211 265 306
#     4   9  18  34  53  74 102 134 172 217 261 300
#
# _framework density 27.835940000000001
#
# number of rings (size 3 to 8) (size 9 to 14) (size 15 to 20)
#    0.000    2.286    0.000    3.429    0.000    4.000 
#    0.000    3.571    0.000    0.000    0.000    0.000 
#    0.000    0.000    0.000    0.000    0.000    0.000 
#
# Total GULP energy -78334.390183 kJ/mol
# GULP energy per Si atom -5595.313585 kJ/mol
# Density = 2.777258 g / cm^3
# Si number density = 27.835940 Si / 1000 Ang^3
#
#
#
# Elastic Constant Matrix: (Units=GPa)
#
#
# Indices 1 2 3 4 5 6 
#
# 1 88.2109 21.4659 31.3009 -3.9991 -15.4143 -5.2703
# 2 21.4659 184.5073 75.1721 59.6851 -7.1770 -31.2123
# 3 31.3009 75.1721 146.3061 38.7363 5.9635 19.9096
# 4 -3.9991 59.6851 38.7363 87.2129 12.5145 0.6837
# 5 -15.4143 -7.1770 5.9635 12.5145 40.6802 0.4441
# 6 -5.2703 -31.2123 19.9096 0.6837 0.4441 36.0867
#
#
#
# Elastic Compliance Matrix: (Units=1/GPa)
#
#
# Indices 1 2 3 4 5 6 
#
# 1 0.014256 0.001235 -0.005021 0.001141 0.005941 0.005826
# 2 0.001235 0.013809 -0.008066 -0.006802 0.005998 0.016629
# 3 -0.005021 -0.008066 0.014461 -0.000266 -0.005193 -0.015619
# 4 0.001141 -0.006802 -0.000266 0.017192 -0.005954 -0.005823
# 5 0.005941 0.005998 -0.005193 -0.005954 0.030390 0.008659
# 6 0.005826 0.016629 -0.015619 -0.005823 0.008659 0.051566
#
#
# Mechanical properties :
#
#
# Convention : Reuss Voigt Hill
#
# Bulk Modulus (GPa) = 53.13100 74.98910 64.06005
# Shear Modulus (GPa) = 29.12882 52.20166 40.66524
#
# Velocity S-wave (km/s) = 3.23839 4.33521 3.82631
# Velocity P-wave (km/s) = 5.75426 7.21505 6.52566
#
# Compressibility (1/GPa) = 0.01882140
#
# Stress axis : x y z
#
# Youngs Moduli (GPa) = 70.14756 72.41563 69.15208
#
# Poissons Ratio (x) = -0.08942 0.34723
# Poissons Ratio (y) = -0.08662 0.55776
# Poissons Ratio (z) = 0.35223 0.58409
#
# Static dielectric constant tensor:
#      x y z
#    x 2.154520 0.013140 0.162930 
#    y 0.013140 2.183560 0.083160 
#    z 0.162930 0.083160 2.221470 
# 
# From -- ./inp_files/153795.got.cif
#   From: 2010.05.17/outbox.cif.g08.bks.cpg/sg2_77_cif.got.tgz:153795.got - 2010.06.03 11:33:40.
