data_PCOD9075912
_publ_section_title
;
Structure prediction by ZEFSAII (Michael W. Deem and Ramdas Pophale) SiO2 
 PCOD9075912
Probable space group: P -1
;
_chemical_formula_sum "Si O2"
_cell_formula_units_Z 14
_cell_length_a 18.151147
_cell_length_b 11.725618
_cell_length_c 9.424161
_cell_angle_alpha 66.688521
_cell_angle_beta 141.645406
_cell_angle_gamma 140.273725
_cell_volume 678.038217
_symmetry_space_group_name_H-M "P -1"
_symmetry_group_IT_number 2
_symmetry_cell_setting 'triclinic'
loop_
_space_group_symop_operation_xyz
x,y,z
-x,-y,-z
loop_
_atom_site_type_symbol
_atom_site_label
_atom_site_fract_x
_atom_site_fract_y
_atom_site_fract_z
Si Si1 0.511190 0.808932 0.341376
Si Si2 0.881601 0.040865 0.231042
Si Si3 0.828194 0.520738 0.219429
Si Si4 0.381880 0.815831 0.734961
Si Si5 0.541562 0.891966 0.654882
Si Si6 0.250807 0.999469 0.643105
Si Si7 0.288615 0.356917 0.819291
O O1 0.508340 0.783519 0.517015
O O2 0.595437 0.021085 0.348014
O O3 0.659225 0.861521 0.430582
O O4 0.291638 0.612172 0.038466
O O5 0.808123 0.974684 0.317703
O O6 0.119251 0.250956 0.499172
O O7 0.802032 0.844054 0.146897
O O8 0.765263 0.053069 0.970859
O O9 0.808682 0.388718 0.363178
O O10 0.708568 0.529483 0.119234
O O11 0.050089 0.757168 0.420466
O O12 0.403852 0.755776 0.652311
O O13 0.572057 0.939268 0.059151
O O14 0.500000 0.000000 0.500000
O O15 0.500000 0.500000 0.000000
#
# Coordination Sequence:
#
# PCOD9075912 Si02
#       7
#     2   2   2   2   2   2   2
#     4  10  19  31  49  73 106 139 164 206 260 307
#     4   9  19  34  54  78 100 134 177 213 254 301
#     4  10  19  31  52  77  98 130 173 217 259 295
#     4   9  18  32  50  72 100 137 175 209 249 299
#     4   9  18  35  54  74 108 143 168 204 258 316
#     4   9  17  31  50  73 101 129 173 215 247 299
#     4  10  18  32  57  78  98 129 177 226 253 290
#
# _framework density 20.647805000000002
#
# number of rings (size 3 to 8) (size 9 to 14) (size 15 to 20)
#    0.000    2.571    0.000    4.286    0.000    2.286 
#    0.000    6.429    0.000   36.857    0.000    0.000 
#    0.000    0.000    0.000    0.000    0.000    0.000 
#
# Total GULP energy -77984.981954 kJ/mol
# GULP energy per Si atom -5570.355854 kJ/mol
# Density = 2.060081 g / cm^3
# Si number density = 20.647805 Si / 1000 Ang^3
#
#
#
# Elastic Constant Matrix: (Units=GPa)
#
#
# Indices 1 2 3 4 5 6 
#
# 1 92.5843 7.9468 29.6516 -8.4559 -23.4485 6.0009
# 2 7.9468 37.5153 33.2353 14.2812 -4.6938 -5.1283
# 3 29.6516 33.2353 98.4397 -3.0692 -8.1795 9.8504
# 4 -8.4559 14.2812 -3.0692 25.6464 -5.1119 1.7593
# 5 -23.4485 -4.6938 -8.1795 -5.1119 42.7243 -8.5710
# 6 6.0009 -5.1283 9.8504 1.7593 -8.5710 34.3243
#
#
#
# Elastic Compliance Matrix: (Units=1/GPa)
#
#
# Indices 1 2 3 4 5 6 
#
# 1 0.014634 -0.003123 -0.002364 0.007934 0.008036 -0.000747
# 2 -0.003123 0.070788 -0.026481 -0.045095 -0.000192 0.020985
# 3 -0.002364 -0.026481 0.021395 0.017219 -0.000179 -0.010610
# 4 0.007934 -0.045095 0.017219 0.071440 0.008305 -0.014654
# 5 0.008036 -0.000192 -0.000179 0.008305 0.029889 0.005656
# 6 -0.000747 0.020985 -0.010610 -0.014654 0.005656 0.037608
#
#
# Mechanical properties :
#
#
# Convention : Reuss Voigt Hill
#
# Bulk Modulus (GPa) = 23.31957 41.13408 32.22683
# Shear Modulus (GPa) = 15.43286 31.05270 23.24278
#
# Velocity S-wave (km/s) = 2.73689 3.88225 3.35875
# Velocity P-wave (km/s) = 4.61583 6.32936 5.53926
#
# Compressibility (1/GPa) = 0.04288243
#
# Stress axis : x y z
#
# Youngs Moduli (GPa) = 68.33267 14.12660 46.74026
#
# Poissons Ratio (x) = 0.04411 0.11050
# Poissons Ratio (y) = 0.21337 1.23773
# Poissons Ratio (z) = 0.16154 0.37409
#
# Static dielectric constant tensor:
#      x y z
#    x 1.876450 -0.028560 0.002990 
#    y -0.028560 1.759070 -0.005960 
#    z 0.002990 -0.005960 1.735010 
# 
# From -- ./inp_files/333171.got.cif
#   From: 2010.05.17/outbox.cif.g08.bks.cpg/sg2_167_cif.got.tgz:333171.got - 2010.06.03 11:33:40.
