data_PCOD9075207
_publ_section_title
;
Structure prediction by ZEFSAII (Michael W. Deem and Ramdas Pophale) SiO2 
 PCOD9075207
Probable space group: P -1
;
_chemical_formula_sum "Si O2"
_cell_formula_units_Z 16
_cell_length_a 9.000000
_cell_length_b 9.000000
_cell_length_c 15.000000
_cell_angle_alpha 70.000000
_cell_angle_beta 40.000000
_cell_angle_gamma 70.000000
_cell_volume 727.419504
_symmetry_space_group_name_H-M "P -1"
_symmetry_group_IT_number 2
_symmetry_cell_setting 'triclinic'
loop_
_space_group_symop_operation_xyz
x,y,z
-x,-y,-z
loop_
_atom_site_type_symbol
_atom_site_label
_atom_site_fract_x
_atom_site_fract_y
_atom_site_fract_z
Si Si1 0.379384 0.145379 0.265132
Si Si2 0.668237 0.335974 0.969387
Si Si3 0.968202 0.661149 0.039351
Si Si4 0.968187 0.328447 0.513294
Si Si5 0.249823 0.850484 0.746520
Si Si6 0.958969 0.809584 0.309049
Si Si7 0.491027 0.331070 0.493276
Si Si8 0.460698 0.789198 0.319779
O O1 0.515327 0.211452 0.107978
O O2 0.540142 0.145504 0.280216
O O3 0.143390 0.262356 0.368391
O O4 0.359926 0.961962 0.294861
O O5 0.500000 0.500000 0.000000
O O6 0.805709 0.261095 0.835383
O O7 0.860153 0.361680 0.950482
O O8 0.716218 0.726442 0.180293
O O9 0.000000 0.500000 0.000000
O O10 0.045986 0.794407 0.910787
O O11 0.008327 0.196592 0.599597
O O12 0.702481 0.338747 0.606413
O O13 0.000000 0.500000 0.500000
O O14 0.343491 0.720665 0.655377
O O15 0.155131 0.019604 0.710981
O O16 0.773038 0.687078 0.404446
O O17 0.500000 0.500000 0.500000
O O18 0.552556 0.202394 0.569518
#
# Coordination Sequence:
#
# PCOD9075207 Si02
#       8
#     2   2   2   2   2   2   2   2
#     4  11  23  46  70  99 135 177 222 274 341 396
#     4  11  25  44  71  99 135 177 221 274 336 405
#     4  11  25  44  69 101 135 174 223 277 337 395
#     4  12  27  44  68  98 141 180 219 277 343 392
#     4  11  23  43  73 100 133 175 222 280 335 398
#     4  12  23  45  68  99 133 178 225 270 338 398
#     4  12  23  40  68 102 132 168 227 274 324 400
#     4  12  25  45  69  99 137 175 228 278 329 400
#
# _framework density 21.995560999999999
#
# number of rings (size 3 to 8) (size 9 to 14) (size 15 to 20)
#    0.000    0.500    3.750    4.500    5.250    2.000 
#    2.250    1.250    0.000    0.000    0.000    0.000 
#    0.000    0.000    0.000    0.000    0.000    0.000 
#
# Total GULP energy -89474.912087 kJ/mol
# GULP energy per Si atom -5592.182005 kJ/mol
# Density = 2.194550 g / cm^3
# Si number density = 21.995561 Si / 1000 Ang^3
#
#
#
# Elastic Constant Matrix: (Units=GPa)
#
#
# Indices 1 2 3 4 5 6 
#
# 1 48.2846 13.2384 43.6499 -19.6710 -18.5500 4.6879
# 2 13.2384 70.2891 -9.6207 8.1902 -32.8775 -10.2400
# 3 43.6499 -9.6207 95.4812 22.9188 -32.0312 -9.3601
# 4 -19.6710 8.1902 22.9188 29.5976 -1.4126 1.7196
# 5 -18.5500 -32.8775 -32.0312 -1.4126 16.0795 -1.8243
# 6 4.6879 -10.2400 -9.3601 1.7196 -1.8243 31.1663
#
#
#
# Elastic Compliance Matrix: (Units=1/GPa)
#
#
# Indices 1 2 3 4 5 6 
#
# 1 0.926996 0.219470 -0.219771 0.786203 1.136943 -0.110157
# 2 0.219470 0.050380 -0.063683 0.194688 0.242801 -0.032114
# 3 -0.219771 -0.063683 0.052714 -0.184443 -0.292560 0.021016
# 4 0.786203 0.194688 -0.184443 0.697689 0.988699 -0.090305
# 5 1.136943 0.242801 -0.292560 0.988699 1.356830 -0.154233
# 6 -0.110157 -0.032114 0.021016 -0.090305 -0.154233 0.040370
#
#
# Mechanical properties :
#
#
# Convention : Reuss Voigt Hill
#
# Bulk Modulus (GPa) = 1.10850 34.28777 17.69814
# Shear Modulus (GPa) = 1.40700 26.48784 13.94742
#
# Velocity S-wave (km/s) = 0.80066 3.47397 2.52087
# Velocity P-wave (km/s) = 1.16611 5.63149 4.06654
#
# Compressibility (1/GPa) = 0.90212066
#
# Stress axis : x y z
#
# Youngs Moduli (GPa) = 1.07875 19.84912 18.97040
#
# Poissons Ratio (x) = -4.35629 4.16915
# Poissons Ratio (y) = -0.23675 1.20810
# Poissons Ratio (z) = 0.23708 1.26406
#
# Static dielectric constant tensor:
#      x y z
#    x 1.946580 -0.052660 -0.010770 
#    y -0.052660 1.743030 -0.066910 
#    z -0.010770 -0.066910 1.771590 
# 
# From -- ./inp_files/208265.got.cif
#   From: 2010.05.17/outbox.ucp.g08.bks.cvg/sg2_105_cif.got.tgz:208265.got - 2010.06.11 11:32:03.
