data_PCOD9075212
_publ_section_title
;
Structure prediction by ZEFSAII (Michael W. Deem and Ramdas Pophale) SiO2 
 PCOD9075212
Probable space group: P -1
;
_chemical_formula_sum "Si O2"
_cell_formula_units_Z 16
_cell_length_a 9.000000
_cell_length_b 18.000000
_cell_length_c 12.000000
_cell_angle_alpha 130.000000
_cell_angle_beta 130.000000
_cell_angle_gamma 30.000000
_cell_volume 725.531033
_symmetry_space_group_name_H-M "P -1"
_symmetry_group_IT_number 2
_symmetry_cell_setting 'triclinic'
loop_
_space_group_symop_operation_xyz
x,y,z
-x,-y,-z
loop_
_atom_site_type_symbol
_atom_site_label
_atom_site_fract_x
_atom_site_fract_y
_atom_site_fract_z
Si Si1 0.239825 0.018155 0.394145
Si Si2 0.930747 0.459125 0.189132
Si Si3 0.826149 0.257557 0.621941
Si Si4 0.297675 0.773254 0.241939
Si Si5 0.770808 0.497079 0.900099
Si Si6 0.803938 0.848747 0.934659
Si Si7 0.265347 0.520191 0.473708
Si Si8 0.061469 0.776321 0.753313
O O1 0.025199 0.136905 0.504192
O O2 0.047495 0.100448 0.266648
O O3 0.500000 0.000000 0.500000
O O4 0.337527 0.869505 0.318037
O O5 0.629118 0.596609 0.247716
O O6 0.141639 0.288433 0.163353
O O7 0.107787 0.494511 0.303815
O O8 0.786118 0.479951 0.023387
O O9 0.874054 0.175999 0.675866
O O10 0.882448 0.351124 0.761644
O O11 0.477466 0.386581 0.537606
O O12 0.090699 0.794158 0.075287
O O13 0.419752 0.649282 0.838514
O O14 0.000000 0.500000 0.000000
O O15 0.836323 0.861605 0.832247
O O16 0.500000 0.000000 0.000000
O O17 0.500000 0.500000 0.500000
O O18 0.046066 0.679755 0.585613
#
# Coordination Sequence:
#
# PCOD9075212 Si02
#       8
#     2   2   2   2   2   2   2   2
#     4  12  29  46  75 107 154 198 248 314 384 447
#     4  12  24  49  76 108 149 197 255 304 382 456
#     4  11  25  47  72 108 152 193 251 308 371 455
#     4  12  27  50  74 107 149 200 251 312 379 451
#     4  11  24  41  82 109 147 202 248 314 378 451
#     4  12  29  48  76 109 153 198 251 315 381 450
#     4  11  23  43  78 112 149 191 251 312 377 449
#     4  11  25  49  72 111 153 192 257 312 375 455
#
# _framework density 22.052813
#
# number of rings (size 3 to 8) (size 9 to 14) (size 15 to 20)
#    0.000    0.500    3.750    4.500    5.250    3.500 
#    0.000    0.000    0.000    0.000    0.000    0.000 
#    0.000    0.000    0.000    0.000    0.000    0.000 
#
# Total GULP energy -89470.729713 kJ/mol
# GULP energy per Si atom -5591.920607 kJ/mol
# Density = 2.200262 g / cm^3
# Si number density = 22.052813 Si / 1000 Ang^3
#
#
#
# Elastic Constant Matrix: (Units=GPa)
#
#
# Indices 1 2 3 4 5 6 
#
# 1 112.9354 43.5755 49.0104 18.2965 -10.4419 4.5644
# 2 43.5755 91.6940 37.2644 27.6249 -0.5856 0.7268
# 3 49.0104 37.2644 116.2791 3.8489 2.7771 4.4335
# 4 18.2965 27.6249 3.8489 31.6585 -3.7055 -6.8190
# 5 -10.4419 -0.5856 2.7771 -3.7055 61.2289 0.5038
# 6 4.5644 0.7268 4.4335 -6.8190 0.5038 34.0705
#
#
#
# Elastic Compliance Matrix: (Units=1/GPa)
#
#
# Indices 1 2 3 4 5 6 
#
# 1 0.012878 -0.002988 -0.004294 -0.004505 0.002106 -0.002036
# 2 -0.002988 0.018300 -0.004017 -0.014373 -0.001003 -0.002329
# 3 -0.004294 -0.004017 0.011571 0.004474 -0.001025 0.000066
# 4 -0.004505 -0.014373 0.004474 0.048551 0.001747 0.010019
# 5 0.002106 -0.001003 -0.001025 0.001747 0.016834 -0.000027
# 6 -0.002036 -0.002329 0.000066 0.010019 -0.000027 0.031670
#
#
# Mechanical properties :
#
#
# Convention : Reuss Voigt Hill
#
# Bulk Modulus (GPa) = 49.62361 64.51214 57.06788
# Shear Modulus (GPa) = 29.56491 38.12880 33.84685
#
# Velocity S-wave (km/s) = 3.66545 4.16261 3.92191
# Velocity P-wave (km/s) = 6.36121 7.24017 6.81488
#
# Compressibility (1/GPa) = 0.02015170
#
# Stress axis : x y z
#
# Youngs Moduli (GPa) = 77.65286 54.64347 86.42289
#
# Poissons Ratio (x) = 0.16328 0.37109
# Poissons Ratio (y) = 0.23203 0.34715
# Poissons Ratio (z) = 0.33343 0.21950
#
# Static dielectric constant tensor:
#      x y z
#    x 1.850620 0.013770 -0.061750 
#    y 0.013770 1.840200 -0.015360 
#    z -0.061750 -0.015360 1.824230 
# 
# From -- ./inp_files/403285.got.cif
#   From: 2010.05.17/outbox.ucp.g08.bks.cvg/sg2_202_cif.got.tgz:403285.got - 2010.06.11 11:32:03.
