data_PCOD9075598
_publ_section_title
;
Structure prediction by ZEFSAII (Michael W. Deem and Ramdas Pophale) SiO2 
 PCOD9075598
Probable space group: P -1
;
_chemical_formula_sum "Si O2"
_cell_formula_units_Z 16
_cell_length_a 9.000000
_cell_length_b 12.000000
_cell_length_c 18.000000
_cell_angle_alpha 50.000000
_cell_angle_beta 140.000000
_cell_angle_gamma 100.000000
_cell_volume 729.599496
_symmetry_space_group_name_H-M "P -1"
_symmetry_group_IT_number 2
_symmetry_cell_setting 'triclinic'
loop_
_space_group_symop_operation_xyz
x,y,z
-x,-y,-z
loop_
_atom_site_type_symbol
_atom_site_label
_atom_site_fract_x
_atom_site_fract_y
_atom_site_fract_z
Si Si1 0.723997 0.075455 0.914178
Si Si2 0.177428 0.488598 0.501543
Si Si3 0.299313 0.476866 0.134179
Si Si4 0.348286 0.741869 0.484989
Si Si5 0.889393 0.603935 0.648894
Si Si6 0.578862 0.804606 0.956076
Si Si7 0.204753 0.860252 0.921802
Si Si8 0.780819 0.219216 0.297095
O O1 0.513358 0.299599 0.726887
O O2 0.573748 0.981881 0.873489
O O3 0.801572 0.050507 0.041345
O O4 0.000000 0.000000 0.000000
O O5 0.183052 0.660602 0.429303
O O6 0.000000 0.500000 0.500000
O O7 0.105714 0.435348 0.420035
O O8 0.463673 0.371765 0.319963
O O9 0.528949 0.351863 0.207287
O O10 0.220447 0.680908 0.015337
O O11 0.000000 0.500000 0.000000
O O12 0.563319 0.719245 0.512614
O O13 0.095486 0.964971 0.310627
O O14 0.041124 0.699968 0.680445
O O15 0.088211 0.391478 0.849785
O O16 0.485315 0.800182 0.005765
O O17 0.371813 0.788498 0.831028
O O18 0.000000 0.000000 0.500000
#
# Coordination Sequence:
#
# PCOD9075598 Si02
#       8
#     2   2   2   2   2   2   2   2
#     4  12  25  44  74 106 141 185 239 297 356 420
#     4  12  23  44  72 104 143 184 239 296 355 421
#     4  12  28  48  74 105 148 189 236 296 353 430
#     4  12  26  46  72 107 143 186 240 295 356 419
#     4  12  25  44  70 104 144 184 238 298 352 427
#     4  12  25  46  72 101 144 186 240 295 355 429
#     4  12  26  48  73 106 143 189 239 290 363 420
#     4  12  27  48  72 104 142 191 239 289 362 428
#
# _framework density 21.929839999999999
#
# number of rings (size 3 to 8) (size 9 to 14) (size 15 to 20)
#    0.000    0.000    2.500    7.875    5.250    0.500 
#    0.000    0.000    0.000    0.000    0.000    0.000 
#    0.000    0.000    0.000    0.000    0.000    0.000 
#
# Total GULP energy -89514.307740 kJ/mol
# GULP energy per Si atom -5594.644234 kJ/mol
# Density = 2.187993 g / cm^3
# Si number density = 21.929840 Si / 1000 Ang^3
#
#
#
# Elastic Constant Matrix: (Units=GPa)
#
#
# Indices 1 2 3 4 5 6 
#
# 1 133.5268 64.2353 16.4561 -0.1289 22.5289 -4.3854
# 2 64.2353 162.1738 25.2615 2.3735 -7.6093 11.0371
# 3 16.4561 25.2615 91.5261 -30.8584 -1.9924 5.3496
# 4 -0.1289 2.3735 -30.8584 44.9262 -4.7083 -0.8401
# 5 22.5289 -7.6093 -1.9924 -4.7083 40.7822 -1.6112
# 6 -4.3854 11.0371 5.3496 -0.8401 -1.6112 28.6834
#
#
#
# Elastic Compliance Matrix: (Units=1/GPa)
#
#
# Indices 1 2 3 4 5 6 
#
# 1 0.011325 -0.004792 -0.001575 -0.001494 -0.007265 0.003417
# 2 -0.004792 0.008778 -0.001706 -0.001307 0.003908 -0.003611
# 3 -0.001575 -0.001706 0.015561 0.010998 0.002502 -0.002024
# 4 -0.001494 -0.001307 0.010998 0.030348 0.004597 -0.000630
# 5 -0.007265 0.003908 0.002502 0.004597 0.029866 -0.001269
# 6 0.003417 -0.003611 -0.002024 -0.000630 -0.001269 0.037063
#
#
# Mechanical properties :
#
#
# Convention : Reuss Voigt Hill
#
# Bulk Modulus (GPa) = 51.23415 66.57027 58.90221
# Shear Modulus (GPa) = 32.13531 41.62996 36.88263
#
# Velocity S-wave (km/s) = 3.83217 4.36170 4.10548
# Velocity P-wave (km/s) = 6.55699 7.46913 7.02787
#
# Compressibility (1/GPa) = 0.01951823
#
# Stress axis : x y z
#
# Youngs Moduli (GPa) = 88.30041 113.91825 64.26458
#
# Poissons Ratio (x) = 0.54589 0.10122
# Poissons Ratio (y) = 0.42313 0.10962
# Poissons Ratio (z) = 0.13908 0.19432
#
# Static dielectric constant tensor:
#      x y z
#    x 1.736380 -0.016060 -0.013220 
#    y -0.016060 1.734570 0.052570 
#    z -0.013220 0.052570 1.970870 
# 
# From -- ./inp_files/223617.got.cif
#   From: 2010.05.17/outbox.ucp.g08.bks.cvg/sg2_112_cif.got.tgz:223617.got - 2010.06.11 11:32:03.
