data_PCOD9075191
_publ_section_title
;
Structure prediction by ZEFSAII (Michael W. Deem and Ramdas Pophale) SiO2 
 PCOD9075191
Probable space group: P -1
;
_chemical_formula_sum "Si O2"
_cell_formula_units_Z 16
_cell_length_a 12.000000
_cell_length_b 9.000000
_cell_length_c 15.000000
_cell_angle_alpha 50.000000
_cell_angle_beta 70.000000
_cell_angle_gamma 40.000000
_cell_volume 759.581896
_symmetry_space_group_name_H-M "P -1"
_symmetry_group_IT_number 2
_symmetry_cell_setting 'triclinic'
loop_
_space_group_symop_operation_xyz
x,y,z
-x,-y,-z
loop_
_atom_site_type_symbol
_atom_site_label
_atom_site_fract_x
_atom_site_fract_y
_atom_site_fract_z
Si Si1 0.006366 0.643706 0.250705
Si Si2 0.012841 0.888201 0.882818
Si Si3 0.317059 0.897784 0.192063
Si Si4 0.984057 0.774094 0.519451
Si Si5 0.393950 0.804249 0.861823
Si Si6 0.725302 0.663438 0.856213
Si Si7 0.718119 0.275497 0.548831
Si Si8 0.714233 0.289542 0.248833
O O1 0.993639 0.485132 0.385819
O O2 0.170716 0.389157 0.238281
O O3 0.042134 0.817217 0.209122
O O4 0.806962 0.899518 0.159973
O O5 0.159856 0.700825 0.834244
O O6 0.136718 0.671716 0.015517
O O7 0.836855 0.971519 0.887752
O O8 0.270248 0.813451 0.319426
O O9 0.526249 0.602784 0.220309
O O10 0.294328 0.143438 0.140081
O O11 0.183627 0.632536 0.518553
O O12 0.862652 0.983453 0.558815
O O13 0.851304 0.015217 0.385027
O O14 0.531116 0.813623 0.826723
O O15 0.349382 0.779440 0.784847
O O16 0.500000 0.500000 0.000000
O O17 0.500000 0.500000 0.500000
#
# Coordination Sequence:
#
# PCOD9075191 Si02
#       8
#     2   2   2   2   2   2   2   2
#     4  11  25  43  73  97 135 183 228 277 340 403
#     4  11  25  45  64 101 139 178 225 285 337 404
#     4  12  25  42  70 101 137 179 227 279 344 403
#     4  11  24  43  71 100 137 180 230 277 338 406
#     4  11  25  46  68 100 138 180 226 282 339 399
#     4  12  25  44  71 101 135 181 232 274 349 404
#     4  11  23  43  65  99 140 178 222 282 337 398
#     4  11  24  45  69  99 141 174 226 281 337 394
#
# _framework density 21.064219999999999
#
# number of rings (size 3 to 8) (size 9 to 14) (size 15 to 20)
#    0.000    0.750    6.250    1.500    3.500    3.500 
#    0.000    1.250    0.000    0.000    0.000    0.000 
#    0.000    0.000    0.000    0.000    0.000    0.000 
#
# Total GULP energy -89321.733861 kJ/mol
# GULP energy per Si atom -5582.608366 kJ/mol
# Density = 2.101628 g / cm^3
# Si number density = 21.064220 Si / 1000 Ang^3
#
#
#
# Elastic Constant Matrix: (Units=GPa)
#
#
# Indices 1 2 3 4 5 6 
#
# 1 149.8860 50.7051 17.8922 -18.8475 -2.8313 -23.6258
# 2 50.7051 78.9363 11.3977 -5.3965 -5.0617 -16.7601
# 3 17.8922 11.3977 36.6669 5.0869 -11.3242 -6.2121
# 4 -18.8475 -5.3965 5.0869 26.5433 -1.0747 0.8913
# 5 -2.8313 -5.0617 -11.3242 -1.0747 37.5065 -8.3721
# 6 -23.6258 -16.7601 -6.2121 0.8913 -8.3721 43.6725
#
#
#
# Elastic Compliance Matrix: (Units=1/GPa)
#
#
# Indices 1 2 3 4 5 6 
#
# 1 0.010089 -0.004855 -0.003960 0.006830 -0.000259 0.002842
# 2 -0.004855 0.017064 -0.001522 0.000272 0.002414 0.004163
# 3 -0.003960 -0.001522 0.035122 -0.009566 0.010840 0.004543
# 4 0.006830 0.000272 -0.009566 0.044335 -0.000756 0.001389
# 5 -0.000259 0.002414 0.010840 -0.000756 0.032117 0.008501
# 6 0.002842 0.004163 0.004543 0.001389 0.008501 0.028280
#
#
# Mechanical properties :
#
#
# Convention : Reuss Voigt Hill
#
# Bulk Modulus (GPa) = 24.03751 47.27545 35.65648
# Shear Modulus (GPa) = 24.80792 33.91073 29.35932
#
# Velocity S-wave (km/s) = 3.43553 4.01668 3.73741
# Velocity P-wave (km/s) = 5.21281 6.63353 5.96562
#
# Compressibility (1/GPa) = 0.04160164
#
# Stress axis : x y z
#
# Youngs Moduli (GPa) = 99.12054 58.60257 28.47179
#
# Poissons Ratio (x) = 0.28452 0.11274
# Poissons Ratio (y) = 0.48123 0.04334
# Poissons Ratio (z) = 0.39249 0.08920
#
# Static dielectric constant tensor:
#      x y z
#    x 1.774010 0.023930 0.009710 
#    y 0.023930 1.790480 0.035100 
#    z 0.009710 0.035100 1.821710 
# 
# From -- ./inp_files/258142.got.cif
#   From: 2010.05.17/outbox.ucp.g08.bks.cvg/sg2_130_cif.got.tgz:258142.got - 2010.06.11 11:32:03.
