data_PCOD9075606
_publ_section_title
;
Structure prediction by ZEFSAII (Michael W. Deem and Ramdas Pophale) SiO2 
 PCOD9075606
Probable space group: P -1
;
_chemical_formula_sum "Si O2"
_cell_formula_units_Z 13
_cell_length_a 12.000000
_cell_length_b 12.000000
_cell_length_c 12.000000
_cell_angle_alpha 60.000000
_cell_angle_beta 160.000000
_cell_angle_gamma 120.000000
_cell_volume 509.171229
_symmetry_space_group_name_H-M "P -1"
_symmetry_group_IT_number 2
_symmetry_cell_setting 'triclinic'
loop_
_space_group_symop_operation_xyz
x,y,z
-x,-y,-z
loop_
_atom_site_type_symbol
_atom_site_label
_atom_site_fract_x
_atom_site_fract_y
_atom_site_fract_z
Si Si1 0.476963 0.138266 0.464322
Si Si2 0.218274 0.759527 0.683971
Si Si3 0.855675 0.364215 0.564106
Si Si4 0.280350 0.042158 0.874452
Si Si5 0.000000 0.500000 0.000000
Si Si6 0.351482 0.523477 0.074221
Si Si7 0.909974 0.190869 0.033969
O O1 0.669611 0.246329 0.515097
O O2 0.093541 0.153676 0.111342
O O3 0.500000 0.000000 0.500000
O O4 0.550386 0.170954 0.648533
O O5 0.139451 0.674191 0.541711
O O6 0.320247 0.662541 0.922613
O O7 0.948147 0.848243 0.430893
O O8 0.506921 0.874004 0.873591
O O9 0.226635 0.404748 0.931961
O O10 0.729508 0.494966 0.435099
O O11 0.097885 0.915326 0.823211
O O12 0.500000 0.000000 0.000000
O O13 0.783606 0.494619 0.918529
O O14 0.981259 0.340047 0.060590
#
# Coordination Sequence:
#
# PCOD9075606 Si02
#       7
#     2   2   2   2   1   2   2
#     4  12  24  44  70 106 143 187 237 296 366 429
#     4  12  26  47  75 105 145 192 242 308 360 436
#     4  12  23  46  69 110 145 188 248 293 371 432
#     4  12  26  48  71 107 141 192 247 295 372 431
#     4  12  26  48  70 106 150 190 246 292 368 434
#     4  12  26  45  72 106 147 195 243 299 363 436
#     4  12  26  45  71 105 143 190 237 299 360 432
#
# _framework density 25.531686000000001
#
# number of rings (size 3 to 8) (size 9 to 14) (size 15 to 20)
#    0.000    0.000    3.077    7.385    0.000    3.692 
#    0.000    0.000    0.000    0.000    0.000    0.000 
#    0.000    0.000    0.000    0.000    0.000    0.000 
#
# Total GULP energy -72384.799025 kJ/mol
# GULP energy per Si atom -5568.061463 kJ/mol
# Density = 2.547357 g / cm^3
# Si number density = 25.531686 Si / 1000 Ang^3
#
#
#
# Elastic Constant Matrix: (Units=GPa)
#
#
# Indices 1 2 3 4 5 6 
#
# 1 139.9489 54.5448 12.5977 -20.9871 13.5934 3.0582
# 2 54.5448 224.7278 38.4454 -32.2460 16.7828 5.2289
# 3 12.5977 38.4454 2.9734 -30.9005 -1.1258 -0.8272
# 4 -20.9871 -32.2460 -30.9005 50.9660 -2.5440 5.8461
# 5 13.5934 16.7828 -1.1258 -2.5440 24.7062 -2.8795
# 6 3.0582 5.2289 -0.8272 5.8461 -2.8795 65.6117
#
#
#
# Elastic Compliance Matrix: (Units=1/GPa)
#
#
# Indices 1 2 3 4 5 6 
#
# 1 0.008399 -0.001294 -0.001105 0.001859 -0.003674 -0.000629
# 2 -0.001294 0.004778 0.005885 0.006070 -0.001742 -0.000864
# 3 -0.001105 0.005885 -0.054670 -0.030461 -0.008875 0.001218
# 4 0.001859 0.006070 -0.030461 0.005650 -0.006154 -0.001728
# 5 -0.003674 -0.001742 -0.008875 -0.006154 0.042949 0.002631
# 6 -0.000629 -0.000864 0.001218 -0.001728 0.002631 0.015624
#
#
# Mechanical properties :
#
#
# Convention : Reuss Voigt Hill
#
# Bulk Modulus (GPa) = -28.96773 64.31400 17.67314
# Shear Modulus (GPa) = 1176.38287 45.72759 611.05523
#
# Velocity S-wave (km/s) = 21.48847 4.23663 15.48715
# Velocity P-wave (km/s) = 24.58256 7.01260 18.07593
#
# Compressibility (1/GPa) = -0.03452118
#
# Stress axis : x y z
#
# Youngs Moduli (GPa) = 119.06863 209.27862 -18.29152
#
# Poissons Ratio (x) = 0.27074 -0.02021
# Poissons Ratio (y) = 0.15404 0.10764
# Poissons Ratio (z) = 0.13155 -1.23151
#
# Static dielectric constant tensor:
#      x y z
#    x 1.856150 0.019360 -0.015550 
#    y 0.019360 1.876030 0.031270 
#    z -0.015550 0.031270 2.235340 
# 
# From -- ./inp_files/64592.got.cif
#   From: 2010.05.17/outbox.ucp.g08.bks.cvg/sg2_33_cif.got.tgz:64592.got - 2010.06.11 11:32:03.
