data_PCOD9075109
_publ_section_title
;
Structure prediction by ZEFSAII (Michael W. Deem and Ramdas Pophale) SiO2 
 PCOD9075109
Probable space group: P -1
;
_chemical_formula_sum "Si O2"
_cell_formula_units_Z 14
_cell_length_a 12.000000
_cell_length_b 12.000000
_cell_length_c 21.000000
_cell_angle_alpha 140.000000
_cell_angle_beta 160.000000
_cell_angle_gamma 50.000000
_cell_volume 622.638272
_symmetry_space_group_name_H-M "P -1"
_symmetry_group_IT_number 2
_symmetry_cell_setting 'triclinic'
loop_
_space_group_symop_operation_xyz
x,y,z
-x,-y,-z
loop_
_atom_site_type_symbol
_atom_site_label
_atom_site_fract_x
_atom_site_fract_y
_atom_site_fract_z
Si Si1 0.676912 0.197410 0.216560
Si Si2 0.218565 0.738582 0.104355
Si Si3 0.128708 0.466354 0.816442
Si Si4 0.607833 0.102787 0.407499
Si Si5 0.657209 0.944951 0.899028
Si Si6 0.452500 0.432464 0.688592
Si Si7 0.214122 0.330187 0.373372
O O1 0.641958 0.152102 0.253381
O O2 0.496181 0.352719 0.175649
O O3 0.071842 0.303543 0.453642
O O4 0.500000 0.000000 0.000000
O O5 0.290302 0.643333 0.165720
O O6 0.541757 0.921605 0.335507
O O7 0.145770 0.593560 0.943363
O O8 0.913811 0.825175 0.985191
O O9 0.987148 0.251041 0.665852
O O10 0.887613 0.519938 0.657451
O O11 0.500000 0.500000 0.000000
O O12 0.452375 0.043923 0.227806
O O13 0.415772 0.231249 0.393496
O O14 0.865873 0.155270 0.125752
O O15 0.422752 0.403937 0.583247
#
# Coordination Sequence:
#
# PCOD9075109 Si02
#       7
#     2   2   2   2   2   2   2
#     4  11  25  46  68  97 140 190 225 271 352 413
#     4  11  26  46  65 109 137 173 241 282 339 411
#     4  12  27  42  70 103 136 180 237 286 338 408
#     4  11  24  46  74  98 138 184 227 290 344 400
#     4  11  22  45  76  97 137 187 231 285 337 413
#     4  11  27  44  69 102 143 180 225 287 344 406
#     4  11  22  48  72 100 138 182 234 275 349 418
#
# _framework density 22.484964999999999
#
# number of rings (size 3 to 8) (size 9 to 14) (size 15 to 20)
#    0.000    0.857    4.286    2.143    8.000    5.714 
#    0.000    0.000    0.000    0.000    0.000    0.000 
#    0.000    0.000    0.000    0.000    0.000    0.000 
#
# Total GULP energy -78398.538940 kJ/mol
# GULP energy per Si atom -5599.895639 kJ/mol
# Density = 2.243379 g / cm^3
# Si number density = 22.484965 Si / 1000 Ang^3
#
#
#
# Elastic Constant Matrix: (Units=GPa)
#
#
# Indices 1 2 3 4 5 6 
#
# 1 118.0058 18.6935 22.1388 1.2333 -21.7380 16.8657
# 2 18.6935 94.2817 21.6994 18.5416 -29.9200 17.0619
# 3 22.1388 21.6994 74.1089 28.6893 -6.8287 0.5793
# 4 1.2333 18.5416 28.6893 43.7327 4.9410 -0.8158
# 5 -21.7380 -29.9200 -6.8287 4.9410 47.6753 6.1478
# 6 16.8657 17.0619 0.5793 -0.8158 6.1478 36.9151
#
#
#
# Elastic Compliance Matrix: (Units=1/GPa)
#
#
# Indices 1 2 3 4 5 6 
#
# 1 0.010990 0.001898 -0.003221 0.000120 0.006625 -0.006949
# 2 0.001898 0.019690 -0.001004 -0.009760 0.015739 -0.012789
# 3 -0.003221 -0.001004 0.019833 -0.012693 0.001926 0.001023
# 4 0.000120 -0.009760 -0.012693 0.036903 -0.012691 0.007584
# 5 0.006625 0.015739 0.001926 -0.012691 0.037641 -0.016881
# 6 -0.006949 -0.012789 0.001023 0.007584 -0.016881 0.039138
#
#
# Mechanical properties :
#
#
# Convention : Reuss Voigt Hill
#
# Bulk Modulus (GPa) = 21.80531 45.71775 33.76153
# Shear Modulus (GPa) = 27.15435 40.58893 33.87164
#
# Velocity S-wave (km/s) = 3.47892 4.25333 3.88546
# Velocity P-wave (km/s) = 5.08488 6.67066 5.93101
#
# Compressibility (1/GPa) = 0.04586040
#
# Stress axis : x y z
#
# Youngs Moduli (GPa) = 90.99336 50.78796 50.42163
#
# Poissons Ratio (x) = -0.09642 0.16238
# Poissons Ratio (y) = -0.17275 0.05062
# Poissons Ratio (z) = 0.29305 0.05098
#
# Static dielectric constant tensor:
#      x y z
#    x 1.841250 -0.001780 0.062770 
#    y -0.001780 1.793420 0.001880 
#    z 0.062770 0.001880 1.895810 
# 
# From -- ./inp_files/451732.got.cif
#   From: 2010.05.17/outbox.ucp.g08.bks.cvg/sg2_226_cif.got.tgz:451732.got - 2010.06.11 11:32:03.
