data_PCOD9075892
_publ_section_title
;
Structure prediction by ZEFSAII (Michael W. Deem and Ramdas Pophale) SiO2 
 PCOD9075892
Probable space group: P -1
;
_chemical_formula_sum "Si O2"
_cell_formula_units_Z 14
_cell_length_a 6.721028
_cell_length_b 13.453247
_cell_length_c 11.508553
_cell_angle_alpha 40.222753
_cell_angle_beta 113.948459
_cell_angle_gamma 121.346944
_cell_volume 573.820141
_symmetry_space_group_name_H-M "P -1"
_symmetry_group_IT_number 2
_symmetry_cell_setting 'triclinic'
loop_
_space_group_symop_operation_xyz
x,y,z
-x,-y,-z
loop_
_atom_site_type_symbol
_atom_site_label
_atom_site_fract_x
_atom_site_fract_y
_atom_site_fract_z
Si Si1 0.589737 0.721347 0.387968
Si Si2 0.378441 0.316531 0.177236
Si Si3 0.693386 0.396827 0.775477
Si Si4 0.286546 0.174126 0.032554
Si Si5 0.844528 0.333252 0.384686
Si Si6 0.111546 0.162585 0.452707
Si Si7 0.029528 0.797499 0.254423
O O1 0.593287 0.546865 0.595503
O O2 0.366604 0.700117 0.275612
O O3 0.677685 0.840473 0.411535
O O4 0.796361 0.781657 0.288218
O O5 0.585991 0.286065 0.322359
O O6 0.191768 0.299604 0.248613
O O7 0.500000 0.500000 0.000000
O O8 0.290369 0.201769 0.146728
O O9 0.539232 0.283089 0.941577
O O10 0.968507 0.491556 0.769862
O O11 0.087695 0.231999 0.873901
O O12 0.210150 0.983444 0.146761
O O13 0.873934 0.321424 0.541103
O O14 0.936028 0.201761 0.462159
O O15 0.000000 0.000000 0.500000
#
# Coordination Sequence:
#
# PCOD9075892 Si02
#       7
#     2   2   2   2   2   2   2
#     4   8  14  30  53  79 111 151 193 229 275 336
#     4  12  25  38  58  89 119 151 193 243 293 338
#     4   8  15  30  55  78 108 154 192 231 280 330
#     4  10  18  32  56  88 117 144 190 241 286 338
#     4  10  22  41  60  82 117 158 196 233 283 346
#     4  10  21  37  59  87 119 153 188 232 290 352
#     4   8  17  34  59  83 110 153 192 233 287 339
#
# _framework density 24.397888999999999
#
# number of rings (size 3 to 8) (size 9 to 14) (size 15 to 20)
#    0.000    2.857    0.000    4.286    0.000    4.571 
#    0.000    2.857    0.000    1.714    0.000   21.000 
#    0.000    0.000    0.000    0.000    0.000    0.000 
#
# Total GULP energy -78165.375615 kJ/mol
# GULP energy per Si atom -5583.241115 kJ/mol
# Density = 2.434236 g / cm^3
# Si number density = 24.397889 Si / 1000 Ang^3
#
#
#
# Elastic Constant Matrix: (Units=GPa)
#
#
# Indices 1 2 3 4 5 6 
#
# 1 44.3046 8.6243 18.6034 12.8122 -6.3237 0.2152
# 2 8.6243 124.4452 12.2186 27.0504 -3.4373 -1.7578
# 3 18.6034 12.2186 78.6923 17.4163 -14.4295 9.5072
# 4 12.8122 27.0504 17.4163 63.7780 3.5193 -9.3510
# 5 -6.3237 -3.4373 -14.4295 3.5193 25.2428 4.7688
# 6 0.2152 -1.7578 9.5072 -9.3510 4.7688 20.7213
#
#
#
# Elastic Compliance Matrix: (Units=1/GPa)
#
#
# Indices 1 2 3 4 5 6 
#
# 1 0.026408 -0.000310 -0.003986 -0.004637 0.005277 -0.001779
# 2 -0.000310 0.008980 0.000207 -0.004174 0.002169 -0.001713
# 3 -0.003986 0.000207 0.019973 -0.007895 0.014574 -0.016022
# 4 -0.004637 -0.004174 -0.007895 0.023727 -0.012755 0.016959
# 5 0.005277 0.002169 0.014574 -0.012755 0.056108 -0.025226
# 6 -0.001779 -0.001713 -0.016022 0.016959 -0.025226 0.068943
#
#
# Mechanical properties :
#
#
# Convention : Reuss Voigt Hill
#
# Bulk Modulus (GPa) = 21.19384 36.25942 28.72663
# Shear Modulus (GPa) = 21.92558 35.81479 28.87019
#
# Velocity S-wave (km/s) = 3.00103 3.83554 3.44365
# Velocity P-wave (km/s) = 4.55125 5.87444 5.25466
#
# Compressibility (1/GPa) = 0.04718352
#
# Stress axis : x y z
#
# Youngs Moduli (GPa) = 37.86742 111.36146 50.06693
#
# Poissons Ratio (x) = 0.03454 0.19957
# Poissons Ratio (y) = 0.01175 -0.01039
# Poissons Ratio (z) = 0.15094 -0.02311
#
# Static dielectric constant tensor:
#      x y z
#    x 1.989400 0.002080 0.046410 
#    y 0.002080 1.961470 0.010980 
#    z 0.046410 0.010980 2.017540 
# 
# From -- ./inp_files/401053.got.cif
#   From: 2010.05.17/outbox.cif.g08.bks.cpg/sg2_201_cif.got.tgz:401053.got - 2010.06.03 11:33:40.
