data_PCOD9075402
_publ_section_title
;
Structure prediction by ZEFSAII (Michael W. Deem and Ramdas Pophale) SiO2 
 PCOD9075402
Probable space group: P -1
;
_chemical_formula_sum "Si O2"
_cell_formula_units_Z 16
_cell_length_a 18.000000
_cell_length_b 24.000000
_cell_length_c 15.000000
_cell_angle_alpha 20.000000
_cell_angle_beta 30.000000
_cell_angle_gamma 20.000000
_cell_volume 749.971719
_symmetry_space_group_name_H-M "P -1"
_symmetry_group_IT_number 2
_symmetry_cell_setting 'triclinic'
loop_
_space_group_symop_operation_xyz
x,y,z
-x,-y,-z
loop_
_atom_site_type_symbol
_atom_site_label
_atom_site_fract_x
_atom_site_fract_y
_atom_site_fract_z
Si Si1 0.361444 0.489134 0.602984
Si Si2 0.109345 0.523361 0.276144
Si Si3 0.982083 0.912015 0.240869
Si Si4 0.663563 0.978110 0.972660
Si Si5 0.573806 0.993458 0.530245
Si Si6 0.255004 0.749517 0.853601
Si Si7 0.698976 0.997879 0.715268
Si Si8 0.102482 0.508943 0.964007
O O1 0.500000 0.500000 0.500000
O O2 0.173197 0.613383 0.684880
O O3 0.219216 0.651548 0.418830
O O4 0.525346 0.205501 0.840706
O O5 0.350799 0.252783 0.411392
O O6 0.000000 0.500000 0.500000
O O7 0.907184 0.711854 0.135063
O O8 0.150333 0.675195 0.032225
O O9 0.787835 0.937027 0.390877
O O10 0.886256 0.093822 0.148466
O O11 0.000000 0.000000 0.000000
O O12 0.511947 0.941247 0.177508
O O13 0.672937 0.076894 0.724126
O O14 0.500000 0.000000 0.500000
O O15 0.681622 0.752709 0.830380
O O16 0.272186 0.885556 0.562545
O O17 0.500000 0.500000 0.000000
O O18 0.906953 0.707175 0.935105
O O19 0.000000 0.500000 0.000000
#
# Coordination Sequence:
#
# PCOD9075402 Si02
#       8
#     2   2   2   2   2   2   2   2
#     4  12  26  45  73 104 142 192 241 296 357 431
#     4  12  27  45  72 106 148 192 237 291 366 430
#     4  12  28  48  72 109 145 190 243 302 364 428
#     4  11  25  44  72 107 141 184 243 299 353 435
#     4  12  27  47  72 107 144 189 236 302 362 430
#     4  12  25  47  72 100 144 190 232 293 363 429
#     4  11  24  46  74 104 138 188 242 295 361 423
#     4  12  22  47  75  97 139 188 242 287 357 426
#
# _framework density 21.334137999999999
#
# number of rings (size 3 to 8) (size 9 to 14) (size 15 to 20)
#    0.000    0.250    5.000    3.000    5.250    1.500 
#    0.000    0.000    0.000    0.000    0.000    0.000 
#    0.000    0.000    0.000    0.000    0.000    0.000 
#
# Total GULP energy -89166.391731 kJ/mol
# GULP energy per Si atom -5572.899483 kJ/mol
# Density = 2.128558 g / cm^3
# Si number density = 21.334138 Si / 1000 Ang^3
#
#
#
# Elastic Constant Matrix: (Units=GPa)
#
#
# Indices 1 2 3 4 5 6 
#
# 1 100.5442 57.6626 51.5988 0.8279 21.3121 -13.3265
# 2 57.6626 102.6165 50.8732 -0.7413 12.8408 -12.1531
# 3 51.5988 50.8732 105.8787 -3.5855 35.6382 -4.7035
# 4 0.8279 -0.7413 -3.5855 43.0489 -4.1481 5.7961
# 5 21.3121 12.8408 35.6382 -4.1481 30.5165 -0.9448
# 6 -13.3265 -12.1531 -4.7035 5.7961 -0.9448 39.7616
#
#
#
# Elastic Compliance Matrix: (Units=1/GPa)
#
#
# Indices 1 2 3 4 5 6 
#
# 1 0.017206 -0.007100 -0.002966 -0.001701 -0.005692 0.003358
# 2 -0.007100 0.016315 -0.006049 0.000150 0.005240 0.001994
# 3 -0.002966 -0.006049 0.020123 -0.000073 -0.018922 -0.000902
# 4 -0.001701 0.000150 -0.000073 0.024213 0.004379 -0.003958
# 5 -0.005692 0.005240 -0.018922 0.004379 0.057175 -0.001824
# 6 0.003358 0.001994 -0.000902 -0.003958 -0.001824 0.027312
#
#
# Mechanical properties :
#
#
# Convention : Reuss Voigt Hill
#
# Bulk Modulus (GPa) = 46.69980 69.92318 58.31149
# Shear Modulus (GPa) = 24.78770 32.59239 28.69004
#
# Velocity S-wave (km/s) = 3.41233 3.91283 3.67112
# Velocity P-wave (km/s) = 6.12067 7.29795 6.73508
#
# Compressibility (1/GPa) = 0.02141337
#
# Stress axis : x y z
#
# Youngs Moduli (GPa) = 58.12066 61.29243 49.69402
#
# Poissons Ratio (x) = 0.43518 0.14739
# Poissons Ratio (y) = 0.41266 0.30061
# Poissons Ratio (z) = 0.17239 0.37077
#
# Static dielectric constant tensor:
#      x y z
#    x -0.601960 0.549880 0.251340 
#    y 0.549880 1.605990 -0.044310 
#    z 0.251340 -0.044310 1.779120 
# 
# From -- ./inp_files/403334.got.cif
#   From: 2010.05.17/outbox.ucp.g08.bks.cvg/sg2_202_cif.got.tgz:403334.got - 2010.06.11 11:32:03.
