data_PCOD9075213
_publ_section_title
;
Structure prediction by ZEFSAII (Michael W. Deem and Ramdas Pophale) SiO2 
 PCOD9075213
Probable space group: P -1
;
_chemical_formula_sum "Si O2"
_cell_formula_units_Z 16
_cell_length_a 12.000000
_cell_length_b 9.000000
_cell_length_c 18.000000
_cell_angle_alpha 150.000000
_cell_angle_beta 50.000000
_cell_angle_gamma 130.000000
_cell_volume 725.531033
_symmetry_space_group_name_H-M "P -1"
_symmetry_group_IT_number 2
_symmetry_cell_setting 'triclinic'
loop_
_space_group_symop_operation_xyz
x,y,z
-x,-y,-z
loop_
_atom_site_type_symbol
_atom_site_label
_atom_site_fract_x
_atom_site_fract_y
_atom_site_fract_z
Si Si1 0.203181 0.935226 0.444695
Si Si2 0.645934 0.847126 0.293913
Si Si3 0.935794 0.246590 0.731527
Si Si4 0.509295 0.585319 0.947658
Si Si5 0.474879 0.335863 0.571927
Si Si6 0.774333 0.700183 0.793569
Si Si7 0.665166 0.909124 0.781067
Si Si8 0.958106 0.730959 0.057498
O O1 0.155484 0.781298 0.318597
O O2 0.200034 0.641240 0.370490
O O3 0.362457 0.168070 0.485385
O O4 0.086700 0.138407 0.604180
O O5 0.527493 0.688010 0.213858
O O6 0.613045 0.712010 0.332213
O O7 0.801554 0.802801 0.178177
O O8 0.616477 0.183679 0.455746
O O9 0.832004 0.988382 0.714165
O O10 0.956178 0.560546 0.904870
O O11 0.677963 0.743439 0.925510
O O12 0.500000 0.500000 0.000000
O O13 0.393418 0.784825 0.060757
O O14 0.547275 0.687736 0.683947
O O15 0.676294 0.771625 0.797517
O O16 0.924062 0.952778 0.847110
O O17 0.000000 0.500000 0.000000
#
# Coordination Sequence:
#
# PCOD9075213 Si02
#       8
#     2   2   2   2   2   2   2   2
#     4  11  26  48  68  98 149 186 227 288 359 412
#     4  11  23  44  66 101 140 180 230 293 337 418
#     4  11  26  47  67 103 148 182 230 295 345 422
#     4  12  25  47  70 102 145 181 229 298 352 409
#     4  11  24  43  71 100 140 182 235 285 346 414
#     4  12  25  44  73 104 137 190 233 284 357 413
#     4  12  25  42  73 105 135 182 242 286 346 422
#     4  12  25  43  72 102 141 183 237 289 349 412
#
# _framework density 22.052813
#
# number of rings (size 3 to 8) (size 9 to 14) (size 15 to 20)
#    0.000    0.500    5.000    2.625    5.250    1.500 
#    0.000    0.000    0.000    0.000    0.000    0.000 
#    0.000    0.000    0.000    0.000    0.000    0.000 
#
# Total GULP energy -89372.758066 kJ/mol
# GULP energy per Si atom -5585.797379 kJ/mol
# Density = 2.200262 g / cm^3
# Si number density = 22.052813 Si / 1000 Ang^3
#
#
#
# Elastic Constant Matrix: (Units=GPa)
#
#
# Indices 1 2 3 4 5 6 
#
# 1 102.2734 26.1918 50.6053 -3.4249 3.5933 7.3541
# 2 26.1918 46.3229 25.9770 4.0756 -10.8543 13.0227
# 3 50.6053 25.9770 66.8467 -4.1267 43.2256 3.7416
# 4 -3.4249 4.0756 -4.1267 25.9628 6.1513 5.7876
# 5 3.5933 -10.8543 43.2256 6.1513 -9.0863 5.2686
# 6 7.3541 13.0227 3.7416 5.7876 5.2686 41.5314
#
#
#
# Elastic Compliance Matrix: (Units=1/GPa)
#
#
# Indices 1 2 3 4 5 6 
#
# 1 0.014056 -0.006979 -0.004489 0.003365 -0.005022 0.000272
# 2 -0.006979 0.021812 0.004272 -0.000005 -0.011148 -0.004574
# 3 -0.004489 0.004272 0.005812 -0.003703 0.016712 -0.002672
# 4 0.003365 -0.000005 -0.003703 0.038370 0.006004 -0.006370
# 5 -0.005022 -0.011148 0.016712 0.006004 -0.013013 0.003693
# 6 0.000272 -0.004574 -0.002672 -0.006370 0.003693 0.026124
#
#
# Mechanical properties :
#
#
# Convention : Reuss Voigt Hill
#
# Bulk Modulus (GPa) = 36.64708 46.77679 41.71193
# Shear Modulus (GPa) = 42.86379 19.19283 31.02831
#
# Velocity S-wave (km/s) = 4.41351 2.95331 3.75507
# Velocity P-wave (km/s) = 6.52886 5.73469 6.14462
#
# Compressibility (1/GPa) = 0.02728730
#
# Stress axis : x y z
#
# Youngs Moduli (GPa) = 71.14546 45.84612 172.06915
#
# Poissons Ratio (x) = 0.31998 0.77236
# Poissons Ratio (y) = 0.49656 -0.73509
# Poissons Ratio (z) = 0.31935 -0.19586
#
# Static dielectric constant tensor:
#      x y z
#    x 1.843350 0.011560 -0.001510 
#    y 0.011560 1.848040 -0.026080 
#    z -0.001510 -0.026080 1.800070 
# 
# From -- ./inp_files/243323.got.cif
#   From: 2010.05.17/outbox.ucp.g08.bks.cvg/sg2_122_cif.got.tgz:243323.got - 2010.06.11 11:32:03.
