data_PCOD9075875
_publ_section_title
;
Structure prediction by ZEFSAII (Michael W. Deem and Ramdas Pophale) SiO2 
 PCOD9075875
Probable space group: P -1
;
_chemical_formula_sum "Si O2"
_cell_formula_units_Z 15
_cell_length_a 14.447874
_cell_length_b 9.350477
_cell_length_c 7.851784
_cell_angle_alpha 132.413206
_cell_angle_beta 49.951602
_cell_angle_gamma 132.632679
_cell_volume 541.091776
_symmetry_space_group_name_H-M "P -1"
_symmetry_group_IT_number 2
_symmetry_cell_setting 'triclinic'
loop_
_space_group_symop_operation_xyz
x,y,z
-x,-y,-z
loop_
_atom_site_type_symbol
_atom_site_label
_atom_site_fract_x
_atom_site_fract_y
_atom_site_fract_z
Si Si1 0.994728 0.752828 0.169669
Si Si2 0.433895 0.741547 0.854300
Si Si3 0.844220 0.467945 0.798230
Si Si4 0.500000 0.000000 0.500000
Si Si5 0.424302 0.309713 0.069611
Si Si6 0.757015 0.085230 0.383381
Si Si7 0.222334 0.637063 0.740469
Si Si8 0.869695 0.829465 0.812444
O O1 0.142052 0.760953 0.024787
O O2 0.939310 0.602413 0.945742
O O3 0.012553 0.987266 0.286957
O O4 0.888726 0.608746 0.318544
O O5 0.352079 0.669863 0.717903
O O6 0.308384 0.610153 0.025720
O O7 0.540232 0.670267 0.756289
O O8 0.500000 0.000000 0.000000
O O9 0.837520 0.241660 0.564067
O O10 0.881487 0.633122 0.731498
O O11 0.459060 0.123711 0.800004
O O12 0.600674 0.938212 0.468252
O O13 0.269636 0.254070 0.189484
O O14 0.500000 0.500000 0.000000
O O15 0.735158 0.246943 0.398338
O O16 0.838485 0.965097 0.111368
#
# Coordination Sequence:
#
# PCOD9075875 Si02
#       8
#     2   2   2   1   2   2   2   2
#     4   9  19  37  57  82 116 159 195 239 289 350
#     4  11  20  35  58  88 117 157 190 237 301 354
#     4  11  21  36  61  86 114 152 205 238 283 349
#     4  10  18  32  56  86 112 144 192 238 282 340
#     4  11  20  36  61  87 116 149 193 242 287 347
#     4  10  20  35  59  86 114 155 196 243 287 345
#     4   9  20  35  56  83 120 155 192 239 299 342
#     4  10  20  35  58  87 115 149 192 248 286 335
#
# _framework density 27.721727999999999
#
# number of rings (size 3 to 8) (size 9 to 14) (size 15 to 20)
#    0.000    1.867    2.667    2.800    0.000    2.133 
#    0.000    0.667    0.000   33.600    0.000    0.000 
#    0.000    0.000    0.000    0.000    0.000    0.000 
#
# Total GULP energy -83715.692061 kJ/mol
# GULP energy per Si atom -5581.046137 kJ/mol
# Density = 2.765863 g / cm^3
# Si number density = 27.721728 Si / 1000 Ang^3
#
#
#
# Elastic Constant Matrix: (Units=GPa)
#
#
# Indices 1 2 3 4 5 6 
#
# 1 107.0270 21.2544 10.8868 2.2988 21.0691 8.7281
# 2 21.2544 126.9056 -21.9008 0.5785 18.2316 0.2295
# 3 10.8868 -21.9008 58.1148 7.8129 3.2710 3.5744
# 4 2.2988 0.5785 7.8129 41.6503 4.2227 3.1003
# 5 21.0691 18.2316 3.2710 4.2227 41.6518 -1.4742
# 6 8.7281 0.2295 3.5744 3.1003 -1.4742 38.6418
#
#
#
# Elastic Compliance Matrix: (Units=1/GPa)
#
#
# Indices 1 2 3 4 5 6 
#
# 1 0.011033 -0.001542 -0.002290 0.000522 -0.004868 -0.002499
# 2 -0.001542 0.009364 0.004090 -0.000433 -0.003603 -0.000188
# 3 -0.002290 0.004090 0.019807 -0.003370 -0.001886 -0.001141
# 4 0.000522 -0.000433 -0.003370 0.025005 -0.002412 -0.001902
# 5 -0.004868 -0.003603 -0.001886 -0.002412 0.028532 0.002577
# 6 -0.002499 -0.000188 -0.001141 -0.001902 0.002577 0.026801
#
#
# Mechanical properties :
#
#
# Convention : Reuss Voigt Hill
#
# Bulk Modulus (GPa) = 24.55757 34.72535 29.64146
# Shear Modulus (GPa) = 37.42547 43.17592 40.30070
#
# Velocity S-wave (km/s) = 3.67828 3.95077 3.81695
# Velocity P-wave (km/s) = 5.18820 5.77625 5.49010
#
# Compressibility (1/GPa) = 0.04072064
#
# Stress axis : x y z
#
# Youngs Moduli (GPa) = 90.63401 106.79358 50.48685
#
# Poissons Ratio (x) = 0.16464 0.11563
# Poissons Ratio (y) = 0.13973 -0.20650
# Poissons Ratio (z) = 0.20759 -0.43681
#
# Static dielectric constant tensor:
#      x y z
#    x 2.215940 -0.187650 0.131690 
#    y -0.187650 1.638740 0.074360 
#    z 0.131690 0.074360 2.229740 
# 
# From -- ./inp_files/170473.got.cif
#   From: 2010.05.17/outbox.cif.g08.bks.cpg/sg2_86_cif.got.tgz:170473.got - 2010.06.03 11:33:40.
