data_PCOD9075029
_publ_section_title
;
Structure prediction by ZEFSAII (Michael W. Deem and Ramdas Pophale) SiO2 
 PCOD9075029
Probable space group: P -1
;
_chemical_formula_sum "Si O2"
_cell_formula_units_Z 14
_cell_length_a 15.000000
_cell_length_b 21.000000
_cell_length_c 12.000000
_cell_angle_alpha 160.000000
_cell_angle_beta 30.000000
_cell_angle_gamma 150.000000
_cell_volume 615.533390
_symmetry_space_group_name_H-M "P -1"
_symmetry_group_IT_number 2
_symmetry_cell_setting 'triclinic'
loop_
_space_group_symop_operation_xyz
x,y,z
-x,-y,-z
loop_
_atom_site_type_symbol
_atom_site_label
_atom_site_fract_x
_atom_site_fract_y
_atom_site_fract_z
Si Si1 0.556737 0.843258 0.259161
Si Si2 0.956686 0.081217 0.313158
Si Si3 0.179359 0.815445 0.723842
Si Si4 0.996902 0.561550 0.306567
Si Si5 0.377551 0.479711 0.710899
Si Si6 0.699547 0.949854 0.820456
Si Si7 0.744107 0.138276 0.855818
O O1 0.392082 0.813095 0.478365
O O2 0.500000 0.000000 0.500000
O O3 0.766479 0.932966 0.222932
O O4 0.511194 0.636414 0.907340
O O5 0.030735 0.267736 0.460595
O O6 0.873339 0.127738 0.595249
O O7 0.121982 0.988768 0.007585
O O8 0.052873 0.632372 0.489634
O O9 0.169412 0.872951 0.956715
O O10 0.186254 0.537263 0.005468
O O11 0.823058 0.366954 0.177880
O O12 0.500000 0.500000 0.500000
O O13 0.304211 0.260320 0.475687
O O14 0.763783 0.998809 0.705469
O O15 0.477986 0.929084 0.037014
#
# Coordination Sequence:
#
# PCOD9075029 Si02
#       7
#     2   2   2   2   2   2   2
#     4  11  22  41  65 104 140 169 221 279 335 397
#     4  12  23  43  71 100 138 176 221 279 335 398
#     4  11  24  42  70  98 137 179 217 281 336 394
#     4  11  25  43  67 105 133 170 231 277 329 399
#     4  11  23  40  72  99 133 179 220 277 339 395
#     4  11  25  47  68  95 138 181 223 275 343 393
#     4  11  26  45  67  98 136 179 228 279 326 408
#
# _framework density 22.744501
#
# number of rings (size 3 to 8) (size 9 to 14) (size 15 to 20)
#    0.000    0.857    4.286    3.429    2.000    4.000 
#    0.000    2.143    0.000    0.000    0.000    0.000 
#    0.000    0.000    0.000    0.000    0.000    0.000 
#
# Total GULP energy -78231.668667 kJ/mol
# GULP energy per Si atom -5587.976333 kJ/mol
# Density = 2.269273 g / cm^3
# Si number density = 22.744501 Si / 1000 Ang^3
#
#
#
# Elastic Constant Matrix: (Units=GPa)
#
#
# Indices 1 2 3 4 5 6 
#
# 1 92.9688 39.8720 50.6863 8.9574 16.5895 9.6097
# 2 39.8720 83.8842 26.5748 18.9313 14.8536 7.8343
# 3 50.6863 26.5748 99.4285 2.0512 7.3168 -0.5921
# 4 8.9574 18.9313 2.0512 12.7486 18.5180 -6.2404
# 5 16.5895 14.8536 7.3168 18.5180 38.8326 3.8135
# 6 9.6097 7.8343 -0.5921 -6.2404 3.8135 19.6749
#
#
#
# Elastic Compliance Matrix: (Units=1/GPa)
#
#
# Indices 1 2 3 4 5 6 
#
# 1 0.018373 -0.006857 -0.007150 0.008774 -0.007852 -0.002154
# 2 -0.006857 -0.000152 0.004946 0.076061 -0.037651 0.034981
# 3 -0.007150 0.004946 0.011878 -0.030535 0.014529 -0.010621
# 4 0.008774 0.076061 -0.030535 -0.366623 0.165803 -0.183911
# 5 -0.007852 -0.037651 0.014529 0.165803 -0.046232 0.080814
# 6 -0.002154 0.034981 -0.010621 -0.183911 0.080814 -0.036366
#
#
# Mechanical properties :
#
#
# Convention : Reuss Voigt Hill
#
# Bulk Modulus (GPa) = 83.48762 56.72755 70.10759
# Shear Modulus (GPa) = -12.59420 24.86110 6.13345
#
# Velocity S-wave (km/s) = -2.35569 3.30973 1.64394
# Velocity P-wave (km/s) = 5.42101 6.29294 5.87318
#
# Compressibility (1/GPa) = 0.01197782
#
# Stress axis : x y z
#
# Youngs Moduli (GPa) = 54.42654 -6567.37838 84.19091
#
# Poissons Ratio (x) = -45.03219 0.60194
# Poissons Ratio (y) = 0.37320 -0.41641
# Poissons Ratio (z) = 0.38913 32.48272
#
# Static dielectric constant tensor:
#      x y z
#    x 1.895120 0.015050 0.031550 
#    y 0.015050 1.777190 -0.022710 
#    z 0.031550 -0.022710 1.934350 
# 
# From -- ./inp_files/457800.got.cif
#   From: 2010.05.17/outbox.ucp.g08.bks.cvg/sg2_229_cif.got.tgz:457800.got - 2010.06.11 11:32:03.
