data_PCOD9075311
_publ_section_title
;
Structure prediction by ZEFSAII (Michael W. Deem and Ramdas Pophale) SiO2 
 PCOD9075311
Probable space group: P -1
;
_chemical_formula_sum "Si O2"
_cell_formula_units_Z 14
_cell_length_a 9.000000
_cell_length_b 6.000000
_cell_length_c 12.000000
_cell_angle_alpha 80.000000
_cell_angle_beta 80.000000
_cell_angle_gamma 100.000000
_cell_volume 614.427936
_symmetry_space_group_name_H-M "P -1"
_symmetry_group_IT_number 2
_symmetry_cell_setting 'triclinic'
loop_
_space_group_symop_operation_xyz
x,y,z
-x,-y,-z
loop_
_atom_site_type_symbol
_atom_site_label
_atom_site_fract_x
_atom_site_fract_y
_atom_site_fract_z
Si Si1 0.751607 0.969899 0.486156
Si Si2 0.400107 0.954877 0.272249
Si Si3 0.573920 0.651581 0.372110
Si Si4 0.842798 0.267047 0.827851
Si Si5 0.810054 0.686034 0.157854
Si Si6 0.948796 0.643212 0.595572
Si Si7 0.295316 0.808212 0.911848
O O1 0.654882 0.894472 0.395580
O O2 0.822824 0.763865 0.545191
O O3 0.643444 0.015237 0.596608
O O4 0.896543 0.167615 0.417200
O O5 0.451358 0.705905 0.294141
O O6 0.241435 0.930528 0.228277
O O7 0.536509 0.127819 0.175373
O O8 0.500000 0.500000 0.500000
O O9 0.712855 0.586711 0.290346
O O10 0.884680 0.495932 0.725039
O O11 0.007658 0.237953 0.852868
O O12 0.725382 0.248641 0.948593
O O13 0.783984 0.448614 0.106573
O O14 0.760322 0.937546 0.114579
O O15 0.000000 0.500000 0.500000
#
# Coordination Sequence:
#
# PCOD9075311 Si02
#       7
#     2   2   2   2   2   2   2
#     4  11  24  42  70 103 144 185 237 293 367 433
#     4  11  25  44  71 106 145 186 245 298 367 431
#     4  11  24  43  70 103 146 193 234 297 367 436
#     4  12  25  45  77 103 143 191 245 305 358 432
#     4  11  27  48  76 106 146 190 251 298 362 434
#     4  11  24  43  67 108 142 178 239 303 359 424
#     4  11  27  52  71 109 144 195 243 303 367 432
#
# _framework density 22.785422000000001
#
# number of rings (size 3 to 8) (size 9 to 14) (size 15 to 20)
#    0.000    0.857    1.429    4.286    8.000    2.286 
#    0.000    4.286    0.000    0.000    0.000    0.000 
#    0.000    0.000    0.000    0.000    0.000    0.000 
#
# Total GULP energy -78079.057723 kJ/mol
# GULP energy per Si atom -5577.075552 kJ/mol
# Density = 2.273356 g / cm^3
# Si number density = 22.785422 Si / 1000 Ang^3
#
#
#
# Elastic Constant Matrix: (Units=GPa)
#
#
# Indices 1 2 3 4 5 6 
#
# 1 61.7814 39.2952 -2.5616 -19.3873 -2.8446 1.8447
# 2 39.2952 82.0020 14.0156 -8.4893 13.9186 12.1127
# 3 -2.5616 14.0156 140.1297 -23.3243 -15.9889 4.1161
# 4 -19.3873 -8.4893 -23.3243 42.5201 10.2256 -6.1966
# 5 -2.8446 13.9186 -15.9889 10.2256 26.7301 5.0376
# 6 1.8447 12.1127 4.1161 -6.1966 5.0376 23.1522
#
#
#
# Elastic Compliance Matrix: (Units=1/GPa)
#
#
# Indices 1 2 3 4 5 6 
#
# 1 0.031658 -0.017405 0.005293 0.012600 0.009467 0.006955
# 2 -0.017405 0.024756 -0.004780 -0.003285 -0.014765 -0.008382
# 3 0.005293 -0.004780 0.009292 0.005008 0.006633 0.000324
# 4 0.012600 -0.003285 0.005008 0.035322 -0.009608 0.011369
# 5 0.009467 -0.014765 0.006633 -0.009608 0.055416 -0.008838
# 6 0.006955 -0.008382 0.000324 0.011369 -0.008838 0.051932
#
#
# Mechanical properties :
#
#
# Convention : Reuss Voigt Hill
#
# Bulk Modulus (GPa) = 31.32606 42.82350 37.07478
# Shear Modulus (GPa) = 19.77856 34.02476 26.90166
#
# Velocity S-wave (km/s) = 2.94944 3.86848 3.43979
# Velocity P-wave (km/s) = 5.03757 6.22804 5.66417
#
# Compressibility (1/GPa) = 0.03192231
#
# Stress axis : x y z
#
# Youngs Moduli (GPa) = 31.58806 40.39392 107.62004
#
# Poissons Ratio (x) = 0.70304 -0.56958
# Poissons Ratio (y) = 0.54978 0.51439
# Poissons Ratio (z) = -0.16718 0.19307
#
# Static dielectric constant tensor:
#      x y z
#    x 2.148530 -0.080820 -0.067660 
#    y -0.080820 1.942890 0.051090 
#    z -0.067660 0.051090 1.853540 
# 
# From -- ./inp_files/70074.got.cif
#   From: 2010.05.17/outbox.ucp.g08.bks.cvg/sg2_36_cif.got.tgz:70074.got - 2010.06.11 11:32:03.
