data_PCOD9075597
_publ_section_title
;
Structure prediction by ZEFSAII (Michael W. Deem and Ramdas Pophale) SiO2 
 PCOD9075597
Probable space group: P -1
;
_chemical_formula_sum "Si O2"
_cell_formula_units_Z 12
_cell_length_a 15.000000
_cell_length_b 15.000000
_cell_length_c 9.000000
_cell_angle_alpha 90.000000
_cell_angle_beta 80.000000
_cell_angle_gamma 20.000000
_cell_volume 596.685034
_symmetry_space_group_name_H-M "P -1"
_symmetry_group_IT_number 2
_symmetry_cell_setting 'triclinic'
loop_
_space_group_symop_operation_xyz
x,y,z
-x,-y,-z
loop_
_atom_site_type_symbol
_atom_site_label
_atom_site_fract_x
_atom_site_fract_y
_atom_site_fract_z
Si Si1 0.179701 0.348385 0.095560
Si Si2 0.566307 0.348874 0.879842
Si Si3 0.715387 0.369930 0.359826
Si Si4 0.530522 0.229923 0.386736
Si Si5 0.226574 0.518390 0.160493
Si Si6 0.238688 0.316070 0.544450
O O1 0.195940 0.439641 0.133545
O O2 0.977461 0.475244 0.255811
O O3 0.000000 0.500000 0.000000
O O4 0.500000 0.000000 0.000000
O O5 0.393770 0.527064 0.776985
O O6 0.500000 0.500000 0.000000
O O7 0.408883 0.407126 0.989999
O O8 0.925688 0.992556 0.744398
O O9 0.500000 0.500000 0.500000
O O10 0.617875 0.555111 0.465766
O O11 0.423032 0.348070 0.251055
O O12 0.386327 0.269953 0.464052
O O13 0.893119 0.874431 0.284597
O O14 0.000000 0.500000 0.500000
O O15 0.500000 0.000000 0.500000
#
# Coordination Sequence:
#
# PCOD9075597 Si02
#       6
#     2   2   2   2   2   2
#     4  12  26  41  65  95 137 174 221 270 322 388
#     4  12  26  46  71 100 135 171 212 271 334 394
#     4  12  26  46  72 102 129 171 220 271 324 394
#     4  12  24  44  69  96 133 174 223 271 319 392
#     4  12  25  45  66  98 134 177 215 271 334 381
#     4  12  23  44  65  95 130 181 221 262 325 383
#
# _framework density 20.111113
#
# number of rings (size 3 to 8) (size 9 to 14) (size 15 to 20)
#    0.000    0.000    3.333    7.000    4.667    0.000 
#    0.000    0.000    0.000    0.000    0.000    0.000 
#    0.000    0.000    0.000    0.000    0.000    0.000 
#
# Total GULP energy -66945.213693 kJ/mol
# GULP energy per Si atom -5578.767808 kJ/mol
# Density = 2.006534 g / cm^3
# Si number density = 20.111113 Si / 1000 Ang^3
#
#
#
# Elastic Constant Matrix: (Units=GPa)
#
#
# Indices 1 2 3 4 5 6 
#
# 1 91.5546 -5.7193 -6.4761 7.4661 -2.3760 17.1949
# 2 -5.7193 113.0678 7.1188 26.2135 1.9235 7.0886
# 3 -6.4761 7.1188 61.9963 7.6026 -22.1555 7.3712
# 4 7.4661 26.2135 7.6026 64.6441 -3.4730 6.8903
# 5 -2.3760 1.9235 -22.1555 -3.4730 62.1085 5.6700
# 6 17.1949 7.0886 7.3712 6.8903 5.6700 22.0635
#
#
#
# Elastic Compliance Matrix: (Units=1/GPa)
#
#
# Indices 1 2 3 4 5 6 
#
# 1 0.013946 0.001481 0.004091 -0.001125 0.003085 -0.013153
# 2 0.001481 0.010034 -0.000268 -0.003905 -0.000295 -0.002993
# 3 0.004091 -0.000268 0.021318 -0.001103 0.008817 -0.012146
# 4 -0.001125 -0.003905 -0.001103 0.017715 0.000975 -0.003283
# 5 0.003085 -0.000295 0.008817 0.000975 0.020414 -0.010805
# 6 -0.013153 -0.002993 -0.012146 -0.003283 -0.010805 0.064396
#
#
# Mechanical properties :
#
#
# Convention : Reuss Voigt Hill
#
# Bulk Modulus (GPa) = 17.88727 28.49619 23.19173
# Shear Modulus (GPa) = 32.08188 47.87625 39.97907
#
# Velocity S-wave (km/s) = 3.99837 4.88442 4.46343
# Velocity P-wave (km/s) = 5.49813 6.78308 6.17413
#
# Compressibility (1/GPa) = 0.05590569
#
# Stress axis : x y z
#
# Youngs Moduli (GPa) = 71.70347 99.66064 46.90826
#
# Poissons Ratio (x) = -0.14757 -0.19190
# Poissons Ratio (y) = -0.10617 0.01258
# Poissons Ratio (z) = -0.29334 0.02673
#
# Static dielectric constant tensor:
#      x y z
#    x 1.656280 0.002490 0.025570 
#    y 0.002490 1.715310 0.024000 
#    z 0.025570 0.024000 1.660580 
# 
# From -- ./inp_files/293686.got.cif
#   From: 2010.05.17/outbox.ucp.g08.bks.cvg/sg2_147_cif.got.tgz:293686.got - 2010.06.11 11:32:03.
