data_PCOD9075459
_publ_section_title
;
Structure prediction by ZEFSAII (Michael W. Deem and Ramdas Pophale) SiO2 
 PCOD9075459
Probable space group: P -1
;
_chemical_formula_sum "Si O2"
_cell_formula_units_Z 16
_cell_length_a 9.000000
_cell_length_b 15.000000
_cell_length_c 12.000000
_cell_angle_alpha 130.000000
_cell_angle_beta 70.000000
_cell_angle_gamma 70.000000
_cell_volume 728.972637
_symmetry_space_group_name_H-M "P -1"
_symmetry_group_IT_number 2
_symmetry_cell_setting 'triclinic'
loop_
_space_group_symop_operation_xyz
x,y,z
-x,-y,-z
loop_
_atom_site_type_symbol
_atom_site_label
_atom_site_fract_x
_atom_site_fract_y
_atom_site_fract_z
Si Si1 0.995146 0.421895 0.050409
Si Si2 0.180599 0.735867 0.406975
Si Si3 0.994729 0.669193 0.594170
Si Si4 0.743723 0.380749 0.948130
Si Si5 0.473642 0.644758 0.677879
Si Si6 0.261730 0.848351 0.113866
Si Si7 0.633074 0.754241 0.579297
Si Si8 0.645270 0.843984 0.045964
O O1 0.769017 0.608143 0.328656
O O2 0.209796 0.281044 0.978915
O O3 0.000000 0.500000 0.000000
O O4 0.939560 0.326312 0.937931
O O5 0.157761 0.673592 0.248052
O O6 0.076241 0.729312 0.538929
O O7 0.476661 0.597020 0.214974
O O8 0.008787 0.947647 0.617591
O O9 0.846186 0.670519 0.548419
O O10 0.265573 0.481450 0.423968
O O11 0.818733 0.774659 0.835757
O O12 0.673630 0.288887 0.924771
O O13 0.500000 0.500000 0.500000
O O14 0.451653 0.762185 0.689607
O O15 0.267857 0.782653 0.938344
O O16 0.452878 0.849045 0.068346
O O17 0.502313 0.949506 0.732746
#
# Coordination Sequence:
#
# PCOD9075459 Si02
#       8
#     2   2   2   2   2   2   2   2
#     4  12  29  49  72 104 151 194 239 306 369 437
#     4  11  25  45  78 103 142 196 243 302 358 432
#     4  12  22  46  74 105 146 189 243 297 357 439
#     4  11  27  49  70 106 146 192 247 297 370 427
#     4  12  25  43  71 109 150 195 234 304 377 426
#     4  12  24  46  76 107 145 186 253 298 358 443
#     4  12  24  47  71 105 147 186 247 299 355 443
#     4  12  27  45  78 113 138 196 248 299 373 431
#
# _framework density 21.948698
#
# number of rings (size 3 to 8) (size 9 to 14) (size 15 to 20)
#    0.000    0.250    5.000    4.125    3.500    1.500 
#    0.000    1.250    0.000    0.000    0.000    0.000 
#    0.000    0.000    0.000    0.000    0.000    0.000 
#
# Total GULP energy -89341.174519 kJ/mol
# GULP energy per Si atom -5583.823407 kJ/mol
# Density = 2.189874 g / cm^3
# Si number density = 21.948698 Si / 1000 Ang^3
#
#
#
# Elastic Constant Matrix: (Units=GPa)
#
#
# Indices 1 2 3 4 5 6 
#
# 1 47.0074 28.9612 15.0834 10.1077 16.2442 4.7801
# 2 28.9612 134.2703 47.4671 -11.2319 10.2051 3.1809
# 3 15.0834 47.4671 113.1888 12.5142 4.3774 -7.6274
# 4 10.1077 -11.2319 12.5142 33.8693 7.5437 5.6849
# 5 16.2442 10.2051 4.3774 7.5437 24.6595 -2.3716
# 6 4.7801 3.1809 -7.6274 5.6849 -2.3716 35.5563
#
#
#
# Elastic Compliance Matrix: (Units=1/GPa)
#
#
# Indices 1 2 3 4 5 6 
#
# 1 0.033228 -0.006094 -0.000688 -0.007105 -0.017465 -0.004098
# 2 -0.006094 0.011557 -0.005074 0.008627 -0.002783 -0.002868
# 3 -0.000688 -0.005074 0.012055 -0.007382 0.003106 0.004520
# 4 -0.007105 0.008627 -0.007382 0.041148 -0.011005 -0.008713
# 5 -0.017465 -0.002783 0.003106 -0.011005 0.056872 0.008816
# 6 -0.004098 -0.002868 0.004520 -0.008713 0.008816 0.031883
#
#
# Mechanical properties :
#
#
# Convention : Reuss Voigt Hill
#
# Bulk Modulus (GPa) = 30.18475 53.05442 41.61959
# Shear Modulus (GPa) = 22.57368 32.34731 27.46050
#
# Velocity S-wave (km/s) = 3.21046 3.84313 3.54096
# Velocity P-wave (km/s) = 5.24643 6.62702 5.97672
#
# Compressibility (1/GPa) = 0.03312931
#
# Stress axis : x y z
#
# Youngs Moduli (GPa) = 30.09478 86.52831 82.95429
#
# Poissons Ratio (x) = 0.52729 0.05704
# Poissons Ratio (y) = 0.18339 0.42090
# Poissons Ratio (z) = 0.02069 0.43904
#
# Static dielectric constant tensor:
#      x y z
#    x 1.804250 0.009690 -0.029440 
#    y 0.009690 1.858870 0.012880 
#    z -0.029440 0.012880 1.837920 
# 
# From -- ./inp_files/399596.got.cif
#   From: 2010.05.17/outbox.ucp.g08.bks.cvg/sg2_200_cif.got.tgz:399596.got - 2010.06.11 11:32:03.
