data_PCOD9075685
_publ_section_title
;
Structure prediction by ZEFSAII (Michael W. Deem and Ramdas Pophale) SiO2 
 PCOD9075685
Probable space group: P -1
;
_chemical_formula_sum "Si O2"
_cell_formula_units_Z 14
_cell_length_a 11.212550
_cell_length_b 15.275781
_cell_length_c 8.639128
_cell_angle_alpha 90.534111
_cell_angle_beta 66.449028
_cell_angle_gamma 137.024145
_cell_volume 824.418093
_symmetry_space_group_name_H-M "P -1"
_symmetry_group_IT_number 2
_symmetry_cell_setting 'triclinic'
loop_
_space_group_symop_operation_xyz
x,y,z
-x,-y,-z
loop_
_atom_site_type_symbol
_atom_site_label
_atom_site_fract_x
_atom_site_fract_y
_atom_site_fract_z
Si Si1 0.429272 0.637989 0.449926
Si Si2 0.741324 0.621986 0.941595
Si Si3 0.175533 0.361581 0.742860
Si Si4 0.305400 0.584217 0.156317
Si Si5 0.873046 0.851939 0.365657
Si Si6 0.770923 0.815962 0.779115
Si Si7 0.022405 0.466989 0.821845
O O1 0.362431 0.505778 0.545017
O O2 0.377687 0.617513 0.296473
O O3 0.674982 0.782866 0.366520
O O4 0.261187 0.608203 0.630901
O O5 0.819081 0.571577 0.829421
O O6 0.842478 0.766179 0.831794
O O7 0.500000 0.500000 0.000000
O O8 0.747990 0.618271 0.122711
O O9 0.090514 0.228036 0.708227
O O10 0.009982 0.354770 0.838257
O O11 0.153843 0.584543 0.197944
O O12 0.522970 0.702742 0.944482
O O13 0.798886 0.814174 0.582228
O O14 0.079606 0.023463 0.248178
O O15 0.000000 0.500000 0.000000
#
# Coordination Sequence:
#
# PCOD9075685 Si02
#       7
#     2   2   2   2   2   2   2
#     4  10  21  32  60  80 111 140 178 229 264 322
#     4  10  18  32  54  81 105 138 179 224 268 311
#     4  10  21  33  56  82 108 145 175 228 266 319
#     4  11  19  37  55  84 110 140 186 218 270 319
#     4  11  20  39  52  83 111 140 185 220 279 314
#     4  10  23  34  59  77 111 147 175 231 268 323
#     4  10  20  36  55  83 108 145 180 218 271 315
#
# _framework density 16.981674999999999
#
# number of rings (size 3 to 8) (size 9 to 14) (size 15 to 20)
#    0.857    0.857    1.429    6.000    0.000    2.286 
#    0.000    0.714    0.000    0.857    0.000    0.000 
#    0.000    0.000    0.000    0.000    0.000    0.000 
#
# Total GULP energy -78023.075496 kJ/mol
# GULP energy per Si atom -5573.076821 kJ/mol
# Density = 1.694302 g / cm^3
# Si number density = 16.981675 Si / 1000 Ang^3
#
#
#
# Elastic Constant Matrix: (Units=GPa)
#
#
# Indices 1 2 3 4 5 6 
#
# 1 115.6837 33.6599 21.1717 7.8358 0.2601 -0.3272
# 2 33.6599 80.8637 12.6615 15.9667 -6.4581 -7.3259
# 3 21.1717 12.6615 39.6186 11.7631 -4.7461 -6.6262
# 4 7.8358 15.9667 11.7631 25.4014 1.4691 2.0499
# 5 0.2601 -6.4581 -4.7461 1.4691 34.1628 9.7226
# 6 -0.3272 -7.3259 -6.6262 2.0499 9.7226 15.3439
#
#
#
# Elastic Compliance Matrix: (Units=1/GPa)
#
#
# Indices 1 2 3 4 5 6 
#
# 1 0.010877 -0.004580 -0.005974 0.002689 -0.000612 -0.004507
# 2 -0.004580 0.017132 0.002053 -0.011159 0.001295 0.009638
# 3 -0.005974 0.002053 0.036216 -0.017748 0.001049 0.018199
# 4 0.002689 -0.011159 -0.017748 0.055423 -0.001452 -0.019419
# 5 -0.000612 0.001295 0.001049 -0.001452 0.035835 -0.021454
# 6 -0.004507 0.009638 0.018199 -0.019419 -0.021454 0.093727
#
#
# Mechanical properties :
#
#
# Convention : Reuss Voigt Hill
#
# Bulk Modulus (GPa) = 21.17661 41.23914 31.20788
# Shear Modulus (GPa) = 17.73350 26.22647 21.97998
#
# Velocity S-wave (km/s) = 3.23503 3.93415 3.60159
# Velocity P-wave (km/s) = 5.14307 6.70626 5.97600
#
# Compressibility (1/GPa) = 0.04722190
#
# Stress axis : x y z
#
# Youngs Moduli (GPa) = 91.93903 58.37154 27.61200
#
# Poissons Ratio (x) = 0.26736 0.16496
# Poissons Ratio (y) = 0.42110 -0.05669
# Poissons Ratio (z) = 0.54926 -0.11984
#
# Static dielectric constant tensor:
#      x y z
#    x 1.595040 -0.024660 -0.004560 
#    y -0.024660 1.569010 0.007970 
#    z -0.004560 0.007970 1.589220 
# 
# From -- ./inp_files/195104.got.cif
#   From: 2010.05.17/outbox.cif.g08.bks.cpg/sg2_98_cif.got.tgz:195104.got - 2010.06.03 11:33:40.
