data_PCOD9075636
_publ_section_title
;
Structure prediction by ZEFSAII (Michael W. Deem and Ramdas Pophale) SiO2 
 PCOD9075636
Probable space group: P -1
;
_chemical_formula_sum "Si O2"
_cell_formula_units_Z 15
_cell_length_a 9.000000
_cell_length_b 9.000000
_cell_length_c 15.000000
_cell_angle_alpha 40.000000
_cell_angle_beta 120.000000
_cell_angle_gamma 100.000000
_cell_volume 626.690879
_symmetry_space_group_name_H-M "P -1"
_symmetry_group_IT_number 2
_symmetry_cell_setting 'triclinic'
loop_
_space_group_symop_operation_xyz
x,y,z
-x,-y,-z
loop_
_atom_site_type_symbol
_atom_site_label
_atom_site_fract_x
_atom_site_fract_y
_atom_site_fract_z
Si Si1 0.331733 0.212051 0.796987
Si Si2 0.918313 0.253021 0.913229
Si Si3 0.115349 0.521854 0.742345
Si Si4 0.457746 0.678662 0.792235
Si Si5 0.493490 0.443390 0.416904
Si Si6 0.500000 0.000000 0.500000
Si Si7 0.832932 0.963812 0.340224
Si Si8 0.883424 0.330802 0.067210
O O1 0.169667 0.330996 0.764963
O O2 0.403193 0.412416 0.678191
O O3 0.230593 0.133872 0.722106
O O4 0.500000 0.000000 0.000000
O O5 0.720318 0.425169 0.736461
O O6 0.046604 0.409162 0.857331
O O7 0.894493 0.204365 0.031872
O O8 0.000000 0.000000 0.000000
O O9 0.310698 0.545723 0.807725
O O10 0.960011 0.771477 0.539765
O O11 0.448986 0.819029 0.633133
O O12 0.365212 0.880206 0.747173
O O13 0.669859 0.498003 0.947540
O O14 0.500000 0.500000 0.500000
O O15 0.546390 0.156853 0.532035
O O16 0.942357 0.133510 0.256345
O O17 0.000000 0.500000 0.000000
#
# Coordination Sequence:
#
# PCOD9075636 Si02
#       8
#     2   2   2   2   2   1   2   2
#     4  12  25  48  74 106 154 207 256 322 395 470
#     4  12  26  49  73 110 154 198 258 326 391 474
#     4  12  25  47  74 108 151 198 259 320 392 471
#     4  12  26  48  76 105 155 203 256 320 399 469
#     4  12  26  48  78 113 150 209 264 321 396 464
#     4  12  24  46  80 112 152 196 270 320 392 462
#     4  12  27  45  75 114 146 205 261 321 394 472
#     4  12  28  48  73 112 157 200 263 322 398 476
#
# _framework density 23.935244999999998
#
# number of rings (size 3 to 8) (size 9 to 14) (size 15 to 20)
#    0.000    0.000    2.667    7.600    1.867    4.267 
#    0.000    0.000    0.000    0.000    0.000    0.000 
#    0.000    0.000    0.000    0.000    0.000    0.000 
#
# Total GULP energy -83671.389230 kJ/mol
# GULP energy per Si atom -5578.092615 kJ/mol
# Density = 2.388077 g / cm^3
# Si number density = 23.935245 Si / 1000 Ang^3
#
#
#
# Elastic Constant Matrix: (Units=GPa)
#
#
# Indices 1 2 3 4 5 6 
#
# 1 93.2580 4.4749 76.7511 -8.1635 -20.4243 3.2733
# 2 4.4749 111.4591 11.5809 -4.6910 -0.6760 -5.6717
# 3 76.7511 11.5809 75.8363 -5.2183 -24.3412 -2.4861
# 4 -8.1635 -4.6910 -5.2183 27.7460 -4.5542 -9.2661
# 5 -20.4243 -0.6760 -24.3412 -4.5542 52.5723 -0.4283
# 6 3.2733 -5.6717 -2.4861 -9.2661 -0.4283 59.0361
#
#
#
# Elastic Compliance Matrix: (Units=1/GPa)
#
#
# Indices 1 2 3 4 5 6 
#
# 1 0.071237 0.004764 -0.074800 0.004632 -0.006544 -0.005963
# 2 0.004764 0.009554 -0.006388 0.001909 -0.000813 0.000678
# 3 -0.074800 -0.006388 0.094847 -0.000284 0.014810 0.007591
# 4 0.004632 0.001909 -0.000284 0.040653 0.005266 0.006334
# 5 -0.006544 -0.000813 0.014810 0.005266 0.023798 0.001908
# 6 -0.005963 0.000678 0.007591 0.006334 0.001908 0.018662
#
#
# Mechanical properties :
#
#
# Convention : Reuss Voigt Hill
#
# Bulk Modulus (GPa) = 43.87972 51.79635 47.83804
# Shear Modulus (GPa) = 11.92760 40.38729 26.15745
#
# Velocity S-wave (km/s) = 2.23475 4.11220 3.30940
# Velocity P-wave (km/s) = 5.00313 6.65087 5.88495
#
# Compressibility (1/GPa) = 0.02278957
#
# Stress axis : x y z
#
# Youngs Moduli (GPa) = 14.03775 104.66538 10.54326
#
# Poissons Ratio (x) = -0.49860 0.78864
# Poissons Ratio (y) = -0.06687 0.06735
# Poissons Ratio (z) = 1.05003 0.66856
#
# Static dielectric constant tensor:
#      x y z
#    x 1.895880 -0.023280 0.016750 
#    y -0.023280 2.219840 -0.054390 
#    z 0.016750 -0.054390 1.936610 
# 
# From -- ./inp_files/494350.got.cif
#   From: 2010.05.17/outbox.ucp.g08.bks.cvg/sg2_248_cif.got.tgz:494350.got - 2010.06.11 11:32:03.
