data_PCOD9075005
_publ_section_title
;
Structure prediction by ZEFSAII (Michael W. Deem and Ramdas Pophale) SiO2 
 PCOD9075005
Probable space group: P -1
;
_chemical_formula_sum "Si O2"
_cell_formula_units_Z 14
_cell_length_a 15.000000
_cell_length_b 15.000000
_cell_length_c 9.000000
_cell_angle_alpha 120.000000
_cell_angle_beta 80.000000
_cell_angle_gamma 150.000000
_cell_volume 702.152635
_symmetry_space_group_name_H-M "P -1"
_symmetry_group_IT_number 2
_symmetry_cell_setting 'triclinic'
loop_
_space_group_symop_operation_xyz
x,y,z
-x,-y,-z
loop_
_atom_site_type_symbol
_atom_site_label
_atom_site_fract_x
_atom_site_fract_y
_atom_site_fract_z
Si Si1 0.599278 0.533554 0.746199
Si Si2 0.373318 0.638083 0.582332
Si Si3 0.826194 0.632027 0.984217
Si Si4 0.481940 0.102265 0.542357
Si Si5 0.081767 0.969568 0.461730
Si Si6 0.708984 0.885978 0.927035
Si Si7 0.110033 0.840533 0.596148
O O1 0.702234 0.549648 0.627785
O O2 0.686647 0.587185 0.928219
O O3 0.647923 0.701962 0.826795
O O4 0.337232 0.238343 0.558851
O O5 0.493254 0.835185 0.586849
O O6 0.530096 0.761798 0.774365
O O7 0.143825 0.454837 0.542540
O O8 0.677927 0.376890 0.786699
O O9 0.909776 0.728575 0.208242
O O10 0.056427 0.870226 0.024479
O O11 0.500000 0.000000 0.500000
O O12 0.250979 0.907902 0.511579
O O13 0.088283 0.924211 0.581326
O O14 0.000000 0.000000 0.500000
O O15 0.752377 0.991245 0.155173
#
# Coordination Sequence:
#
# PCOD9075005 Si02
#       7
#     2   2   2   2   2   2   2
#     4  11  22  39  62  98 147 184 214 263 330 407
#     4  11  24  45  66 100 139 174 226 280 333 410
#     4  11  23  44  66  95 142 178 227 279 334 394
#     4  11  26  52  73  93 132 178 232 299 343 382
#     4  12  25  38  64 103 146 185 220 261 331 415
#     4  12  23  39  69 102 140 183 218 267 341 409
#     4  12  25  43  69 100 137 176 229 281 328 408
#
# _framework density 19.938685
#
# number of rings (size 3 to 8) (size 9 to 14) (size 15 to 20)
#    0.000    0.571    7.143    2.571    6.000    1.714 
#    0.000    3.571    0.000    0.000    0.000    0.000 
#    0.000    0.000    0.000    0.000    0.000    0.000 
#
# Total GULP energy -78203.308602 kJ/mol
# GULP energy per Si atom -5585.950614 kJ/mol
# Density = 1.989330 g / cm^3
# Si number density = 19.938685 Si / 1000 Ang^3
#
#
#
# Elastic Constant Matrix: (Units=GPa)
#
#
# Indices 1 2 3 4 5 6 
#
# 1 132.8927 63.3935 38.9298 2.8070 14.5496 -17.5944
# 2 63.3935 109.8856 35.7437 4.8126 5.7772 -1.8924
# 3 38.9298 35.7437 107.0667 3.4895 35.8495 -11.3353
# 4 2.8070 4.8126 3.4895 31.9286 -5.8112 6.3825
# 5 14.5496 5.7772 35.8495 -5.8112 33.8940 3.8688
# 6 -17.5944 -1.8924 -11.3353 6.3825 3.8688 39.6575
#
#
#
# Elastic Compliance Matrix: (Units=1/GPa)
#
#
# Indices 1 2 3 4 5 6 
#
# 1 0.011985 -0.006546 0.000394 -0.002323 -0.005533 0.006031
# 2 -0.006546 0.014022 -0.004909 0.001027 0.006293 -0.004417
# 3 0.000394 -0.004909 0.019396 -0.007192 -0.022085 0.008797
# 4 -0.002323 0.001027 -0.007192 0.037186 0.016013 -0.010584
# 5 -0.005533 0.006293 -0.022085 0.016013 0.058826 -0.016783
# 6 0.006031 -0.004417 0.008797 -0.010584 -0.016783 0.033536
#
#
# Mechanical properties :
#
#
# Convention : Reuss Voigt Hill
#
# Bulk Modulus (GPa) = 42.95281 69.55321 56.25301
# Shear Modulus (GPa) = 24.41008 35.21458 29.81233
#
# Velocity S-wave (km/s) = 3.50273 4.20711 3.87098
# Velocity P-wave (km/s) = 6.16020 7.65238 6.94648
#
# Compressibility (1/GPa) = 0.02328136
#
# Stress axis : x y z
#
# Youngs Moduli (GPa) = 83.43452 71.31721 51.55738
#
# Poissons Ratio (x) = 0.46686 -0.02033
# Poissons Ratio (y) = 0.54618 0.25310
# Poissons Ratio (z) = -0.03290 0.35010
#
# Static dielectric constant tensor:
#      x y z
#    x 1.694620 0.052410 0.014440 
#    y 0.052410 1.781910 -0.044120 
#    z 0.014440 -0.044120 1.741040 
# 
# From -- ./inp_files/313200.got.cif
#   From: 2010.05.17/outbox.ucp.g08.bks.cvg/sg2_157_cif.got.tgz:313200.got - 2010.06.11 11:32:03.
