data_PCOD9075761
_publ_section_title
;
Structure prediction by ZEFSAII (Michael W. Deem and Ramdas Pophale) SiO2 
 PCOD9075761
Probable space group: P -1
;
_chemical_formula_sum "Si O2"
_cell_formula_units_Z 16
_cell_length_a 15.652682
_cell_length_b 8.723630
_cell_length_c 11.076989
_cell_angle_alpha 82.319214
_cell_angle_beta 150.907854
_cell_angle_gamma 102.041029
_cell_volume 715.469082
_symmetry_space_group_name_H-M "P -1"
_symmetry_group_IT_number 2
_symmetry_cell_setting 'triclinic'
loop_
_space_group_symop_operation_xyz
x,y,z
-x,-y,-z
loop_
_atom_site_type_symbol
_atom_site_label
_atom_site_fract_x
_atom_site_fract_y
_atom_site_fract_z
Si Si1 0.085042 0.384221 0.199392
Si Si2 0.120665 0.557719 0.469758
Si Si3 0.120316 0.928999 0.423846
Si Si4 0.464963 0.383123 0.580023
Si Si5 0.428827 0.033555 0.600246
Si Si6 0.728274 0.417855 0.102746
Si Si7 0.658316 0.040835 0.091431
Si Si8 0.126285 0.951228 0.054272
O O1 0.150410 0.472146 0.393304
O O2 0.254509 0.345353 0.344578
O O3 0.943268 0.225387 0.057355
O O4 0.000000 0.500000 0.000000
O O5 0.137271 0.745740 0.455144
O O6 0.252242 0.524028 0.741830
O O7 0.917903 0.486859 0.267952
O O8 0.172077 0.989926 0.617437
O O9 0.271763 0.024561 0.510251
O O10 0.925952 0.945762 0.132412
O O11 0.500000 0.500000 0.500000
O O12 0.512626 0.210953 0.644153
O O13 0.572329 0.457517 0.822530
O O14 0.579171 0.968592 0.872618
O O15 0.318162 0.961250 0.353729
O O16 0.698512 0.228320 0.096988
O O17 0.500000 0.000000 0.000000
O O18 0.000000 0.000000 0.000000
#
# Coordination Sequence:
#
# PCOD9075761 Si02
#       8
#     2   2   2   2   2   2   2   2
#     4  12  23  36  58  89 120 153 199 249 295 340
#     4  10  21  37  63  89 118 151 197 249 294 350
#     4   9  16  31  57  83 104 151 196 232 282 357
#     4  11  22  35  58  88 118 155 198 242 292 356
#     4   9  17  31  51  82 107 143 198 232 277 348
#     4   9  20  38  59  88 117 158 196 236 299 361
#     4   8  15  29  54  83 106 143 193 237 272 344
#     4  10  18  32  55  81 108 150 199 232 278 354
#
# _framework density 22.362950999999999
#
# number of rings (size 3 to 8) (size 9 to 14) (size 15 to 20)
#    0.000    2.250    2.500    2.250    1.750    0.500 
#    0.000    0.000    2.750   21.750    0.000    0.000 
#    0.000    0.000    0.000    0.000    0.000    0.000 
#
# Total GULP energy -89181.869343 kJ/mol
# GULP energy per Si atom -5573.866834 kJ/mol
# Density = 2.231205 g / cm^3
# Si number density = 22.362951 Si / 1000 Ang^3
#
#
#
# Elastic Constant Matrix: (Units=GPa)
#
#
# Indices 1 2 3 4 5 6 
#
# 1 47.4804 25.9552 33.6093 -7.7055 -4.3562 14.9481
# 2 25.9552 83.5420 22.3391 4.0005 -11.5953 29.5925
# 3 33.6093 22.3391 180.2968 -13.4081 -53.4838 9.8772
# 4 -7.7055 4.0005 -13.4081 32.6916 14.9902 -4.6263
# 5 -4.3562 -11.5953 -53.4838 14.9902 33.1345 -0.3129
# 6 14.9481 29.5925 9.8772 -4.6263 -0.3129 26.4922
#
#
#
# Elastic Compliance Matrix: (Units=1/GPa)
#
#
# Indices 1 2 3 4 5 6 
#
# 1 0.037064 -0.013657 -0.012261 0.018496 -0.028048 0.001812
# 2 -0.013657 0.032541 0.009012 -0.024599 0.034928 -0.035886
# 3 -0.012261 0.009012 0.016616 -0.014842 0.034968 -0.011522
# 4 0.018496 -0.024599 -0.014842 0.063350 -0.058483 0.032947
# 5 -0.028048 0.034928 0.034968 -0.058483 0.121191 -0.045008
# 6 0.001812 -0.035886 -0.011522 0.032947 -0.045008 0.086327
#
#
# Mechanical properties :
#
#
# Convention : Reuss Voigt Hill
#
# Bulk Modulus (GPa) = 19.08129 52.79182 35.93656
# Shear Modulus (GPa) = 12.24378 33.75804 23.00091
#
# Velocity S-wave (km/s) = 2.34242 3.88951 3.21055
# Velocity P-wave (km/s) = 3.98333 6.62036 5.46334
#
# Compressibility (1/GPa) = 0.05240735
#
# Stress axis : x y z
#
# Youngs Moduli (GPa) = 26.98045 30.73076 60.18370
#
# Poissons Ratio (x) = 0.41969 0.73791
# Poissons Ratio (y) = 0.36848 -0.54235
# Poissons Ratio (z) = 0.33081 -0.27693
#
# Static dielectric constant tensor:
#      x y z
#    x 1.837070 -0.016210 -0.009510 
#    y -0.016210 1.848570 -0.017320 
#    z -0.009510 -0.017320 1.910150 
# 
# From -- ./inp_files/462182.got.cif
#   From: 2010.05.17/outbox.cif.g08.bks.cpg/sg2_232_cif.got.tgz:462182.got - 2010.06.03 11:33:40.
