data_PCOD9075722
_publ_section_title
;
Structure prediction by ZEFSAII (Michael W. Deem and Ramdas Pophale) SiO2 
 PCOD9075722
Probable space group: P -1
;
_chemical_formula_sum "Si O2"
_cell_formula_units_Z 14
_cell_length_a 12.847151
_cell_length_b 10.265324
_cell_length_c 24.267656
_cell_angle_alpha 144.109455
_cell_angle_beta 157.465024
_cell_angle_gamma 47.981236
_cell_volume 673.248164
_symmetry_space_group_name_H-M "P -1"
_symmetry_group_IT_number 2
_symmetry_cell_setting 'triclinic'
loop_
_space_group_symop_operation_xyz
x,y,z
-x,-y,-z
loop_
_atom_site_type_symbol
_atom_site_label
_atom_site_fract_x
_atom_site_fract_y
_atom_site_fract_z
Si Si1 0.841176 0.076451 0.187386
Si Si2 0.195052 0.409359 0.376435
Si Si3 0.372645 0.710336 0.003584
Si Si4 0.859507 0.286964 0.814819
Si Si5 0.359717 0.807740 0.445220
Si Si6 0.094428 0.964807 0.676861
Si Si7 0.780134 0.106546 0.400993
O O1 0.007636 0.262928 0.286600
O O2 0.976365 0.163397 0.343638
O O3 0.905631 0.836232 0.124737
O O4 0.500000 0.000000 0.000000
O O5 0.470583 0.325303 0.481262
O O6 0.274308 0.684058 0.522632
O O7 0.962308 0.352300 0.193879
O O8 0.500000 0.500000 0.000000
O O9 0.567921 0.865701 0.102401
O O10 0.484973 0.887635 0.170318
O O11 0.747272 0.326671 0.712141
O O12 0.590250 0.071322 0.634935
O O13 0.000000 0.500000 0.000000
O O14 0.094352 0.864422 0.362313
O O15 0.075029 0.810307 0.560025
O O16 0.000000 0.000000 0.500000
#
# Coordination Sequence:
#
# PCOD9075722 Si02
#       7
#     2   2   2   2   2   2   2
#     4  10  18  32  54  88 114 143 184 223 279 330
#     4  11  20  35  61  81 117 146 184 239 276 342
#     4  10  20  38  59  77 106 149 191 235 284 323
#     4   9  19  34  54  75 120 161 179 219 274 343
#     4   9  20  36  51  84 115 148 185 228 285 327
#     4   9  20  37  55  82 117 144 186 230 282 337
#     4  10  21  37  59  82 103 149 198 231 281 330
#
# _framework density 20.794709999999998
#
# number of rings (size 3 to 8) (size 9 to 14) (size 15 to 20)
#    0.857    1.429    2.857    0.857    0.000    5.143 
#    0.000    2.857    0.000    1.714    0.000    0.000 
#    0.000    0.000    0.000    0.000    0.000    0.000 
#
# Total GULP energy -77982.167906 kJ/mol
# GULP energy per Si atom -5570.154850 kJ/mol
# Density = 2.074738 g / cm^3
# Si number density = 20.794710 Si / 1000 Ang^3
#
#
#
# Elastic Constant Matrix: (Units=GPa)
#
#
# Indices 1 2 3 4 5 6 
#
# 1 43.9293 -3.3914 18.8487 -4.9800 -0.7263 -8.8425
# 2 -3.3914 80.1028 51.9951 -17.4687 -7.1514 -6.5354
# 3 18.8487 51.9951 135.0169 -9.4304 -21.3411 -14.5617
# 4 -4.9800 -17.4687 -9.4304 31.8367 -8.2468 2.2542
# 5 -0.7263 -7.1514 -21.3411 -8.2468 34.0293 -5.6409
# 6 -8.8425 -6.5354 -14.5617 2.2542 -5.6409 31.0322
#
#
#
# Elastic Compliance Matrix: (Units=1/GPa)
#
#
# Indices 1 2 3 4 5 6 
#
# 1 0.027435 0.006380 -0.004896 0.006252 0.001478 0.006678
# 2 0.006380 0.020177 -0.007228 0.010478 0.002784 0.002420
# 3 -0.004896 -0.007228 0.012463 0.000478 0.006999 0.004168
# 4 0.006252 0.010478 0.000478 0.041463 0.013283 0.003615
# 5 0.001478 0.002784 0.006999 0.013283 0.039348 0.010479
# 6 0.006678 0.002420 0.004168 0.003615 0.010479 0.038235
#
#
# Mechanical properties :
#
#
# Convention : Reuss Voigt Hill
#
# Bulk Modulus (GPa) = 20.58237 43.77263 32.17750
# Shear Modulus (GPa) = 24.17739 32.15275 28.16507
#
# Velocity S-wave (km/s) = 3.41349 3.93644 3.68426
# Velocity P-wave (km/s) = 5.04532 6.46191 5.79705
#
# Compressibility (1/GPa) = 0.04858527
#
# Stress axis : x y z
#
# Youngs Moduli (GPa) = 36.45037 49.56234 80.23989
#
# Poissons Ratio (x) = -0.31620 0.39289
# Poissons Ratio (y) = -0.23255 0.57995
# Poissons Ratio (z) = 0.17848 0.35822
#
# Static dielectric constant tensor:
#      x y z
#    x 1.809020 0.047530 -0.012130 
#    y 0.047530 1.711190 0.001520 
#    z -0.012130 0.001520 1.725690 
# 
# From -- ./inp_files/503838.got.cif
#   From: 2010.05.17/outbox.cif.g08.bks.cpg/sg2_252_cif.got.tgz:503838.got - 2010.06.03 11:33:40.
