data_PCOD9075266
_publ_section_title
;
Structure prediction by ZEFSAII (Michael W. Deem and Ramdas Pophale) SiO2 
 PCOD9075266
Probable space group: P -1
;
_chemical_formula_sum "Si O2"
_cell_formula_units_Z 16
_cell_length_a 9.000000
_cell_length_b 12.000000
_cell_length_c 9.000000
_cell_angle_alpha 50.000000
_cell_angle_beta 80.000000
_cell_angle_gamma 80.000000
_cell_volume 730.800219
_symmetry_space_group_name_H-M "P -1"
_symmetry_group_IT_number 2
_symmetry_cell_setting 'triclinic'
loop_
_space_group_symop_operation_xyz
x,y,z
-x,-y,-z
loop_
_atom_site_type_symbol
_atom_site_label
_atom_site_fract_x
_atom_site_fract_y
_atom_site_fract_z
Si Si1 0.973864 0.394227 0.868396
Si Si2 0.451887 0.850846 0.207087
Si Si3 0.690388 0.407499 0.709082
Si Si4 0.723498 0.849489 0.517160
Si Si5 0.989856 0.291277 0.289293
Si Si6 0.281405 0.865669 0.532875
Si Si7 0.782275 0.704366 0.321654
Si Si8 0.514392 0.396438 0.227308
O O1 0.017020 0.563717 0.728925
O O2 0.090103 0.297289 0.825135
O O3 0.805261 0.380329 0.848594
O O4 0.970855 0.339956 0.082224
O O5 0.342716 0.742216 0.237361
O O6 0.379305 0.892447 0.345373
O O7 0.611949 0.755819 0.262086
O O8 0.500000 0.000000 0.000000
O O9 0.775869 0.531979 0.503710
O O10 0.537369 0.498367 0.717061
O O11 0.798021 0.808654 0.375958
O O12 0.588452 0.741827 0.639900
O O13 0.839542 0.777208 0.675583
O O14 0.694300 0.016617 0.440266
O O15 0.891239 0.155840 0.461908
O O16 0.325771 0.694150 0.710945
O O17 0.500000 0.500000 0.000000
#
# Coordination Sequence:
#
# PCOD9075266 Si02
#       8
#     2   2   2   2   2   2   2   2
#     4  11  24  44  74 106 139 173 245 294 337 416
#     4  12  29  45  69 105 141 185 233 290 359 415
#     4  11  23  46  68 102 136 181 236 283 351 412
#     4  11  25  47  69 102 148 186 233 279 364 412
#     4  11  25  44  72 108 136 187 233 289 354 413
#     4  12  26  46  69 101 149 184 229 294 350 424
#     4  11  24  45  73 105 135 187 232 291 345 418
#     4  11  24  41  74 101 131 186 235 289 342 412
#
# _framework density 21.893808
#
# number of rings (size 3 to 8) (size 9 to 14) (size 15 to 20)
#    0.000    0.750    5.000    3.000    8.750    1.000 
#    0.000    1.250    0.000    0.000    0.000    0.000 
#    0.000    0.000    0.000    0.000    0.000    0.000 
#
# Total GULP energy -89168.071784 kJ/mol
# GULP energy per Si atom -5573.004487 kJ/mol
# Density = 2.184398 g / cm^3
# Si number density = 21.893808 Si / 1000 Ang^3
#
#
#
# Elastic Constant Matrix: (Units=GPa)
#
#
# Indices 1 2 3 4 5 6 
#
# 1 56.1298 28.6141 14.1846 1.2851 8.6778 12.1167
# 2 28.6141 185.5143 42.6638 7.3476 -14.4618 11.4186
# 3 14.1846 42.6638 80.9246 7.5575 -4.9419 1.3531
# 4 1.2851 7.3476 7.5575 11.8422 -0.5089 -13.7088
# 5 8.6778 -14.4618 -4.9419 -0.5089 32.2936 2.8127
# 6 12.1167 11.4186 1.3531 -13.7088 2.8127 38.2309
#
#
#
# Elastic Compliance Matrix: (Units=1/GPa)
#
#
# Indices 1 2 3 4 5 6 
#
# 1 0.023164 -0.002589 -0.001836 -0.011917 -0.006959 -0.010264
# 2 -0.002589 0.007167 -0.002344 -0.007287 0.003792 -0.004129
# 3 -0.001836 -0.002344 0.015264 -0.012499 0.001921 -0.003882
# 4 -0.011917 -0.007287 -0.012499 0.180996 -0.005366 0.071691
# 5 -0.006959 0.003792 0.001921 -0.005366 0.035048 -0.003497
# 6 -0.010264 -0.004129 -0.003882 0.071691 -0.003497 0.056745
#
#
# Mechanical properties :
#
#
# Convention : Reuss Voigt Hill
#
# Bulk Modulus (GPa) = 31.19330 54.83264 43.01297
# Shear Modulus (GPa) = 14.59399 32.28042 23.43721
#
# Velocity S-wave (km/s) = 2.58462 3.84397 3.27539
# Velocity P-wave (km/s) = 4.81513 6.69333 5.83036
#
# Compressibility (1/GPa) = 0.03205817
#
# Stress axis : x y z
#
# Youngs Moduli (GPa) = 43.16998 139.52610 65.51421
#
# Poissons Ratio (x) = 0.36130 0.12025
# Poissons Ratio (y) = 0.11179 0.15353
# Poissons Ratio (z) = 0.07924 0.32698
#
# Static dielectric constant tensor:
#      x y z
#    x 1.912240 0.004480 0.086120 
#    y 0.004480 1.797250 -0.004470 
#    z 0.086120 -0.004470 1.916720 
# 
# From -- ./inp_files/184110.got.cif
#   From: 2010.05.17/outbox.ucp.g08.bks.cvg/sg2_93_cif.got.tgz:184110.got - 2010.06.11 11:32:03.
