data_PCOD9075065
_publ_section_title
;
Structure prediction by ZEFSAII (Michael W. Deem and Ramdas Pophale) SiO2 
 PCOD9075065
Probable space group: P -1
;
_chemical_formula_sum "Si O2"
_cell_formula_units_Z 16
_cell_length_a 12.000000
_cell_length_b 30.000000
_cell_length_c 24.000000
_cell_angle_alpha 10.000000
_cell_angle_beta 30.000000
_cell_angle_gamma 30.000000
_cell_volume 741.497220
_symmetry_space_group_name_H-M "P -1"
_symmetry_group_IT_number 2
_symmetry_cell_setting 'triclinic'
loop_
_space_group_symop_operation_xyz
x,y,z
-x,-y,-z
loop_
_atom_site_type_symbol
_atom_site_label
_atom_site_fract_x
_atom_site_fract_y
_atom_site_fract_z
Si Si1 0.081851 0.748389 0.689655
Si Si2 0.153183 0.355276 0.765062
Si Si3 0.984236 0.453739 0.293367
Si Si4 0.311224 0.995227 0.756181
Si Si5 0.414783 0.836555 0.339201
Si Si6 0.735517 0.240311 0.279873
Si Si7 0.513328 0.609350 0.238123
Si Si8 0.816866 0.495004 0.634461
O O1 0.228107 0.845199 0.457694
O O2 0.226751 0.705076 0.737832
O O3 0.881848 0.968539 0.528236
O O4 0.000000 0.500000 0.000000
O O5 0.324229 0.553700 0.431923
O O6 0.029372 0.400147 0.821982
O O7 0.963625 0.415421 0.724542
O O8 0.326443 0.086177 0.031180
O O9 0.748371 0.557833 0.234633
O O10 0.067317 0.156722 0.644481
O O11 0.167918 0.535951 0.070728
O O12 0.483967 0.200028 0.423634
O O13 0.397108 0.867505 0.936733
O O14 0.326728 0.740325 0.024356
O O15 0.441280 0.603969 0.568613
O O16 0.646008 0.763896 0.365448
O O17 0.000000 0.500000 0.500000
#
# Coordination Sequence:
#
# PCOD9075065 Si02
#       8
#     2   2   2   2   2   2   2   2
#     4  11  22  42  76 105 140 193 238 295 361 422
#     4  12  25  42  69 105 137 183 235 285 357 426
#     4  12  26  44  69 103 144 187 234 289 361 428
#     4  11  25  45  72  96 141 191 230 295 363 408
#     4  11  23  42  72  99 137 179 234 289 354 417
#     4  11  24  47  67 105 151 181 243 299 350 428
#     4  11  24  44  69 102 136 183 232 294 355 423
#     4  11  24  46  69 104 139 184 238 296 353 426
#
# _framework density 21.577964000000001
#
# number of rings (size 3 to 8) (size 9 to 14) (size 15 to 20)
#    0.000    0.750    3.750    5.625    3.500    0.500 
#    0.000    0.625    0.000    0.000    0.000    0.000 
#    0.000    0.000    0.000    0.000    0.000    0.000 
#
# Total GULP energy -89087.280666 kJ/mol
# GULP energy per Si atom -5567.955042 kJ/mol
# Density = 2.152885 g / cm^3
# Si number density = 21.577964 Si / 1000 Ang^3
#
#
#
# Elastic Constant Matrix: (Units=GPa)
#
#
# Indices 1 2 3 4 5 6 
#
# 1 117.9256 9.6513 35.2485 14.3770 43.7025 -24.5982
# 2 9.6513 25.3993 -0.5450 8.8591 8.0145 -2.3249
# 3 35.2485 -0.5450 63.2769 -1.2587 23.1405 -15.2942
# 4 14.3770 8.8591 -1.2587 41.9161 -6.7241 8.5587
# 5 43.7025 8.0145 23.1405 -6.7241 41.0078 -9.5992
# 6 -24.5982 -2.3249 -15.2942 8.5587 -9.5992 55.0235
#
#
#
# Elastic Compliance Matrix: (Units=1/GPa)
#
#
# Indices 1 2 3 4 5 6 
#
# 1 0.019197 0.004047 -0.001738 -0.012154 -0.020730 0.006544
# 2 0.004047 0.049826 0.005895 -0.015729 -0.018855 0.004711
# 3 -0.001738 0.005895 0.021791 -0.002590 -0.011086 0.003998
# 4 -0.012154 -0.015729 -0.002590 0.036497 0.021423 -0.008758
# 5 -0.020730 -0.018855 -0.011086 0.021423 0.058461 -0.006279
# 6 0.006544 0.004711 0.003998 -0.008758 -0.006279 0.022677
#
#
# Mechanical properties :
#
#
# Convention : Reuss Voigt Hill
#
# Bulk Modulus (GPa) = 9.32620 32.81237 21.06929
# Shear Modulus (GPa) = 21.95077 38.40596 30.17836
#
# Velocity S-wave (km/s) = 3.19294 4.22343 3.74381
# Velocity P-wave (km/s) = 4.23375 6.24680 5.33606
#
# Compressibility (1/GPa) = 0.10722476
#
# Stress axis : x y z
#
# Youngs Moduli (GPa) = 52.09021 20.06974 45.88975
#
# Poissons Ratio (x) = -0.08123 0.07976
# Poissons Ratio (y) = -0.21083 -0.27054
# Poissons Ratio (z) = 0.09053 -0.11832
#
# Static dielectric constant tensor:
#      x y z
#    x 1.803720 -0.061300 -0.001390 
#    y -0.061300 1.814800 -0.021870 
#    z -0.001390 -0.021870 1.883550 
# 
# From -- ./inp_files/611046.got.cif
#   From: 2010.05.17/outbox.ucp.g08.bks.cvg/sg2_306_cif.got.tgz:611046.got - 2010.06.11 11:32:03.
