data_PCOD9075970
_publ_section_title
;
Structure prediction by ZEFSAII (Michael W. Deem and Ramdas Pophale) SiO2 
 PCOD9075970
Probable space group: P -1
;
_chemical_formula_sum "Si O2"
_cell_formula_units_Z 15
_cell_length_a 9.036959
_cell_length_b 14.430739
_cell_length_c 15.609590
_cell_angle_alpha 28.181216
_cell_angle_beta 34.649660
_cell_angle_gamma 43.144956
_cell_volume 546.510116
_symmetry_space_group_name_H-M "P -1"
_symmetry_group_IT_number 2
_symmetry_cell_setting 'triclinic'
loop_
_space_group_symop_operation_xyz
x,y,z
-x,-y,-z
loop_
_atom_site_type_symbol
_atom_site_label
_atom_site_fract_x
_atom_site_fract_y
_atom_site_fract_z
Si Si1 0.000000 0.000000 0.500000
Si Si2 0.335357 0.501416 0.991287
Si Si3 0.993911 0.292210 0.615501
Si Si4 0.895796 0.351603 0.423717
Si Si5 0.974977 0.831509 0.837294
Si Si6 0.314570 0.201350 0.832598
Si Si7 0.472638 0.417006 0.810159
Si Si8 0.588355 0.856215 0.346264
O O1 0.677143 0.021506 0.633694
O O2 0.997586 0.028940 0.370201
O O3 0.088477 0.357775 0.244242
O O4 0.500000 0.500000 0.000000
O O5 0.492227 0.431647 0.890637
O O6 0.233961 0.721016 0.837311
O O7 0.044231 0.312760 0.473978
O O8 0.684917 0.266059 0.794897
O O9 0.000000 0.500000 0.500000
O O10 0.206428 0.142569 0.674921
O O11 0.623543 0.239221 0.649649
O O12 0.811329 0.580879 0.281191
O O13 0.809364 0.899275 0.943567
O O14 0.809414 0.657177 0.016902
O O15 0.251869 0.116682 0.838786
O O16 0.497857 0.628232 0.581717
#
# Coordination Sequence:
#
# PCOD9075970 Si02
#       8
#     1   2   2   2   2   2   2   2
#     4  12  28  42  60  86 130 176 202 242 306 390
#     4  11  22  32  61  99 130 151 197 266 316 348
#     4  10  18  34  61  94 123 149 195 259 312 351
#     4  10  18  32  57  98 124 142 196 263 313 347
#     4  11  24  41  62  92 124 164 212 246 316 369
#     4  10  19  36  61  88 116 157 201 255 299 362
#     4  11  20  39  66  97 117 162 206 264 306 362
#     4  11  22  39  64  90 125 160 204 251 308 364
#
# _framework density 27.446883
#
# number of rings (size 3 to 8) (size 9 to 14) (size 15 to 20)
#    0.000    1.333    5.333    3.600    3.733    0.533 
#    0.000    0.667    0.000    1.600    0.000    0.000 
#    0.000    0.000    0.000    0.000    0.000    0.000 
#
# Total GULP energy -83786.806609 kJ/mol
# GULP energy per Si atom -5585.787107 kJ/mol
# Density = 2.738441 g / cm^3
# Si number density = 27.446883 Si / 1000 Ang^3
#
#
#
# Elastic Constant Matrix: (Units=GPa)
#
#
# Indices 1 2 3 4 5 6 
#
# 1 124.7518 29.8107 36.9247 5.7751 55.6674 -28.2026
# 2 29.8107 134.7612 51.9359 17.7334 32.0753 -20.6771
# 3 36.9247 51.9359 173.1613 15.5838 52.2662 5.6143
# 4 5.7751 17.7334 15.5838 61.2759 13.9566 16.6075
# 5 55.6674 32.0753 52.2662 13.9566 67.3560 4.2239
# 6 -28.2026 -20.6771 5.6143 16.6075 4.2239 45.2255
#
#
#
# Elastic Compliance Matrix: (Units=1/GPa)
#
#
# Indices 1 2 3 4 5 6 
#
# 1 0.018606 0.002641 0.000171 -0.002839 -0.017147 0.015433
# 2 0.002641 0.010818 -0.002094 -0.004003 -0.005434 0.008830
# 3 0.000171 -0.002094 0.007996 0.000141 -0.005290 -0.001401
# 4 -0.002839 -0.004003 0.000141 0.020627 0.000574 -0.011246
# 5 -0.017147 -0.005434 -0.005290 0.000574 0.036605 -0.016150
# 6 0.015433 0.008830 -0.001401 -0.011246 -0.016150 0.041584
#
#
# Mechanical properties :
#
#
# Convention : Reuss Voigt Hill
#
# Bulk Modulus (GPa) = 25.73539 74.44631 50.09085
# Shear Modulus (GPa) = 33.84044 55.70501 44.77273
#
# Velocity S-wave (km/s) = 3.51514 4.50995 4.04326
# Velocity P-wave (km/s) = 5.08643 7.36900 6.33142
#
# Compressibility (1/GPa) = 0.03885699
#
# Stress axis : x y z
#
# Youngs Moduli (GPa) = 53.74604 92.43641 125.06247
#
# Poissons Ratio (x) = -0.24412 -0.02140
# Poissons Ratio (y) = -0.14194 0.26185
# Poissons Ratio (z) = -0.00920 0.19354
#
# Static dielectric constant tensor:
#      x y z
#    x 2.240280 0.127840 -0.122600 
#    y 0.127840 2.299650 -0.124630 
#    z -0.122600 -0.124630 2.204010 
# 
# From -- ./inp_files/207769.got.cif
#   From: 2010.05.17/outbox.cif.g08.bks.cpg/sg2_104_cif.got.tgz:207769.got - 2010.06.03 11:33:40.
