data_PCOD9075789
_publ_section_title
;
Structure prediction by ZEFSAII (Michael W. Deem and Ramdas Pophale) SiO2 
 PCOD9075789
Probable space group: P -1
;
_chemical_formula_sum "Si O2"
_cell_formula_units_Z 12
_cell_length_a 7.666162
_cell_length_b 5.255582
_cell_length_c 16.772134
_cell_angle_alpha 81.872954
_cell_angle_beta 128.762407
_cell_angle_gamma 119.007169
_cell_volume 447.588946
_symmetry_space_group_name_H-M "P -1"
_symmetry_group_IT_number 2
_symmetry_cell_setting 'triclinic'
loop_
_space_group_symop_operation_xyz
x,y,z
-x,-y,-z
loop_
_atom_site_type_symbol
_atom_site_label
_atom_site_fract_x
_atom_site_fract_y
_atom_site_fract_z
Si Si1 0.423379 0.273215 0.646936
Si Si2 0.311305 0.220956 0.903323
Si Si3 0.247070 0.822131 0.045436
Si Si4 0.861011 0.847736 0.589509
Si Si5 0.983977 0.383085 0.696617
Si Si6 0.450878 0.190895 0.240681
O O1 0.329528 0.311512 0.531990
O O2 0.254138 0.595892 0.716228
O O3 0.554976 0.071314 0.696652
O O4 0.590156 0.580181 0.729356
O O5 0.487146 0.190574 0.886532
O O6 0.091928 0.279496 0.805338
O O7 0.500000 0.500000 0.000000
O O8 0.148128 0.062831 0.623838
O O9 0.283495 0.037326 0.120232
O O10 0.000000 0.500000 0.000000
O O11 0.214987 0.943912 0.946678
O O12 0.874705 0.606293 0.660952
O O13 0.808784 0.084349 0.608530
#
# Coordination Sequence:
#
# PCOD9075789 Si02
#       6
#     2   2   2   2   2   2
#     4   9  17  29  49  82 122 158 202 255 318 367
#     4  11  23  41  65  90 129 170 209 266 320 374
#     4  11  25  42  63  94 128 169 217 262 317 383
#     4   9  17  28  50  83 120 159 202 257 309 378
#     4  10  18  32  55  84 121 162 205 253 317 370
#     4  10  18  33  54  82 123 163 200 261 314 368
#
# _framework density 26.810313000000001
#
# number of rings (size 3 to 8) (size 9 to 14) (size 15 to 20)
#    0.000    2.000    1.667    4.000    2.333    4.667 
#    0.000    0.000    0.000    0.000    0.000    7.000 
#    0.000    0.000    0.000    0.167    0.000    0.000 
#
# Total GULP energy -67341.568867 kJ/mol
# GULP energy per Si atom -5611.797406 kJ/mol
# Density = 2.674929 g / cm^3
# Si number density = 26.810313 Si / 1000 Ang^3
#
#
#
# Elastic Constant Matrix: (Units=GPa)
#
#
# Indices 1 2 3 4 5 6 
#
# 1 129.9958 50.8110 49.5240 5.6737 4.9340 -8.5980
# 2 50.8110 197.3161 83.2161 -0.8905 -2.5654 -7.0408
# 3 49.5240 83.2161 166.9918 8.4901 -5.4983 -9.6894
# 4 5.6737 -0.8905 8.4901 60.6190 -4.9134 -9.5181
# 5 4.9340 -2.5654 -5.4983 -4.9134 36.1678 2.8121
# 6 -8.5980 -7.0408 -9.6894 -9.5181 2.8121 32.4162
#
#
#
# Elastic Compliance Matrix: (Units=1/GPa)
#
#
# Indices 1 2 3 4 5 6 
#
# 1 0.009217 -0.001539 -0.001911 -0.000525 -0.001849 0.001546
# 2 -0.001539 0.006703 -0.002889 0.000731 0.000317 0.000371
# 3 -0.001911 -0.002889 0.008127 -0.000758 0.001112 0.000975
# 4 -0.000525 0.000731 -0.000758 0.017577 0.002024 0.004778
# 5 -0.001849 0.000317 0.001112 0.002024 0.028521 -0.001969
# 6 0.001546 0.000371 0.000975 0.004778 -0.001969 0.033205
#
#
# Mechanical properties :
#
#
# Convention : Reuss Voigt Hill
#
# Bulk Modulus (GPa) = 87.95952 95.71176 91.83564
# Shear Modulus (GPa) = 41.72976 46.55743 44.14360
#
# Velocity S-wave (km/s) = 3.94951 4.17171 4.06213
# Velocity P-wave (km/s) = 7.32649 7.67993 7.50529
#
# Compressibility (1/GPa) = 0.01136887
#
# Stress axis : x y z
#
# Youngs Moduli (GPa) = 108.48998 149.17601 123.05028
#
# Poissons Ratio (x) = 0.22955 0.23518
# Poissons Ratio (y) = 0.16694 0.35554
# Poissons Ratio (z) = 0.20735 0.43102
#
# Static dielectric constant tensor:
#      x y z
#    x 2.212520 0.050360 0.005210 
#    y 0.050360 2.036750 -0.043600 
#    z 0.005210 -0.043600 2.005900 
# 
# From -- ./inp_files/563839.got.cif
#   From: 2010.05.17/outbox.cif.g08.bks.cpg/sg2_282_cif.got.tgz:563839.got - 2010.06.03 11:33:40.
