data_PCOD9075637
_publ_section_title
;
Structure prediction by ZEFSAII (Michael W. Deem and Ramdas Pophale) SiO2 
 PCOD9075637
Probable space group: P -1
;
_chemical_formula_sum "Si O2"
_cell_formula_units_Z 16
_cell_length_a 14.339101
_cell_length_b 8.422835
_cell_length_c 10.644921
_cell_angle_alpha 53.731961
_cell_angle_beta 82.558840
_cell_angle_gamma 52.036608
_cell_volume 759.641959
_symmetry_space_group_name_H-M "P -1"
_symmetry_group_IT_number 2
_symmetry_cell_setting 'triclinic'
loop_
_space_group_symop_operation_xyz
x,y,z
-x,-y,-z
loop_
_atom_site_type_symbol
_atom_site_label
_atom_site_fract_x
_atom_site_fract_y
_atom_site_fract_z
Si Si1 0.641943 0.846816 0.098782
Si Si2 0.320417 0.249220 0.269841
Si Si3 0.912667 0.714647 0.740290
Si Si4 0.149449 0.163772 0.017611
Si Si5 0.763464 0.290126 0.439519
Si Si6 0.541846 0.301901 0.412928
Si Si7 0.481678 0.750019 0.846695
Si Si8 0.736704 0.367321 0.693930
O O1 0.730326 0.529092 0.252007
O O2 0.613719 0.998892 0.164002
O O3 0.723898 0.882004 0.984434
O O4 0.500000 0.000000 0.000000
O O5 0.194272 0.303631 0.241939
O O6 0.380649 0.334698 0.133711
O O7 0.296478 0.388520 0.341836
O O8 0.430932 0.930407 0.402505
O O9 0.906038 0.777901 0.859257
O O10 0.873448 0.967281 0.552139
O O11 0.047492 0.422129 0.829568
O O12 0.179514 0.893671 0.110340
O O13 0.636539 0.337550 0.421413
O O14 0.782067 0.332664 0.560460
O O15 0.562597 0.203703 0.311620
O O16 0.396078 0.563219 0.328698
O O17 0.500000 0.500000 0.000000
#
# Coordination Sequence:
#
# PCOD9075637 Si02
#       8
#     2   2   2   2   2   2   2   2
#     4  12  22  34  55  84 111 138 172 217 273 320
#     4  10  19  34  56  77 106 142 178 215 262 319
#     4   9  21  39  56  75 102 145 185 219 259 306
#     4  10  21  37  55  77 108 139 181 224 258 312
#     4  10  20  34  55  78 107 140 179 219 261 319
#     4  10  19  33  52  78 109 141 175 214 263 318
#     4  11  21  33  50  80 115 138 165 215 274 319
#     4  10  18  32  54  80 104 138 179 221 260 309
#
# _framework density 21.062553999999999
#
# number of rings (size 3 to 8) (size 9 to 14) (size 15 to 20)
#    0.000    1.750    0.000    7.125    0.000    3.000 
#    0.000    0.000    0.000    6.750    0.000    0.000 
#    0.000    0.000    0.000    0.000    0.000    0.000 
#
# Total GULP energy -89176.516923 kJ/mol
# GULP energy per Si atom -5573.532308 kJ/mol
# Density = 2.101461 g / cm^3
# Si number density = 21.062554 Si / 1000 Ang^3
#
#
#
# Elastic Constant Matrix: (Units=GPa)
#
#
# Indices 1 2 3 4 5 6 
#
# 1 30.7109 9.0152 27.5238 -26.1470 -12.2055 6.2642
# 2 9.0152 31.5969 7.0914 -2.7104 1.8865 4.4244
# 3 27.5238 7.0914 100.6915 -32.6946 -13.7634 -0.5928
# 4 -26.1470 -2.7104 -32.6946 26.1646 2.6797 3.1901
# 5 -12.2055 1.8865 -13.7634 2.6797 31.5139 -7.4491
# 6 6.2642 4.4244 -0.5928 3.1901 -7.4491 22.5150
#
#
#
# Elastic Compliance Matrix: (Units=1/GPa)
#
#
# Indices 1 2 3 4 5 6 
#
# 1 -0.308050 0.060165 -0.051565 -0.368137 -0.091837 0.094303
# 2 0.060165 0.022190 0.007531 0.073867 0.012549 -0.027216
# 3 -0.051565 0.007531 0.009310 -0.040091 -0.009227 0.015740
# 4 -0.368137 0.073867 -0.040091 -0.373723 -0.108145 0.104027
# 5 -0.091837 0.012549 -0.009227 -0.108145 0.010414 0.041611
# 6 0.094303 -0.027216 0.015740 0.104027 0.041611 0.022967
#
#
# Mechanical properties :
#
#
# Convention : Reuss Voigt Hill
#
# Bulk Modulus (GPa) = -4.09354 27.80668 11.85657
# Shear Modulus (GPa) = -6.84386 23.99661 8.57637
#
# Velocity S-wave (km/s) = -1.80454 3.37902 2.02007
# Velocity P-wave (km/s) = 2.50790 5.33426 3.32902
#
# Compressibility (1/GPa) = -0.24428713
#
# Stress axis : x y z
#
# Youngs Moduli (GPa) = -3.24623 45.06477 107.41010
#
# Poissons Ratio (x) = -2.71133 5.53862
# Poissons Ratio (y) = 0.19531 -0.80890
# Poissons Ratio (z) = -0.16739 -0.33938
#
# Static dielectric constant tensor:
#      x y z
#    x 1.759880 -0.005620 -0.001310 
#    y -0.005620 1.783030 -0.008310 
#    z -0.001310 -0.008310 1.840860 
# 
# From -- ./inp_files/177680.got.cif
#   From: 2010.05.17/outbox.cif.g08.bks.cpg/sg2_89_cif.got.tgz:177680.got - 2010.06.03 11:33:40.
