data_PCOD9075944
_publ_section_title
;
Structure prediction by ZEFSAII (Michael W. Deem and Ramdas Pophale) SiO2 
 PCOD9075944
Probable space group: P -1
;
_chemical_formula_sum "Si O2"
_cell_formula_units_Z 16
_cell_length_a 11.200504
_cell_length_b 9.141437
_cell_length_c 8.182435
_cell_angle_alpha 81.630364
_cell_angle_beta 114.585232
_cell_angle_gamma 100.881695
_cell_volume 746.029457
_symmetry_space_group_name_H-M "P -1"
_symmetry_group_IT_number 2
_symmetry_cell_setting 'triclinic'
loop_
_space_group_symop_operation_xyz
x,y,z
-x,-y,-z
loop_
_atom_site_type_symbol
_atom_site_label
_atom_site_fract_x
_atom_site_fract_y
_atom_site_fract_z
Si Si1 0.847824 0.455146 0.975448
Si Si2 0.346936 0.998454 0.366350
Si Si3 0.549968 0.889969 0.917320
Si Si4 0.137727 0.459244 0.648832
Si Si5 0.719267 0.250181 0.385927
Si Si6 0.891032 0.174025 0.192134
Si Si7 0.182727 0.172998 0.860048
Si Si8 0.819014 0.743272 0.778687
O O1 0.837382 0.499724 0.152208
O O2 0.825019 0.275835 0.003872
O O3 0.771698 0.565236 0.805202
O O4 0.000000 0.500000 0.000000
O O5 0.271906 0.852089 0.433652
O O6 0.500000 0.000000 0.500000
O O7 0.358925 0.009049 0.177790
O O8 0.284503 0.147829 0.355250
O O9 0.425216 0.795876 0.771632
O O10 0.656504 0.793867 0.065575
O O11 0.500000 0.000000 0.000000
O O12 0.247611 0.572511 0.597514
O O13 0.133018 0.282672 0.681834
O O14 0.000000 0.500000 0.500000
O O15 0.824815 0.205628 0.321476
O O16 0.048038 0.229534 0.256922
O O17 0.866382 0.998397 0.177941
O O18 0.143353 0.204619 0.020241
#
# Coordination Sequence:
#
# PCOD9075944 Si02
#       8
#     2   2   2   2   2   2   2   2
#     4   8  17  36  52  79 117 145 188 233 284 338
#     4   9  20  36  57  83 115 153 194 231 284 345
#     4  10  19  39  63  86 109 146 199 249 275 336
#     4  10  22  38  53  81 123 154 186 234 288 347
#     4  10  21  38  57  84 121 155 187 233 294 338
#     4  10  18  32  57  87 113 143 189 236 293 334
#     4  10  20  35  58  86 111 149 199 239 281 339
#     4   9  18  33  56  83 116 151 188 241 284 341
#
# _framework density 21.446874000000001
#
# number of rings (size 3 to 8) (size 9 to 14) (size 15 to 20)
#    0.000    2.500    1.250    0.375    1.750    1.000 
#    9.000    1.250    0.000    0.750    0.000    0.000 
#    0.000    0.000    0.000    0.000    0.000    0.000 
#
# Total GULP energy -89144.501519 kJ/mol
# GULP energy per Si atom -5571.531345 kJ/mol
# Density = 2.139806 g / cm^3
# Si number density = 21.446874 Si / 1000 Ang^3
#
#
#
# Elastic Constant Matrix: (Units=GPa)
#
#
# Indices 1 2 3 4 5 6 
#
# 1 95.6385 15.3816 34.8420 -21.0487 -8.2371 -0.0152
# 2 15.3816 131.6757 43.1897 -49.8021 0.5508 16.7228
# 3 34.8420 43.1897 72.8828 -38.4803 12.0978 4.0649
# 4 -21.0487 -49.8021 -38.4803 44.8109 -3.2281 0.0364
# 5 -8.2371 0.5508 12.0978 -3.2281 37.0348 -2.7880
# 6 -0.0152 16.7228 4.0649 0.0364 -2.7880 26.6926
#
#
#
# Elastic Compliance Matrix: (Units=1/GPa)
#
#
# Indices 1 2 3 4 5 6 
#
# 1 0.013877 0.001564 -0.007267 0.002427 0.005703 0.000727
# 2 0.001564 0.015405 -0.000068 0.017876 0.000979 -0.009562
# 3 -0.007267 -0.000068 0.031161 0.022535 -0.010268 -0.005810
# 4 0.002427 0.017876 0.022535 0.062487 -0.002770 -0.015004
# 5 0.005703 0.000979 -0.010268 -0.002770 0.031689 0.004267
# 6 0.000727 -0.009562 -0.005810 -0.015004 0.004267 0.044805
#
#
# Mechanical properties :
#
#
# Convention : Reuss Voigt Hill
#
# Bulk Modulus (GPa) = 20.44902 54.11372 37.28137
# Shear Modulus (GPa) = 22.00047 35.49325 28.74686
#
# Velocity S-wave (km/s) = 3.20631 4.07251 3.66509
# Velocity P-wave (km/s) = 4.82313 6.88477 5.94402
#
# Compressibility (1/GPa) = 0.04890209
#
# Stress axis : x y z
#
# Youngs Moduli (GPa) = 72.05991 64.91292 32.09113
#
# Poissons Ratio (x) = -0.10154 0.23321
# Poissons Ratio (y) = -0.11272 0.00218
# Poissons Ratio (z) = 0.52366 0.00442
#
# Static dielectric constant tensor:
#      x y z
#    x 1.808350 -0.034320 0.023150 
#    y -0.034320 1.865410 -0.031630 
#    z 0.023150 -0.031630 1.898000 
# 
# From -- ./inp_files/237872.got.cif
#   From: 2010.05.17/outbox.cif.g08.bks.cpg/sg2_119_cif.got.tgz:237872.got - 2010.06.03 11:33:40.
