data_PCOD9075519
_publ_section_title
;
Structure prediction by ZEFSAII (Michael W. Deem and Ramdas Pophale) SiO2 
 PCOD9075519
Probable space group: P -1
;
_chemical_formula_sum "Si O2"
_cell_formula_units_Z 16
_cell_length_a 9.000000
_cell_length_b 9.000000
_cell_length_c 21.000000
_cell_angle_alpha 120.000000
_cell_angle_beta 150.000000
_cell_angle_gamma 60.000000
_cell_volume 727.687525
_symmetry_space_group_name_H-M "P -1"
_symmetry_group_IT_number 2
_symmetry_cell_setting 'triclinic'
loop_
_space_group_symop_operation_xyz
x,y,z
-x,-y,-z
loop_
_atom_site_type_symbol
_atom_site_label
_atom_site_fract_x
_atom_site_fract_y
_atom_site_fract_z
Si Si1 0.058053 0.743177 0.344460
Si Si2 0.232288 0.126730 0.144084
Si Si3 0.808104 0.508920 0.866693
Si Si4 0.221365 0.205347 0.884974
Si Si5 0.973237 0.104426 0.418393
Si Si6 0.253084 0.274727 0.440653
Si Si7 0.832002 0.607035 0.357762
Si Si8 0.915402 0.140936 0.166915
O O1 0.399653 0.698476 0.434560
O O2 0.840151 0.798795 0.214794
O O3 0.897757 0.629125 0.310868
O O4 0.098990 0.907485 0.437785
O O5 0.187164 0.304727 0.124592
O O6 0.607119 0.101074 0.278557
O O7 0.115313 0.133572 0.175293
O O8 0.000000 0.000000 0.000000
O O9 0.484540 0.455379 0.754580
O O10 0.989088 0.368501 0.857157
O O11 0.000000 0.500000 0.000000
O O12 0.130682 0.041150 0.855176
O O13 0.569296 0.218593 0.034780
O O14 0.143743 0.141698 0.422954
O O15 0.102220 0.227656 0.542897
O O16 0.089265 0.456844 0.444481
O O17 0.089096 0.235693 0.305352
#
# Coordination Sequence:
#
# PCOD9075519 Si02
#       8
#     2   2   2   2   2   2   2   2
#     4  12  27  45  78 111 147 197 250 304 369 448
#     4  12  28  48  76 105 151 198 247 302 378 444
#     4  12  28  47  75 110 149 196 248 309 368 445
#     4  11  26  47  75 105 149 193 251 302 368 440
#     4  12  26  49  75 110 147 199 246 310 366 441
#     4  12  25  48  74 109 153 195 244 308 376 436
#     4  12  28  47  77 110 154 189 250 310 374 434
#     4  11  26  47  72 105 150 198 239 306 374 440
#
# _framework density 21.987459999999999
#
# number of rings (size 3 to 8) (size 9 to 14) (size 15 to 20)
#    0.000    0.250    2.500    5.250   12.250    0.500 
#    0.000    0.000    0.000    0.000    0.000    0.000 
#    0.000    0.000    0.000    0.000    0.000    0.000 
#
# Total GULP energy -89265.673556 kJ/mol
# GULP energy per Si atom -5579.104597 kJ/mol
# Density = 2.193742 g / cm^3
# Si number density = 21.987460 Si / 1000 Ang^3
#
#
#
# Elastic Constant Matrix: (Units=GPa)
#
#
# Indices 1 2 3 4 5 6 
#
# 1 170.5916 34.5478 65.5509 10.3211 10.8736 19.8366
# 2 34.5478 78.0252 13.6272 3.8891 9.0327 15.4386
# 3 65.5509 13.6272 134.1975 -1.3785 14.8753 5.2446
# 4 10.3211 3.8891 -1.3785 26.4602 -3.2840 8.3389
# 5 10.8736 9.0327 14.8753 -3.2840 51.6757 -2.8209
# 6 19.8366 15.4386 5.2446 8.3389 -2.8209 34.5452
#
#
#
# Elastic Compliance Matrix: (Units=1/GPa)
#
#
# Indices 1 2 3 4 5 6 
#
# 1 0.008203 -0.002298 -0.003632 -0.002295 -0.000568 -0.002624
# 2 -0.002298 0.015239 0.000079 0.000161 -0.002506 -0.005746
# 3 -0.003632 0.000079 0.009438 0.001644 -0.001858 0.000068
# 4 -0.002295 0.000161 0.001644 0.041830 0.002152 -0.008925
# 5 -0.000568 -0.002506 -0.001858 0.002152 0.020739 0.002902
# 6 -0.002624 -0.005746 0.000068 -0.008925 0.002902 0.035404
#
#
# Mechanical properties :
#
#
# Convention : Reuss Voigt Hill
#
# Bulk Modulus (GPa) = 47.21730 67.80735 57.51233
# Shear Modulus (GPa) = 33.41934 40.47543 36.94739
#
# Velocity S-wave (km/s) = 3.90285 4.29516 4.10370
# Velocity P-wave (km/s) = 6.46769 7.45009 6.97620
#
# Compressibility (1/GPa) = 0.02117868
#
# Stress axis : x y z
#
# Youngs Moduli (GPa) = 121.90541 65.61945 105.95750
#
# Poissons Ratio (x) = 0.15083 0.38479
# Poissons Ratio (y) = 0.28020 -0.00840
# Poissons Ratio (z) = 0.44271 -0.00520
#
# Static dielectric constant tensor:
#      x y z
#    x 2.043720 -0.023120 -0.050160 
#    y -0.023120 1.927000 0.019950 
#    z -0.050160 0.019950 1.807300 
# 
# From -- ./inp_files/209539.got.cif
#   From: 2010.05.17/outbox.ucp.g08.bks.cvg/sg2_105_cif.got.tgz:209539.got - 2010.06.11 11:32:03.
