data_PCOD9075248
_publ_section_title
;
Structure prediction by ZEFSAII (Michael W. Deem and Ramdas Pophale) SiO2 
 PCOD9075248
Probable space group: P -1
;
_chemical_formula_sum "Si O2"
_cell_formula_units_Z 14
_cell_length_a 9.676799
_cell_length_b 12.351624
_cell_length_c 23.102129
_cell_angle_alpha 22.923312
_cell_angle_beta 143.383380
_cell_angle_gamma 129.128862
_cell_volume 567.687444
_symmetry_space_group_name_H-M "P -1"
_symmetry_group_IT_number 2
_symmetry_cell_setting 'triclinic'
loop_
_space_group_symop_operation_xyz
x,y,z
-x,-y,-z
loop_
_atom_site_type_symbol
_atom_site_label
_atom_site_fract_x
_atom_site_fract_y
_atom_site_fract_z
Si Si1 0.395062 0.432272 0.634050
Si Si2 0.664970 0.655477 0.008850
Si Si3 0.391239 0.924444 0.311379
Si Si4 0.109694 0.199726 0.304094
Si Si5 0.731972 0.217552 0.337725
Si Si6 0.764320 0.298291 0.928707
Si Si7 0.860924 0.987176 0.231818
O O1 0.615197 0.267512 0.837974
O O2 0.272182 0.204588 0.689498
O O3 0.152516 0.727563 0.438114
O O4 0.488743 0.580570 0.540525
O O5 0.668717 0.560832 0.123462
O O6 0.953207 0.447139 0.180978
O O7 0.500000 0.500000 0.000000
O O8 0.564820 0.997106 0.778530
O O9 0.522717 0.099313 0.306640
O O10 0.078310 0.090715 0.131306
O O11 0.287292 0.340539 0.267309
O O12 0.218770 0.867092 0.536768
O O13 0.912827 0.205634 0.186109
O O14 0.000000 0.000000 0.500000
O O15 0.709505 0.178125 0.029978
#
# Coordination Sequence:
#
# PCOD9075248 Si02
#       7
#     2   2   2   2   2   2   2
#     4  10  20  37  53  72 108 150 171 206 261 323
#     4   8  16  30  52  78 102 129 166 219 263 306
#     4   9  17  32  55  78 100 135 179 208 256 320
#     4  10  18  32  53  83 104 132 175 224 257 301
#     4   9  16  30  54  80 102 131 168 217 268 307
#     4  10  19  34  54  76 106 138 178 213 261 306
#     4  10  22  35  51  77 109 140 179 212 256 311
#
# _framework density 24.661456000000001
#
# number of rings (size 3 to 8) (size 9 to 14) (size 15 to 20)
#    0.000    2.571    1.429    0.857    0.000    0.571 
#    7.714    0.000    0.000    8.571    0.000    0.000 
#    0.000    0.000    0.000    0.000    0.000    0.000 
#
# Total GULP energy -78151.878218 kJ/mol
# GULP energy per Si atom -5582.277016 kJ/mol
# Density = 2.460533 g / cm^3
# Si number density = 24.661456 Si / 1000 Ang^3
#
#
#
# Elastic Constant Matrix: (Units=GPa)
#
#
# Indices 1 2 3 4 5 6 
#
# 1 109.2017 14.9595 42.8816 -10.3109 -34.5924 20.5477
# 2 14.9595 71.2607 3.8750 -4.7037 -4.3894 22.1971
# 3 42.8816 3.8750 85.8417 10.1721 -31.3152 1.0899
# 4 -10.3109 -4.7037 10.1721 28.3998 11.0329 1.4084
# 5 -34.5924 -4.3894 -31.3152 11.0329 64.6048 -10.4953
# 6 20.5477 22.1971 1.0899 1.4084 -10.4953 26.0345
#
#
#
# Elastic Compliance Matrix: (Units=1/GPa)
#
#
# Indices 1 2 3 4 5 6 
#
# 1 0.016308 0.002452 -0.009193 0.010270 0.000246 -0.015033
# 2 0.002452 0.020884 -0.004605 0.008856 -0.004565 -0.021868
# 3 -0.009193 -0.004605 0.022317 -0.017163 0.011052 0.015632
# 4 0.010270 0.008856 -0.017163 0.053683 -0.015286 -0.024004
# 5 0.000246 -0.004565 0.011052 -0.015286 0.025605 0.014384
# 6 -0.015033 -0.021868 0.015632 -0.024004 0.014384 0.075363
#
#
# Mechanical properties :
#
#
# Convention : Reuss Voigt Hill
#
# Bulk Modulus (GPa) = 27.16181 43.30401 35.23291
# Shear Modulus (GPa) = 20.07037 37.44702 28.75869
#
# Velocity S-wave (km/s) = 2.85588 3.90095 3.41858
# Velocity P-wave (km/s) = 4.68108 6.15527 5.46808
#
# Compressibility (1/GPa) = 0.03681639
#
# Stress axis : x y z
#
# Youngs Moduli (GPa) = 61.31980 47.88456 44.80899
#
# Poissons Ratio (x) = -0.11742 0.41195
# Poissons Ratio (y) = -0.15037 0.20634
# Poissons Ratio (z) = 0.56374 0.22050
#
# Static dielectric constant tensor:
#      x y z
#    x 2.016840 0.007290 0.022550 
#    y 0.007290 1.859570 -0.029640 
#    z 0.022550 -0.029640 2.105720 
# 
# From -- ./inp_files/178599.got.cif
#   From: 2010.05.17/outbox.cif.g08.bks.cpg/sg2_90_cif.got.tgz:178599.got - 2010.06.03 11:33:40.
