data_PCOD9075120
_publ_section_title
;
Structure prediction by ZEFSAII (Michael W. Deem and Ramdas Pophale) SiO2 
 PCOD9075120
Probable space group: P -1
;
_chemical_formula_sum "Si O2"
_cell_formula_units_Z 13
_cell_length_a 9.000000
_cell_length_b 12.000000
_cell_length_c 18.000000
_cell_angle_alpha 140.000000
_cell_angle_beta 150.000000
_cell_angle_gamma 40.000000
_cell_volume 592.077935
_symmetry_space_group_name_H-M "P -1"
_symmetry_group_IT_number 2
_symmetry_cell_setting 'triclinic'
loop_
_space_group_symop_operation_xyz
x,y,z
-x,-y,-z
loop_
_atom_site_type_symbol
_atom_site_label
_atom_site_fract_x
_atom_site_fract_y
_atom_site_fract_z
Si Si1 0.270057 0.117760 0.523821
Si Si2 0.146468 0.589073 0.315626
Si Si3 0.761022 0.633455 0.022032
Si Si4 0.848025 0.484807 0.280586
Si Si5 0.453445 0.144463 0.359460
Si Si6 0.456270 0.820315 0.745016
Si Si7 0.500000 0.000000 0.000000
O O1 0.213240 0.334327 0.602846
O O2 0.918365 0.104855 0.364527
O O3 0.500000 0.000000 0.500000
O O4 0.437228 0.028655 0.627539
O O5 0.284417 0.752814 0.474312
O O6 0.432775 0.399557 0.332158
O O7 0.946505 0.549293 0.276873
O O8 0.947562 0.635781 0.179152
O O9 0.470742 0.562871 0.879921
O O10 0.623853 0.831998 0.027651
O O11 0.000000 0.500000 0.000000
O O12 0.133734 0.298604 0.327171
O O13 0.437865 0.099343 0.242676
O O14 0.617769 0.856325 0.907628
#
# Coordination Sequence:
#
# PCOD9075120 Si02
#       7
#     2   2   2   2   2   2   1
#     4  12  27  39  73 110 143 182 238 292 359 417
#     4  11  22  50  76 101 141 191 238 291 352 414
#     4  12  28  46  69 102 149 190 228 291 359 422
#     4  11  26  47  70 108 140 184 242 292 345 423
#     4  11  24  47  78 102 141 189 238 296 346 420
#     4  11  23  47  71 104 140 189 238 286 354 422
#     4  12  28  44  70 100 146 184 234 282 360 416
#
# _framework density 21.956568999999998
#
# number of rings (size 3 to 8) (size 9 to 14) (size 15 to 20)
#    0.000    0.615    4.615    2.769    8.615    0.615 
#    0.000    1.538    0.000    0.000    0.000    0.000 
#    0.000    0.000    0.000    0.000    0.000    0.000 
#
# Total GULP energy -72514.601907 kJ/mol
# GULP energy per Si atom -5578.046301 kJ/mol
# Density = 2.190659 g / cm^3
# Si number density = 21.956569 Si / 1000 Ang^3
#
#
#
# Elastic Constant Matrix: (Units=GPa)
#
#
# Indices 1 2 3 4 5 6 
#
# 1 79.8348 30.6863 39.8402 -24.5932 -6.4271 -28.3274
# 2 30.6863 100.0879 3.8940 -6.2642 8.9032 -9.7763
# 3 39.8402 3.8940 61.4725 -1.5842 7.3607 -0.3315
# 4 -24.5932 -6.2642 -1.5842 14.3380 -16.4674 -9.6528
# 5 -6.4271 8.9032 7.3607 -16.4674 22.0716 -7.1327
# 6 -28.3274 -9.7763 -0.3315 -9.6528 -7.1327 40.7549
#
#
#
# Elastic Compliance Matrix: (Units=1/GPa)
#
#
# Indices 1 2 3 4 5 6 
#
# 1 0.002110 -0.001153 0.000223 -0.022037 -0.017741 -0.007132
# 2 -0.001153 0.010979 0.000131 0.006039 0.000797 0.003403
# 3 0.000223 0.000131 0.015470 0.016741 0.009249 0.005896
# 4 -0.022037 0.006039 0.016741 -0.007041 -0.026144 -0.019975
# 5 -0.017741 0.000797 0.009249 -0.026144 0.012009 -0.016155
# 6 -0.007132 0.003403 0.005896 -0.019975 -0.016155 0.012885
#
#
# Mechanical properties :
#
#
# Convention : Reuss Voigt Hill
#
# Bulk Modulus (GPa) = 37.09101 43.35957 40.22529
# Shear Modulus (GPa) = 87.72022 26.56454 57.14238
#
# Velocity S-wave (km/s) = 6.32759 3.48209 5.10702
# Velocity P-wave (km/s) = 8.38535 5.99644 7.28943
#
# Compressibility (1/GPa) = 0.02696071
#
# Stress axis : x y z
#
# Youngs Moduli (GPa) = 473.82968 91.08123 64.63991
#
# Poissons Ratio (x) = 0.10506 -0.01443
# Poissons Ratio (y) = 0.54655 -0.00844
# Poissons Ratio (z) = -0.10576 -0.01190
#
# Static dielectric constant tensor:
#      x y z
#    x 1.772390 -0.015990 -0.027210 
#    y -0.015990 1.797150 0.009240 
#    z -0.027210 0.009240 1.841990 
# 
# From -- ./inp_files/176568.got.cif
#   From: 2010.05.17/outbox.ucp.g08.bks.cvg/sg2_89_cif.got.tgz:176568.got - 2010.06.11 11:32:03.
