data_PCOD9075936
_publ_section_title
;
Structure prediction by ZEFSAII (Michael W. Deem and Ramdas Pophale) SiO2 
 PCOD9075936
Probable space group: P -1
;
_chemical_formula_sum "Si O2"
_cell_formula_units_Z 16
_cell_length_a 8.799260
_cell_length_b 9.042601
_cell_length_c 13.631854
_cell_angle_alpha 132.647041
_cell_angle_beta 56.048270
_cell_angle_gamma 124.764330
_cell_volume 628.231631
_symmetry_space_group_name_H-M "P -1"
_symmetry_group_IT_number 2
_symmetry_cell_setting 'triclinic'
loop_
_space_group_symop_operation_xyz
x,y,z
-x,-y,-z
loop_
_atom_site_type_symbol
_atom_site_label
_atom_site_fract_x
_atom_site_fract_y
_atom_site_fract_z
Si Si1 0.389947 0.857196 0.066430
Si Si2 0.891284 0.617276 0.787599
Si Si3 0.278770 0.829275 0.799786
Si Si4 0.552885 0.997370 0.365799
Si Si5 0.114251 0.860107 0.450600
Si Si6 0.522558 0.556455 0.631078
Si Si7 0.897618 0.896237 0.718002
Si Si8 0.539537 0.561734 0.180164
O O1 0.561765 0.952148 0.126964
O O2 0.187173 0.907405 0.166546
O O3 0.355904 0.610382 0.954335
O O4 0.500000 0.000000 0.000000
O O5 0.050752 0.764476 0.869258
O O6 0.944969 0.397015 0.653451
O O7 0.899052 0.777595 0.765949
O O8 0.662533 0.524148 0.844952
O O9 0.352404 0.658793 0.751978
O O10 0.313134 0.812142 0.661771
O O11 0.336002 0.947031 0.377555
O O12 0.635919 0.803813 0.228237
O O13 0.500000 0.000000 0.500000
O O14 0.089742 0.916023 0.598011
O O15 0.000000 0.000000 0.500000
O O16 0.500000 0.500000 0.500000
O O17 0.730671 0.728435 0.640688
O O18 0.509259 0.430250 0.681328
#
# Coordination Sequence:
#
# PCOD9075936 Si02
#       8
#     2   2   2   2   2   2   2   2
#     4  11  20  42  63  90 124 166 217 253 300 371
#     4  10  21  38  61  92 122 160 208 255 315 360
#     4  11  22  36  63  92 119 165 210 252 302 379
#     4  11  24  41  62  94 131 159 203 261 321 367
#     4  11  22  38  59  91 129 159 199 261 318 366
#     4  10  18  32  57  86 114 154 208 248 298 361
#     4  10  20  36  62  84 121 164 201 252 308 367
#     4  10  22  41  63  89 127 169 201 262 312 362
#
# _framework density 25.468315
#
# number of rings (size 3 to 8) (size 9 to 14) (size 15 to 20)
#    0.000    1.500    3.750    4.125    0.000    4.000 
#    0.000    0.000    0.000    3.000    0.000    0.000 
#    0.000    0.000    0.000    0.000    0.000    0.000 
#
# Total GULP energy -89201.195568 kJ/mol
# GULP energy per Si atom -5575.074723 kJ/mol
# Density = 2.541035 g / cm^3
# Si number density = 25.468315 Si / 1000 Ang^3
#
#
#
# Elastic Constant Matrix: (Units=GPa)
#
#
# Indices 1 2 3 4 5 6 
#
# 1 107.6820 21.3442 29.0079 20.8867 6.0784 -4.0566
# 2 21.3442 76.2451 20.6502 20.4373 -11.8602 -16.9403
# 3 29.0079 20.6502 80.2292 28.7635 -18.5832 -16.2157
# 4 20.8867 20.4373 28.7635 40.3092 -19.6085 -13.2418
# 5 6.0784 -11.8602 -18.5832 -19.6085 38.3193 -0.6485
# 6 -4.0566 -16.9403 -16.2157 -13.2418 -0.6485 32.3837
#
#
#
# Elastic Compliance Matrix: (Units=1/GPa)
#
#
# Indices 1 2 3 4 5 6 
#
# 1 0.013048 -0.002930 -0.004188 -0.008901 -0.009661 -0.005829
# 2 -0.002930 0.016975 0.000206 -0.002399 0.004722 0.007730
# 3 -0.004188 0.000206 0.019045 -0.005802 0.007112 0.006890
# 4 -0.008901 -0.002399 -0.005802 0.052375 0.024938 0.016640
# 5 -0.009661 0.004722 0.007112 0.024938 0.045570 0.015931
# 6 -0.005829 0.007730 0.006890 0.016640 0.015931 0.044767
#
#
# Mechanical properties :
#
#
# Convention : Reuss Voigt Hill
#
# Bulk Modulus (GPa) = 28.37315 45.12901 36.75108
# Shear Modulus (GPa) = 23.00415 35.07937 29.04176
#
# Velocity S-wave (km/s) = 3.00867 3.71532 3.38051
# Velocity P-wave (km/s) = 4.82018 6.01357 5.44964
#
# Compressibility (1/GPa) = 0.03524459
#
# Stress axis : x y z
#
# Youngs Moduli (GPa) = 76.64024 58.91017 52.50619
#
# Poissons Ratio (x) = 0.17262 0.21990
# Poissons Ratio (y) = 0.22458 -0.01084
# Poissons Ratio (z) = 0.32097 -0.01216
#
# Static dielectric constant tensor:
#      x y z
#    x 2.076490 -0.032950 0.062470 
#    y -0.032950 1.970520 0.003700 
#    z 0.062470 0.003700 2.142830 
# 
# From -- ./inp_files/493834.got.cif
#   From: 2010.05.17/outbox.cif.g08.bks.cpg/sg2_247_cif.got.tgz:493834.got - 2010.06.03 11:33:40.
