data_PCOD9075595
_publ_section_title
;
Structure prediction by ZEFSAII (Michael W. Deem and Ramdas Pophale) SiO2 
 PCOD9075595
Probable space group: P -1
;
_chemical_formula_sum "Si O2"
_cell_formula_units_Z 14
_cell_length_a 27.000000
_cell_length_b 15.000000
_cell_length_c 15.000000
_cell_angle_alpha 20.000000
_cell_angle_beta 20.000000
_cell_angle_gamma 20.000000
_cell_volume 621.679612
_symmetry_space_group_name_H-M "P -1"
_symmetry_group_IT_number 2
_symmetry_cell_setting 'triclinic'
loop_
_space_group_symop_operation_xyz
x,y,z
-x,-y,-z
loop_
_atom_site_type_symbol
_atom_site_label
_atom_site_fract_x
_atom_site_fract_y
_atom_site_fract_z
Si Si1 0.371237 0.621408 0.833207
Si Si2 0.874589 0.615221 0.831702
Si Si3 0.803636 0.684563 0.150858
Si Si4 0.080887 0.957275 0.150089
Si Si5 0.686553 0.337594 0.802424
Si Si6 0.898938 0.351247 0.852586
Si Si7 0.576663 0.942409 0.134170
O O1 0.447449 0.821468 0.478770
O O2 0.226129 0.832539 0.947877
O O3 0.277895 0.532711 0.001177
O O4 0.503140 0.291013 0.955889
O O5 0.877876 0.426207 0.919644
O O6 0.955650 0.824700 0.474653
O O7 0.681302 0.851303 0.952977
O O8 0.995998 0.316698 0.966851
O O9 0.718490 0.548172 0.485647
O O10 0.731081 0.714490 0.147953
O O11 0.000000 0.500000 0.000000
O O12 0.733766 0.026319 0.970884
O O13 0.181080 0.772094 0.240175
O O14 0.500000 0.500000 0.000000
O O15 0.000000 0.500000 0.500000
O O16 0.000000 0.000000 0.000000
#
# Coordination Sequence:
#
# PCOD9075595 Si02
#       7
#     2   2   2   2   2   2   2
#     4  12  25  43  70  98 138 171 217 282 329 391
#     4  12  25  44  70  97 133 172 223 272 319 410
#     4  12  25  45  66  94 138 182 219 272 329 396
#     4  12  23  43  69  98 126 180 227 269 325 390
#     4  12  25  42  66  98 132 172 227 280 324 384
#     4  12  23  46  70 102 129 170 224 266 332 393
#     4  12  26  43  65 103 136 174 219 272 342 380
#
# _framework density 22.519638
#
# number of rings (size 3 to 8) (size 9 to 14) (size 15 to 20)
#    0.000    0.000    2.857    8.571    0.000    1.143 
#    0.000    0.000    0.000    0.000    0.000    0.000 
#    0.000    0.000    0.000    0.000    0.000    0.000 
#
# Total GULP energy -78121.828645 kJ/mol
# GULP energy per Si atom -5580.130617 kJ/mol
# Density = 2.246838 g / cm^3
# Si number density = 22.519638 Si / 1000 Ang^3
#
#
#
# Elastic Constant Matrix: (Units=GPa)
#
#
# Indices 1 2 3 4 5 6 
#
# 1 35.5763 -9.2774 -27.0602 13.5930 -14.0220 -9.5967
# 2 -9.2774 168.8749 82.7643 -5.8499 9.7625 16.8863
# 3 -27.0602 82.7643 126.6213 -19.6987 -17.0968 24.0543
# 4 13.5930 -5.8499 -19.6987 56.3052 0.2036 5.3530
# 5 -14.0220 9.7625 -17.0968 0.2036 22.5666 -1.2582
# 6 -9.5967 16.8863 24.0543 5.3530 -1.2582 31.0692
#
#
#
# Elastic Compliance Matrix: (Units=1/GPa)
#
#
# Indices 1 2 3 4 5 6 
#
# 1 0.169464 -0.046397 0.085157 -0.018781 0.191316 0.022615
# 2 -0.046397 0.023675 -0.032627 0.002957 -0.064097 -0.005044
# 3 0.085157 -0.032627 0.062263 -0.002665 0.114274 0.000918
# 4 -0.018781 0.002957 -0.002665 0.022666 -0.015724 -0.009887
# 5 0.191316 -0.064097 0.114274 -0.015724 0.278722 0.019455
# 6 0.022615 -0.005044 0.000918 -0.009887 0.019455 0.043693
#
#
# Mechanical properties :
#
#
# Convention : Reuss Voigt Hill
#
# Bulk Modulus (GPa) = 3.73596 47.10287 25.41942
# Shear Modulus (GPa) = 7.38074 40.96457 24.17266
#
# Velocity S-wave (km/s) = 1.81234 4.26967 3.27984
# Velocity P-wave (km/s) = 2.45805 6.72819 5.06510
#
# Compressibility (1/GPa) = 0.26766867
#
# Stress axis : x y z
#
# Youngs Moduli (GPa) = 5.90097 42.23880 16.06091
#
# Poissons Ratio (x) = 1.95974 -1.36770
# Poissons Ratio (y) = 0.27379 0.52401
# Poissons Ratio (z) = -0.50251 1.37811
#
# Static dielectric constant tensor:
#      x y z
#    x 2.007390 -0.068600 0.097690 
#    y -0.068600 1.828800 0.023080 
#    z 0.097690 0.023080 1.843760 
# 
# From -- ./inp_files/55360.got.cif
#   From: 2010.05.17/outbox.ucp.g08.bks.cvg/sg2_28_cif.got.tgz:55360.got - 2010.06.11 11:32:03.
