data_PCOD9075634
_publ_section_title
;
Structure prediction by ZEFSAII (Michael W. Deem and Ramdas Pophale) SiO2 
 PCOD9075634
Probable space group: P -1
;
_chemical_formula_sum "Si O2"
_cell_formula_units_Z 16
_cell_length_a 9.000000
_cell_length_b 12.000000
_cell_length_c 9.000000
_cell_angle_alpha 60.000000
_cell_angle_beta 60.000000
_cell_angle_gamma 80.000000
_cell_volume 725.212580
_symmetry_space_group_name_H-M "P -1"
_symmetry_group_IT_number 2
_symmetry_cell_setting 'triclinic'
loop_
_space_group_symop_operation_xyz
x,y,z
-x,-y,-z
loop_
_atom_site_type_symbol
_atom_site_label
_atom_site_fract_x
_atom_site_fract_y
_atom_site_fract_z
Si Si1 0.223921 0.293947 0.055229
Si Si2 0.442534 0.866675 0.029453
Si Si3 0.300154 0.458146 0.178612
Si Si4 0.286427 0.712627 0.471753
Si Si5 0.914261 0.092423 0.364496
Si Si6 0.342676 0.010120 0.685050
Si Si7 0.060823 0.445295 0.790661
Si Si8 0.660799 0.688254 0.435664
O O1 0.402067 0.227826 0.986426
O O2 0.236286 0.334234 0.193531
O O3 0.075509 0.184073 0.166452
O O4 0.144461 0.415811 0.931930
O O5 0.375872 0.915673 0.871065
O O6 0.304481 0.783729 0.256644
O O7 0.500000 0.000000 0.000000
O O8 0.326793 0.407083 0.365869
O O9 0.144571 0.552382 0.155983
O O10 0.500000 0.500000 0.000000
O O11 0.218400 0.818292 0.548013
O O12 0.147925 0.588721 0.614717
O O13 0.472066 0.665868 0.462656
O O14 0.822121 0.027815 0.310314
O O15 0.000000 0.000000 0.500000
O O16 0.500000 0.000000 0.500000
O O17 0.333645 0.158735 0.637606
O O18 0.168569 0.343034 0.717707
#
# Coordination Sequence:
#
# PCOD9075634 Si02
#       8
#     2   2   2   2   2   2   2   2
#     4  12  26  48  73 105 150 192 254 309 371 453
#     4  12  24  48  73 113 149 196 246 307 380 450
#     4  12  28  46  74 107 146 192 253 307 373 449
#     4  12  25  47  78 103 157 197 241 309 380 448
#     4  12  26  47  74 108 150 200 253 308 370 442
#     4  12  24  46  78 111 148 196 255 306 375 449
#     4  12  27  50  70 111 148 201 246 306 389 444
#     4  12  25  48  73 108 153 191 243 314 376 447
#
# _framework density 22.062495999999999
#
# number of rings (size 3 to 8) (size 9 to 14) (size 15 to 20)
#    0.000    0.000    5.000    4.875    3.500    0.000 
#    2.250    3.125    0.000    0.000    0.000    0.000 
#    0.000    0.000    0.000    0.000    0.000    0.000 
#
# Total GULP energy -89287.441028 kJ/mol
# GULP energy per Si atom -5580.465064 kJ/mol
# Density = 2.201228 g / cm^3
# Si number density = 22.062496 Si / 1000 Ang^3
#
#
#
# Elastic Constant Matrix: (Units=GPa)
#
#
# Indices 1 2 3 4 5 6 
#
# 1 169.3568 29.3328 45.6815 -2.0076 13.8431 -18.3976
# 2 29.3328 94.8740 7.4115 0.8972 -7.7845 -27.9456
# 3 45.6815 7.4115 111.1294 -13.3025 27.7524 1.9467
# 4 -2.0076 0.8972 -13.3025 35.6439 -2.6397 -2.2318
# 5 13.8431 -7.7845 27.7524 -2.6397 49.8337 -6.2152
# 6 -18.3976 -27.9456 1.9467 -2.2318 -6.2152 53.5124
#
#
#
# Elastic Compliance Matrix: (Units=1/GPa)
#
#
# Indices 1 2 3 4 5 6 
#
# 1 0.007142 -0.001527 -0.002809 -0.000538 -0.000477 0.001682
# 2 -0.001527 0.013571 -0.001489 -0.000224 0.004247 0.007100
# 3 -0.002809 -0.001489 0.012383 0.003845 -0.006492 -0.002787
# 4 -0.000538 -0.000224 0.003845 0.029485 -0.000372 0.000745
# 5 -0.000477 0.004247 -0.006492 -0.000372 0.025106 0.005190
# 6 0.001682 0.007100 -0.002787 0.000745 0.005190 0.023709
#
#
# Mechanical properties :
#
#
# Convention : Reuss Voigt Hill
#
# Bulk Modulus (GPa) = 46.62967 60.02354 53.32660
# Shear Modulus (GPa) = 38.40421 47.32696 42.86559
#
# Velocity S-wave (km/s) = 4.17670 4.63658 4.41263
# Velocity P-wave (km/s) = 6.66640 7.47857 7.08413
#
# Compressibility (1/GPa) = 0.02144557
#
# Stress axis : x y z
#
# Youngs Moduli (GPa) = 140.01261 73.68780 80.75674
#
# Poissons Ratio (x) = 0.11255 0.22682
# Poissons Ratio (y) = 0.21385 0.12025
# Poissons Ratio (z) = 0.39326 0.10973
#
# Static dielectric constant tensor:
#      x y z
#    x 2.062300 -0.081470 0.122210 
#    y -0.081470 1.921550 -0.017970 
#    z 0.122210 -0.017970 1.972050 
# 
# From -- ./inp_files/184846.got.cif
#   From: 2010.05.17/outbox.ucp.g08.bks.cvg/sg2_93_cif.got.tgz:184846.got - 2010.06.11 11:32:03.
