data_PCOD9075849
_publ_section_title
;
Structure prediction by ZEFSAII (Michael W. Deem and Ramdas Pophale) SiO2 
 PCOD9075849
Probable space group: P -1
;
_chemical_formula_sum "Si O2"
_cell_formula_units_Z 15
_cell_length_a 11.693957
_cell_length_b 20.255559
_cell_length_c 15.953002
_cell_angle_alpha 157.672116
_cell_angle_beta 26.300576
_cell_angle_gamma 138.887214
_cell_volume 567.834339
_symmetry_space_group_name_H-M "P -1"
_symmetry_group_IT_number 2
_symmetry_cell_setting 'triclinic'
loop_
_space_group_symop_operation_xyz
x,y,z
-x,-y,-z
loop_
_atom_site_type_symbol
_atom_site_label
_atom_site_fract_x
_atom_site_fract_y
_atom_site_fract_z
Si Si1 0.196235 0.638182 0.815304
Si Si2 0.000000 0.500000 0.500000
Si Si3 0.900370 0.714242 0.587892
Si Si4 0.849973 0.209802 0.153964
Si Si5 0.008293 0.251705 0.617828
Si Si6 0.236372 0.897144 0.649845
Si Si7 0.749459 0.724950 0.345451
Si Si8 0.513489 0.119255 0.793470
O O1 0.500000 0.500000 0.500000
O O2 0.075917 0.497070 0.688516
O O3 0.222149 0.756333 0.857456
O O4 0.961509 0.757719 0.180160
O O5 0.130110 0.604508 0.602873
O O6 0.272143 0.286084 0.090470
O O7 0.630630 0.833069 0.963995
O O8 0.857452 0.797213 0.619922
O O9 0.186327 0.709857 0.439798
O O10 0.585024 0.198447 0.362676
O O11 0.127996 0.019377 0.778699
O O12 0.215201 0.194225 0.493571
O O13 0.857527 0.489485 0.000843
O O14 0.784662 0.162886 0.668416
O O15 0.516097 0.918048 0.521657
O O16 0.000000 0.000000 0.000000
#
# Coordination Sequence:
#
# PCOD9075849 Si02
#       8
#     2   1   2   2   2   2   2   2
#     4  11  21  36  64  91 120 154 197 245 295 355
#     4  10  18  32  56  82 112 152 188 236 288 334
#     4  10  19  36  56  85 112 153 197 232 296 350
#     4  11  20  39  61  87 122 152 200 248 291 351
#     4  10  19  33  58  84 116 151 192 246 293 351
#     4   9  22  39  60  82 119 163 195 238 298 356
#     4  10  20  34  56  92 116 146 197 250 297 336
#     4  10  18  35  55  80 116 151 191 238 294 346
#
# _framework density 26.416155
#
# number of rings (size 3 to 8) (size 9 to 14) (size 15 to 20)
#    0.000    1.867    2.667    3.200    0.000    0.533 
#    0.000   14.667    0.000    4.800    0.000    0.000 
#    0.000    0.000    0.000    0.000    0.000    0.000 
#
# Total GULP energy -83714.413888 kJ/mol
# GULP energy per Si atom -5580.960926 kJ/mol
# Density = 2.635603 g / cm^3
# Si number density = 26.416155 Si / 1000 Ang^3
#
#
#
# Elastic Constant Matrix: (Units=GPa)
#
#
# Indices 1 2 3 4 5 6 
#
# 1 149.9390 49.0240 47.0138 -20.2536 4.8679 12.7998
# 2 49.0240 114.2008 31.7959 -22.5026 -2.5232 9.0112
# 3 47.0138 31.7959 77.9333 -11.7382 4.5262 3.4077
# 4 -20.2536 -22.5026 -11.7382 49.3320 -2.6205 8.7712
# 5 4.8679 -2.5232 4.5262 -2.6205 24.6454 10.3792
# 6 12.7998 9.0112 3.4077 8.7712 10.3792 41.4050
#
#
#
# Elastic Compliance Matrix: (Units=1/GPa)
#
#
# Indices 1 2 3 4 5 6 
#
# 1 0.009215 -0.002130 -0.004242 0.002253 0.000043 -0.002524
# 2 -0.002130 0.011792 -0.002901 0.004701 0.004230 -0.003725
# 3 -0.004242 -0.002901 0.016779 0.000557 -0.002983 0.001192
# 4 0.002253 0.004701 0.000557 0.025357 0.006301 -0.008717
# 5 0.000043 0.004230 -0.002983 0.006301 0.048153 -0.014094
# 6 -0.002524 -0.003725 0.001192 -0.008717 -0.014094 0.031024
#
#
# Mechanical properties :
#
#
# Convention : Reuss Voigt Hill
#
# Bulk Modulus (GPa) = 51.97679 66.41560 59.19619
# Shear Modulus (GPa) = 29.88979 37.35909 33.62444
#
# Velocity S-wave (km/s) = 3.36742 3.76473 3.57161
# Velocity P-wave (km/s) = 5.90239 6.64035 6.28222
#
# Compressibility (1/GPa) = 0.01923936
#
# Stress axis : x y z
#
# Youngs Moduli (GPa) = 108.52451 84.80041 59.59742
#
# Poissons Ratio (x) = 0.18066 0.25283
# Poissons Ratio (y) = 0.23120 0.17287
# Poissons Ratio (z) = 0.46040 0.24597
#
# Static dielectric constant tensor:
#      x y z
#    x 2.041840 -0.078160 -0.035940 
#    y -0.078160 2.140940 0.051030 
#    z -0.035940 0.051030 2.174500 
# 
# From -- ./inp_files/353923.got.cif
#   From: 2010.05.17/outbox.cif.g08.bks.cpg/sg2_177_cif.got.tgz:353923.got - 2010.06.03 11:33:40.
