data_PCOD9075784
_publ_section_title
;
Structure prediction by ZEFSAII (Michael W. Deem and Ramdas Pophale) SiO2 
 PCOD9075784
Probable space group: P -1
;
_chemical_formula_sum "Si O2"
_cell_formula_units_Z 16
_cell_length_a 12.017714
_cell_length_b 20.380361
_cell_length_c 11.906185
_cell_angle_alpha 27.236798
_cell_angle_beta 144.623875
_cell_angle_gamma 153.710825
_cell_volume 588.716338
_symmetry_space_group_name_H-M "P -1"
_symmetry_group_IT_number 2
_symmetry_cell_setting 'triclinic'
loop_
_space_group_symop_operation_xyz
x,y,z
-x,-y,-z
loop_
_atom_site_type_symbol
_atom_site_label
_atom_site_fract_x
_atom_site_fract_y
_atom_site_fract_z
Si Si1 0.983262 0.683890 0.424293
Si Si2 0.176699 0.344808 0.341435
Si Si3 0.615135 0.957187 0.066237
Si Si4 0.392956 0.647203 0.211937
Si Si5 0.743760 0.788160 0.597733
Si Si6 0.259870 0.976433 0.377994
Si Si7 0.559471 0.305858 0.277122
Si Si8 0.908247 0.620471 0.226182
O O1 0.075457 0.871800 0.276852
O O2 0.233461 0.720251 0.531823
O O3 0.834782 0.515035 0.648150
O O4 0.804866 0.609265 0.281270
O O5 0.289163 0.555426 0.143791
O O6 0.359748 0.329125 0.591493
O O7 0.188183 0.319536 0.257526
O O8 0.903944 0.177671 0.423241
O O9 0.470024 0.846342 0.002103
O O10 0.606619 0.806263 0.356764
O O11 0.881817 0.158171 0.955928
O O12 0.500000 0.000000 0.000000
O O13 0.592876 0.758736 0.631808
O O14 0.000000 0.000000 0.500000
O O15 0.500000 0.000000 0.500000
O O16 0.363110 0.173568 0.217925
O O17 0.732566 0.528822 0.111352
O O18 0.000000 0.500000 0.500000
#
# Coordination Sequence:
#
# PCOD9075784 Si02
#       8
#     2   2   2   2   2   2   2   2
#     4   9  17  32  54  84 112 150 197 243 298 349
#     4   9  17  33  55  86 115 154 198 238 306 360
#     4  11  21  35  59  92 121 153 208 258 295 354
#     4   9  18  33  60  84 117 153 200 252 298 352
#     4  11  21  36  62  88 122 163 195 246 306 370
#     4   9  17  29  53  82 113 151 198 238 295 368
#     4  10  18  32  55  84 113 153 197 236 299 360
#     4  10  19  33  55  83 116 153 198 247 292 345
#
# _framework density 27.177772999999998
#
# number of rings (size 3 to 8) (size 9 to 14) (size 15 to 20)
#    0.000    2.250    1.250    4.500    0.000    0.000 
#    0.000    0.625    2.750   24.750    0.000    0.000 
#    0.000    0.000    0.000    0.000    0.000    0.000 
#
# Total GULP energy -89197.346676 kJ/mol
# GULP energy per Si atom -5574.834167 kJ/mol
# Density = 2.711591 g / cm^3
# Si number density = 27.177773 Si / 1000 Ang^3
#
#
#
# Elastic Constant Matrix: (Units=GPa)
#
#
# Indices 1 2 3 4 5 6 
#
# 1 209.1165 89.8762 65.8432 -36.5017 -4.6203 -26.9871
# 2 89.8762 120.0801 50.8666 -53.6834 25.1653 -42.1426
# 3 65.8432 50.8666 65.3484 -34.4636 9.1496 -9.9508
# 4 -36.5017 -53.6834 -34.4636 59.3969 -9.1244 28.4999
# 5 -4.6203 25.1653 9.1496 -9.1244 46.6921 -25.1496
# 6 -26.9871 -42.1426 -9.9508 28.4999 -25.1496 82.6803
#
#
#
# Elastic Compliance Matrix: (Units=1/GPa)
#
#
# Indices 1 2 3 4 5 6 
#
# 1 0.009612 -0.006520 -0.007519 -0.004525 0.006347 0.002399
# 2 -0.006520 0.022497 -0.002933 0.012277 -0.008654 0.002121
# 3 -0.007519 -0.002933 0.032257 0.013693 -0.006443 -0.006746
# 4 -0.004525 0.012277 0.013693 0.035894 -0.007098 -0.008103
# 5 0.006347 -0.008654 -0.006443 -0.007098 0.031363 0.008872
# 6 0.002399 0.002121 -0.006746 -0.008103 0.008872 0.018639
#
#
# Mechanical properties :
#
#
# Convention : Reuss Voigt Hill
#
# Bulk Modulus (GPa) = 32.87033 89.74635 61.30834
# Shear Modulus (GPa) = 25.72729 50.28446 38.00588
#
# Velocity S-wave (km/s) = 3.08007 4.30607 3.74360
# Velocity P-wave (km/s) = 4.97694 7.60372 6.42598
#
# Compressibility (1/GPa) = 0.03042258
#
# Stress axis : x y z
#
# Youngs Moduli (GPa) = 104.03906 44.45084 31.00055
#
# Poissons Ratio (x) = 0.28982 0.23310
# Poissons Ratio (y) = 0.67833 0.09091
# Poissons Ratio (z) = 0.78230 0.13035
#
# Static dielectric constant tensor:
#      x y z
#    x 2.515800 -0.233220 0.296590 
#    y -0.233220 2.506780 -0.160700 
#    z 0.296590 -0.160700 2.498030 
# 
# From -- ./inp_files/302914.got.cif
#   From: 2010.05.17/outbox.cif.g08.bks.cpg/sg2_152_cif.got.tgz:302914.got - 2010.06.03 11:33:40.
