data_PCOD9075261
_publ_section_title
;
Structure prediction by ZEFSAII (Michael W. Deem and Ramdas Pophale) SiO2 
 PCOD9075261
Probable space group: P -1
;
_chemical_formula_sum "Si O2"
_cell_formula_units_Z 16
_cell_length_a 12.000000
_cell_length_b 9.000000
_cell_length_c 15.000000
_cell_angle_alpha 120.000000
_cell_angle_beta 60.000000
_cell_angle_gamma 70.000000
_cell_volume 745.925389
_symmetry_space_group_name_H-M "P -1"
_symmetry_group_IT_number 2
_symmetry_cell_setting 'triclinic'
loop_
_space_group_symop_operation_xyz
x,y,z
-x,-y,-z
loop_
_atom_site_type_symbol
_atom_site_label
_atom_site_fract_x
_atom_site_fract_y
_atom_site_fract_z
Si Si1 0.243952 0.272513 0.858751
Si Si2 0.533553 0.163091 0.022755
Si Si3 0.254801 0.536159 0.786890
Si Si4 0.911131 0.936983 0.898467
Si Si5 0.236121 0.768673 0.371336
Si Si6 0.608416 0.215793 0.408232
Si Si7 0.568146 0.634162 0.074579
Si Si8 0.968508 0.994386 0.287523
O O1 0.303708 0.328056 0.768321
O O2 0.321613 0.306746 0.919454
O O3 0.375876 0.959275 0.716914
O O4 0.000000 0.500000 0.000000
O O5 0.341175 0.474476 0.230256
O O6 0.541760 0.213360 0.930488
O O7 0.500000 0.000000 0.000000
O O8 0.728690 0.008511 0.959582
O O9 0.461015 0.334916 0.585763
O O10 0.059375 0.715667 0.851586
O O11 0.193269 0.773158 0.938249
O O12 0.040312 0.835861 0.725402
O O13 0.397703 0.727885 0.240434
O O14 0.183441 0.852237 0.521111
O O15 0.000000 0.000000 0.500000
O O16 0.500000 0.500000 0.500000
O O17 0.852013 0.979856 0.266948
O O18 0.784434 0.293425 0.876582
#
# Coordination Sequence:
#
# PCOD9075261 Si02
#       8
#     2   2   2   2   2   2   2   2
#     4  12  25  44  71 103 143 193 236 297 363 428
#     4  12  27  47  72 107 148 190 236 300 365 427
#     4  11  24  44  73 107 144 187 242 300 357 428
#     4  11  23  45  75 104 144 190 237 299 369 423
#     4  12  25  46  79 100 137 191 244 292 357 430
#     4  12  25  42  68 108 143 183 239 297 360 427
#     4  12  25  49  75 106 145 190 245 299 358 434
#     4  12  22  45  76 105 138 189 244 293 362 427
#
# _framework density 21.449866
#
# number of rings (size 3 to 8) (size 9 to 14) (size 15 to 20)
#    0.000    0.250    6.250    3.000    3.500    1.000 
#    2.250    1.250    0.000    0.000    0.000    0.000 
#    0.000    0.000    0.000    0.000    0.000    0.000 
#
# Total GULP energy -89185.821372 kJ/mol
# GULP energy per Si atom -5574.113836 kJ/mol
# Density = 2.140105 g / cm^3
# Si number density = 21.449866 Si / 1000 Ang^3
#
#
#
# Elastic Constant Matrix: (Units=GPa)
#
#
# Indices 1 2 3 4 5 6 
#
# 1 163.1311 46.3661 55.7040 13.1563 -5.1961 -7.9182
# 2 46.3661 43.8114 3.8066 15.7003 22.6010 -8.3952
# 3 55.7040 3.8066 76.0375 -3.8545 -9.7333 14.7706
# 4 13.1563 15.7003 -3.8545 30.7783 -4.7368 3.8631
# 5 -5.1961 22.6010 -9.7333 -4.7368 29.6939 9.1529
# 6 -7.9182 -8.3952 14.7706 3.8631 9.1529 27.8298
#
#
#
# Elastic Compliance Matrix: (Units=1/GPa)
#
#
# Indices 1 2 3 4 5 6 
#
# 1 0.011617 0.002712 -0.014128 -0.012111 -0.011901 0.017217
# 2 0.002712 -0.064033 0.029785 0.058229 0.090521 -0.072207
# 3 -0.014128 0.029785 0.017710 -0.010955 -0.022464 0.004474
# 4 -0.012111 0.058229 -0.010955 -0.008641 -0.064458 0.042333
# 5 -0.011901 0.090521 -0.022464 -0.064458 -0.076513 0.069955
# 6 0.017217 -0.072207 0.004474 0.042333 0.069955 -0.012209
#
#
# Mechanical properties :
#
#
# Convention : Reuss Voigt Hill
#
# Bulk Modulus (GPa) = 492.42375 54.97037 273.69706
# Shear Modulus (GPa) = -29.73881 29.46728 -0.13577
#
# Velocity S-wave (km/s) = -3.72752 3.71047 -0.25186
# Velocity P-wave (km/s) = 14.54449 6.63625 11.30446
#
# Compressibility (1/GPa) = 0.00203077
#
# Stress axis : x y z
#
# Youngs Moduli (GPa) = 86.08237 -15.61684 56.46466
#
# Poissons Ratio (x) = 0.04235 0.79772
# Poissons Ratio (y) = -0.23345 -1.68178
# Poissons Ratio (z) = 1.21616 0.46514
#
# Static dielectric constant tensor:
#      x y z
#    x 1.997110 0.001620 0.023090 
#    y 0.001620 1.791440 -0.000320 
#    z 0.023090 -0.000320 1.762860 
# 
# From -- ./inp_files/516073.got.cif
#   From: 2010.05.17/outbox.ucp.g08.bks.cvg/sg2_259_cif.got.tgz:516073.got - 2010.06.11 11:32:03.
