data_PCOD9075153
_publ_section_title
;
Structure prediction by ZEFSAII (Michael W. Deem and Ramdas Pophale) SiO2 
 PCOD9075153
Probable space group: P -1
;
_chemical_formula_sum "Si O2"
_cell_formula_units_Z 12
_cell_length_a 6.000000
_cell_length_b 15.000000
_cell_length_c 9.000000
_cell_angle_alpha 120.000000
_cell_angle_beta 60.000000
_cell_angle_gamma 80.000000
_cell_volume 501.299192
_symmetry_space_group_name_H-M "P -1"
_symmetry_group_IT_number 2
_symmetry_cell_setting 'triclinic'
loop_
_space_group_symop_operation_xyz
x,y,z
-x,-y,-z
loop_
_atom_site_type_symbol
_atom_site_label
_atom_site_fract_x
_atom_site_fract_y
_atom_site_fract_z
Si Si1 0.819840 0.151456 0.583271
Si Si2 0.160171 0.573729 0.502272
Si Si3 0.293102 0.203677 0.375001
Si Si4 0.187138 0.665332 0.892491
Si Si5 0.743309 0.648778 0.218776
Si Si6 0.802778 0.096557 0.880015
O O1 0.560889 0.291081 0.731754
O O2 0.722734 0.127046 0.755079
O O3 0.145561 0.140806 0.460454
O O4 0.886009 0.043466 0.354194
O O5 0.142777 0.625929 0.714163
O O6 0.511719 0.463611 0.252434
O O7 0.000000 0.500000 0.500000
O O8 0.974859 0.689577 0.552800
O O9 0.357866 0.286380 0.532197
O O10 0.567484 0.106428 0.091172
O O11 0.198238 0.784402 0.972283
O O12 0.914904 0.704397 0.128967
O O13 0.000000 0.500000 0.000000
#
# Coordination Sequence:
#
# PCOD9075153 Si02
#       6
#     2   2   2   2   2   2
#     4  11  27  50  68 101 142 186 231 287 346 408
#     4  11  23  41  71 103 141 181 229 286 345 410
#     4  12  25  45  72 104 135 185 234 285 347 412
#     4  11  24  43  68 105 138 184 231 282 349 408
#     4  12  27  43  69 106 140 178 234 288 347 414
#     4  11  25  49  72  99 141 185 235 285 343 411
#
# _framework density 23.937799999999999
#
# number of rings (size 3 to 8) (size 9 to 14) (size 15 to 20)
#    0.000    0.667    3.333    3.500    7.000    2.667 
#    3.000    0.000    0.000    0.000    0.000    0.000 
#    0.000    0.000    0.000    0.000    0.000    0.000 
#
# Total GULP energy -67001.684653 kJ/mol
# GULP energy per Si atom -5583.473721 kJ/mol
# Density = 2.388332 g / cm^3
# Si number density = 23.937800 Si / 1000 Ang^3
#
#
#
# Elastic Constant Matrix: (Units=GPa)
#
#
# Indices 1 2 3 4 5 6 
#
# 1 23.0709 -2.6827 48.3038 -5.8599 10.2541 -8.8197
# 2 -2.6827 52.5614 25.1633 6.8083 -5.6663 0.4710
# 3 48.3038 25.1633 154.1152 -2.9383 9.3839 25.6759
# 4 -5.8599 6.8083 -2.9383 50.9114 16.6137 -9.9677
# 5 10.2541 -5.6663 9.3839 16.6137 24.6861 13.8776
# 6 -8.8197 0.4710 25.6759 -9.9677 13.8776 12.5451
#
#
#
# Elastic Compliance Matrix: (Units=1/GPa)
#
#
# Indices 1 2 3 4 5 6 
#
# 1 0.011443 0.006660 -0.000288 -0.017415 0.030866 -0.039598
# 2 0.006660 0.024961 -0.006404 -0.008140 0.013321 -0.004351
# 3 -0.000288 -0.006404 0.006780 0.009206 -0.017073 0.012362
# 4 -0.017415 -0.008140 0.009206 0.018728 -0.004759 -0.010635
# 5 0.030866 0.013321 -0.017073 -0.004759 0.029096 0.020175
# 6 -0.039598 -0.004351 0.012362 -0.010635 0.020175 -0.004032
#
#
# Mechanical properties :
#
#
# Convention : Reuss Voigt Hill
#
# Bulk Modulus (GPa) = 23.19182 41.25736 32.22459
# Shear Modulus (GPa) = 49.30276 28.22604 38.76440
#
# Velocity S-wave (km/s) = 4.54323 3.43759 4.02852
# Velocity P-wave (km/s) = 6.10169 5.74706 5.92703
#
# Compressibility (1/GPa) = 0.04311864
#
# Stress axis : x y z
#
# Youngs Moduli (GPa) = 87.39250 40.06280 147.48759
#
# Poissons Ratio (x) = -0.26683 0.04251
# Poissons Ratio (y) = -0.58205 0.94458
# Poissons Ratio (z) = 0.02519 0.25658
#
# Static dielectric constant tensor:
#      x y z
#    x 1.570740 -0.224120 0.152310 
#    y -0.224120 1.753250 0.087330 
#    z 0.152310 0.087330 1.808350 
# 
# From -- ./inp_files/21884.got.cif
#   From: 2010.05.17/outbox.ucp.g08.bks.cvg/sg2_11_cif.got.tgz:21884.got - 2010.06.11 11:32:03.
