data_PCOD9075069
_publ_section_title
;
Structure prediction by ZEFSAII (Michael W. Deem and Ramdas Pophale) SiO2 
 PCOD9075069
Probable space group: P -1
;
_chemical_formula_sum "Si O2"
_cell_formula_units_Z 16
_cell_length_a 18.000000
_cell_length_b 6.000000
_cell_length_c 9.000000
_cell_angle_alpha 100.000000
_cell_angle_beta 130.000000
_cell_angle_gamma 90.000000
_cell_volume 725.212580
_symmetry_space_group_name_H-M "P -1"
_symmetry_group_IT_number 2
_symmetry_cell_setting 'triclinic'
loop_
_space_group_symop_operation_xyz
x,y,z
-x,-y,-z
loop_
_atom_site_type_symbol
_atom_site_label
_atom_site_fract_x
_atom_site_fract_y
_atom_site_fract_z
Si Si1 0.888992 0.534801 0.386591
Si Si2 0.386547 0.990117 0.213649
Si Si3 0.697722 0.658233 0.637987
Si Si4 0.787869 0.355211 0.953598
Si Si5 0.511845 0.673778 0.224391
Si Si6 0.389576 0.208667 0.927957
Si Si7 0.114470 0.972609 0.160469
Si Si8 0.832222 0.040477 0.440677
O O1 0.884527 0.802278 0.462351
O O2 0.000000 0.500000 0.500000
O O3 0.848820 0.289290 0.398220
O O4 0.838690 0.532164 0.158951
O O5 0.286987 0.814149 0.064695
O O6 0.470040 0.827044 0.314737
O O7 0.356062 0.174249 0.309574
O O8 0.410890 0.109510 0.102523
O O9 0.728165 0.462202 0.759821
O O10 0.611658 0.580788 0.397558
O O11 0.800453 0.803857 0.728242
O O12 0.862628 0.211064 0.953443
O O13 0.548017 0.820297 0.142184
O O14 0.422553 0.481272 0.034514
O O15 0.279970 0.083943 0.736543
O O16 0.137384 0.886581 0.343966
O O17 0.000000 0.000000 0.000000
#
# Coordination Sequence:
#
# PCOD9075069 Si02
#       8
#     2   2   2   2   2   2   2   2
#     4  12  27  47  80 111 148 195 255 313 378 446
#     4  11  22  43  67  99 135 190 237 309 360 444
#     4  11  25  44  68 100 144 186 250 296 376 441
#     4  11  26  46  72 102 148 193 242 313 370 452
#     4  11  24  43  67 102 138 193 246 305 368 445
#     4  11  24  43  68  99 143 186 248 303 373 437
#     4  11  27  47  73 106 147 194 245 307 380 452
#     4  12  26  49  76 112 150 197 249 313 375 452
#
# _framework density 22.062495999999999
#
# number of rings (size 3 to 8) (size 9 to 14) (size 15 to 20)
#    0.000    0.750    2.500    4.125    5.250    4.500 
#    2.250    0.000    0.000    0.000    0.000    0.000 
#    0.000    0.000    0.000    0.000    0.000    0.000 
#
# Total GULP energy -89098.796569 kJ/mol
# GULP energy per Si atom -5568.674786 kJ/mol
# Density = 2.201228 g / cm^3
# Si number density = 22.062496 Si / 1000 Ang^3
#
#
#
# Elastic Constant Matrix: (Units=GPa)
#
#
# Indices 1 2 3 4 5 6 
#
# 1 112.7333 33.8150 19.4920 8.7231 14.8524 1.3439
# 2 33.8150 48.8999 -2.5608 8.6644 5.7065 12.8804
# 3 19.4920 -2.5608 69.4038 -6.4554 6.3092 19.5669
# 4 8.7231 8.6644 -6.4554 16.5069 -5.3550 -8.1215
# 5 14.8524 5.7065 6.3092 -5.3550 26.9168 -4.9522
# 6 1.3439 12.8804 19.5669 -8.1215 -4.9522 34.6320
#
#
#
# Elastic Compliance Matrix: (Units=1/GPa)
#
#
# Indices 1 2 3 4 5 6 
#
# 1 0.013470 -0.010169 -0.005575 -0.002466 -0.003480 0.005333
# 2 -0.010169 0.048059 0.013633 -0.040612 -0.022839 -0.037972
# 3 -0.005575 0.013633 0.022632 -0.009447 -0.010939 -0.021421
# 4 -0.002466 -0.040612 -0.009447 0.122170 0.046770 0.055875
# 5 -0.003480 -0.022839 -0.010939 0.046770 0.062160 0.034667
# 6 0.005333 -0.037972 -0.021421 0.055875 0.034667 0.072954
#
#
# Mechanical properties :
#
#
# Convention : Reuss Voigt Hill
#
# Bulk Modulus (GPa) = 12.50930 36.94770 24.72850
# Shear Modulus (GPa) = 13.42957 27.63054 20.53005
#
# Velocity S-wave (km/s) = 2.46987 3.54273 3.05379
# Velocity P-wave (km/s) = 3.71698 5.78945 4.86486
#
# Compressibility (1/GPa) = 0.07994055
#
# Stress axis : x y z
#
# Youngs Moduli (GPa) = 74.23788 20.80787 44.18500
#
# Poissons Ratio (x) = 0.21159 0.24633
# Poissons Ratio (y) = 0.75489 -0.60238
# Poissons Ratio (z) = 0.41387 -0.28368
#
# Static dielectric constant tensor:
#      x y z
#    x 1.813160 -0.015200 -0.008420 
#    y -0.015200 1.848980 0.002310 
#    z -0.008420 0.002310 1.846100 
# 
# From -- ./inp_files/323936.got.cif
#   From: 2010.05.17/outbox.ucp.g08.bks.cvg/sg2_162_cif.got.tgz:323936.got - 2010.06.11 11:32:03.
