data_PCOD9075541
_publ_section_title
;
Structure prediction by ZEFSAII (Michael W. Deem and Ramdas Pophale) SiO2 
 PCOD9075541
Probable space group: P -1
;
_chemical_formula_sum "Si O2"
_cell_formula_units_Z 14
_cell_length_a 9.200436
_cell_length_b 8.073334
_cell_length_c 11.540504
_cell_angle_alpha 98.773719
_cell_angle_beta 62.949728
_cell_angle_gamma 131.988364
_cell_volume 552.346082
_symmetry_space_group_name_H-M "P -1"
_symmetry_group_IT_number 2
_symmetry_cell_setting 'triclinic'
loop_
_space_group_symop_operation_xyz
x,y,z
-x,-y,-z
loop_
_atom_site_type_symbol
_atom_site_label
_atom_site_fract_x
_atom_site_fract_y
_atom_site_fract_z
Si Si1 0.849433 0.250177 0.084664
Si Si2 0.265457 0.490483 0.475441
Si Si3 0.235071 0.808601 0.616404
Si Si4 0.382044 0.485186 0.179850
Si Si5 0.213789 0.097663 0.058184
Si Si6 0.721751 0.854921 0.492861
Si Si7 0.575449 0.848958 0.798638
O O1 0.810519 0.225480 0.234379
O O2 0.605041 0.135272 0.115708
O O3 0.000000 0.500000 0.000000
O O4 0.925024 0.118705 0.999172
O O5 0.145693 0.571531 0.573178
O O6 0.302738 0.518526 0.328014
O O7 0.510561 0.666356 0.466324
O O8 0.166967 0.243541 0.525074
O O9 0.500000 0.000000 0.500000
O O10 0.143474 0.910810 0.599229
O O11 0.203849 0.279239 0.133175
O O12 0.504882 0.399307 0.170658
O O13 0.551030 0.719950 0.075182
O O14 0.231020 0.001893 0.160462
O O15 0.642579 0.882536 0.644486
#
# Coordination Sequence:
#
# PCOD9075541 Si02
#       7
#     2   2   2   2   2   2   2
#     4  12  23  35  51  81 119 146 170 224 283 327
#     4   9  15  27  49  81 105 121 176 245 263 301
#     4  10  18  32  54  78 103 141 190 221 264 315
#     4   8  17  30  57  82 103 133 191 234 263 303
#     4   9  18  34  53  78 110 141 183 222 271 327
#     4   9  16  27  51  83 102 128 183 234 268 297
#     4   9  17  33  52  83 102 138 184 224 266 317
#
# _framework density 25.346428
#
# number of rings (size 3 to 8) (size 9 to 14) (size 15 to 20)
#    0.857    1.714    2.857    2.143    0.000    0.000 
#    0.000    0.714    0.000    1.714    0.000    0.000 
#    0.000    0.000    0.000    0.000    0.000    0.000 
#
# Total GULP energy -78074.131838 kJ/mol
# GULP energy per Si atom -5576.723703 kJ/mol
# Density = 2.528874 g / cm^3
# Si number density = 25.346428 Si / 1000 Ang^3
#
#
#
# Elastic Constant Matrix: (Units=GPa)
#
#
# Indices 1 2 3 4 5 6 
#
# 1 43.2659 18.4655 25.1152 -10.5272 5.0599 3.1154
# 2 18.4655 128.3288 69.3628 12.3218 9.0221 -30.7667
# 3 25.1152 69.3628 189.5058 2.8146 38.1593 14.9701
# 4 -10.5272 12.3218 2.8146 39.2842 3.5460 12.6437
# 5 5.0599 9.0221 38.1593 3.5460 33.2181 4.2061
# 6 3.1154 -30.7667 14.9701 12.6437 4.2061 36.1892
#
#
#
# Elastic Compliance Matrix: (Units=1/GPa)
#
#
# Indices 1 2 3 4 5 6 
#
# 1 0.034438 -0.013385 0.002582 0.020745 -0.003980 -0.022197
# 2 -0.013385 0.026265 -0.011539 -0.023002 0.006111 0.035581
# 3 0.002582 -0.011539 0.012499 0.009985 -0.010470 -0.017474
# 4 0.020745 -0.023002 0.009985 0.052012 -0.008535 -0.042651
# 5 -0.003980 0.006111 -0.010470 -0.008535 0.040965 0.008090
# 6 -0.022197 0.035581 -0.017474 -0.042651 0.008090 0.080983
#
#
# Mechanical properties :
#
#
# Convention : Reuss Voigt Hill
#
# Bulk Modulus (GPa) = 35.06619 65.22083 50.14351
# Shear Modulus (GPa) = 16.59195 38.28212 27.43704
#
# Velocity S-wave (km/s) = 2.56130 3.89055 3.29368
# Velocity P-wave (km/s) = 4.75519 6.78008 5.85582
#
# Compressibility (1/GPa) = 0.02851750
#
# Stress axis : x y z
#
# Youngs Moduli (GPa) = 29.03772 38.07361 80.00801
#
# Poissons Ratio (x) = 0.50960 -0.20656
# Poissons Ratio (y) = 0.38866 0.92323
# Poissons Ratio (z) = -0.07497 0.43934
#
# Static dielectric constant tensor:
#      x y z
#    x 2.061390 0.022650 -0.001820 
#    y 0.022650 2.061980 -0.005490 
#    z -0.001820 -0.005490 1.990010 
# 
# From -- ./inp_files/447799.got.cif
#   From: 2010.05.17/outbox.cif.g08.bks.cpg/sg2_224_cif.got.tgz:447799.got - 2010.06.03 11:33:40.
