data_PCOD9075197
_publ_section_title
;
Structure prediction by ZEFSAII (Michael W. Deem and Ramdas Pophale) SiO2 
 PCOD9075197
Probable space group: P -1
;
_chemical_formula_sum "Si O2"
_cell_formula_units_Z 16
_cell_length_a 12.000000
_cell_length_b 21.000000
_cell_length_c 9.000000
_cell_angle_alpha 40.000000
_cell_angle_beta 130.000000
_cell_angle_gamma 150.000000
_cell_volume 727.418465
_symmetry_space_group_name_H-M "P -1"
_symmetry_group_IT_number 2
_symmetry_cell_setting 'triclinic'
loop_
_space_group_symop_operation_xyz
x,y,z
-x,-y,-z
loop_
_atom_site_type_symbol
_atom_site_label
_atom_site_fract_x
_atom_site_fract_y
_atom_site_fract_z
Si Si1 0.833502 0.112372 0.637969
Si Si2 0.303763 0.936122 0.055861
Si Si3 0.657725 0.648470 0.265998
Si Si4 0.087333 0.631613 0.737353
Si Si5 0.571921 0.813950 0.757690
Si Si6 0.480782 0.561329 0.739548
Si Si7 0.950643 0.577551 0.394250
Si Si8 0.745904 0.874530 0.465073
O O1 0.873153 0.243023 0.372642
O O2 0.084743 0.209290 0.720912
O O3 0.720277 0.975497 0.676173
O O4 0.694348 0.057258 0.772258
O O5 0.280721 0.038847 0.805744
O O6 0.107507 0.753675 0.182284
O O7 0.500000 0.000000 0.000000
O O8 0.500000 0.500000 0.500000
O O9 0.630583 0.567532 0.243640
O O10 0.579107 0.718053 0.034221
O O11 0.321794 0.722764 0.706586
O O12 0.932134 0.562399 0.584273
O O13 0.000000 0.500000 0.000000
O O14 0.635936 0.826421 0.620280
O O15 0.681906 0.740323 0.561746
O O16 0.292628 0.537305 0.672432
O O17 0.500000 0.500000 0.000000
O O18 0.000000 0.500000 0.500000
O O19 0.000000 0.000000 0.500000
#
# Coordination Sequence:
#
# PCOD9075197 Si02
#       8
#     2   2   2   2   2   2   2   2
#     4  11  25  48  67 101 145 178 226 290 338 413
#     4  11  23  43  68  98 136 176 225 273 346 403
#     4  12  26  45  71 102 136 185 234 279 349 405
#     4  11  24  45  69 101 137 178 229 280 341 411
#     4  12  26  44  69 103 142 180 231 282 344 411
#     4  12  24  47  71  97 140 179 230 294 335 405
#     4  11  24  44  69 100 137 174 228 286 338 403
#     4  12  26  43  67 102 135 178 228 280 344 406
#
# _framework density 21.995591999999998
#
# number of rings (size 3 to 8) (size 9 to 14) (size 15 to 20)
#    0.000    0.500    3.750    6.000    3.500    2.000 
#    0.000    0.000    0.000    0.000    0.000    0.000 
#    0.000    0.000    0.000    0.000    0.000    0.000 
#
# Total GULP energy -89149.752218 kJ/mol
# GULP energy per Si atom -5571.859514 kJ/mol
# Density = 2.194553 g / cm^3
# Si number density = 21.995592 Si / 1000 Ang^3
#
#
#
# Elastic Constant Matrix: (Units=GPa)
#
#
# Indices 1 2 3 4 5 6 
#
# 1 37.7823 21.6086 5.7241 13.5893 5.5678 -13.1321
# 2 21.6086 96.0993 24.3609 -11.0975 1.8853 -17.7445
# 3 5.7241 24.3609 142.5602 -10.2995 8.8727 -8.1056
# 4 13.5893 -11.0975 -10.2995 30.0778 -2.3176 18.0363
# 5 5.5678 1.8853 8.8727 -2.3176 40.1029 -6.1099
# 6 -13.1321 -17.7445 -8.1056 18.0363 -6.1099 34.0346
#
#
#
# Elastic Compliance Matrix: (Units=1/GPa)
#
#
# Indices 1 2 3 4 5 6 
#
# 1 0.114848 -0.021039 -0.003776 -0.117553 -0.006662 0.093545
# 2 -0.021039 0.015788 -0.001036 0.021982 0.001936 -0.011434
# 3 -0.003776 -0.001036 0.007654 0.005995 -0.001321 -0.003588
# 4 -0.117553 0.021982 0.005995 0.169785 0.005262 -0.121500
# 5 -0.006662 0.001936 -0.001321 0.005262 0.026377 0.000071
# 6 0.093545 -0.011434 -0.003588 -0.121500 0.000071 0.123060
#
#
# Mechanical properties :
#
#
# Convention : Reuss Voigt Hill
#
# Bulk Modulus (GPa) = 11.54858 42.20322 26.87590
# Shear Modulus (GPa) = 9.29237 35.82627 22.55932
#
# Velocity S-wave (km/s) = 2.05762 4.04021 3.20602
# Velocity P-wave (km/s) = 3.30256 6.40259 5.09412
#
# Compressibility (1/GPa) = 0.08659072
#
# Stress axis : x y z
#
# Youngs Moduli (GPa) = 8.70716 63.33808 130.64264
#
# Poissons Ratio (x) = 1.33254 0.49327
# Poissons Ratio (y) = 0.18319 0.13530
# Poissons Ratio (z) = 0.03288 0.06560
#
# Static dielectric constant tensor:
#      x y z
#    x 2.151220 -0.071190 -0.021680 
#    y -0.071190 1.928730 0.053870 
#    z -0.021680 0.053870 1.774240 
# 
# From -- ./inp_files/187808.got.cif
#   From: 2010.05.17/outbox.ucp.g08.bks.cvg/sg2_94_cif.got.tgz:187808.got - 2010.06.11 11:32:03.
