data_PCOD9075224
_publ_section_title
;
Structure prediction by ZEFSAII (Michael W. Deem and Ramdas Pophale) SiO2 
 PCOD9075224
Probable space group: P -1
;
_chemical_formula_sum "Si O2"
_cell_formula_units_Z 16
_cell_length_a 18.000000
_cell_length_b 9.000000
_cell_length_c 12.000000
_cell_angle_alpha 100.000000
_cell_angle_beta 50.000000
_cell_angle_gamma 140.000000
_cell_volume 729.599496
_symmetry_space_group_name_H-M "P -1"
_symmetry_group_IT_number 2
_symmetry_cell_setting 'triclinic'
loop_
_space_group_symop_operation_xyz
x,y,z
-x,-y,-z
loop_
_atom_site_type_symbol
_atom_site_label
_atom_site_fract_x
_atom_site_fract_y
_atom_site_fract_z
Si Si1 0.149933 0.331650 0.384051
Si Si2 0.693234 0.853178 0.443422
Si Si3 0.306044 0.459178 0.669921
Si Si4 0.957371 0.408757 0.155069
Si Si5 0.686617 0.299641 0.501608
Si Si6 0.858245 0.178591 0.556829
Si Si7 0.716458 0.373150 0.099210
Si Si8 0.465331 0.776796 0.970763
O O1 0.223536 0.498480 0.450953
O O2 0.011708 0.254266 0.436941
O O3 0.337399 0.536854 0.160709
O O4 0.000000 0.000000 0.500000
O O5 0.469624 0.595337 0.606121
O O6 0.758728 0.768937 0.372697
O O7 0.795259 0.060780 0.265336
O O8 0.779560 0.057701 0.491954
O O9 0.366561 0.663042 0.545071
O O10 0.185609 0.388351 0.869695
O O11 0.853139 0.409606 0.313062
O O12 0.000000 0.500000 0.000000
O O13 0.148433 0.589925 0.048654
O O14 0.488405 0.953738 0.690060
O O15 0.000000 0.500000 0.500000
O O16 0.660707 0.944902 0.785634
O O17 0.659414 0.381717 0.043133
O O18 0.500000 0.000000 0.000000
#
# Coordination Sequence:
#
# PCOD9075224 Si02
#       8
#     2   2   2   2   2   2   2   2
#     4  12  28  46  68 104 146 181 229 294 355 405
#     4  11  24  43  67 102 137 179 225 284 350 407
#     4  11  23  44  69  96 142 179 215 281 358 402
#     4  12  24  40  67  99 128 176 233 270 338 415
#     4  12  24  46  68  99 141 179 224 287 347 408
#     4  12  23  45  76 101 135 185 240 288 338 417
#     4  12  23  43  73  99 133 177 233 286 334 422
#     4  12  24  44  72 104 129 187 239 285 343 409
#
# _framework density 21.929839999999999
#
# number of rings (size 3 to 8) (size 9 to 14) (size 15 to 20)
#    0.000    0.250    6.250    3.375    1.750    1.000 
#    2.250    1.250    0.000    0.000    0.000    0.000 
#    0.000    0.000    0.000    0.000    0.000    0.000 
#
# Total GULP energy -89184.066635 kJ/mol
# GULP energy per Si atom -5574.004165 kJ/mol
# Density = 2.187993 g / cm^3
# Si number density = 21.929840 Si / 1000 Ang^3
#
#
#
# Elastic Constant Matrix: (Units=GPa)
#
#
# Indices 1 2 3 4 5 6 
#
# 1 39.8831 27.3554 8.5865 9.9191 -10.0566 13.5697
# 2 27.3554 69.2423 59.8157 8.8632 16.2284 4.5447
# 3 8.5865 59.8157 138.2465 16.3176 -15.8132 -4.2477
# 4 9.9191 8.8632 16.3176 20.8786 0.8887 0.4364
# 5 -10.0566 16.2284 -15.8132 0.8887 31.9839 -4.5210
# 6 13.5697 4.5447 -4.2477 0.4364 -4.5210 31.6438
#
#
#
# Elastic Compliance Matrix: (Units=1/GPa)
#
#
# Indices 1 2 3 4 5 6 
#
# 1 -0.192531 0.231912 -0.128918 0.104319 -0.245490 -0.004562
# 2 0.231912 -0.234492 0.130972 -0.123809 0.258748 -0.009516
# 3 -0.128918 0.130972 -0.064478 0.061835 -0.139594 0.007021
# 4 0.104319 -0.123809 0.061835 -0.002792 0.126188 -0.000586
# 5 -0.245490 0.258748 -0.139594 0.126188 -0.248009 0.012199
# 6 -0.004562 -0.009516 0.007021 -0.000586 0.012199 0.037618
#
#
# Mechanical properties :
#
#
# Convention : Reuss Voigt Hill
#
# Bulk Modulus (GPa) = -42.43102 48.76521 3.16710
# Shear Modulus (GPa) = -4.23559 27.00886 11.38664
#
# Velocity S-wave (km/s) = -1.39127 3.51323 2.28113
# Velocity P-wave (km/s) = 4.68736 6.22432 2.89576
#
# Compressibility (1/GPa) = -0.02356766
#
# Stress axis : x y z
#
# Youngs Moduli (GPa) = -5.19396 -4.26455 -15.50915
#
# Poissons Ratio (x) = 0.98900 -1.99940
# Poissons Ratio (y) = 1.20454 2.03127
# Poissons Ratio (z) = -0.66959 0.55854
#
# Static dielectric constant tensor:
#      x y z
#    x 1.781630 -0.097500 0.002430 
#    y -0.097500 2.171270 -0.220130 
#    z 0.002430 -0.220130 1.911150 
# 
# From -- ./inp_files/382269.got.cif
#   From: 2010.05.17/outbox.ucp.g08.bks.cvg/sg2_192_cif.got.tgz:382269.got - 2010.06.11 11:32:03.
