data_PCOD9075344
_publ_section_title
;
Structure prediction by ZEFSAII (Michael W. Deem and Ramdas Pophale) SiO2 
 PCOD9075344
Probable space group: P -1
;
_chemical_formula_sum "Si O2"
_cell_formula_units_Z 16
_cell_length_a 15.000000
_cell_length_b 18.000000
_cell_length_c 27.000000
_cell_angle_alpha 160.000000
_cell_angle_beta 20.000000
_cell_angle_gamma 160.000000
_cell_volume 746.015535
_symmetry_space_group_name_H-M "P -1"
_symmetry_group_IT_number 2
_symmetry_cell_setting 'triclinic'
loop_
_space_group_symop_operation_xyz
x,y,z
-x,-y,-z
loop_
_atom_site_type_symbol
_atom_site_label
_atom_site_fract_x
_atom_site_fract_y
_atom_site_fract_z
Si Si1 0.133006 0.003837 0.314142
Si Si2 0.249778 0.961689 0.816190
Si Si3 0.264443 0.516002 0.838977
Si Si4 0.266071 0.133569 0.801457
Si Si5 0.785193 0.301155 0.128178
Si Si6 0.965351 0.382942 0.591811
Si Si7 0.938830 0.694025 0.621995
Si Si8 0.144381 0.829120 0.306292
O O1 0.443942 0.093829 0.180819
O O2 0.050756 0.225996 0.488091
O O3 0.220882 0.911772 0.261022
O O4 0.837328 0.768975 0.300454
O O5 0.167410 0.673585 0.679547
O O6 0.227052 0.022494 0.808093
O O7 0.574015 0.116695 0.771549
O O8 0.000000 0.000000 0.000000
O O9 0.218399 0.632861 0.885958
O O10 0.593453 0.640334 0.769463
O O11 0.000000 0.500000 0.000000
O O12 0.620148 0.318584 0.732194
O O13 0.169356 0.943339 0.686432
O O14 0.039171 0.238809 0.975064
O O15 0.877523 0.546879 0.266975
O O16 0.013786 0.319194 0.470019
O O17 0.000000 0.500000 0.500000
O O18 0.000000 0.000000 0.500000
#
# Coordination Sequence:
#
# PCOD9075344 Si02
#       8
#     2   2   2   2   2   2   2   2
#     4  11  24  44  70 100 135 176 225 280 341 404
#     4  12  27  47  68 102 140 182 232 289 338 407
#     4  11  26  43  68 102 141 177 224 278 338 409
#     4  12  27  44  71 101 142 182 232 277 347 410
#     4  11  25  45  66 102 135 177 226 278 338 407
#     4  12  26  45  72 102 140 181 232 281 345 412
#     4  12  25  46  72 101 143 182 225 285 344 408
#     4  11  25  43  71  97 136 176 228 282 339 398
#
# _framework density 21.447275000000001
#
# number of rings (size 3 to 8) (size 9 to 14) (size 15 to 20)
#    0.000    0.500    2.500    4.875    5.250    9.000 
#    0.000    0.000    0.000    0.000    0.000    0.000 
#    0.000    0.000    0.000    0.000    0.000    0.000 
#
# Total GULP energy -89239.833656 kJ/mol
# GULP energy per Si atom -5577.489604 kJ/mol
# Density = 2.139846 g / cm^3
# Si number density = 21.447275 Si / 1000 Ang^3
#
#
#
# Elastic Constant Matrix: (Units=GPa)
#
#
# Indices 1 2 3 4 5 6 
#
# 1 93.5196 22.1792 0.2993 -6.7121 -16.7237 26.8752
# 2 22.1792 48.3354 -24.0951 -16.0452 -0.7538 3.0031
# 3 0.2993 -24.0951 23.7791 -7.0281 -22.8899 -9.5902
# 4 -6.7121 -16.0452 -7.0281 43.5921 8.5266 -9.3344
# 5 -16.7237 -0.7538 -22.8899 8.5266 53.8593 -9.3280
# 6 26.8752 3.0031 -9.5902 -9.3344 -9.3280 35.8159
#
#
#
# Elastic Compliance Matrix: (Units=1/GPa)
#
#
# Indices 1 2 3 4 5 6 
#
# 1 0.010985 0.007490 0.021054 0.005829 0.011775 0.001353
# 2 0.007490 -0.017355 -0.061431 -0.016722 -0.026917 -0.031982
# 3 0.021054 -0.061431 -0.084259 -0.037526 -0.033131 -0.051618
# 4 0.005829 -0.016722 -0.037526 0.012159 -0.018854 -0.014761
# 5 0.011775 -0.026917 -0.033131 -0.018854 0.007565 -0.018393
# 6 0.001353 -0.031982 -0.051618 -0.014761 -0.018393 0.007128
#
#
# Mechanical properties :
#
#
# Convention : Reuss Voigt Hill
#
# Bulk Modulus (GPa) = -6.39377 18.04454 5.82539
# Shear Modulus (GPa) = -99.72601 37.80351 -30.96125
#
# Velocity S-wave (km/s) = -6.82636 4.20292 -3.80359
# Velocity P-wave (km/s) = 8.06969 5.65548 4.07035
#
# Compressibility (1/GPa) = -0.15640225
#
# Stress axis : x y z
#
# Youngs Moduli (GPa) = 91.03735 -57.62099 -11.86819
#
# Poissons Ratio (x) = 0.43157 0.24988
# Poissons Ratio (y) = -0.68185 -0.72907
# Poissons Ratio (z) = -1.91673 -3.53969
#
# Static dielectric constant tensor:
#      x y z
#    x 1.607740 -0.020000 0.024560 
#    y -0.020000 1.803210 0.079880 
#    z 0.024560 0.079880 1.845130 
# 
# From -- ./inp_files/484202.got.cif
#   From: 2010.05.17/outbox.ucp.g08.bks.cvg/sg2_243_cif.got.tgz:484202.got - 2010.06.11 11:32:03.
