data_PCOD9075255
_publ_section_title
;
Structure prediction by ZEFSAII (Michael W. Deem and Ramdas Pophale) SiO2 
 PCOD9075255
Probable space group: P -1
;
_chemical_formula_sum "Si O2"
_cell_formula_units_Z 16
_cell_length_a 12.000000
_cell_length_b 9.000000
_cell_length_c 9.000000
_cell_angle_alpha 60.000000
_cell_angle_beta 80.000000
_cell_angle_gamma 60.000000
_cell_volume 725.212580
_symmetry_space_group_name_H-M "P -1"
_symmetry_group_IT_number 2
_symmetry_cell_setting 'triclinic'
loop_
_space_group_symop_operation_xyz
x,y,z
-x,-y,-z
loop_
_atom_site_type_symbol
_atom_site_label
_atom_site_fract_x
_atom_site_fract_y
_atom_site_fract_z
Si Si1 0.595631 0.467751 0.626823
Si Si2 0.544498 0.651019 0.852859
Si Si3 0.977973 0.886062 0.697485
Si Si4 0.782695 0.092653 0.902044
Si Si5 0.065734 0.408143 0.313402
Si Si6 0.211793 0.411871 0.562942
Si Si7 0.831517 0.355169 0.993003
Si Si8 0.606505 0.956856 0.124199
O O1 0.500000 0.500000 0.500000
O O2 0.540491 0.633559 0.684143
O O3 0.641020 0.258498 0.795820
O O4 0.735826 0.440514 0.565837
O O5 0.458484 0.863673 0.834094
O O6 0.500000 0.500000 0.000000
O O7 0.693583 0.551840 0.920060
O O8 0.905876 0.771518 0.709253
O O9 0.115167 0.731429 0.815190
O O10 0.892282 0.014191 0.791206
O O11 0.000000 0.000000 0.500000
O O12 0.819571 0.192780 0.977626
O O13 0.743033 0.934835 0.045839
O O14 0.167313 0.345564 0.456977
O O15 0.920871 0.483705 0.368154
O O16 0.071686 0.583313 0.138482
O O17 0.338320 0.245575 0.698233
O O18 0.500000 0.000000 0.000000
#
# Coordination Sequence:
#
# PCOD9075255 Si02
#       8
#     2   2   2   2   2   2   2   2
#     4  11  23  45  72 101 141 185 229 288 351 420
#     4  11  24  45  69 100 136 189 234 278 356 412
#     4  12  28  41  73 109 131 176 238 294 340 416
#     4  11  24  47  66 101 139 182 227 283 356 413
#     4  11  25  46  72 101 143 188 225 287 363 415
#     4  11  25  44  70 105 144 179 234 292 351 412
#     4  11  24  48  71  93 146 184 227 280 360 426
#     4  12  27  43  72 104 142 187 240 293 345 418
#
# _framework density 22.062495999999999
#
# number of rings (size 3 to 8) (size 9 to 14) (size 15 to 20)
#    0.000    0.750    5.000    3.000    7.000    2.500 
#    0.000    0.000    0.000    0.000    0.000    0.000 
#    0.000    0.000    0.000    0.000    0.000    0.000 
#
# Total GULP energy -89401.425412 kJ/mol
# GULP energy per Si atom -5587.589088 kJ/mol
# Density = 2.201228 g / cm^3
# Si number density = 22.062496 Si / 1000 Ang^3
#
#
#
# Elastic Constant Matrix: (Units=GPa)
#
#
# Indices 1 2 3 4 5 6 
#
# 1 108.0698 12.3254 28.9412 14.1727 4.6853 6.1383
# 2 12.3254 47.5939 8.4693 -0.5610 8.2781 -4.8803
# 3 28.9412 8.4693 81.2164 15.2371 16.4725 5.9516
# 4 14.1727 -0.5610 15.2371 13.5981 -2.8202 -7.5698
# 5 4.6853 8.2781 16.4725 -2.8202 53.6938 4.2173
# 6 6.1383 -4.8803 5.9516 -7.5698 4.2173 33.1790
#
#
#
# Elastic Compliance Matrix: (Units=1/GPa)
#
#
# Indices 1 2 3 4 5 6 
#
# 1 0.012324 -0.003867 -0.000279 -0.016441 -0.000750 -0.006454
# 2 -0.003867 0.024078 -0.003840 0.013503 -0.002139 0.008299
# 3 -0.000279 -0.003840 0.020441 -0.029756 -0.006420 -0.010153
# 4 -0.016441 0.013503 -0.029756 0.151348 0.013035 0.043239
# 5 -0.000750 -0.002139 -0.006420 0.013035 0.021579 0.001207
# 6 -0.006454 0.008299 -0.010153 0.043239 0.001207 0.044087
#
#
# Mechanical properties :
#
#
# Convention : Reuss Voigt Hill
#
# Bulk Modulus (GPa) = 24.46726 37.37243 30.91984
# Shear Modulus (GPa) = 16.47692 32.57048 24.52370
#
# Velocity S-wave (km/s) = 2.73578 3.84641 3.33762
# Velocity P-wave (km/s) = 4.59275 6.05827 5.37569
#
# Compressibility (1/GPa) = 0.04087095
#
# Stress axis : x y z
#
# Youngs Moduli (GPa) = 81.14095 41.53139 48.92025
#
# Poissons Ratio (x) = 0.16061 0.01364
# Poissons Ratio (y) = 0.31378 0.18788
# Poissons Ratio (z) = 0.02262 0.15950
#
# Static dielectric constant tensor:
#      x y z
#    x 1.783380 -0.023360 -0.022690 
#    y -0.023360 1.802230 0.019290 
#    z -0.022690 0.019290 1.820090 
# 
# From -- ./inp_files/190348.got.cif
#   From: 2010.05.17/outbox.ucp.g08.bks.cvg/sg2_96_cif.got.tgz:190348.got - 2010.06.11 11:32:03.
