data_PCOD9075305
_publ_section_title
;
Structure prediction by ZEFSAII (Michael W. Deem and Ramdas Pophale) SiO2 
 PCOD9075305
Probable space group: P -1
;
_chemical_formula_sum "Si O2"
_cell_formula_units_Z 12
_cell_length_a 21.000000
_cell_length_b 18.000000
_cell_length_c 12.000000
_cell_angle_alpha 150.000000
_cell_angle_beta 160.000000
_cell_angle_gamma 20.000000
_cell_volume 524.980204
_symmetry_space_group_name_H-M "P -1"
_symmetry_group_IT_number 2
_symmetry_cell_setting 'triclinic'
loop_
_space_group_symop_operation_xyz
x,y,z
-x,-y,-z
loop_
_atom_site_type_symbol
_atom_site_label
_atom_site_fract_x
_atom_site_fract_y
_atom_site_fract_z
Si Si1 0.050666 0.024205 0.738222
Si Si2 0.745093 0.477006 0.391614
Si Si3 0.331392 0.386686 0.796041
Si Si4 0.916203 0.776951 0.766468
Si Si5 0.703113 0.023671 0.297357
Si Si6 0.458530 0.887846 0.603159
O O1 0.080552 0.167124 0.029032
O O2 0.000000 0.000000 0.500000
O O3 0.792460 0.115688 0.499927
O O4 0.354085 0.779099 0.935770
O O5 0.818066 0.503064 0.424648
O O6 0.667725 0.651278 0.579422
O O7 0.016032 0.232831 0.557265
O O8 0.500000 0.500000 0.000000
O O9 0.268398 0.262101 0.579775
O O10 0.210297 0.566517 0.923554
O O11 0.776496 0.965713 0.688968
O O12 0.600666 0.128400 0.388205
O O13 0.533064 0.014787 0.924520
#
# Coordination Sequence:
#
# PCOD9075305 Si02
#       6
#     2   2   2   2   2   2
#     4  12  26  43  68  94 130 168 218 263 316 384
#     4  12  23  41  68  96 129 167 217 261 318 382
#     4  11  24  42  67  96 128 169 215 261 321 379
#     4  11  24  44  68  93 129 172 212 264 320 377
#     4  11  25  42  64 101 129 166 214 265 318 375
#     4  11  24  43  68  93 133 168 212 264 319 379
#
# _framework density 22.858004999999999
#
# number of rings (size 3 to 8) (size 9 to 14) (size 15 to 20)
#    0.000    0.667    5.000    2.000    4.667    2.000 
#    0.000    0.000    0.000    0.000    0.000    0.000 
#    0.000    0.000    0.000    0.000    0.000    0.000 
#
# Total GULP energy -66868.696861 kJ/mol
# GULP energy per Si atom -5572.391405 kJ/mol
# Density = 2.280598 g / cm^3
# Si number density = 22.858005 Si / 1000 Ang^3
#
#
#
# Elastic Constant Matrix: (Units=GPa)
#
#
# Indices 1 2 3 4 5 6 
#
# 1 60.3234 53.7405 23.7819 45.0793 13.5947 -24.2095
# 2 53.7405 41.2415 4.3165 -3.5132 -46.3178 -33.2520
# 3 23.7819 4.3165 53.7396 2.8956 -22.1826 -4.7195
# 4 45.0793 -3.5132 2.8956 -48.6817 -61.0795 11.0985
# 5 13.5947 -46.3178 -22.1826 -61.0795 0.5621 20.0025
# 6 -24.2095 -33.2520 -4.7195 11.0985 20.0025 32.6732
#
#
#
# Elastic Compliance Matrix: (Units=1/GPa)
#
#
# Indices 1 2 3 4 5 6 
#
# 1 0.009129 0.016468 0.001947 -0.005319 0.013297 0.017472
# 2 0.016468 -0.057049 -0.018970 0.038321 -0.024479 -0.046628
# 3 0.001947 -0.018970 0.016733 0.003731 -0.002420 -0.015232
# 4 -0.005319 0.038321 0.003731 -0.017865 -0.000464 0.041950
# 5 0.013297 -0.024479 -0.002420 -0.000464 0.007834 -0.020048
# 6 0.017472 -0.046628 -0.015232 0.041950 -0.020048 -0.008079
#
#
# Mechanical properties :
#
#
# Convention : Reuss Voigt Hill
#
# Bulk Modulus (GPa) = -30.96362 35.44247 2.23942
# Shear Modulus (GPa) = -84.81228 1.80844 -41.50192
#
# Velocity S-wave (km/s) = -6.09791 0.89044 -4.26566
# Velocity P-wave (km/s) = 7.94700 4.07386 4.82486
#
# Compressibility (1/GPa) = -0.03229597
#
# Stress axis : x y z
#
# Youngs Moduli (GPa) = 109.54134 -17.52880 59.76380
#
# Poissons Ratio (x) = 0.28867 -0.11637
# Poissons Ratio (y) = -1.80396 1.13370
# Poissons Ratio (z) = -0.21329 -0.33252
#
# Static dielectric constant tensor:
#      x y z
#    x 2.171170 0.182570 -0.280630 
#    y 0.182570 1.929580 -0.125590 
#    z -0.280630 -0.125590 2.285820 
# 
# From -- ./inp_files/156513.got.cif
#   From: 2010.05.17/outbox.ucp.g08.bks.cvg/sg2_79_cif.got.tgz:156513.got - 2010.06.11 11:32:03.
