data_PCOD9075449
_publ_section_title
;
Structure prediction by ZEFSAII (Michael W. Deem and Ramdas Pophale) SiO2 
 PCOD9075449
Probable space group: P -1
;
_chemical_formula_sum "Si O2"
_cell_formula_units_Z 16
_cell_length_a 15.000000
_cell_length_b 12.000000
_cell_length_c 12.000000
_cell_angle_alpha 120.000000
_cell_angle_beta 100.000000
_cell_angle_gamma 30.000000
_cell_volume 748.962810
_symmetry_space_group_name_H-M "P -1"
_symmetry_group_IT_number 2
_symmetry_cell_setting 'triclinic'
loop_
_space_group_symop_operation_xyz
x,y,z
-x,-y,-z
loop_
_atom_site_type_symbol
_atom_site_label
_atom_site_fract_x
_atom_site_fract_y
_atom_site_fract_z
Si Si1 0.142604 0.242551 0.718379
Si Si2 0.807406 0.251449 0.489319
Si Si3 0.028690 0.683410 0.501406
Si Si4 0.804316 0.359874 0.155164
Si Si5 0.595948 0.783099 0.507403
Si Si6 0.615095 0.219114 0.843822
Si Si7 0.300315 0.834026 0.725914
Si Si8 0.874749 0.833527 0.927697
O O1 0.059865 0.273082 0.605628
O O2 0.956623 0.591860 0.871788
O O3 0.380442 0.002622 0.630110
O O4 0.181291 0.095054 0.753714
O O5 0.831000 0.369721 0.522380
O O6 0.566873 0.509838 0.607234
O O7 0.820271 0.140254 0.329357
O O8 0.000000 0.000000 0.500000
O O9 0.221953 0.367988 0.460847
O O10 0.810072 0.992479 0.683024
O O11 0.724027 0.498437 0.331566
O O12 0.584588 0.604514 0.162978
O O13 0.910325 0.357031 0.139857
O O14 0.000000 0.000000 0.000000
O O15 0.500000 0.000000 0.500000
O O16 0.738519 0.996924 0.865797
O O17 0.500000 0.500000 0.000000
O O18 0.264461 0.906839 0.883261
#
# Coordination Sequence:
#
# PCOD9075449 Si02
#       8
#     2   2   2   2   2   2   2   2
#     4  12  25  47  70  99 137 188 237 283 342 416
#     4  11  25  45  73 104 129 181 235 289 349 403
#     4  12  25  43  74 103 137 176 235 292 341 413
#     4  12  25  43  66 102 141 182 224 285 350 408
#     4  12  24  44  70 101 139 180 232 285 347 420
#     4  12  26  42  69 107 139 176 225 288 355 413
#     4  11  27  46  71  99 138 182 234 284 345 419
#     4  12  28  44  68 101 146 185 227 284 348 418
#
# _framework density 21.362876
#
# number of rings (size 3 to 8) (size 9 to 14) (size 15 to 20)
#    0.000    0.250    7.500    0.375    7.000    1.000 
#    0.000    0.625    0.000    0.000    0.000    0.000 
#    0.000    0.000    0.000    0.000    0.000    0.000 
#
# Total GULP energy -89351.978103 kJ/mol
# GULP energy per Si atom -5584.498631 kJ/mol
# Density = 2.131425 g / cm^3
# Si number density = 21.362876 Si / 1000 Ang^3
#
#
#
# Elastic Constant Matrix: (Units=GPa)
#
#
# Indices 1 2 3 4 5 6 
#
# 1 51.7562 50.3271 -1.6397 8.3379 1.2986 -20.8715
# 2 50.3271 114.6871 11.0492 -4.2730 1.8616 -45.6492
# 3 -1.6397 11.0492 65.3800 -5.8966 8.1481 -16.0086
# 4 8.3379 -4.2730 -5.8966 32.1329 -3.1525 4.5450
# 5 1.2986 1.8616 8.1481 -3.1525 26.3530 3.2344
# 6 -20.8715 -45.6492 -16.0086 4.5450 3.2344 51.7358
#
#
#
# Elastic Compliance Matrix: (Units=1/GPa)
#
#
# Indices 1 2 3 4 5 6 
#
# 1 0.039080 -0.016381 0.004080 -0.012518 -0.004009 0.003925
# 2 -0.016381 0.020534 -0.000584 0.005210 -0.001183 0.010945
# 3 0.004080 -0.000584 0.018100 0.000538 -0.006562 0.007095
# 4 -0.012518 0.005210 0.000538 0.036172 0.004872 -0.003769
# 5 -0.004009 -0.001183 -0.006562 0.004872 0.041788 -0.007732
# 6 0.003925 0.010945 0.007095 -0.003769 -0.007732 0.033579
#
#
# Mechanical properties :
#
#
# Convention : Reuss Voigt Hill
#
# Bulk Modulus (GPa) = 19.25179 39.03295 29.14237
# Shear Modulus (GPa) = 21.52046 33.51678 27.51862
#
# Velocity S-wave (km/s) = 3.17736 3.96526 3.59298
# Velocity P-wave (km/s) = 4.74260 6.26702 5.55732
#
# Compressibility (1/GPa) = 0.05194321
#
# Stress axis : x y z
#
# Youngs Moduli (GPa) = 25.58883 48.69996 55.24965
#
# Poissons Ratio (x) = 0.79777 -0.22542
# Poissons Ratio (y) = 0.41918 0.03225
# Poissons Ratio (z) = -0.10440 0.02843
#
# Static dielectric constant tensor:
#      x y z
#    x 1.310720 -0.041540 0.156370 
#    y -0.041540 1.837610 0.022700 
#    z 0.156370 0.022700 1.797690 
# 
# From -- ./inp_files/452576.got.cif
#   From: 2010.05.17/outbox.ucp.g08.bks.cvg/sg2_227_cif.got.tgz:452576.got - 2010.06.11 11:32:03.
