data_PCOD9075229
_publ_section_title
;
Structure prediction by ZEFSAII (Michael W. Deem and Ramdas Pophale) SiO2 
 PCOD9075229
Probable space group: P -1
;
_chemical_formula_sum "Si O2"
_cell_formula_units_Z 16
_cell_length_a 15.000000
_cell_length_b 9.000000
_cell_length_c 24.000000
_cell_angle_alpha 130.000000
_cell_angle_beta 150.000000
_cell_angle_gamma 30.000000
_cell_volume 731.734496
_symmetry_space_group_name_H-M "P -1"
_symmetry_group_IT_number 2
_symmetry_cell_setting 'triclinic'
loop_
_space_group_symop_operation_xyz
x,y,z
-x,-y,-z
loop_
_atom_site_type_symbol
_atom_site_label
_atom_site_fract_x
_atom_site_fract_y
_atom_site_fract_z
Si Si1 0.815245 0.198780 0.770711
Si Si2 0.351290 0.015139 0.873195
Si Si3 0.563305 0.462942 0.238907
Si Si4 0.472586 0.166760 0.780705
Si Si5 0.257241 0.111882 0.030919
Si Si6 0.824145 0.814226 0.618810
Si Si7 0.697980 0.599268 0.714967
Si Si8 0.248692 0.889038 0.462418
O O1 0.634965 0.364351 0.771088
O O2 0.639630 0.461636 0.688489
O O3 0.886009 0.915593 0.725482
O O4 0.104519 0.085410 0.902796
O O5 0.996680 0.316019 0.770301
O O6 0.492575 0.677467 0.862595
O O7 0.460214 0.029357 0.879677
O O8 0.500000 0.000000 0.000000
O O9 0.524729 0.686463 0.233667
O O10 0.920160 0.125705 0.364825
O O11 0.124191 0.425987 0.672761
O O12 0.627122 0.108618 0.906338
O O13 0.688359 0.795044 0.795414
O O14 0.000000 0.500000 0.000000
O O15 0.500000 0.000000 0.500000
O O16 0.792377 0.975501 0.586076
O O17 0.409224 0.895999 0.592037
O O18 0.500000 0.500000 0.500000
#
# Coordination Sequence:
#
# PCOD9075229 Si02
#       8
#     2   2   2   2   2   2   2   2
#     4  12  25  47  71  99 141 184 235 280 345 417
#     4  12  23  43  74  98 138 181 232 279 340 418
#     4  11  26  44  67 105 139 179 229 291 346 405
#     4  11  27  46  68 102 146 175 230 291 346 407
#     4  12  24  47  71 104 138 183 234 282 336 425
#     4  11  28  47  67 103 141 181 236 292 348 406
#     4  12  24  44  73 103 134 189 227 283 348 413
#     4  11  23  44  70  97 138 178 236 280 341 418
#
# _framework density 21.865853999999999
#
# number of rings (size 3 to 8) (size 9 to 14) (size 15 to 20)
#    0.000    0.500    6.250    0.750    5.250    3.500 
#    0.000    0.000    0.000    0.000    0.000    0.000 
#    0.000    0.000    0.000    0.000    0.000    0.000 
#
# Total GULP energy -89290.567696 kJ/mol
# GULP energy per Si atom -5580.660481 kJ/mol
# Density = 2.181609 g / cm^3
# Si number density = 21.865854 Si / 1000 Ang^3
#
#
#
# Elastic Constant Matrix: (Units=GPa)
#
#
# Indices 1 2 3 4 5 6 
#
# 1 115.7530 42.4018 14.4320 -13.2512 20.3325 -22.0324
# 2 42.4018 77.8153 -1.8605 2.2046 8.5214 -13.9159
# 3 14.4320 -1.8605 46.8715 4.5245 -1.7395 -3.7374
# 4 -13.2512 2.2046 4.5245 34.5206 0.6048 -0.3873
# 5 20.3325 8.5214 -1.7395 0.6048 38.4562 -1.2296
# 6 -22.0324 -13.9159 -3.7374 -0.3873 -1.2296 25.5880
#
#
#
# Elastic Compliance Matrix: (Units=1/GPa)
#
#
# Indices 1 2 3 4 5 6 
#
# 1 0.015282 -0.006356 -0.005204 0.007170 -0.006741 0.008726
# 2 -0.006356 0.017299 0.003367 -0.003935 -0.000119 0.004362
# 3 -0.005204 0.003367 0.023780 -0.005375 0.003194 0.000895
# 4 0.007170 -0.003935 -0.005375 0.032779 -0.003564 0.003574
# 5 -0.006741 -0.000119 0.003194 -0.003564 0.029666 -0.004031
# 6 0.008726 0.004362 0.000895 0.003574 -0.004031 0.048958
#
#
# Mechanical properties :
#
#
# Convention : Reuss Voigt Hill
#
# Bulk Modulus (GPa) = 25.01583 38.93182 31.97383
# Shear Modulus (GPa) = 25.31958 32.07738 28.69848
#
# Velocity S-wave (km/s) = 3.40656 3.83431 3.62675
# Velocity P-wave (km/s) = 5.19021 6.11932 5.67382
#
# Compressibility (1/GPa) = 0.03997468
#
# Stress axis : x y z
#
# Youngs Moduli (GPa) = 65.43599 57.80515 42.05244
#
# Poissons Ratio (x) = 0.36742 0.21885
# Poissons Ratio (y) = 0.41592 -0.14159
# Poissons Ratio (z) = 0.34054 -0.19463
#
# Static dielectric constant tensor:
#      x y z
#    x 1.809030 -0.026390 -0.072590 
#    y -0.026390 1.843520 0.097890 
#    z -0.072590 0.097890 1.985150 
# 
# From -- ./inp_files/187107.got.cif
#   From: 2010.05.17/outbox.ucp.g08.bks.cvg/sg2_94_cif.got.tgz:187107.got - 2010.06.11 11:32:03.
