data_PCOD9075539
_publ_section_title
;
Structure prediction by ZEFSAII (Michael W. Deem and Ramdas Pophale) SiO2 
 PCOD9075539
Probable space group: P -1
;
_chemical_formula_sum "Si O2"
_cell_formula_units_Z 12
_cell_length_a 19.172802
_cell_length_b 5.401802
_cell_length_c 6.828013
_cell_angle_alpha 90.003429
_cell_angle_beta 136.199682
_cell_angle_gamma 89.997940
_cell_volume 489.459814
_symmetry_space_group_name_H-M "P -1"
_symmetry_group_IT_number 2
_symmetry_cell_setting 'triclinic'
loop_
_space_group_symop_operation_xyz
x,y,z
-x,-y,-z
loop_
_atom_site_type_symbol
_atom_site_label
_atom_site_fract_x
_atom_site_fract_y
_atom_site_fract_z
Si Si1 0.409758 0.249961 0.126400
Si Si2 0.113060 0.750019 0.327755
Si Si3 0.905255 0.750003 0.138369
Si Si4 0.224624 0.250017 0.504976
Si Si5 0.853460 0.250002 0.057831
Si Si6 0.625980 0.250021 0.694261
O O1 0.530651 0.249982 0.354748
O O2 0.382680 0.499711 0.193209
O O3 0.382685 0.000191 0.193173
O O4 0.342323 0.249988 0.794736
O O5 0.176406 0.501154 0.492863
O O6 0.099233 0.750007 0.063443
O O7 0.176392 0.998910 0.492842
O O8 0.005104 0.749996 0.210063
O O9 0.810383 0.749996 0.792797
O O10 0.892094 0.500384 0.231294
O O11 0.892098 0.999641 0.231302
O O12 0.733573 0.249994 0.808653
#
# Coordination Sequence:
#
# PCOD9075539 Si02
#       6
#     2   2   2   2   2   2
#     4  10  21  37  55  74 101 138 174 210 253 300
#     4  10  19  33  55  78 105 136 164 206 259 306
#     4  10  19  33  55  78 105 136 164 206 259 306
#     4  10  18  32  54  78 100 134 174 206 250 306
#     4  10  18  32  54  78 100 134 174 206 250 306
#     4  10  21  37  55  74 101 138 174 210 253 300
#
# _framework density 24.516825999999998
#
# number of rings (size 3 to 8) (size 9 to 14) (size 15 to 20)
#    0.000    2.000    0.000    7.000    0.000    0.000 
#    0.000    6.667    0.000   34.000    0.000    0.000 
#    0.000    0.000    0.000    0.000    0.000    0.000 
#
# Total GULP energy -67156.085960 kJ/mol
# GULP energy per Si atom -5596.340497 kJ/mol
# Density = 2.446102 g / cm^3
# Si number density = 24.516826 Si / 1000 Ang^3
#
#
#
# Elastic Constant Matrix: (Units=GPa)
#
#
# Indices 1 2 3 4 5 6 
#
# 1 65.7139 14.5819 17.4855 -0.0032 3.0425 0.0052
# 2 14.5819 242.8715 21.3811 -0.0441 25.7542 0.0056
# 3 17.4855 21.3811 179.6084 -0.0360 6.6929 0.0064
# 4 -0.0032 -0.0441 -0.0360 6.8990 0.0088 27.4123
# 5 3.0425 25.7542 6.6929 0.0088 40.1257 -0.0075
# 6 0.0052 0.0056 0.0064 27.4123 -0.0075 -0.1062
#
#
#
# Elastic Compliance Matrix: (Units=1/GPa)
#
#
# Indices 1 2 3 4 5 6 
#
# 1 0.015790 -0.000773 -0.001428 -0.000003 -0.000463 0.000000
# 2 -0.000773 0.004488 -0.000356 -0.000001 -0.002763 0.000008
# 3 -0.001428 -0.000356 0.005772 -0.000001 -0.000626 0.000007
# 4 -0.000003 -0.000001 -0.000001 0.000141 0.000008 0.036444
# 5 -0.000463 -0.002763 -0.000626 0.000008 0.026834 -0.000016
# 6 0.000000 0.000008 0.000007 0.036444 -0.000016 -0.009172
#
#
# Mechanical properties :
#
#
# Convention : Reuss Voigt Hill
#
# Bulk Modulus (GPa) = 47.76365 66.12119 56.94242
# Shear Modulus (GPa) = 89.36890 38.36670 63.86780
#
# Velocity S-wave (km/s) = 6.04410 3.96019 5.10952
# Velocity P-wave (km/s) = 8.26030 6.92380 7.62140
#
# Compressibility (1/GPa) = 0.02093642
#
# Stress axis : x y z
#
# Youngs Moduli (GPa) = 63.32944 222.81015 173.23819
#
# Poissons Ratio (x) = 0.17229 0.24738
# Poissons Ratio (y) = 0.04897 0.06168
# Poissons Ratio (z) = 0.09043 0.07933
#
# Static dielectric constant tensor:
#      x y z
#    x 1.879080 -0.000010 -0.025240 
#    y -0.000010 2.106400 0.000000 
#    z -0.025240 0.000000 1.930260 
# 
# From -- ./inp_files/18479.got.cif
#   From: 2010.05.17/outbox.cif.g08.bks.cpg/sg2_10_cif.got.tgz:18479.got - 2010.06.03 11:33:40.
