data_PCOD9075123
_publ_section_title
;
Structure prediction by ZEFSAII (Michael W. Deem and Ramdas Pophale) SiO2 
 PCOD9075123
Probable space group: P -1
;
_chemical_formula_sum "Si O2"
_cell_formula_units_Z 16
_cell_length_a 18.000000
_cell_length_b 15.000000
_cell_length_c 15.000000
_cell_angle_alpha 50.000000
_cell_angle_beta 40.000000
_cell_angle_gamma 20.000000
_cell_volume 833.890543
_symmetry_space_group_name_H-M "P -1"
_symmetry_group_IT_number 2
_symmetry_cell_setting 'triclinic'
loop_
_space_group_symop_operation_xyz
x,y,z
-x,-y,-z
loop_
_atom_site_type_symbol
_atom_site_label
_atom_site_fract_x
_atom_site_fract_y
_atom_site_fract_z
Si Si1 0.094180 0.171918 0.815016
Si Si2 0.526729 0.622945 0.656294
Si Si3 0.502816 0.386714 0.899901
Si Si4 0.872901 0.595721 0.653012
Si Si5 0.287443 0.004765 0.942587
Si Si6 0.158259 0.104323 0.192177
Si Si7 0.476137 0.397497 0.537174
Si Si8 0.148216 0.152100 0.372136
O O1 0.063822 0.327178 0.700302
O O2 0.327254 0.888508 0.727629
O O3 0.130027 0.159305 0.895857
O O4 0.810230 0.358468 0.951529
O O5 0.541988 0.484718 0.780319
O O6 0.438956 0.680797 0.595982
O O7 0.832047 0.398338 0.514401
O O8 0.616768 0.205519 0.827971
O O9 0.678266 0.165281 0.959883
O O10 0.578649 0.800101 0.788118
O O11 0.830336 0.752749 0.647519
O O12 0.000000 0.500000 0.500000
O O13 0.184021 0.144370 0.045631
O O14 0.205110 0.122416 0.233077
O O15 0.848628 0.337502 0.330869
O O16 0.500000 0.500000 0.500000
O O17 0.653875 0.133481 0.591812
#
# Coordination Sequence:
#
# PCOD9075123 Si02
#       8
#     2   2   2   2   2   2   2   2
#     4  11  23  41  66  88 125 167 201 256 312 358
#     4  11  23  38  61 100 122 161 213 245 306 379
#     4   9  21  40  61  92 132 155 203 254 305 371
#     4  11  24  44  64  89 124 162 209 259 307 362
#     4   9  23  40  62  91 121 165 203 250 305 364
#     4   9  22  41  60  94 124 159 211 243 310 370
#     4  11  23  38  66  92 125 169 200 253 311 363
#     4  11  24  40  64  91 128 162 204 263 301 359
#
# _framework density 19.187169999999998
#
# number of rings (size 3 to 8) (size 9 to 14) (size 15 to 20)
#    0.750    1.000    0.000    3.375    3.500    8.000 
#    0.000    1.250    0.000    0.000    0.000    0.000 
#    0.000    0.000    0.000    0.000    0.000    0.000 
#
# Total GULP energy -89165.499643 kJ/mol
# GULP energy per Si atom -5572.843728 kJ/mol
# Density = 1.914350 g / cm^3
# Si number density = 19.187170 Si / 1000 Ang^3
#
#
#
# Elastic Constant Matrix: (Units=GPa)
#
#
# Indices 1 2 3 4 5 6 
#
# 1 67.1231 24.3512 17.1369 -17.1011 21.2100 11.5445
# 2 24.3512 69.0177 26.9452 -5.7802 15.2215 14.3905
# 3 17.1369 26.9452 102.3895 -8.5389 29.0935 2.1378
# 4 -17.1011 -5.7802 -8.5389 43.0127 -2.2973 9.2887
# 5 21.2100 15.2215 29.0935 -2.2973 30.5438 -2.2306
# 6 11.5445 14.3905 2.1378 9.2887 -2.2306 35.7425
#
#
#
# Elastic Compliance Matrix: (Units=1/GPa)
#
#
# Indices 1 2 3 4 5 6 
#
# 1 0.026743 -0.002620 0.003300 0.012504 -0.020366 -0.012301
# 2 -0.002620 0.019587 -0.002715 0.002444 -0.005746 -0.007871
# 3 0.003300 -0.002715 0.014440 0.003614 -0.014617 -0.002688
# 4 0.012504 0.002444 0.003614 0.031697 -0.011998 -0.014225
# 5 -0.020366 -0.005746 -0.014617 -0.011998 0.063999 0.016878
# 6 -0.012301 -0.007871 -0.002688 -0.014225 0.016878 0.040031
#
#
# Mechanical properties :
#
#
# Convention : Reuss Voigt Hill
#
# Bulk Modulus (GPa) = 17.63715 41.71078 29.67396
# Shear Modulus (GPa) = 22.78255 33.19958 27.99107
#
# Velocity S-wave (km/s) = 3.44958 4.16420 3.82362
# Velocity P-wave (km/s) = 5.00782 6.70126 5.91545
#
# Compressibility (1/GPa) = 0.05669852
#
# Stress axis : x y z
#
# Youngs Moduli (GPa) = 37.39341 51.05516 69.25371
#
# Poissons Ratio (x) = 0.13379 -0.22855
# Poissons Ratio (y) = 0.09799 0.18802
# Poissons Ratio (z) = -0.12340 0.13861
#
# Static dielectric constant tensor:
#      x y z
#    x 1.670660 -0.030230 0.013300 
#    y -0.030230 1.679630 -0.003700 
#    z 0.013300 -0.003700 1.652490 
# 
# From -- ./inp_files/538889.got.cif
#   From: 2010.05.17/outbox.ucp.g08.bks.cvg/sg2_270_cif.got.tgz:538889.got - 2010.06.11 11:32:03.
