data_PCOD9075830
_publ_section_title
;
Structure prediction by ZEFSAII (Michael W. Deem and Ramdas Pophale) SiO2 
 PCOD9075830
Probable space group: P -1
;
_chemical_formula_sum "Si O2"
_cell_formula_units_Z 10
_cell_length_a 10.461716
_cell_length_b 15.124474
_cell_length_c 20.497139
_cell_angle_alpha 15.163414
_cell_angle_beta 153.590822
_cell_angle_gamma 151.316075
_cell_volume 375.023958
_symmetry_space_group_name_H-M "P -1"
_symmetry_group_IT_number 2
_symmetry_cell_setting 'triclinic'
loop_
_space_group_symop_operation_xyz
x,y,z
-x,-y,-z
loop_
_atom_site_type_symbol
_atom_site_label
_atom_site_fract_x
_atom_site_fract_y
_atom_site_fract_z
Si Si1 0.214333 0.749828 0.243996
Si Si2 0.307178 0.660133 0.673524
Si Si3 0.264157 0.270370 0.798765
Si Si4 0.656098 0.165620 0.238321
Si Si5 0.166155 0.410981 0.204463
O O1 0.040210 0.382287 0.442510
O O2 0.511060 0.865063 0.336130
O O3 0.214482 0.875084 0.079674
O O4 0.000000 0.000000 0.000000
O O5 0.368707 0.444811 0.790273
O O6 0.500000 0.000000 0.500000
O O7 0.434929 0.443349 0.943128
O O8 0.541604 0.338045 0.831708
O O9 0.000000 0.500000 0.500000
O O10 0.936716 0.362672 0.192421
O O11 0.722263 0.963996 0.477042
O O12 0.000000 0.500000 0.000000
#
# Coordination Sequence:
#
# PCOD9075830 Si02
#       5
#     2   2   2   2   2
#     4   8  15  30  47  73 102 134 177 213 254 307
#     4  10  19  33  52  79 116 142 168 222 278 316
#     4  10  18  32  56  80 102 138 188 221 255 318
#     4   9  19  32  53  81 106 138 180 226 260 316
#     4  11  17  31  57  83 102 134 187 232 255 300
#
# _framework density 26.664961999999999
#
# number of rings (size 3 to 8) (size 9 to 14) (size 15 to 20)
#    0.000    2.800    4.000    3.600    0.000    0.000 
#    0.000    4.000    0.000   15.600    0.000    0.000 
#    0.000    0.000    0.000    0.000    0.000    0.000 
#
# Total GULP energy -55702.738556 kJ/mol
# GULP energy per Si atom -5570.273856 kJ/mol
# Density = 2.660427 g / cm^3
# Si number density = 26.664962 Si / 1000 Ang^3
#
#
#
# Elastic Constant Matrix: (Units=GPa)
#
#
# Indices 1 2 3 4 5 6 
#
# 1 40.8969 50.0735 27.6131 -9.4750 -22.8514 13.0905
# 2 50.0735 189.3334 58.3095 -14.8885 -23.6402 50.3950
# 3 27.6131 58.3095 144.0823 7.5432 -46.5091 -5.6988
# 4 -9.4750 -14.8885 7.5432 57.9571 7.6496 -13.2310
# 5 -22.8514 -23.6402 -46.5091 7.6496 47.2865 -10.3308
# 6 13.0905 50.3950 -5.6988 -13.2310 -10.3308 51.7420
#
#
#
# Elastic Compliance Matrix: (Units=1/GPa)
#
#
# Indices 1 2 3 4 5 6 
#
# 1 0.047654 -0.011599 0.001855 0.002931 0.019472 0.004083
# 2 -0.011599 0.011995 -0.005464 0.000425 -0.007393 -0.010717
# 3 0.001855 -0.005464 0.013817 -0.002823 0.014059 0.008459
# 4 0.002931 0.000425 -0.002823 0.019321 -0.003674 0.002740
# 5 0.019472 -0.007393 0.014059 -0.003674 0.043826 0.011633
# 6 0.004083 -0.010717 0.008459 0.002740 0.011633 0.032687
#
#
# Mechanical properties :
#
#
# Convention : Reuss Voigt Hill
#
# Bulk Modulus (GPa) = 23.22919 71.81165 47.52042
# Shear Modulus (GPa) = 23.35724 47.28487 35.32105
#
# Velocity S-wave (km/s) = 2.96286 4.21562 3.64349
# Velocity P-wave (km/s) = 4.52052 7.11933 5.96322
#
# Compressibility (1/GPa) = 0.04304929
#
# Stress axis : x y z
#
# Youngs Moduli (GPa) = 20.98466 83.36658 72.37476
#
# Poissons Ratio (x) = 0.96700 -0.13426
# Poissons Ratio (y) = 0.24341 0.39546
# Poissons Ratio (z) = -0.03893 0.45552
#
# Static dielectric constant tensor:
#      x y z
#    x 2.179870 -0.025500 -0.062930 
#    y -0.025500 2.273460 -0.040960 
#    z -0.062930 -0.040960 2.355850 
# 
# From -- ./inp_files/165799.got.cif
#   From: 2010.05.17/outbox.cif.g08.bks.cpg/sg2_83_cif.got.tgz:165799.got - 2010.06.03 11:33:40.
