data_PCOD9075387
_publ_section_title
;
Structure prediction by ZEFSAII (Michael W. Deem and Ramdas Pophale) SiO2 
 PCOD9075387
Probable space group: P -1
;
_chemical_formula_sum "Si O2"
_cell_formula_units_Z 16
_cell_length_a 9.000000
_cell_length_b 15.000000
_cell_length_c 12.000000
_cell_angle_alpha 130.000000
_cell_angle_beta 40.000000
_cell_angle_gamma 130.000000
_cell_volume 759.581896
_symmetry_space_group_name_H-M "P -1"
_symmetry_group_IT_number 2
_symmetry_cell_setting 'triclinic'
loop_
_space_group_symop_operation_xyz
x,y,z
-x,-y,-z
loop_
_atom_site_type_symbol
_atom_site_label
_atom_site_fract_x
_atom_site_fract_y
_atom_site_fract_z
Si Si1 0.773743 0.798670 0.800064
Si Si2 0.592450 0.030557 0.098443
Si Si3 0.947029 0.752633 0.060915
Si Si4 0.661097 0.141840 0.521634
Si Si5 0.626284 0.818718 0.487758
Si Si6 0.473527 0.307503 0.922924
Si Si7 0.329466 0.362087 0.491677
Si Si8 0.952177 0.489323 0.886079
O O1 0.668050 0.714367 0.684469
O O2 0.058447 0.848778 0.647494
O O3 0.704208 0.723140 0.892630
O O4 0.665337 0.908676 0.981846
O O5 0.409876 0.069735 0.322036
O O6 0.841049 0.143086 0.038087
O O7 0.500000 0.000000 0.000000
O O8 0.860233 0.813629 0.271132
O O9 0.707001 0.698260 0.080763
O O10 0.039741 0.634106 0.924856
O O11 0.578875 0.198466 0.502854
O O12 0.604118 0.209579 0.719538
O O13 0.500000 0.000000 0.500000
O O14 0.604379 0.711923 0.503505
O O15 0.681826 0.428085 0.942334
O O16 0.500000 0.500000 0.500000
O O17 0.081826 0.393614 0.686228
O O18 0.000000 0.500000 0.000000
#
# Coordination Sequence:
#
# PCOD9075387 Si02
#       8
#     2   2   2   2   2   2   2   2
#     4  12  25  45  71 103 142 181 233 289 350 417
#     4  12  26  43  70 106 139 182 235 291 352 417
#     4  11  26  47  71 101 142 183 236 291 351 419
#     4  11  24  47  71 104 141 186 236 289 350 428
#     4  11  24  46  70  98 140 181 232 287 353 404
#     4  11  25  45  71 105 140 186 233 291 355 420
#     4  12  25  45  68 104 143 184 235 287 354 422
#     4  12  24  45  73 102 140 184 236 290 350 420
#
# _framework density 21.064219999999999
#
# number of rings (size 3 to 8) (size 9 to 14) (size 15 to 20)
#    0.000    0.500    3.750    4.875    1.750    2.000 
#    2.250    1.250    0.000    0.000    0.000    0.000 
#    0.000    0.000    0.000    0.000    0.000    0.000 
#
# Total GULP energy -89168.272178 kJ/mol
# GULP energy per Si atom -5573.017011 kJ/mol
# Density = 2.101628 g / cm^3
# Si number density = 21.064220 Si / 1000 Ang^3
#
#
#
# Elastic Constant Matrix: (Units=GPa)
#
#
# Indices 1 2 3 4 5 6 
#
# 1 84.7492 29.9912 24.1838 2.8164 13.8958 4.8081
# 2 29.9912 86.1503 39.2864 21.2562 4.2842 11.9543
# 3 24.1838 39.2864 142.3000 15.6421 23.3606 -6.6004
# 4 2.8164 21.2562 15.6421 37.8025 -0.0574 -1.0847
# 5 13.8958 4.2842 23.3606 -0.0574 46.2622 6.9442
# 6 4.8081 11.9543 -6.6004 -1.0847 6.9442 34.5325
#
#
#
# Elastic Compliance Matrix: (Units=1/GPa)
#
#
# Indices 1 2 3 4 5 6 
#
# 1 0.014265 -0.005058 -0.000652 0.002058 -0.003547 0.000418
# 2 -0.005058 0.018124 -0.004046 -0.008342 0.002954 -0.007199
# 3 -0.000652 -0.004046 0.009400 -0.001452 -0.004810 0.004210
# 4 0.002058 -0.008342 -0.001452 0.031685 0.000442 0.003230
# 5 -0.003547 0.002954 -0.004810 0.000442 0.025832 -0.006629
# 6 0.000418 -0.007199 0.004210 0.003230 -0.006629 0.033631
#
#
# Mechanical properties :
#
#
# Convention : Reuss Voigt Hill
#
# Bulk Modulus (GPa) = 44.89124 55.56914 50.23019
# Shear Modulus (GPa) = 31.27450 38.36866 34.82158
#
# Velocity S-wave (km/s) = 3.85739 4.27254 4.07026
# Velocity P-wave (km/s) = 6.41850 7.12584 6.78140
#
# Compressibility (1/GPa) = 0.02227606
#
# Stress axis : x y z
#
# Youngs Moduli (GPa) = 70.10124 55.17627 106.38559
#
# Poissons Ratio (x) = 0.27907 0.06941
# Poissons Ratio (y) = 0.35456 0.43043
# Poissons Ratio (z) = 0.04574 0.22324
#
# Static dielectric constant tensor:
#      x y z
#    x 1.829660 -0.034280 -0.055260 
#    y -0.034280 1.843860 -0.051400 
#    z -0.055260 -0.051400 1.857210 
# 
# From -- ./inp_files/350028.got.cif
#   From: 2010.05.17/outbox.ucp.g08.bks.cvg/sg2_176_cif.got.tgz:350028.got - 2010.06.11 11:32:03.
