data_PCOD9075135
_publ_section_title
;
Structure prediction by ZEFSAII (Michael W. Deem and Ramdas Pophale) SiO2 
 PCOD9075135
Probable space group: P -1
;
_chemical_formula_sum "Si O2"
_cell_formula_units_Z 14
_cell_length_a 12.000000
_cell_length_b 9.000000
_cell_length_c 15.000000
_cell_angle_alpha 120.000000
_cell_angle_beta 30.000000
_cell_angle_gamma 130.000000
_cell_volume 613.666794
_symmetry_space_group_name_H-M "P -1"
_symmetry_group_IT_number 2
_symmetry_cell_setting 'triclinic'
loop_
_space_group_symop_operation_xyz
x,y,z
-x,-y,-z
loop_
_atom_site_type_symbol
_atom_site_label
_atom_site_fract_x
_atom_site_fract_y
_atom_site_fract_z
Si Si1 0.320830 0.962730 0.428349
Si Si2 0.454086 0.272794 0.701915
Si Si3 0.543058 0.090266 0.132488
Si Si4 0.087447 0.138851 0.763567
Si Si5 0.204105 0.260599 0.045879
Si Si6 0.235823 0.294419 0.328615
Si Si7 0.599622 0.327401 0.928189
O O1 0.429889 0.872856 0.400986
O O2 0.065577 0.805458 0.506692
O O3 0.536397 0.065703 0.236088
O O4 0.218244 0.106061 0.577340
O O5 0.324307 0.280768 0.702431
O O6 0.674336 0.490020 0.634109
O O7 0.229554 0.226615 0.915363
O O8 0.378498 0.197884 0.257309
O O9 0.388992 0.872071 0.129871
O O10 0.844065 0.172331 0.925135
O O11 0.980710 0.933098 0.831300
O O12 0.177288 0.454927 0.139656
O O13 0.485712 0.318929 0.907159
O O14 0.367667 0.300355 0.144510
#
# Coordination Sequence:
#
# PCOD9075135 Si02
#       7
#     2   2   2   2   2   2   2
#     4  12  23  40  65  90 120 164 207 252 303 356
#     4  11  23  40  64  93 123 162 205 250 305 361
#     4  11  23  41  65  89 127 160 202 253 306 362
#     4  11  23  41  65  89 127 160 202 253 306 362
#     4   9  17  34  61  91 117 152 201 249 300 350
#     4  11  23  40  64  93 123 162 205 250 305 361
#     4   9  17  34  61  91 117 152 201 249 300 350
#
# _framework density 22.813683000000001
#
# number of rings (size 3 to 8) (size 9 to 14) (size 15 to 20)
#    0.000    1.429    5.714    2.143    0.000    1.714 
#    0.000    0.714    0.000    0.000    0.000    0.000 
#    0.000    0.000    0.000    0.000    0.000    0.000 
#
# Total GULP energy -78019.091924 kJ/mol
# GULP energy per Si atom -5572.792280 kJ/mol
# Density = 2.276176 g / cm^3
# Si number density = 22.813683 Si / 1000 Ang^3
#
#
#
# Elastic Constant Matrix: (Units=GPa)
#
#
# Indices 1 2 3 4 5 6 
#
# 1 72.0489 10.5011 -0.9748 -1.1469 -13.8918 3.9994
# 2 10.5011 14.1033 -1.9402 6.1503 6.6281 -3.0642
# 3 -0.9748 -1.9402 53.9130 14.3211 2.1532 4.1061
# 4 -1.1469 6.1503 14.3211 12.2147 -6.1693 -10.6106
# 5 -13.8918 6.6281 2.1532 -6.1693 23.9445 9.4300
# 6 3.9994 -3.0642 4.1061 -10.6106 9.4300 40.4214
#
#
#
# Elastic Compliance Matrix: (Units=1/GPa)
#
#
# Indices 1 2 3 4 5 6 
#
# 1 0.001896 0.044441 0.023356 -0.074127 -0.027591 -0.012213
# 2 0.044441 -0.134030 -0.078362 0.252509 0.122763 0.031047
# 3 0.023356 -0.078362 -0.006602 0.077344 0.055888 -0.000316
# 4 -0.074127 0.252509 0.077344 -0.234662 -0.179924 -0.001005
# 5 -0.027591 0.122763 0.055888 -0.179924 -0.047916 -0.029693
# 6 -0.012213 0.031047 -0.000316 -0.001005 -0.029693 0.034997
#
#
# Mechanical properties :
#
#
# Convention : Reuss Voigt Hill
#
# Bulk Modulus (GPa) = -6.25519 17.24856 5.49669
# Shear Modulus (GPa) = -11.94813 24.14806 6.09996
#
# Velocity S-wave (km/s) = -2.29099 3.25697 1.63696
# Velocity P-wave (km/s) = 3.12186 4.66057 2.44693
#
# Compressibility (1/GPa) = -0.15986726
#
# Stress axis : x y z
#
# Youngs Moduli (GPa) = 527.28850 -7.46099 -151.45779
#
# Poissons Ratio (x) = 0.33157 3.53752
# Poissons Ratio (y) = -23.43299 -11.86860
# Poissons Ratio (z) = -12.31559 -0.58466
#
# Static dielectric constant tensor:
#      x y z
#    x 1.933400 0.026800 0.095840 
#    y 0.026800 1.980980 -0.004700 
#    z 0.095840 -0.004700 1.841570 
# 
# From -- ./inp_files/263812.got.cif
#   From: 2010.05.17/outbox.ucp.g08.bks.cvg/sg2_132_cif.got.tgz:263812.got - 2010.06.11 11:32:03.
