data_PCOD9075167
_publ_section_title
;
Structure prediction by ZEFSAII (Michael W. Deem and Ramdas Pophale) SiO2 
 PCOD9075167
Probable space group: P -1
;
_chemical_formula_sum "Si O2"
_cell_formula_units_Z 14
_cell_length_a 24.000000
_cell_length_b 9.000000
_cell_length_c 9.000000
_cell_angle_alpha 130.000000
_cell_angle_beta 150.000000
_cell_angle_gamma 40.000000
_cell_volume 623.501542
_symmetry_space_group_name_H-M "P -1"
_symmetry_group_IT_number 2
_symmetry_cell_setting 'triclinic'
loop_
_space_group_symop_operation_xyz
x,y,z
-x,-y,-z
loop_
_atom_site_type_symbol
_atom_site_label
_atom_site_fract_x
_atom_site_fract_y
_atom_site_fract_z
Si Si1 0.132675 0.778219 0.392956
Si Si2 0.097513 0.443921 0.927282
Si Si3 0.372970 0.756915 0.854724
Si Si4 0.358685 0.948620 0.271986
Si Si5 0.736953 0.363565 0.069117
Si Si6 0.578169 0.902746 0.966033
Si Si7 0.934029 0.303983 0.282501
O O1 0.262180 0.696829 0.541289
O O2 0.185767 0.705095 0.637775
O O3 0.062619 0.651118 0.091900
O O4 0.059192 0.051827 0.371523
O O5 0.123749 0.522490 0.877876
O O6 0.981227 0.406344 0.587213
O O7 0.222981 0.205548 0.129235
O O8 0.500000 0.500000 0.000000
O O9 0.366222 0.882494 0.074474
O O10 0.364276 0.938119 0.832724
O O11 0.478665 0.945793 0.627421
O O12 0.353152 0.740950 0.200727
O O13 0.839489 0.235113 0.091278
O O14 0.672251 0.629492 0.042958
O O15 0.500000 0.000000 0.000000
#
# Coordination Sequence:
#
# PCOD9075167 Si02
#       7
#     2   2   2   2   2   2   2
#     4  11  24  45  65  99 135 170 221 268 327 394
#     4  11  23  42  70  92 133 173 219 267 327 384
#     4  11  23  42  68  93 131 175 221 270 326 393
#     4  11  23  45  66  95 133 174 218 272 332 389
#     4  11  24  42  67  96 136 171 215 273 327 387
#     4  12  25  42  66 100 132 172 223 272 329 392
#     4  11  24  44  66  97 135 169 224 269 323 390
#
# _framework density 22.453834000000001
#
# number of rings (size 3 to 8) (size 9 to 14) (size 15 to 20)
#    0.000    0.857    2.857    6.000    2.000    2.857 
#    2.571    0.000    0.000    0.000    0.000    0.000 
#    0.000    0.000    0.000    0.000    0.000    0.000 
#
# Total GULP energy -78096.046489 kJ/mol
# GULP energy per Si atom -5578.289035 kJ/mol
# Density = 2.240273 g / cm^3
# Si number density = 22.453834 Si / 1000 Ang^3
#
#
#
# Elastic Constant Matrix: (Units=GPa)
#
#
# Indices 1 2 3 4 5 6 
#
# 1 53.1899 -0.9546 -2.4657 -11.5527 17.3281 31.4334
# 2 -0.9546 92.5056 18.1632 -8.7050 6.6914 34.1336
# 3 -2.4657 18.1632 12.9053 7.9289 -19.4271 -16.1525
# 4 -11.5527 -8.7050 7.9289 24.5756 5.0492 -8.0938
# 5 17.3281 6.6914 -19.4271 5.0492 23.0178 -2.2605
# 6 31.4334 34.1336 -16.1525 -8.0938 -2.2605 33.5038
#
#
#
# Elastic Compliance Matrix: (Units=1/GPa)
#
#
# Indices 1 2 3 4 5 6 
#
# 1 0.017102 -0.004704 0.022114 -0.002562 0.007652 -0.000693
# 2 -0.004704 0.007168 0.009612 -0.004518 0.010696 0.001375
# 3 0.022114 0.009612 0.009134 0.005522 -0.015483 -0.025847
# 4 -0.002562 -0.004518 0.005522 0.042580 0.000526 0.019991
# 5 0.007652 0.010696 -0.015483 0.000526 0.019022 -0.024131
# 6 -0.000693 0.001375 -0.025847 0.019991 -0.024131 0.019837
#
#
# Mechanical properties :
#
#
# Convention : Reuss Voigt Hill
#
# Bulk Modulus (GPa) = 11.43558 20.89850 16.16704
# Shear Modulus (GPa) = 55.58792 25.80998 40.69895
#
# Velocity S-wave (km/s) = 4.98099 3.39406 4.26204
# Velocity P-wave (km/s) = 6.17935 4.96861 5.60676
#
# Compressibility (1/GPa) = 0.08744640
#
# Stress axis : x y z
#
# Youngs Moduli (GPa) = 58.47439 139.50823 109.48605
#
# Poissons Ratio (x) = 0.65631 -2.42119
# Poissons Ratio (y) = 0.27509 -1.05237
# Poissons Ratio (z) = -1.29311 -1.34094
#
# Static dielectric constant tensor:
#      x y z
#    x 1.779620 -0.077230 0.018860 
#    y -0.077230 2.271930 -0.252920 
#    z 0.018860 -0.252920 1.892660 
# 
# From -- ./inp_files/168194.got.cif
#   From: 2010.05.17/outbox.ucp.g08.bks.cvg/sg2_85_cif.got.tgz:168194.got - 2010.06.11 11:32:03.
