data_PCOD9075036
_publ_section_title
;
Structure prediction by ZEFSAII (Michael W. Deem and Ramdas Pophale) SiO2 
 PCOD9075036
Probable space group: P -1
;
_chemical_formula_sum "Si O2"
_cell_formula_units_Z 16
_cell_length_a 12.000000
_cell_length_b 6.000000
_cell_length_c 15.000000
_cell_angle_alpha 90.000000
_cell_angle_beta 130.000000
_cell_angle_gamma 70.000000
_cell_volume 740.289630
_symmetry_space_group_name_H-M "P -1"
_symmetry_group_IT_number 2
_symmetry_cell_setting 'triclinic'
loop_
_space_group_symop_operation_xyz
x,y,z
-x,-y,-z
loop_
_atom_site_type_symbol
_atom_site_label
_atom_site_fract_x
_atom_site_fract_y
_atom_site_fract_z
Si Si1 0.365476 0.855699 0.284440
Si Si2 0.268085 0.584591 0.958846
Si Si3 0.395408 0.338523 0.207962
Si Si4 0.255993 0.375102 0.489839
Si Si5 0.291769 0.084572 0.682074
Si Si6 0.909477 0.836559 0.721614
Si Si7 0.991953 0.081261 0.598337
Si Si8 0.522302 0.782875 0.080272
O O1 0.354437 0.613763 0.230265
O O2 0.549975 0.737071 0.416500
O O3 0.349979 0.122746 0.229775
O O4 0.227926 0.948459 0.290270
O O5 0.344071 0.455797 0.903327
O O6 0.074686 0.701295 0.861722
O O7 0.327172 0.396515 0.072467
O O8 0.355459 0.765228 0.012893
O O9 0.590200 0.190457 0.292417
O O10 0.176578 0.325588 0.360726
O O11 0.164471 0.661865 0.465933
O O12 0.218906 0.243385 0.556236
O O13 0.405540 0.186171 0.789364
O O14 0.160575 0.102705 0.687999
O O15 0.976783 0.913400 0.667986
O O16 0.000000 0.000000 0.500000
O O17 0.500000 0.000000 0.000000
#
# Coordination Sequence:
#
# PCOD9075036 Si02
#       8
#     2   2   2   2   2   2   2   2
#     4  11  28  50  79 101 142 195 253 302 355 428
#     4  11  25  42  71 103 150 188 240 298 370 428
#     4  11  25  50  75 107 139 197 246 300 362 428
#     4  11  25  46  70 100 145 191 239 296 361 434
#     4  11  22  44  74 105 144 185 238 296 371 435
#     4  12  28  46  68 107 140 194 240 302 356 433
#     4  12  25  41  68 108 147 181 235 297 369 436
#     4  11  22  41  68 108 146 189 233 294 366 452
#
# _framework density 21.613161999999999
#
# number of rings (size 3 to 8) (size 9 to 14) (size 15 to 20)
#    0.000    0.750    2.500    4.500    7.000    1.500 
#    0.000    0.000    0.000    0.000    0.000    0.000 
#    0.000    0.000    0.000    0.000    0.000    0.000 
#
# Total GULP energy -89268.210515 kJ/mol
# GULP energy per Si atom -5579.263157 kJ/mol
# Density = 2.156397 g / cm^3
# Si number density = 21.613162 Si / 1000 Ang^3
#
#
#
# Elastic Constant Matrix: (Units=GPa)
#
#
# Indices 1 2 3 4 5 6 
#
# 1 55.0642 -1.6159 7.1619 10.9356 15.5662 -1.8412
# 2 -1.6159 88.9712 33.7792 16.5187 7.0424 -2.0539
# 3 7.1619 33.7792 71.0186 8.9863 7.2806 3.8894
# 4 10.9356 16.5187 8.9863 36.0540 0.4381 -7.6349
# 5 15.5662 7.0424 7.2806 0.4381 19.0217 -5.4240
# 6 -1.8412 -2.0539 3.8894 -7.6349 -5.4240 29.8652
#
#
#
# Elastic Compliance Matrix: (Units=1/GPa)
#
#
# Indices 1 2 3 4 5 6 
#
# 1 0.027593 0.004736 -0.000733 -0.011178 -0.025317 -0.005333
# 2 0.004736 0.015553 -0.006156 -0.007152 -0.007400 -0.001009
# 3 -0.000733 -0.006156 0.018161 -0.002349 -0.005270 -0.004391
# 4 -0.011178 -0.007152 -0.002349 0.037215 0.015082 0.011378
# 5 -0.025317 -0.007400 -0.005270 0.015082 0.082686 0.017489
# 6 -0.005333 -0.001009 -0.004391 0.011378 0.017489 0.039743
#
#
# Mechanical properties :
#
#
# Convention : Reuss Voigt Hill
#
# Bulk Modulus (GPa) = 17.54401 32.63381 25.08891
# Shear Modulus (GPa) = 20.47010 28.70343 24.58676
#
# Velocity S-wave (km/s) = 3.08086 3.64820 3.37647
# Velocity P-wave (km/s) = 4.55966 5.73390 5.18016
#
# Compressibility (1/GPa) = 0.05699952
#
# Stress axis : x y z
#
# Youngs Moduli (GPa) = 36.24065 64.29523 55.06290
#
# Poissons Ratio (x) = -0.30448 0.04038
# Poissons Ratio (y) = -0.17162 0.33899
# Poissons Ratio (z) = 0.02657 0.39583
#
# Static dielectric constant tensor:
#      x y z
#    x 1.831130 0.059010 0.046630 
#    y 0.059010 1.887840 0.025010 
#    z 0.046630 0.025010 1.835850 
# 
# From -- ./inp_files/511022.got.cif
#   From: 2010.05.17/outbox.ucp.g08.bks.cvg/sg2_256_cif.got.tgz:511022.got - 2010.06.11 11:32:03.
