data_PCOD9075048
_publ_section_title
;
Structure prediction by ZEFSAII (Michael W. Deem and Ramdas Pophale) SiO2 
 PCOD9075048
Probable space group: P -1
;
_chemical_formula_sum "Si O2"
_cell_formula_units_Z 14
_cell_length_a 15.000000
_cell_length_b 15.000000
_cell_length_c 15.000000
_cell_angle_alpha 150.000000
_cell_angle_beta 30.000000
_cell_angle_gamma 150.000000
_cell_volume 747.378534
_symmetry_space_group_name_H-M "P -1"
_symmetry_group_IT_number 2
_symmetry_cell_setting 'triclinic'
loop_
_space_group_symop_operation_xyz
x,y,z
-x,-y,-z
loop_
_atom_site_type_symbol
_atom_site_label
_atom_site_fract_x
_atom_site_fract_y
_atom_site_fract_z
Si Si1 0.866512 0.140557 0.168998
Si Si2 0.548280 0.582801 0.632611
Si Si3 0.131889 0.196364 0.815190
Si Si4 0.145932 0.576480 0.027176
Si Si5 0.286164 0.328952 0.082252
Si Si6 0.995171 0.107194 0.504783
Si Si7 0.408435 0.622664 0.401261
O O1 0.722822 0.252623 0.383080
O O2 0.066990 0.272685 0.173909
O O3 0.966200 0.126842 0.976500
O O4 0.735206 0.899898 0.098726
O O5 0.500000 0.500000 0.500000
O O6 0.376650 0.649105 0.860647
O O7 0.565540 0.439429 0.572093
O O8 0.769325 0.762925 0.603978
O O9 0.116274 0.387773 0.951258
O O10 0.349939 0.253308 0.720712
O O11 0.097926 0.042866 0.628882
O O12 0.102696 0.743238 0.259803
O O13 0.000000 0.500000 0.000000
O O14 0.307855 0.433714 0.253574
O O15 0.500000 0.500000 0.000000
O O16 0.000000 0.000000 0.500000
#
# Coordination Sequence:
#
# PCOD9075048 Si02
#       7
#     2   2   2   2   2   2   2
#     4  11  25  45  75 100 137 179 222 287 351 402
#     4  11  23  41  67  96 135 180 223 275 335 401
#     4  11  24  42  64 100 135 173 231 277 333 413
#     4  11  22  42  64  89 134 181 221 281 333 384
#     4  11  24  49  72 103 137 173 230 287 345 415
#     4  12  23  39  61  93 130 178 232 273 329 399
#     4  11  24  45  70 101 137 179 229 277 342 409
#
# _framework density 18.732140999999999
#
# number of rings (size 3 to 8) (size 9 to 14) (size 15 to 20)
#    0.000    0.857    4.286    3.000    0.000    4.571 
#    5.143    0.000    0.000    0.000    0.000    0.000 
#    0.000    0.000    0.000    0.000    0.000    0.000 
#
# Total GULP energy -77971.844589 kJ/mol
# GULP energy per Si atom -5569.417471 kJ/mol
# Density = 1.868951 g / cm^3
# Si number density = 18.732141 Si / 1000 Ang^3
#
#
#
# Elastic Constant Matrix: (Units=GPa)
#
#
# Indices 1 2 3 4 5 6 
#
# 1 138.5465 36.3361 71.1045 12.7369 -5.6028 22.0538
# 2 36.3361 120.5757 56.6371 -2.1530 -10.5831 10.8163
# 3 71.1045 56.6371 170.2257 15.1383 -17.5719 14.1423
# 4 12.7369 -2.1530 15.1383 40.1142 9.9030 4.3585
# 5 -5.6028 -10.5831 -17.5719 9.9030 56.4088 1.7913
# 6 22.0538 10.8163 14.1423 4.3585 1.7913 40.7073
#
#
#
# Elastic Compliance Matrix: (Units=1/GPa)
#
#
# Indices 1 2 3 4 5 6 
#
# 1 0.009971 -0.001121 -0.003320 -0.001598 0.000147 -0.003786
# 2 -0.001121 0.010219 -0.002941 0.002016 0.000578 -0.001327
# 3 -0.003320 -0.002941 0.008771 -0.002974 0.002381 -0.000253
# 4 -0.001598 0.002016 -0.002974 0.028206 -0.005614 -0.001410
# 5 0.000147 0.000578 0.002381 -0.005614 0.019620 -0.001322
# 6 -0.003786 -0.001327 -0.000253 -0.001410 -0.001322 0.027267
#
#
# Mechanical properties :
#
#
# Convention : Reuss Voigt Hill
#
# Bulk Modulus (GPa) = 70.44088 84.16703 77.30396
# Shear Modulus (GPa) = 40.46924 45.13076 42.80000
#
# Velocity S-wave (km/s) = 4.65307 4.91375 4.78519
# Velocity P-wave (km/s) = 8.15806 8.78765 8.47870
#
# Compressibility (1/GPa) = 0.01419630
#
# Stress axis : x y z
#
# Youngs Moduli (GPa) = 100.28685 97.86032 114.00920
#
# Poissons Ratio (x) = 0.10974 0.37854
# Poissons Ratio (y) = 0.11246 0.33529
# Poissons Ratio (z) = 0.33298 0.28779
#
# Static dielectric constant tensor:
#      x y z
#    x 1.713490 -0.114670 0.050200 
#    y -0.114670 1.896240 -0.070310 
#    z 0.050200 -0.070310 1.655710 
# 
# From -- ./inp_files/534530.got.cif
#   From: 2010.05.17/outbox.ucp.g08.bks.cvg/sg2_268_cif.got.tgz:534530.got - 2010.06.11 11:32:03.
