data_PCOD9075554
_publ_section_title
;
Structure prediction by ZEFSAII (Michael W. Deem and Ramdas Pophale) SiO2 
 PCOD9075554
Probable space group: P -1
;
_chemical_formula_sum "Si O2"
_cell_formula_units_Z 16
_cell_length_a 12.000000
_cell_length_b 18.000000
_cell_length_c 21.000000
_cell_angle_alpha 20.000000
_cell_angle_beta 30.000000
_cell_angle_gamma 30.000000
_cell_volume 738.640068
_symmetry_space_group_name_H-M "P -1"
_symmetry_group_IT_number 2
_symmetry_cell_setting 'triclinic'
loop_
_space_group_symop_operation_xyz
x,y,z
-x,-y,-z
loop_
_atom_site_type_symbol
_atom_site_label
_atom_site_fract_x
_atom_site_fract_y
_atom_site_fract_z
Si Si1 0.046799 0.689878 0.103076
Si Si2 0.324487 0.851281 0.086316
Si Si3 0.839123 0.487062 0.946973
Si Si4 0.355157 0.873265 0.901641
Si Si5 0.943822 0.224318 0.306003
Si Si6 0.577402 0.641280 0.538507
Si Si7 0.190413 0.096420 0.153023
Si Si8 0.319327 0.569831 0.476275
O O1 0.180299 0.552152 0.087019
O O2 0.900753 0.525897 0.331405
O O3 0.181972 0.774797 0.024493
O O4 0.869861 0.923964 0.974480
O O5 0.270182 0.609769 0.311603
O O6 0.327924 0.895139 0.973579
O O7 0.561997 0.843421 0.014043
O O8 0.600211 0.675627 0.931749
O O9 0.021029 0.594595 0.806317
O O10 0.952252 0.237729 0.121016
O O11 0.348285 0.129242 0.676625
O O12 0.678826 0.304747 0.347400
O O13 0.113892 0.153885 0.218441
O O14 0.000000 0.000000 0.500000
O O15 0.551786 0.576642 0.529818
O O16 0.245331 0.843337 0.299842
O O17 0.500000 0.500000 0.500000
#
# Coordination Sequence:
#
# PCOD9075554 Si02
#       8
#     2   2   2   2   2   2   2   2
#     4  12  27  46  69  94 143 187 219 281 337 405
#     4  12  24  45  73 103 134 178 227 283 343 399
#     4  12  24  43  69  98 137 176 226 280 339 396
#     4  12  26  50  66  98 141 184 231 270 335 415
#     4  12  21  39  68 100 135 175 219 280 345 394
#     4  12  25  41  72 102 132 181 228 279 337 403
#     4  12  24  42  70 108 135 168 228 293 340 398
#     4  12  24  43  68 102 140 175 228 280 344 401
#
# _framework density 21.661429999999999
#
# number of rings (size 3 to 8) (size 9 to 14) (size 15 to 20)
#    0.000    0.000    6.250    4.875    0.000    1.500 
#    2.250    0.625    0.000    0.000    0.000    0.000 
#    0.000    0.000    0.000    0.000    0.000    0.000 
#
# Total GULP energy -89135.876112 kJ/mol
# GULP energy per Si atom -5570.992257 kJ/mol
# Density = 2.161213 g / cm^3
# Si number density = 21.661430 Si / 1000 Ang^3
#
#
#
# Elastic Constant Matrix: (Units=GPa)
#
#
# Indices 1 2 3 4 5 6 
#
# 1 80.4907 24.5876 42.1191 8.8390 -28.2256 7.6746
# 2 24.5876 94.9072 19.2033 -12.0002 -0.2472 23.8572
# 3 42.1191 19.2033 103.2575 -32.9676 -25.1796 0.1537
# 4 8.8390 -12.0002 -32.9676 41.9724 2.0789 -2.8942
# 5 -28.2256 -0.2472 -25.1796 2.0789 37.7307 -8.9983
# 6 7.6746 23.8572 0.1537 -2.8942 -8.9983 33.5145
#
#
#
# Elastic Compliance Matrix: (Units=1/GPa)
#
#
# Indices 1 2 3 4 5 6 
#
# 1 0.027999 -0.007213 -0.012659 -0.018520 0.013674 0.000853
# 2 -0.007213 0.016076 -0.000405 0.005422 -0.008636 -0.011641
# 3 -0.012659 -0.000405 0.023130 0.020857 0.006387 0.006597
# 4 -0.018520 0.005422 0.020857 0.045998 -0.001517 0.003851
# 5 0.013674 -0.008636 0.006387 -0.001517 0.044556 0.014819
# 6 0.000853 -0.011641 0.006597 0.003851 0.014819 0.042210
#
#
# Mechanical properties :
#
#
# Convention : Reuss Voigt Hill
#
# Bulk Modulus (GPa) = 37.52149 50.05283 43.78716
# Shear Modulus (GPa) = 20.04744 35.49323 27.77033
#
# Velocity S-wave (km/s) = 3.04549 4.05229 3.58441
# Velocity P-wave (km/s) = 5.45216 6.71206 6.11465
#
# Compressibility (1/GPa) = 0.02665139
#
# Stress axis : x y z
#
# Youngs Moduli (GPa) = 35.71570 62.20299 43.23298
#
# Poissons Ratio (x) = 0.44865 0.54731
# Poissons Ratio (y) = 0.25760 0.01751
# Poissons Ratio (z) = 0.45214 0.02520
#
# Static dielectric constant tensor:
#      x y z
#    x 1.855560 0.135810 0.015930 
#    y 0.135810 2.080780 0.003630 
#    z 0.015930 0.003630 1.839610 
# 
# From -- ./inp_files/209494.got.cif
#   From: 2010.05.17/outbox.ucp.g08.bks.cvg/sg2_105_cif.got.tgz:209494.got - 2010.06.11 11:32:03.
