data_PCOD9075049
_publ_section_title
;
Structure prediction by ZEFSAII (Michael W. Deem and Ramdas Pophale) SiO2 
 PCOD9075049
Probable space group: P -1
;
_chemical_formula_sum "Si O2"
_cell_formula_units_Z 14
_cell_length_a 9.000000
_cell_length_b 12.000000
_cell_length_c 15.000000
_cell_angle_alpha 150.000000
_cell_angle_beta 130.000000
_cell_angle_gamma 60.000000
_cell_volume 613.666794
_symmetry_space_group_name_H-M "P -1"
_symmetry_group_IT_number 2
_symmetry_cell_setting 'triclinic'
loop_
_space_group_symop_operation_xyz
x,y,z
-x,-y,-z
loop_
_atom_site_type_symbol
_atom_site_label
_atom_site_fract_x
_atom_site_fract_y
_atom_site_fract_z
Si Si1 0.435038 0.121314 0.147967
Si Si2 0.715687 0.420468 0.595184
Si Si3 0.176504 0.945468 0.303940
Si Si4 0.123752 0.141129 0.721034
Si Si5 0.530217 0.303518 0.633916
Si Si6 0.447826 0.730595 0.999383
Si Si7 0.132957 0.551090 0.891919
O O1 0.615873 0.280780 0.376882
O O2 0.299606 0.313591 0.218947
O O3 0.346388 0.916373 0.037040
O O4 0.500000 0.000000 0.000000
O O5 0.609107 0.320138 0.575089
O O6 0.947260 0.425490 0.681805
O O7 0.320493 0.821019 0.336500
O O8 0.980021 0.935711 0.279802
O O9 0.313488 0.169512 0.478259
O O10 0.121229 0.798268 0.093553
O O11 0.351959 0.126604 0.788816
O O12 0.126543 0.401811 0.875777
O O13 0.000000 0.000000 0.500000
O O14 0.520142 0.555933 0.837435
O O15 0.323908 0.585725 0.927313
#
# Coordination Sequence:
#
# PCOD9075049 Si02
#       7
#     2   2   2   2   2   2   2
#     4  11  25  46  74  96 126 180 229 284 333 390
#     4  11  24  47  72  96 136 177 225 276 338 393
#     4  11  24  38  65  99 138 179 214 263 339 404
#     4  12  24  39  64  97 134 176 217 270 336 401
#     4  11  22  42  65  99 138 177 219 270 331 403
#     4  12  25  42  66  98 137 173 225 279 328 396
#     4  12  24  42  65 100 135 176 216 271 337 400
#
# _framework density 22.813683000000001
#
# number of rings (size 3 to 8) (size 9 to 14) (size 15 to 20)
#    0.000    0.571    4.286    4.286    4.000    0.571 
#    0.000    0.714    0.000    0.000    0.000    0.000 
#    0.000    0.000    0.000    0.000    0.000    0.000 
#
# Total GULP energy -78148.910548 kJ/mol
# GULP energy per Si atom -5582.065039 kJ/mol
# Density = 2.276176 g / cm^3
# Si number density = 22.813683 Si / 1000 Ang^3
#
#
#
# Elastic Constant Matrix: (Units=GPa)
#
#
# Indices 1 2 3 4 5 6 
#
# 1 133.7552 8.7837 52.9533 -14.1116 22.6300 9.4383
# 2 8.7837 57.4307 33.2218 20.0634 14.7137 -1.8272
# 3 52.9533 33.2218 122.9481 4.5960 -14.6225 2.1589
# 4 -14.1116 20.0634 4.5960 38.2807 3.4295 -1.9535
# 5 22.6300 14.7137 -14.6225 3.4295 46.4203 5.6979
# 6 9.4383 -1.8272 2.1589 -1.9535 5.6979 21.8988
#
#
#
# Elastic Compliance Matrix: (Units=1/GPa)
#
#
# Indices 1 2 3 4 5 6 
#
# 1 0.012471 0.003301 -0.007559 0.004568 -0.009669 -0.001431
# 2 0.003301 0.031939 -0.011464 -0.012534 -0.015053 0.005171
# 3 -0.007559 -0.011464 0.016040 0.000029 0.012686 -0.002578
# 4 0.004568 -0.012534 0.000029 0.034460 -0.000824 0.000271
# 5 -0.009669 -0.015053 0.012686 -0.000824 0.036040 -0.007790
# 6 -0.001431 0.005171 -0.002578 0.000271 -0.007790 0.049018
#
#
# Mechanical properties :
#
#
# Convention : Reuss Voigt Hill
#
# Bulk Modulus (GPa) = 34.47664 56.00574 45.24119
# Shear Modulus (GPa) = 22.61621 35.93164 29.27393
#
# Velocity S-wave (km/s) = 3.15198 3.97294 3.58603
# Velocity P-wave (km/s) = 5.32839 6.75634 6.08440
#
# Compressibility (1/GPa) = 0.02900515
#
# Stress axis : x y z
#
# Youngs Moduli (GPa) = 80.18796 31.30968 62.34537
#
# Poissons Ratio (x) = -0.10335 0.47124
# Poissons Ratio (y) = -0.26469 0.71475
# Poissons Ratio (z) = 0.60610 0.35895
#
# Static dielectric constant tensor:
#      x y z
#    x 1.822940 -0.077860 -0.004000 
#    y -0.077860 2.052550 -0.006350 
#    z -0.004000 -0.006350 1.848480 
# 
# From -- ./inp_files/178612.got.cif
#   From: 2010.05.17/outbox.ucp.g08.bks.cvg/sg2_90_cif.got.tgz:178612.got - 2010.06.11 11:32:03.
