data_PCOD9075879
_publ_section_title
;
Structure prediction by ZEFSAII (Michael W. Deem and Ramdas Pophale) SiO2 
 PCOD9075879
Probable space group: P -1
;
_chemical_formula_sum "Si O2"
_cell_formula_units_Z 11
_cell_length_a 5.954213
_cell_length_b 9.627513
_cell_length_c 20.282828
_cell_angle_alpha 35.790458
_cell_angle_beta 133.410479
_cell_angle_gamma 107.512759
_cell_volume 393.750517
_symmetry_space_group_name_H-M "P -1"
_symmetry_group_IT_number 2
_symmetry_cell_setting 'triclinic'
loop_
_space_group_symop_operation_xyz
x,y,z
-x,-y,-z
loop_
_atom_site_type_symbol
_atom_site_label
_atom_site_fract_x
_atom_site_fract_y
_atom_site_fract_z
Si Si1 0.026500 0.259087 0.143788
Si Si2 0.336643 0.641481 0.256052
Si Si3 0.500000 0.500000 0.500000
Si Si4 0.835143 0.900316 0.406064
Si Si5 0.646409 0.972173 0.184892
Si Si6 0.945449 0.703535 0.710102
O O1 0.459532 0.937342 0.346548
O O2 0.991148 0.343195 0.180267
O O3 0.704946 0.214199 0.077256
O O4 0.000000 0.500000 0.000000
O O5 0.446853 0.578202 0.379083
O O6 0.302982 0.940782 0.121393
O O7 0.037696 0.563810 0.215154
O O8 0.721164 0.385155 0.390506
O O9 0.971931 0.320258 0.656194
O O10 0.826995 0.179111 0.320998
O O11 0.726045 0.964707 0.281998
O O12 0.500000 0.000000 0.500000
#
# Coordination Sequence:
#
# PCOD9075879 Si02
#       6
#     2   2   1   2   2   2
#     4  11  23  39  58  80 114 159 193 224 280 342
#     4  10  19  33  57  90 117 140 183 240 287 330
#     4  10  18  32  56  86 116 146 180 228 290 338
#     4   9  19  36  57  83 114 147 186 232 281 336
#     4  10  19  32  55  84 112 145 189 235 277 332
#     4   9  21  36  56  87 114 142 187 240 283 330
#
# _framework density 27.936475000000002
#
# number of rings (size 3 to 8) (size 9 to 14) (size 15 to 20)
#    0.000    2.182    0.000    5.455    0.000    7.273 
#    0.000    0.909    0.000    5.455    0.000    3.818 
#    0.000    0.000    0.000    0.000    0.000    0.000 
#
# Total GULP energy -61321.313255 kJ/mol
# GULP energy per Si atom -5574.664841 kJ/mol
# Density = 2.787289 g / cm^3
# Si number density = 27.936475 Si / 1000 Ang^3
#
#
#
# Elastic Constant Matrix: (Units=GPa)
#
#
# Indices 1 2 3 4 5 6 
#
# 1 121.6313 36.3821 -11.2444 8.3920 -3.3823 26.4295
# 2 36.3821 147.6910 11.0476 2.0091 -26.2539 51.1104
# 3 -11.2444 11.0476 43.7111 -1.8442 -21.0329 2.6853
# 4 8.3920 2.0091 -1.8442 22.5117 5.9917 6.8544
# 5 -3.3823 -26.2539 -21.0329 5.9917 49.3929 -18.1260
# 6 26.4295 51.1104 2.6853 6.8544 -18.1260 79.7398
#
#
#
# Elastic Compliance Matrix: (Units=1/GPa)
#
#
# Indices 1 2 3 4 5 6 
#
# 1 0.009676 -0.001863 0.003338 -0.002871 0.000821 -0.001692
# 2 -0.001863 0.009451 -0.001363 0.000574 0.002453 -0.004886
# 3 0.003338 -0.001363 0.030344 -0.002868 0.013532 0.002068
# 4 -0.002871 0.000574 -0.002868 0.049367 -0.009174 -0.005649
# 5 0.000821 0.002453 0.013532 -0.009174 0.030468 0.005415
# 6 -0.001692 -0.004886 0.002068 -0.005649 0.005415 0.017880
#
#
# Mechanical properties :
#
#
# Convention : Reuss Voigt Hill
#
# Bulk Modulus (GPa) = 20.12299 42.82269 31.47284
# Shear Modulus (GPa) = 30.57596 48.78541 39.68069
#
# Velocity S-wave (km/s) = 3.31188 4.18341 3.77289
# Velocity P-wave (km/s) = 4.67371 6.22064 5.50181
#
# Compressibility (1/GPa) = 0.04969440
#
# Stress axis : x y z
#
# Youngs Moduli (GPa) = 103.35003 105.81101 32.95545
#
# Poissons Ratio (x) = 0.19709 -0.11000
# Poissons Ratio (y) = 0.19250 0.04493
# Poissons Ratio (z) = -0.34495 0.14425
#
# Static dielectric constant tensor:
#      x y z
#    x 2.131500 0.107700 -0.000950 
#    y 0.107700 1.432960 0.313260 
#    z -0.000950 0.313260 2.113820 
# 
# From -- ./inp_files/17674.got.cif
#   From: 2010.05.17/outbox.cif.g08.bks.cpg/sg2_9_cif.got.tgz:17674.got - 2010.06.03 11:33:40.
