data_PCOD9075814
_publ_section_title
;
Structure prediction by ZEFSAII (Michael W. Deem and Ramdas Pophale) SiO2 
 PCOD9075814
Probable space group: P -1
;
_chemical_formula_sum "Si O2"
_cell_formula_units_Z 16
_cell_length_a 9.087804
_cell_length_b 11.848745
_cell_length_c 11.172242
_cell_angle_alpha 57.021700
_cell_angle_beta 111.153087
_cell_angle_gamma 142.985615
_cell_volume 601.026735
_symmetry_space_group_name_H-M "P -1"
_symmetry_group_IT_number 2
_symmetry_cell_setting 'triclinic'
loop_
_space_group_symop_operation_xyz
x,y,z
-x,-y,-z
loop_
_atom_site_type_symbol
_atom_site_label
_atom_site_fract_x
_atom_site_fract_y
_atom_site_fract_z
Si Si1 0.278371 0.513271 0.347244
Si Si2 0.784909 0.057497 0.530946
Si Si3 0.096524 0.362239 0.717946
Si Si4 0.887895 0.932799 0.138513
Si Si5 0.444733 0.987575 0.285458
Si Si6 0.394423 0.286044 0.449324
Si Si7 0.361695 0.703056 0.042817
Si Si8 0.772278 0.619626 0.986039
O O1 0.338606 0.409027 0.360240
O O2 0.514874 0.689084 0.402768
O O3 0.219334 0.594760 0.189443
O O4 0.026302 0.310903 0.460050
O O5 0.624207 0.015333 0.399678
O O6 0.632827 0.952575 0.671044
O O7 0.816885 0.931518 0.558512
O O8 0.107178 0.220079 0.740140
O O9 0.354536 0.590302 0.619319
O O10 0.120874 0.357438 0.869394
O O11 0.828148 0.250876 0.683076
O O12 0.622137 0.819708 0.101749
O O13 0.052208 0.143402 0.139901
O O14 0.000000 0.000000 0.000000
O O15 0.571067 0.127486 0.121021
O O16 0.242789 0.514059 0.030572
O O17 0.500000 0.500000 0.000000
#
# Coordination Sequence:
#
# PCOD9075814 Si02
#       8
#     2   2   2   2   2   2   2   2
#     4  11  25  44  67  99 135 171 219 277 328 395
#     4  11  26  48  67  95 130 185 222 267 325 399
#     4  11  19  38  64  98 128 170 212 281 322 381
#     4  10  18  32  55  92 135 156 202 275 323 373
#     4  11  24  45  70  95 136 170 228 276 317 390
#     4  11  23  44  71  95 132 177 219 268 339 393
#     4  12  22  39  63 100 129 170 214 275 332 380
#     4  11  18  31  58  95 133 165 208 266 341 382
#
# _framework density 26.621113000000001
#
# number of rings (size 3 to 8) (size 9 to 14) (size 15 to 20)
#    0.000    1.000    7.500    1.125    0.000    3.000 
#    2.250    0.625    0.000    0.000    0.000    0.000 
#    0.000    0.000    0.000    0.000    0.000    0.000 
#
# Total GULP energy -89442.384443 kJ/mol
# GULP energy per Si atom -5590.149028 kJ/mol
# Density = 2.656052 g / cm^3
# Si number density = 26.621113 Si / 1000 Ang^3
#
#
#
# Elastic Constant Matrix: (Units=GPa)
#
#
# Indices 1 2 3 4 5 6 
#
# 1 33.3566 0.3169 6.8163 4.7345 -2.2514 -6.5375
# 2 0.3169 77.0956 -1.2108 -8.5108 -1.8441 -7.4389
# 3 6.8163 -1.2108 158.6367 11.7551 -10.6407 9.7698
# 4 4.7345 -8.5108 11.7551 41.5070 9.3155 7.3845
# 5 -2.2514 -1.8441 -10.6407 9.3155 25.8846 14.0562
# 6 -6.5375 -7.4389 9.7698 7.3845 14.0562 37.2563
#
#
#
# Elastic Compliance Matrix: (Units=1/GPa)
#
#
# Indices 1 2 3 4 5 6 
#
# 1 0.032281 0.000016 -0.001475 -0.004507 0.000065 0.006923
# 2 0.000016 0.013510 -0.000403 0.002762 -0.001789 0.002933
# 3 -0.001475 -0.000403 0.007188 -0.002565 0.005852 -0.003924
# 4 -0.004507 0.002762 -0.002565 0.028547 -0.010924 -0.001103
# 5 0.000065 -0.001789 0.005852 -0.010924 0.056210 -0.020922
# 6 0.006923 0.002933 -0.003924 -0.001103 -0.020922 0.037783
#
#
# Mechanical properties :
#
#
# Convention : Reuss Voigt Hill
#
# Bulk Modulus (GPa) = 20.30211 31.21485 25.75848
# Shear Modulus (GPa) = 25.55439 38.47403 32.01421
#
# Velocity S-wave (km/s) = 3.10163 3.80576 3.47160
# Velocity P-wave (km/s) = 4.52435 5.57340 5.07605
#
# Compressibility (1/GPa) = 0.04925597
#
# Stress axis : x y z
#
# Youngs Moduli (GPa) = 30.97761 74.02111 139.11554
#
# Poissons Ratio (x) = -0.00120 0.20519
# Poissons Ratio (y) = -0.00050 0.05604
# Poissons Ratio (z) = 0.04569 0.02982
#
# Static dielectric constant tensor:
#      x y z
#    x 2.096670 0.006080 -0.024940 
#    y 0.006080 2.114300 -0.023560 
#    z -0.024940 -0.023560 2.110260 
# 
# From -- ./inp_files/432624.got.cif
#   From: 2010.05.17/outbox.cif.g08.bks.cpg/sg2_217_cif.got.tgz:432624.got - 2010.06.03 11:33:40.
