data_PCOD9075214
_publ_section_title
;
Structure prediction by ZEFSAII (Michael W. Deem and Ramdas Pophale) SiO2 
 PCOD9075214
Probable space group: P -1
;
_chemical_formula_sum "Si O2"
_cell_formula_units_Z 14
_cell_length_a 21.000000
_cell_length_b 15.000000
_cell_length_c 12.000000
_cell_angle_alpha 140.000000
_cell_angle_beta 30.000000
_cell_angle_gamma 160.000000
_cell_volume 620.704002
_symmetry_space_group_name_H-M "P -1"
_symmetry_group_IT_number 2
_symmetry_cell_setting 'triclinic'
loop_
_space_group_symop_operation_xyz
x,y,z
-x,-y,-z
loop_
_atom_site_type_symbol
_atom_site_label
_atom_site_fract_x
_atom_site_fract_y
_atom_site_fract_z
Si Si1 0.658104 0.883487 0.759719
Si Si2 0.006973 0.289877 0.978675
Si Si3 0.436552 0.481547 0.883555
Si Si4 0.117961 0.140863 0.251977
Si Si5 0.550008 0.760089 0.544337
Si Si6 0.270279 0.828137 0.903459
Si Si7 0.825569 0.232533 0.438359
O O1 0.472094 0.645792 0.906219
O O2 0.587146 0.783648 0.644184
O O3 0.925966 0.060995 0.528683
O O4 0.692798 0.070676 0.932441
O O5 0.788673 0.119523 0.058315
O O6 0.950503 0.306718 0.201108
O O7 0.273613 0.569906 0.784004
O O8 0.007067 0.124450 0.835153
O O9 0.661098 0.671102 0.813178
O O10 0.448392 0.369926 0.666060
O O11 0.209380 0.274957 0.118726
O O12 0.768216 0.054929 0.441414
O O13 0.538571 0.013945 0.642745
O O14 0.000000 0.500000 0.000000
O O15 0.000000 0.500000 0.500000
#
# Coordination Sequence:
#
# PCOD9075214 Si02
#       7
#     2   2   2   2   2   2   2
#     4  12  26  43  70 105 143 184 230 295 364 417
#     4  12  24  48  76 103 138 189 243 294 352 418
#     4  11  23  44  67 105 140 180 237 292 357 420
#     4  11  24  42  75 103 138 179 236 303 350 419
#     4  12  26  45  72 104 146 189 232 294 361 427
#     4  12  27  48  77 103 141 193 245 290 346 428
#     4  12  29  50  71 105 148 190 239 294 353 424
#
# _framework density 22.555033999999999
#
# number of rings (size 3 to 8) (size 9 to 14) (size 15 to 20)
#    0.000    0.286    5.714    3.000    2.000    4.000 
#    0.000    0.000    0.000    0.000    0.000    0.000 
#    0.000    0.000    0.000    0.000    0.000    0.000 
#
# Total GULP energy -78147.155297 kJ/mol
# GULP energy per Si atom -5581.939664 kJ/mol
# Density = 2.250370 g / cm^3
# Si number density = 22.555034 Si / 1000 Ang^3
#
#
#
# Elastic Constant Matrix: (Units=GPa)
#
#
# Indices 1 2 3 4 5 6 
#
# 1 76.4266 9.2403 -21.0587 4.4788 26.0029 5.7800
# 2 9.2403 118.4350 23.4130 9.7132 12.8116 2.6774
# 3 -21.0587 23.4130 76.7480 7.7422 25.6845 -7.4618
# 4 4.4788 9.7132 7.7422 38.0424 11.3014 12.9060
# 5 26.0029 12.8116 25.6845 11.3014 52.8957 -0.4339
# 6 5.7800 2.6774 -7.4618 12.9060 -0.4339 31.4734
#
#
#
# Elastic Compliance Matrix: (Units=1/GPa)
#
#
# Indices 1 2 3 4 5 6 
#
# 1 0.022446 -0.002409 0.012186 0.000985 -0.016592 -0.001661
# 2 -0.002409 0.009401 -0.003801 -0.001434 0.001053 -0.000656
# 3 0.012186 -0.003801 0.023504 -0.001915 -0.016039 0.004222
# 4 0.000985 -0.001434 -0.001915 0.033772 -0.006541 -0.014452
# 5 -0.016592 0.001053 -0.016039 -0.006541 0.036011 0.002334
# 6 -0.001661 -0.000656 0.004222 -0.014452 0.002334 0.039093
#
#
# Mechanical properties :
#
#
# Convention : Reuss Voigt Hill
#
# Bulk Modulus (GPa) = 14.85789 32.75543 23.80666
# Shear Modulus (GPa) = 28.61893 41.81663 35.21778
#
# Velocity S-wave (km/s) = 3.56596 4.31046 3.95576
# Velocity P-wave (km/s) = 4.85349 6.27116 5.60731
#
# Compressibility (1/GPa) = 0.06730430
#
# Stress axis : x y z
#
# Youngs Moduli (GPa) = 44.55069 106.37005 42.54623
#
# Poissons Ratio (x) = 0.25620 -0.51845
# Poissons Ratio (y) = 0.10731 0.16170
# Poissons Ratio (z) = -0.54288 0.40426
#
# Static dielectric constant tensor:
#      x y z
#    x 1.933350 -0.074250 -0.114700 
#    y -0.074250 1.943390 0.008580 
#    z -0.114700 0.008580 1.810820 
# 
# From -- ./inp_files/418997.got.cif
#   From: 2010.05.17/outbox.ucp.g08.bks.cvg/sg2_210_cif.got.tgz:418997.got - 2010.06.11 11:32:03.
