data_PCOD9075572
_publ_section_title
;
Structure prediction by ZEFSAII (Michael W. Deem and Ramdas Pophale) SiO2 
 PCOD9075572
Probable space group: P -1
;
_chemical_formula_sum "Si O2"
_cell_formula_units_Z 16
_cell_length_a 21.000000
_cell_length_b 12.000000
_cell_length_c 18.000000
_cell_angle_alpha 140.000000
_cell_angle_beta 20.000000
_cell_angle_gamma 150.000000
_cell_volume 744.844803
_symmetry_space_group_name_H-M "P -1"
_symmetry_group_IT_number 2
_symmetry_cell_setting 'triclinic'
loop_
_space_group_symop_operation_xyz
x,y,z
-x,-y,-z
loop_
_atom_site_type_symbol
_atom_site_label
_atom_site_fract_x
_atom_site_fract_y
_atom_site_fract_z
Si Si1 0.189634 0.209435 0.530852
Si Si2 0.477674 0.639752 0.155323
Si Si3 0.959183 0.861413 0.842609
Si Si4 0.750787 0.478924 0.999789
Si Si5 0.199806 0.308342 0.736021
Si Si6 0.109660 0.607173 0.048577
Si Si7 0.909192 0.253981 0.615751
Si Si8 0.640247 0.097314 0.674184
O O1 0.479745 0.383892 0.275518
O O2 0.141235 0.171379 0.653454
O O3 0.107473 0.966805 0.466274
O O4 0.054412 0.316109 0.720363
O O5 0.478242 0.814241 0.194639
O O6 0.205235 0.472554 0.406908
O O7 0.500000 0.500000 0.000000
O O8 0.703999 0.747237 0.019105
O O9 0.161390 0.868823 0.581114
O O10 0.881012 0.706356 0.922338
O O11 0.103993 0.135104 0.821917
O O12 0.896823 0.505092 0.925468
O O13 0.753626 0.296342 0.857513
O O14 0.500000 0.500000 0.500000
O O15 0.075519 0.422923 0.933821
O O16 0.396524 0.840463 0.837060
O O17 0.802786 0.230174 0.637894
#
# Coordination Sequence:
#
# PCOD9075572 Si02
#       8
#     2   2   2   2   2   2   2   2
#     4  12  26  47  71 106 135 184 239 277 343 414
#     4  12  23  39  67 103 137 181 232 282 330 404
#     4  12  25  44  70 105 137 178 230 282 346 408
#     4  12  27  45  67 104 153 178 219 282 357 416
#     4  12  22  51  77  97 131 182 239 292 334 398
#     4  12  27  46  74 100 135 186 236 288 339 403
#     4  12  23  44  67 104 147 184 220 282 347 414
#     4  12  22  44  68 100 138 180 237 278 331 406
#
# _framework density 21.480985
#
# number of rings (size 3 to 8) (size 9 to 14) (size 15 to 20)
#    0.000    0.000    7.500    3.375    1.750    1.000 
#    0.000    0.625    0.000    0.000    0.000    0.000 
#    0.000    0.000    0.000    0.000    0.000    0.000 
#
# Total GULP energy -89267.801854 kJ/mol
# GULP energy per Si atom -5579.237616 kJ/mol
# Density = 2.143209 g / cm^3
# Si number density = 21.480985 Si / 1000 Ang^3
#
#
#
# Elastic Constant Matrix: (Units=GPa)
#
#
# Indices 1 2 3 4 5 6 
#
# 1 69.9021 40.0392 33.5787 13.4883 1.7463 -39.4339
# 2 40.0392 117.3615 44.2272 18.6006 2.3762 -31.6377
# 3 33.5787 44.2272 160.3595 28.2029 -1.2473 -15.2012
# 4 13.4883 18.6006 28.2029 48.3921 -5.9234 -2.0605
# 5 1.7463 2.3762 -1.2473 -5.9234 40.6594 8.0945
# 6 -39.4339 -31.6377 -15.2012 -2.0605 8.0945 38.4741
#
#
#
# Elastic Compliance Matrix: (Units=1/GPa)
#
#
# Indices 1 2 3 4 5 6 
#
# 1 0.044043 0.000620 -0.003296 -0.010177 -0.012767 0.046491
# 2 0.000620 0.012636 -0.001937 -0.003874 -0.003539 0.010798
# 3 -0.003296 -0.001937 0.007769 -0.002895 0.000502 -0.002163
# 4 -0.010177 -0.003874 -0.002895 0.026957 0.007466 -0.014887
# 5 -0.012767 -0.003539 0.000502 0.007466 0.030808 -0.021879
# 6 0.046491 0.010798 -0.002163 -0.014887 -0.021879 0.085473
#
#
# Mechanical properties :
#
#
# Convention : Reuss Voigt Hill
#
# Bulk Modulus (GPa) = 18.10898 64.81258 41.46078
# Shear Modulus (GPa) = 21.24781 40.82365 31.03573
#
# Velocity S-wave (km/s) = 3.14848 4.36415 3.80518
# Velocity P-wave (km/s) = 4.65465 7.45869 6.21682
#
# Compressibility (1/GPa) = 0.05522123
#
# Stress axis : x y z
#
# Youngs Moduli (GPa) = 22.70497 79.14176 128.72492
#
# Poissons Ratio (x) = -0.04910 0.42428
# Poissons Ratio (y) = -0.01409 0.24940
# Poissons Ratio (z) = 0.07484 0.15333
#
# Static dielectric constant tensor:
#      x y z
#    x 1.823600 0.017090 0.003020 
#    y 0.017090 1.881350 0.012060 
#    z 0.003020 0.012060 1.749340 
# 
# From -- ./inp_files/462104.got.cif
#   From: 2010.05.17/outbox.ucp.g08.bks.cvg/sg2_232_cif.got.tgz:462104.got - 2010.06.11 11:32:03.
