data_PCOD9075650
_publ_section_title
;
Structure prediction by ZEFSAII (Michael W. Deem and Ramdas Pophale) SiO2 
 PCOD9075650
Probable space group: P -1
;
_chemical_formula_sum "Si O2"
_cell_formula_units_Z 16
_cell_length_a 12.000000
_cell_length_b 9.000000
_cell_length_c 21.000000
_cell_angle_alpha 50.000000
_cell_angle_beta 30.000000
_cell_angle_gamma 40.000000
_cell_volume 727.418465
_symmetry_space_group_name_H-M "P -1"
_symmetry_group_IT_number 2
_symmetry_cell_setting 'triclinic'
loop_
_space_group_symop_operation_xyz
x,y,z
-x,-y,-z
loop_
_atom_site_type_symbol
_atom_site_label
_atom_site_fract_x
_atom_site_fract_y
_atom_site_fract_z
Si Si1 0.783185 0.220380 0.696796
Si Si2 0.645311 0.665354 0.788505
Si Si3 0.187074 0.464046 0.756051
Si Si4 0.865216 0.172886 0.816306
Si Si5 0.112176 0.753692 0.979715
Si Si6 0.392528 0.127160 0.119505
Si Si7 0.223136 0.993315 0.437334
Si Si8 0.279496 0.672028 0.780060
O O1 0.865901 0.207597 0.731547
O O2 0.590024 0.482250 0.693731
O O3 0.602547 0.108969 0.816500
O O4 0.057161 0.068822 0.564010
O O5 0.835606 0.405025 0.794478
O O6 0.421262 0.637668 0.875361
O O7 0.536346 0.830598 0.857670
O O8 0.737858 0.799219 0.660874
O O9 0.488352 0.259652 0.637487
O O10 0.224244 0.579916 0.768231
O O11 0.926505 0.679629 0.788454
O O12 0.053601 0.330064 0.880882
O O13 0.616467 0.139230 0.963789
O O14 0.146989 0.945451 0.759144
O O15 0.118113 0.697090 0.917715
O O16 0.000000 0.000000 0.000000
O O17 0.000000 0.000000 0.500000
#
# Coordination Sequence:
#
# PCOD9075650 Si02
#       8
#     2   2   2   2   2   2   2   2
#     4  12  26  50  70 104 149 199 248 299 356 444
#     4  12  25  47  72 109 153 191 237 314 372 434
#     4  12  25  44  77 111 144 199 247 303 371 438
#     4  12  27  44  72 114 147 186 245 310 377 426
#     4  12  25  43  72 115 148 190 243 305 383 435
#     4  12  25  45  77 111 151 186 247 316 370 438
#     4  12  26  49  76 100 148 207 252 293 364 447
#     4  12  26  44  76 107 150 195 242 304 370 439
#
# _framework density 21.995591999999998
#
# number of rings (size 3 to 8) (size 9 to 14) (size 15 to 20)
#    0.000    0.000    7.500    1.875    5.250    1.000 
#    2.250    0.625    0.000    0.000    0.000    0.000 
#    0.000    0.000    0.000    0.000    0.000    0.000 
#
# Total GULP energy -89199.028100 kJ/mol
# GULP energy per Si atom -5574.939256 kJ/mol
# Density = 2.194553 g / cm^3
# Si number density = 21.995592 Si / 1000 Ang^3
#
#
#
# Elastic Constant Matrix: (Units=GPa)
#
#
# Indices 1 2 3 4 5 6 
#
# 1 51.8040 -15.9994 12.3263 6.5264 8.2432 -9.5860
# 2 -15.9994 122.2295 13.9606 13.9023 -1.2511 -12.9400
# 3 12.3263 13.9606 95.5138 22.0297 13.9026 -5.0725
# 4 6.5264 13.9023 22.0297 30.3506 4.7140 -1.4789
# 5 8.2432 -1.2511 13.9026 4.7140 27.3056 7.6304
# 6 -9.5860 -12.9400 -5.0725 -1.4789 7.6304 35.6599
#
#
#
# Elastic Compliance Matrix: (Units=1/GPa)
#
#
# Indices 1 2 3 4 5 6 
#
# 1 0.024933 0.004921 -0.000965 -0.005071 -0.008732 0.010009
# 2 0.004921 0.009939 -0.000532 -0.004780 -0.001314 0.004937
# 3 -0.000965 -0.000532 0.013587 -0.008382 -0.005871 0.002389
# 4 -0.005071 -0.004780 -0.008382 0.042370 -0.001092 -0.002299
# 5 -0.008732 -0.001314 -0.005871 -0.001092 0.046172 -0.013584
# 6 0.010009 0.004937 0.002389 -0.002299 -0.013584 0.035676
#
#
# Mechanical properties :
#
#
# Convention : Reuss Voigt Hill
#
# Bulk Modulus (GPa) = 18.08072 32.23583 25.15828
# Shear Modulus (GPa) = 27.13486 35.94720 31.54103
#
# Velocity S-wave (km/s) = 3.51615 4.04702 3.79089
# Velocity P-wave (km/s) = 4.97216 6.04361 5.53388
#
# Compressibility (1/GPa) = 0.05530752
#
# Stress axis : x y z
#
# Youngs Moduli (GPa) = 40.10703 100.61300 73.60103
#
# Poissons Ratio (x) = -0.49511 0.07101
# Poissons Ratio (y) = -0.19736 0.03915
# Poissons Ratio (z) = 0.03870 0.05352
#
# Static dielectric constant tensor:
#      x y z
#    x 1.986010 0.046010 -0.060340 
#    y 0.046010 2.051650 -0.039100 
#    z -0.060340 -0.039100 1.887030 
# 
# From -- ./inp_files/403444.got.cif
#   From: 2010.05.17/outbox.ucp.g08.bks.cvg/sg2_202_cif.got.tgz:403444.got - 2010.06.11 11:32:03.
