data_PCOD9075091
_publ_section_title
;
Structure prediction by ZEFSAII (Michael W. Deem and Ramdas Pophale) SiO2 
 PCOD9075091
Probable space group: P -1
;
_chemical_formula_sum "Si O2"
_cell_formula_units_Z 16
_cell_length_a 9.000000
_cell_length_b 12.000000
_cell_length_c 15.000000
_cell_angle_alpha 60.000000
_cell_angle_beta 60.000000
_cell_angle_gamma 110.000000
_cell_volume 745.925389
_symmetry_space_group_name_H-M "P -1"
_symmetry_group_IT_number 2
_symmetry_cell_setting 'triclinic'
loop_
_space_group_symop_operation_xyz
x,y,z
-x,-y,-z
loop_
_atom_site_type_symbol
_atom_site_label
_atom_site_fract_x
_atom_site_fract_y
_atom_site_fract_z
Si Si1 0.098557 0.286271 0.361360
Si Si2 0.947862 0.077137 0.782375
Si Si3 0.616212 0.406381 0.151496
Si Si4 0.265668 0.908932 0.983369
Si Si5 0.496109 0.917918 0.623718
Si Si6 0.366792 0.681387 0.018557
Si Si7 0.882795 0.106944 0.156073
Si Si8 0.930953 0.308577 0.590224
O O1 0.327157 0.310065 0.294260
O O2 0.225623 0.472914 0.186633
O O3 0.011748 0.304752 0.470811
O O4 0.810996 0.065993 0.494312
O O5 0.074971 0.283633 0.619225
O O6 0.822882 0.058602 0.919145
O O7 0.119204 0.044677 0.754308
O O8 0.682782 0.880670 0.879903
O O9 0.667688 0.314907 0.237980
O O10 0.617288 0.334946 0.084729
O O11 0.849260 0.655699 0.983342
O O12 0.114686 0.882470 0.955087
O O13 0.600536 0.110129 0.789955
O O14 0.210958 0.722152 0.076053
O O15 0.370839 0.949315 0.716653
O O16 0.500000 0.000000 0.500000
O O17 0.000000 0.500000 0.500000
#
# Coordination Sequence:
#
# PCOD9075091 Si02
#       8
#     2   2   2   2   2   2   2   2
#     4  12  24  43  68 103 133 175 227 285 336 392
#     4  11  24  43  71  99 129 182 234 273 330 410
#     4  12  26  45  69 100 135 186 229 268 335 414
#     4  11  23  45  69  96 135 181 228 275 337 403
#     4  12  27  42  66 101 145 173 215 284 350 392
#     4  11  22  44  72  98 129 179 237 272 324 414
#     4  12  25  46  67 100 141 177 225 275 336 416
#     4  11  23  44  70  98 137 171 230 283 340 393
#
# _framework density 21.449866
#
# number of rings (size 3 to 8) (size 9 to 14) (size 15 to 20)
#    0.000    0.500    3.750    6.000    5.250    0.000 
#    0.000    0.625    0.000    0.000    0.000    0.000 
#    0.000    0.000    0.000    0.000    0.000    0.000 
#
# Total GULP energy -89396.207412 kJ/mol
# GULP energy per Si atom -5587.262963 kJ/mol
# Density = 2.140105 g / cm^3
# Si number density = 21.449866 Si / 1000 Ang^3
#
#
#
# Elastic Constant Matrix: (Units=GPa)
#
#
# Indices 1 2 3 4 5 6 
#
# 1 111.7245 32.7604 12.9610 -11.1459 19.6521 -34.2160
# 2 32.7604 90.2197 20.4911 -5.0515 15.6295 -18.8093
# 3 12.9610 20.4911 49.8122 0.8878 13.2570 -12.8249
# 4 -11.1459 -5.0515 0.8878 25.8897 -6.8177 10.6198
# 5 19.6521 15.6295 13.2570 -6.8177 38.1176 -5.6503
# 6 -34.2160 -18.8093 -12.8249 10.6198 -5.6503 49.7199
#
#
#
# Elastic Compliance Matrix: (Units=1/GPa)
#
#
# Indices 1 2 3 4 5 6 
#
# 1 0.012704 -0.002421 0.000797 0.000740 -0.004612 0.007350
# 2 -0.002421 0.013759 -0.003726 0.000130 -0.002742 0.002238
# 3 0.000797 -0.003726 0.025100 -0.005730 -0.007755 0.005956
# 4 0.000740 0.000130 -0.005730 0.045295 0.008228 -0.009659
# 5 -0.004612 -0.002742 -0.007755 0.008228 0.033285 -0.004187
# 6 0.007350 0.002238 0.005956 -0.009659 -0.004187 0.029141
#
#
# Mechanical properties :
#
#
# Convention : Reuss Voigt Hill
#
# Bulk Modulus (GPa) = 24.47219 42.68681 33.57950
# Shear Modulus (GPa) = 27.23238 35.11503 31.17371
#
# Velocity S-wave (km/s) = 3.56699 4.05047 3.81639
# Velocity P-wave (km/s) = 5.32901 6.46676 5.92525
#
# Compressibility (1/GPa) = 0.04086271
#
# Stress axis : x y z
#
# Youngs Moduli (GPa) = 78.71386 72.68231 39.84037
#
# Poissons Ratio (x) = 0.17599 -0.03176
# Poissons Ratio (y) = 0.19059 0.14844
# Poissons Ratio (z) = -0.06275 0.27081
#
# Static dielectric constant tensor:
#      x y z
#    x 1.799560 0.045320 0.045730 
#    y 0.045320 1.744250 -0.017930 
#    z 0.045730 -0.017930 1.821280 
# 
# From -- ./inp_files/274067.got.cif
#   From: 2010.05.17/outbox.ucp.g08.bks.cvg/sg2_138_cif.got.tgz:274067.got - 2010.06.11 11:32:03.
