data_PCOD9075913
_publ_section_title
;
Structure prediction by ZEFSAII (Michael W. Deem and Ramdas Pophale) SiO2 
 PCOD9075913
Probable space group: P -1
;
_chemical_formula_sum "Si O2"
_cell_formula_units_Z 16
_cell_length_a 17.538577
_cell_length_b 8.894578
_cell_length_c 9.258816
_cell_angle_alpha 72.665835
_cell_angle_beta 110.484917
_cell_angle_gamma 141.999976
_cell_volume 832.389447
_symmetry_space_group_name_H-M "P -1"
_symmetry_group_IT_number 2
_symmetry_cell_setting 'triclinic'
loop_
_space_group_symop_operation_xyz
x,y,z
-x,-y,-z
loop_
_atom_site_type_symbol
_atom_site_label
_atom_site_fract_x
_atom_site_fract_y
_atom_site_fract_z
Si Si1 0.934620 0.827728 0.647826
Si Si2 0.212370 0.119583 0.399977
Si Si3 0.563430 0.998988 0.736591
Si Si4 0.726598 0.444794 0.401104
Si Si5 0.809759 0.906182 0.259105
Si Si6 0.461773 0.673100 0.311364
Si Si7 0.424634 0.247883 0.945946
Si Si8 0.708714 0.086434 0.538166
O O1 0.896312 0.914574 0.700668
O O2 0.803795 0.573843 0.565554
O O3 0.000000 0.000000 0.500000
O O4 0.043508 0.869455 0.755598
O O5 0.206769 0.095528 0.577942
O O6 0.344370 0.392493 0.361359
O O7 0.199527 0.925683 0.385607
O O8 0.425221 0.775370 0.632941
O O9 0.663728 0.086390 0.661678
O O10 0.574343 0.195889 0.736784
O O11 0.570461 0.896280 0.907826
O O12 0.766468 0.658822 0.276131
O O13 0.756134 0.308330 0.414395
O O14 0.715822 0.891254 0.130652
O O15 0.509700 0.696188 0.178304
O O16 0.582825 0.834649 0.449309
O O17 0.500000 0.500000 0.000000
#
# Coordination Sequence:
#
# PCOD9075913 Si02
#       8
#     2   2   2   2   2   2   2   2
#     4   8  17  33  55  76 106 143 179 226 263 312
#     4  10  18  32  57  80 102 138 185 223 262 310
#     4  11  21  34  53  84 116 143 170 220 281 323
#     4   9  17  32  52  79 106 136 178 219 267 305
#     4  10  19  37  53  79 109 148 180 217 270 317
#     4  11  22  35  55  80 115 143 177 225 271 321
#     4  12  23  35  55  80 115 145 178 218 269 335
#     4  11  19  31  57  84 112 136 181 230 263 319
#
# _framework density 19.221771
#
# number of rings (size 3 to 8) (size 9 to 14) (size 15 to 20)
#    0.000    2.000    2.500    6.000    0.000    0.000 
#    0.000    5.625    0.000    6.000    0.000    0.000 
#    0.000    0.000    0.000    0.000    0.000    0.000 
#
# Total GULP energy -89112.150689 kJ/mol
# GULP energy per Si atom -5569.509418 kJ/mol
# Density = 1.917802 g / cm^3
# Si number density = 19.221771 Si / 1000 Ang^3
#
#
#
# Elastic Constant Matrix: (Units=GPa)
#
#
# Indices 1 2 3 4 5 6 
#
# 1 160.1343 45.6871 51.7069 3.7846 14.9255 -12.1310
# 2 45.6871 42.4150 10.8107 -4.8729 9.1119 -13.9084
# 3 51.7069 10.8107 54.6311 -0.5059 6.5957 1.2399
# 4 3.7846 -4.8729 -0.5059 18.6038 -2.7729 6.2095
# 5 14.9255 9.1119 6.5957 -2.7729 30.5382 4.1991
# 6 -12.1310 -13.9084 1.2399 6.2095 4.1991 25.1303
#
#
#
# Elastic Compliance Matrix: (Units=1/GPa)
#
#
# Indices 1 2 3 4 5 6 
#
# 1 0.013337 -0.011202 -0.010297 -0.007177 -0.001996 0.002854
# 2 -0.011202 0.044136 0.002742 0.005978 -0.010376 0.019141
# 3 -0.010297 0.002742 0.027751 0.005546 -0.000434 -0.006120
# 4 -0.007177 0.005978 0.005546 0.064166 0.008794 -0.017754
# 5 -0.001996 -0.010376 -0.000434 0.008794 0.039843 -0.015515
# 6 0.002854 0.019141 -0.006120 -0.017754 -0.015515 0.059045
#
#
# Mechanical properties :
#
#
# Convention : Reuss Voigt Hill
#
# Bulk Modulus (GPa) = 20.95995 52.62107 36.79051
# Shear Modulus (GPa) = 16.57301 24.78617 20.67959
#
# Velocity S-wave (km/s) = 2.93951 3.59483 3.28356
# Velocity P-wave (km/s) = 4.73803 6.68324 5.79286
#
# Compressibility (1/GPa) = 0.04771004
#
# Stress axis : x y z
#
# Youngs Moduli (GPa) = 74.97674 22.65731 36.03527
#
# Poissons Ratio (x) = 0.25380 0.37106
# Poissons Ratio (y) = 0.83987 -0.09880
# Poissons Ratio (z) = 0.77204 -0.06212
#
# Static dielectric constant tensor:
#      x y z
#    x 1.747350 -0.004770 0.030040 
#    y -0.004770 1.728300 0.000410 
#    z 0.030040 0.000410 1.673130 
# 
# From -- ./inp_files/328738.got.cif
#   From: 2010.05.17/outbox.cif.g08.bks.cpg/sg2_165_cif.got.tgz:328738.got - 2010.06.03 11:33:40.
