data_PCOD9075899
_publ_section_title
;
Structure prediction by ZEFSAII (Michael W. Deem and Ramdas Pophale) SiO2 
 PCOD9075899
Probable space group: P -1
;
_chemical_formula_sum "Si O2"
_cell_formula_units_Z 14
_cell_length_a 15.544955
_cell_length_b 21.030448
_cell_length_c 10.413311
_cell_angle_alpha 32.909794
_cell_angle_beta 44.650083
_cell_angle_gamma 23.240322
_cell_volume 700.677050
_symmetry_space_group_name_H-M "P -1"
_symmetry_group_IT_number 2
_symmetry_cell_setting 'triclinic'
loop_
_space_group_symop_operation_xyz
x,y,z
-x,-y,-z
loop_
_atom_site_type_symbol
_atom_site_label
_atom_site_fract_x
_atom_site_fract_y
_atom_site_fract_z
Si Si1 0.438576 0.185573 0.773701
Si Si2 0.068725 0.414650 0.424453
Si Si3 0.461803 0.551851 0.801231
Si Si4 0.929117 0.110784 0.021053
Si Si5 0.802353 0.926340 0.043094
Si Si6 0.142384 0.612295 0.980029
Si Si7 0.766858 0.066291 0.486470
O O1 0.530184 0.186379 0.552088
O O2 0.170459 0.413162 0.684346
O O3 0.500000 0.000000 0.000000
O O4 0.583682 0.108163 0.874776
O O5 0.210276 0.181859 0.675920
O O6 0.000000 0.500000 0.500000
O O7 0.178452 0.446051 0.203865
O O8 0.362223 0.515839 0.905615
O O9 0.270004 0.806594 0.576559
O O10 0.500000 0.500000 0.000000
O O11 0.713468 0.372162 0.787301
O O12 0.835352 0.082594 0.260511
O O13 0.130174 0.017527 0.037836
O O14 0.000000 0.000000 0.000000
O O15 0.017924 0.734684 0.042358
O O16 0.958454 0.816666 0.733550
#
# Coordination Sequence:
#
# PCOD9075899 Si02
#       7
#     2   2   2   2   2   2   2
#     4  11  19  30  55  95 116 146 180 243 301 335
#     4  10  19  31  53  91 125 139 179 237 302 350
#     4  10  19  31  57  85 107 146 191 241 293 332
#     4  11  24  40  55  80 118 162 198 233 287 350
#     4  10  20  34  55  84 119 152 189 238 292 342
#     4  10  18  32  56  92 113 142 181 246 304 335
#     4  10  20  33  60  83 120 138 193 247 290 338
#
# _framework density 19.980672999999999
#
# number of rings (size 3 to 8) (size 9 to 14) (size 15 to 20)
#    0.000    1.714    7.143    1.286    8.000    0.000 
#    0.000    0.714    0.000    4.286    0.000    0.000 
#    0.000    0.000    0.000    0.000    0.000    0.000 
#
# Total GULP energy -78020.738536 kJ/mol
# GULP energy per Si atom -5572.909895 kJ/mol
# Density = 1.993520 g / cm^3
# Si number density = 19.980673 Si / 1000 Ang^3
#
#
#
# Elastic Constant Matrix: (Units=GPa)
#
#
# Indices 1 2 3 4 5 6 
#
# 1 98.0849 35.4538 17.9787 10.0950 -0.1358 -13.0414
# 2 35.4538 36.0760 13.5090 1.4490 1.6603 -0.9309
# 3 17.9787 13.5090 98.2701 16.5566 -11.4918 -0.6945
# 4 10.0950 1.4490 16.5566 21.7750 -17.2370 -0.3570
# 5 -0.1358 1.6603 -11.4918 -17.2370 22.9075 -1.5928
# 6 -13.0414 -0.9309 -0.6945 -0.3570 -1.5928 33.9637
#
#
#
# Elastic Compliance Matrix: (Units=1/GPa)
#
#
# Indices 1 2 3 4 5 6 
#
# 1 0.018790 -0.017433 0.000474 -0.015324 -0.009491 0.006141
# 2 -0.017433 0.046058 -0.004610 0.008856 0.000534 -0.005408
# 3 0.000474 -0.004610 0.012304 -0.010152 -0.001119 0.000148
# 4 -0.015324 0.008856 -0.010152 0.137401 0.097575 0.000171
# 5 -0.009491 0.000534 -0.001119 0.097575 0.116616 0.002842
# 6 0.006141 -0.005408 0.000148 0.000171 0.002842 0.031791
#
#
# Mechanical properties :
#
#
# Convention : Reuss Voigt Hill
#
# Bulk Modulus (GPa) = 29.39964 40.70157 35.05060
# Shear Modulus (GPa) = 11.97791 26.76186 19.36989
#
# Velocity S-wave (km/s) = 2.45107 3.66373 3.11695
# Velocity P-wave (km/s) = 4.77036 6.18967 5.52577
#
# Compressibility (1/GPa) = 0.03401402
#
# Stress axis : x y z
#
# Youngs Moduli (GPa) = 53.21940 21.71175 81.27738
#
# Poissons Ratio (x) = 0.37850 -0.03853
# Poissons Ratio (y) = 0.92777 0.37469
# Poissons Ratio (z) = -0.02523 0.10009
#
# Static dielectric constant tensor:
#      x y z
#    x 1.714620 -0.042030 -0.018490 
#    y -0.042030 1.705410 -0.007720 
#    z -0.018490 -0.007720 1.831130 
# 
# From -- ./inp_files/467319.got.cif
#   From: 2010.05.17/outbox.cif.g08.bks.cpg/sg2_234_cif.got.tgz:467319.got - 2010.06.03 11:33:40.
