data_PCOD9075351
_publ_section_title
;
Structure prediction by ZEFSAII (Michael W. Deem and Ramdas Pophale) SiO2 
 PCOD9075351
Probable space group: P -1
;
_chemical_formula_sum "Si O2"
_cell_formula_units_Z 16
_cell_length_a 11.796184
_cell_length_b 26.805274
_cell_length_c 9.987685
_cell_angle_alpha 149.533493
_cell_angle_beta 49.543180
_cell_angle_gamma 152.300593
_cell_volume 650.981741
_symmetry_space_group_name_H-M "P -1"
_symmetry_group_IT_number 2
_symmetry_cell_setting 'triclinic'
loop_
_space_group_symop_operation_xyz
x,y,z
-x,-y,-z
loop_
_atom_site_type_symbol
_atom_site_label
_atom_site_fract_x
_atom_site_fract_y
_atom_site_fract_z
Si Si1 0.116306 0.287770 0.047354
Si Si2 0.218368 0.672324 0.395781
Si Si3 0.377380 0.640387 0.750534
Si Si4 0.645714 0.468333 0.117696
Si Si5 0.202136 0.386652 0.939793
Si Si6 0.077031 0.793263 0.713248
Si Si7 0.564008 0.279869 0.403874
Si Si8 0.010218 0.042324 0.938606
O O1 0.303200 0.491054 0.400420
O O2 0.328069 0.317937 0.984774
O O3 0.013240 0.235070 0.851415
O O4 0.902842 0.169848 0.059915
O O5 0.363048 0.761094 0.637036
O O6 0.890879 0.477685 0.233601
O O7 0.250753 0.789719 0.556171
O O8 0.315013 0.625972 0.146228
O O9 0.413161 0.726427 0.786830
O O10 0.668137 0.795628 0.968161
O O11 0.765545 0.580677 0.421244
O O12 0.827568 0.626233 0.226896
O O13 0.221703 0.513124 0.250101
O O14 0.500000 0.500000 0.000000
O O15 0.090911 0.901687 0.872668
O O16 0.258613 0.156786 0.383954
O O17 0.000000 0.000000 0.000000
#
# Coordination Sequence:
#
# PCOD9075351 Si02
#       8
#     2   2   2   2   2   2   2   2
#     4   9  17  31  56  85 111 139 198 238 272 316
#     4  10  21  32  55  87 116 143 182 236 293 327
#     4   9  17  33  56  85 109 145 194 240 266 323
#     4  10  18  32  53  88 115 145 178 236 288 331
#     4   8  16  30  54  82 109 146 182 235 274 323
#     4  11  21  34  55  88 112 148 189 240 277 330
#     4   9  18  34  53  84 113 151 189 225 279 342
#     4  10  21  35  57  82 110 152 198 231 270 338
#
# _framework density 24.578258999999999
#
# number of rings (size 3 to 8) (size 9 to 14) (size 15 to 20)
#    0.000    2.500    1.250    1.125    3.500    1.500 
#    0.000    0.000    0.000    9.750   22.750    0.000 
#    0.000    0.000    0.000    0.000    0.000    0.000 
#
# Total GULP energy -89165.830384 kJ/mol
# GULP energy per Si atom -5572.864399 kJ/mol
# Density = 2.452232 g / cm^3
# Si number density = 24.578259 Si / 1000 Ang^3
#
#
#
# Elastic Constant Matrix: (Units=GPa)
#
#
# Indices 1 2 3 4 5 6 
#
# 1 158.2836 21.0313 28.0182 -1.2975 -16.7399 -5.0709
# 2 21.0313 59.9558 16.5661 0.6814 -11.3385 9.1839
# 3 28.0182 16.5661 28.5757 -5.5752 -14.4980 4.7246
# 4 -1.2975 0.6814 -5.5752 30.3082 7.8661 4.3339
# 5 -16.7399 -11.3385 -14.4980 7.8661 40.6511 -5.0082
# 6 -5.0709 9.1839 4.7246 4.3339 -5.0082 44.2817
#
#
#
# Elastic Compliance Matrix: (Units=1/GPa)
#
#
# Indices 1 2 3 4 5 6 
#
# 1 0.007901 -0.000849 -0.007441 -0.001557 0.000927 0.002132
# 2 -0.000849 0.020605 -0.010159 -0.002457 0.001901 -0.002831
# 3 -0.007441 -0.010159 0.056606 0.007728 0.012284 -0.004152
# 4 -0.001557 -0.002457 0.007728 0.036716 -0.006266 -0.004795
# 5 0.000927 0.001901 0.012284 -0.006266 0.031421 0.002568
# 6 0.002132 -0.002831 -0.004152 -0.004795 0.002568 0.024617
#
#
# Mechanical properties :
#
#
# Convention : Reuss Voigt Hill
#
# Bulk Modulus (GPa) = 20.74092 42.00513 31.37303
# Shear Modulus (GPa) = 21.66028 35.12816 28.39422
#
# Velocity S-wave (km/s) = 2.97185 3.78463 3.40260
# Velocity P-wave (km/s) = 4.49810 6.01875 5.31311
#
# Compressibility (1/GPa) = 0.04821387
#
# Stress axis : x y z
#
# Youngs Moduli (GPa) = 126.56130 48.53185 17.66587
#
# Poissons Ratio (x) = 0.04122 0.13145
# Poissons Ratio (y) = 0.10749 0.17947
# Poissons Ratio (z) = 0.94171 0.49306
#
# Static dielectric constant tensor:
#      x y z
#    x 2.044800 -0.070360 -0.020550 
#    y -0.070360 2.059060 0.079580 
#    z -0.020550 0.079580 2.055570 
# 
# From -- ./inp_files/439739.got.cif
#   From: 2010.05.17/outbox.cif.g08.bks.cpg/sg2_220_cif.got.tgz:439739.got - 2010.06.03 11:33:40.
