data_PCOD9075838
_publ_section_title
;
Structure prediction by ZEFSAII (Michael W. Deem and Ramdas Pophale) SiO2 
 PCOD9075838
Probable space group: P -1
;
_chemical_formula_sum "Si O2"
_cell_formula_units_Z 14
_cell_length_a 18.029722
_cell_length_b 8.118363
_cell_length_c 16.943861
_cell_angle_alpha 28.412016
_cell_angle_beta 30.423794
_cell_angle_gamma 36.741124
_cell_volume 588.018314
_symmetry_space_group_name_H-M "P -1"
_symmetry_group_IT_number 2
_symmetry_cell_setting 'triclinic'
loop_
_space_group_symop_operation_xyz
x,y,z
-x,-y,-z
loop_
_atom_site_type_symbol
_atom_site_label
_atom_site_fract_x
_atom_site_fract_y
_atom_site_fract_z
Si Si1 0.932320 0.117007 0.883527
Si Si2 0.303349 0.373388 0.524536
Si Si3 0.817664 0.338218 0.067616
Si Si4 0.075972 0.941701 0.540220
Si Si5 0.531556 0.872393 0.114673
Si Si6 0.166736 0.535899 0.414226
Si Si7 0.308482 0.426233 0.165323
O O1 0.042828 0.300845 0.650137
O O2 0.769413 0.191793 0.959115
O O3 0.048528 0.766465 0.948694
O O4 0.891930 0.306306 0.926035
O O5 0.166072 0.553502 0.628991
O O6 0.441499 0.550402 0.349614
O O7 0.266022 0.516868 0.409532
O O8 0.286084 0.968488 0.708846
O O9 0.703725 0.696519 0.036622
O O10 0.204592 0.173579 0.327826
O O11 0.000000 0.000000 0.500000
O O12 0.943021 0.093615 0.656053
O O13 0.470266 0.213166 0.082043
O O14 0.500000 0.000000 0.000000
O O15 0.268417 0.414833 0.298230
#
# Coordination Sequence:
#
# PCOD9075838 Si02
#       7
#     2   2   2   2   2   2   2
#     4   9  17  31  53  80 107 138 176 217 267 314
#     4   9  19  33  53  82 108 141 179 225 270 317
#     4  10  19  33  54  82 113 138 177 224 271 314
#     4   8  14  26  48  78 104 129 176 216 253 307
#     4  11  21  36  56  82 104 142 190 225 261 323
#     4   9  17  32  55  84 108 142 178 223 271 322
#     4  10  18  32  56  81 109 142 182 220 269 323
#
# _framework density 23.808782000000001
#
# number of rings (size 3 to 8) (size 9 to 14) (size 15 to 20)
#    0.000    2.571    1.429    3.000    0.000    0.000 
#    0.000    3.571    0.000    9.429    0.000    0.000 
#    0.000    0.000    0.000    0.000    0.000    0.000 
#
# Total GULP energy -78011.696811 kJ/mol
# GULP energy per Si atom -5572.264058 kJ/mol
# Density = 2.375459 g / cm^3
# Si number density = 23.808782 Si / 1000 Ang^3
#
#
#
# Elastic Constant Matrix: (Units=GPa)
#
#
# Indices 1 2 3 4 5 6 
#
# 1 38.0657 31.9642 22.4660 8.8473 10.0995 -7.5068
# 2 31.9642 209.0068 39.1138 27.7542 31.5452 -29.6614
# 3 22.4660 39.1138 102.8689 8.7881 -7.6607 -9.2277
# 4 8.8473 27.7542 8.7881 28.3812 8.8364 8.6472
# 5 10.0995 31.5452 -7.6607 8.8364 34.5900 5.9881
# 6 -7.5068 -29.6614 -9.2277 8.6472 5.9881 33.9566
#
#
#
# Elastic Compliance Matrix: (Units=1/GPa)
#
#
# Indices 1 2 3 4 5 6 
#
# 1 0.038277 0.000357 -0.007623 -0.009407 -0.012751 0.011346
# 2 0.000357 0.009406 -0.002483 -0.009302 -0.008855 0.011550
# 3 -0.007623 -0.002483 0.012893 -0.001211 0.007903 -0.001436
# 4 -0.009407 -0.009302 -0.001211 0.054778 0.001245 -0.024704
# 5 -0.012751 -0.008855 0.007903 0.001245 0.045025 -0.016663
# 6 0.011346 0.011550 -0.001436 -0.024704 -0.016663 0.050886
#
#
# Mechanical properties :
#
#
# Convention : Reuss Voigt Hill
#
# Bulk Modulus (GPa) = 24.34441 59.66995 42.00718
# Shear Modulus (GPa) = 20.45349 36.47870 28.46610
#
# Velocity S-wave (km/s) = 2.93418 3.91852 3.46152
# Velocity P-wave (km/s) = 4.66115 6.75201 5.80155
#
# Compressibility (1/GPa) = 0.04107719
#
# Stress axis : x y z
#
# Youngs Moduli (GPa) = 26.12534 106.32038 77.55976
#
# Poissons Ratio (x) = -0.03791 0.59125
# Poissons Ratio (y) = -0.00932 0.19256
# Poissons Ratio (z) = 0.19916 0.26397
#
# Static dielectric constant tensor:
#      x y z
#    x 1.918590 -0.019620 -0.046840 
#    y -0.019620 2.030990 -0.055580 
#    z -0.046840 -0.055580 1.936620 
# 
# From -- ./inp_files/308473.got.cif
#   From: 2010.05.17/outbox.cif.g08.bks.cpg/sg2_155_cif.got.tgz:308473.got - 2010.06.03 11:33:40.
