data_PCOD9075445
_publ_section_title
;
Structure prediction by ZEFSAII (Michael W. Deem and Ramdas Pophale) SiO2 
 PCOD9075445
Probable space group: P -1
;
_chemical_formula_sum "Si O2"
_cell_formula_units_Z 14
_cell_length_a 6.000000
_cell_length_b 15.000000
_cell_length_c 24.000000
_cell_angle_alpha 160.000000
_cell_angle_beta 80.000000
_cell_angle_gamma 90.000000
_cell_volume 636.464036
_symmetry_space_group_name_H-M "P -1"
_symmetry_group_IT_number 2
_symmetry_cell_setting 'triclinic'
loop_
_space_group_symop_operation_xyz
x,y,z
-x,-y,-z
loop_
_atom_site_type_symbol
_atom_site_label
_atom_site_fract_x
_atom_site_fract_y
_atom_site_fract_z
Si Si1 0.309200 0.799492 0.147448
Si Si2 0.801446 0.040842 0.388055
Si Si3 0.889247 0.770461 0.933015
Si Si4 0.235169 0.491110 0.861499
Si Si5 0.737312 0.588587 0.523955
Si Si6 0.253278 0.720290 0.349169
Si Si7 0.740649 0.424842 0.306402
O O1 0.384982 0.055096 0.276209
O O2 0.500000 0.500000 0.000000
O O3 0.266255 0.680820 0.020783
O O4 0.042381 0.960810 0.289845
O O5 0.779578 0.231880 0.555577
O O6 0.524514 0.260314 0.501007
O O7 0.834335 0.735617 0.235152
O O8 0.045828 0.696253 0.941148
O O9 0.085519 0.622718 0.784612
O O10 0.728086 0.598237 0.847690
O O11 0.721544 0.119976 0.131780
O O12 0.502008 0.291528 0.699245
O O13 0.500000 0.500000 0.500000
O O14 0.849451 0.433925 0.368230
O O15 0.000000 0.500000 0.500000
O O16 0.000000 0.000000 0.500000
#
# Coordination Sequence:
#
# PCOD9075445 Si02
#       7
#     2   2   2   2   2   2   2
#     4  12  28  48  77 114 152 203 263 329 393 466
#     4  12  24  48  76 110 155 201 257 326 393 468
#     4  11  25  45  72 109 148 196 253 319 385 469
#     4  12  25  46  75 108 148 197 257 314 391 464
#     4  12  28  52  81 111 160 213 265 322 403 481
#     4  12  23  42  74 106 147 193 257 309 386 456
#     4  11  25  47  73 108 152 198 259 319 394 461
#
# _framework density 21.99653
#
# number of rings (size 3 to 8) (size 9 to 14) (size 15 to 20)
#    0.000    0.286    2.857    6.000    2.000    1.714 
#    2.571    0.000    0.000    0.000    0.000    0.000 
#    0.000    0.000    0.000    0.000    0.000    0.000 
#
# Total GULP energy -78167.921262 kJ/mol
# GULP energy per Si atom -5583.422947 kJ/mol
# Density = 2.194646 g / cm^3
# Si number density = 21.996530 Si / 1000 Ang^3
#
#
#
# Elastic Constant Matrix: (Units=GPa)
#
#
# Indices 1 2 3 4 5 6 
#
# 1 67.9720 47.0637 19.6402 -0.9015 8.6915 2.2409
# 2 47.0637 156.7168 39.3808 -5.3693 9.5494 -8.8077
# 3 19.6402 39.3808 76.5548 -1.7841 14.9982 7.9421
# 4 -0.9015 -5.3693 -1.7841 66.0558 4.2370 15.2362
# 5 8.6915 9.5494 14.9982 4.2370 48.1396 0.4644
# 6 2.2409 -8.8077 7.9421 15.2362 0.4644 53.4229
#
#
#
# Elastic Compliance Matrix: (Units=1/GPa)
#
#
# Indices 1 2 3 4 5 6 
#
# 1 0.019152 -0.005294 -0.001658 0.000250 -0.001899 -0.001485
# 2 -0.005294 0.008969 -0.003534 0.000034 0.000253 0.002214
# 3 -0.001658 -0.003534 0.016496 0.001157 -0.004209 -0.003259
# 4 0.000250 0.000034 0.001157 0.016409 -0.001810 -0.004841
# 5 -0.001899 0.000253 -0.004209 -0.001810 0.022526 0.001068
# 6 -0.001485 0.002214 -0.003259 -0.004841 0.001068 0.021002
#
#
# Mechanical properties :
#
#
# Convention : Reuss Voigt Hill
#
# Bulk Modulus (GPa) = 42.29457 57.04591 49.67024
# Shear Modulus (GPa) = 37.47934 46.53425 42.00680
#
# Velocity S-wave (km/s) = 4.13228 4.60448 4.37475
# Velocity P-wave (km/s) = 6.48361 7.36604 6.93887
#
# Compressibility (1/GPa) = 0.02364370
#
# Stress axis : x y z
#
# Youngs Moduli (GPa) = 52.21486 111.49498 60.62178
#
# Poissons Ratio (x) = 0.59024 0.10053
# Poissons Ratio (y) = 0.27642 0.21425
# Poissons Ratio (z) = 0.08659 0.39404
#
# Static dielectric constant tensor:
#      x y z
#    x 2.051320 -0.156820 0.063030 
#    y -0.156820 1.882280 -0.001200 
#    z 0.063030 -0.001200 1.834380 
# 
# From -- ./inp_files/604774.got.cif
#   From: 2010.05.17/outbox.ucp.g08.bks.cvg/sg2_303_cif.got.tgz:604774.got - 2010.06.11 11:32:03.
