data_PCOD9075559
_publ_section_title
;
Structure prediction by ZEFSAII (Michael W. Deem and Ramdas Pophale) SiO2 
 PCOD9075559
Probable space group: P -1
;
_chemical_formula_sum "Si O2"
_cell_formula_units_Z 14
_cell_length_a 12.000000
_cell_length_b 15.000000
_cell_length_c 9.000000
_cell_angle_alpha 130.000000
_cell_angle_beta 60.000000
_cell_angle_gamma 150.000000
_cell_volume 613.666794
_symmetry_space_group_name_H-M "P -1"
_symmetry_group_IT_number 2
_symmetry_cell_setting 'triclinic'
loop_
_space_group_symop_operation_xyz
x,y,z
-x,-y,-z
loop_
_atom_site_type_symbol
_atom_site_label
_atom_site_fract_x
_atom_site_fract_y
_atom_site_fract_z
Si Si1 0.519107 0.877364 0.850658
Si Si2 0.894316 0.188842 0.559480
Si Si3 0.354872 0.563431 0.122552
Si Si4 0.251000 0.689732 0.110177
Si Si5 0.835881 0.474979 0.508101
Si Si6 0.996751 0.849950 0.243894
Si Si7 0.132398 0.070521 0.832806
O O1 0.392791 0.744333 0.644228
O O2 0.772718 0.027308 0.842441
O O3 0.404942 0.752337 0.945142
O O4 0.500000 0.000000 0.000000
O O5 0.715984 0.150132 0.699344
O O6 0.988970 0.186674 0.634507
O O7 0.050026 0.385507 0.563949
O O8 0.834591 0.043184 0.329842
O O9 0.302825 0.651276 0.178193
O O10 0.242722 0.489611 0.280380
O O11 0.606281 0.702301 0.096681
O O12 0.214631 0.374570 0.913597
O O13 0.000000 0.500000 0.000000
O O14 0.000000 0.500000 0.500000
O O15 0.972052 0.952845 0.276568
O O16 0.000000 0.000000 0.000000
#
# Coordination Sequence:
#
# PCOD9075559 Si02
#       7
#     2   2   2   2   2   2   2
#     4  12  23  40  72 104 144 188 235 294 358 433
#     4  12  25  46  72 103 144 186 237 289 359 433
#     4  12  25  46  75 103 146 185 238 307 359 416
#     4  12  21  44  71 108 143 183 231 297 368 426
#     4  12  24  42  70 114 146 181 230 297 369 420
#     4  12  25  49  72 102 146 195 243 285 353 439
#     4  12  29  51  71 103 143 195 245 298 352 420
#
# _framework density 22.813683000000001
#
# number of rings (size 3 to 8) (size 9 to 14) (size 15 to 20)
#    0.000    0.000    5.714    4.286    0.000    1.714 
#    0.000    2.143    0.000    0.000    0.000    0.000 
#    0.000    0.000    0.000    0.000    0.000    0.000 
#
# Total GULP energy -77999.294439 kJ/mol
# GULP energy per Si atom -5571.378174 kJ/mol
# Density = 2.276176 g / cm^3
# Si number density = 22.813683 Si / 1000 Ang^3
#
#
#
# Elastic Constant Matrix: (Units=GPa)
#
#
# Indices 1 2 3 4 5 6 
#
# 1 103.2811 7.3648 -56.3282 -25.6161 -31.5252 -19.2995
# 2 7.3648 70.0918 -73.2252 -52.1673 -22.2936 -13.0661
# 3 -56.3282 -73.2252 -113.4320 -66.9549 -63.9284 -48.9804
# 4 -25.6161 -52.1673 -66.9549 20.1839 -33.8195 -3.5187
# 5 -31.5252 -22.2936 -63.9284 -33.8195 11.4248 -17.8364
# 6 -19.2995 -13.0661 -48.9804 -3.5187 -17.8364 36.2374
#
#
#
# Elastic Compliance Matrix: (Units=1/GPa)
#
#
# Indices 1 2 3 4 5 6 
#
# 1 0.009039 -0.004000 -0.001888 -0.002412 0.001485 0.001316
# 2 -0.004000 0.011777 -0.003951 0.004580 -0.004083 -0.004789
# 3 -0.001888 -0.003951 0.005723 -0.009503 -0.009448 -0.000269
# 4 -0.002412 0.004580 -0.009503 0.022510 -0.001415 -0.010989
# 5 0.001485 -0.004083 -0.009448 -0.001415 0.023257 -0.002142
# 6 0.001316 -0.004789 -0.000269 -0.010989 -0.002142 0.024086
#
#
# Mechanical properties :
#
#
# Convention : Reuss Voigt Hill
#
# Bulk Modulus (GPa) = 145.76626 -20.49292 62.63667
# Shear Modulus (GPa) = 42.24537 25.71120 33.97829
#
# Velocity S-wave (km/s) = 4.30787 3.36074 3.86344
# Velocity P-wave (km/s) = 9.42213 2.46113 6.88599
#
# Compressibility (1/GPa) = 0.00686030
#
# Stress axis : x y z
#
# Youngs Moduli (GPa) = 110.63396 84.90987 174.74015
#
# Poissons Ratio (x) = 0.33962 0.32996
# Poissons Ratio (y) = 0.44251 0.69042
# Poissons Ratio (z) = 0.20891 0.33549
#
# Static dielectric constant tensor:
#      x y z
#    x 1.864050 -0.134580 -0.061860 
#    y -0.134580 2.093230 0.126300 
#    z -0.061860 0.126300 2.060410 
# 
# From -- ./inp_files/271422.got.cif
#   From: 2010.05.17/outbox.ucp.g08.bks.cvg/sg2_136_cif.got.tgz:271422.got - 2010.06.11 11:32:03.
