data_PCOD9075768
_publ_section_title
;
Structure prediction by ZEFSAII (Michael W. Deem and Ramdas Pophale) SiO2 
 PCOD9075768
Probable space group: P -1
;
_chemical_formula_sum "Si O2"
_cell_formula_units_Z 16
_cell_length_a 8.900716
_cell_length_b 8.380013
_cell_length_c 17.495900
_cell_angle_alpha 93.092798
_cell_angle_beta 37.679947
_cell_angle_gamma 98.607155
_cell_volume 784.185973
_symmetry_space_group_name_H-M "P -1"
_symmetry_group_IT_number 2
_symmetry_cell_setting 'triclinic'
loop_
_space_group_symop_operation_xyz
x,y,z
-x,-y,-z
loop_
_atom_site_type_symbol
_atom_site_label
_atom_site_fract_x
_atom_site_fract_y
_atom_site_fract_z
Si Si1 0.352785 0.744052 0.043169
Si Si2 0.582961 0.534091 0.661904
Si Si3 0.904625 0.272807 0.578608
Si Si4 0.733820 0.405494 0.076995
Si Si5 0.713445 0.559353 0.834914
Si Si6 0.114181 0.793317 0.590802
Si Si7 0.401120 0.346257 0.588494
Si Si8 0.088839 0.891834 0.272442
O O1 0.232641 0.579802 0.134468
O O2 0.295897 0.886111 0.123799
O O3 0.247923 0.732383 0.997832
O O4 0.634036 0.709972 0.917593
O O5 0.804071 0.645171 0.529114
O O6 0.435886 0.635876 0.780129
O O7 0.396730 0.423306 0.676699
O O8 0.732129 0.409553 0.642159
O O9 0.825067 0.162254 0.680743
O O10 0.895208 0.191205 0.496738
O O11 0.548022 0.503071 0.106568
O O12 0.000000 0.500000 0.000000
O O13 0.932383 0.632328 0.691348
O O14 0.390877 0.769238 0.499126
O O15 0.012985 0.942554 0.672048
O O16 0.500000 0.500000 0.500000
O O17 0.144460 0.241894 0.663293
#
# Coordination Sequence:
#
# PCOD9075768 Si02
#       8
#     2   2   2   2   2   2   2   2
#     4   9  20  35  58  79 106 144 194 227 271 320
#     4  10  19  34  60  84 109 141 191 236 274 317
#     4  10  20  35  57  83 110 148 185 228 277 333
#     4  10  18  32  55  82 109 132 183 242 273 308
#     4   9  19  37  55  79 108 140 195 228 268 322
#     4  11  23  38  55  82 120 149 181 225 283 350
#     4  11  22  36  58  87 112 144 187 231 278 325
#     4  12  22  36  56  85 117 150 181 227 287 334
#
# _framework density 20.403324999999999
#
# number of rings (size 3 to 8) (size 9 to 14) (size 15 to 20)
#    0.750    1.000    2.500    3.000    1.750    0.500 
#    0.000    0.000    0.000    0.000    0.000    4.375 
#    0.000    0.000    0.000    0.000    0.000    0.000 
#
# Total GULP energy -89124.541914 kJ/mol
# GULP energy per Si atom -5570.283870 kJ/mol
# Density = 2.035689 g / cm^3
# Si number density = 20.403325 Si / 1000 Ang^3
#
#
#
# Elastic Constant Matrix: (Units=GPa)
#
#
# Indices 1 2 3 4 5 6 
#
# 1 55.3964 9.2665 42.6079 2.3419 11.0513 -2.4845
# 2 9.2665 47.0828 24.7540 19.6069 15.4915 -1.1806
# 3 42.6079 24.7540 120.1664 22.4335 22.0065 1.5816
# 4 2.3419 19.6069 22.4335 39.1444 9.0585 2.9372
# 5 11.0513 15.4915 22.0065 9.0585 34.4908 3.2889
# 6 -2.4845 -1.1806 1.5816 2.9372 3.2889 14.6652
#
#
#
# Elastic Compliance Matrix: (Units=1/GPa)
#
#
# Indices 1 2 3 4 5 6 
#
# 1 0.026189 -0.000798 -0.009372 0.004683 -0.003788 0.005295
# 2 -0.000798 0.031164 -0.002077 -0.012655 -0.009791 0.007328
# 3 -0.009372 -0.002077 0.013692 -0.005387 -0.003250 -0.001424
# 4 0.004683 -0.012655 -0.005387 0.035426 -0.001064 -0.006501
# 5 -0.003788 -0.009791 -0.003250 -0.001064 0.037849 -0.009355
# 6 0.005295 0.007328 -0.001424 -0.006501 -0.009355 0.073229
#
#
# Mechanical properties :
#
#
# Convention : Reuss Voigt Hill
#
# Bulk Modulus (GPa) = 21.48219 41.76692 31.62455
# Shear Modulus (GPa) = 19.41289 27.39457 23.40373
#
# Velocity S-wave (km/s) = 3.08792 3.66820 3.39049
# Velocity P-wave (km/s) = 4.82341 6.20129 5.55523
#
# Compressibility (1/GPa) = 0.04655018
#
# Stress axis : x y z
#
# Youngs Moduli (GPa) = 38.18460 32.08840 73.03421
#
# Poissons Ratio (x) = 0.02561 0.68445
# Poissons Ratio (y) = 0.03048 0.15173
# Poissons Ratio (z) = 0.35785 0.06666
#
# Static dielectric constant tensor:
#      x y z
#    x 1.746710 0.031510 0.048660 
#    y 0.031510 1.727580 0.036080 
#    z 0.048660 0.036080 1.791410 
# 
# From -- ./inp_files/352943.got.cif
#   From: 2010.05.17/outbox.cif.g08.bks.cpg/sg2_177_cif.got.tgz:352943.got - 2010.06.03 11:33:40.
