data_PCOD9075582
_publ_section_title
;
Structure prediction by ZEFSAII (Michael W. Deem and Ramdas Pophale) SiO2 
 PCOD9075582
Probable space group: P -1
;
_chemical_formula_sum "Si O2"
_cell_formula_units_Z 16
_cell_length_a 9.000000
_cell_length_b 15.000000
_cell_length_c 12.000000
_cell_angle_alpha 150.000000
_cell_angle_beta 70.000000
_cell_angle_gamma 110.000000
_cell_volume 757.522634
_symmetry_space_group_name_H-M "P -1"
_symmetry_group_IT_number 2
_symmetry_cell_setting 'triclinic'
loop_
_space_group_symop_operation_xyz
x,y,z
-x,-y,-z
loop_
_atom_site_type_symbol
_atom_site_label
_atom_site_fract_x
_atom_site_fract_y
_atom_site_fract_z
Si Si1 0.998495 0.553134 0.425500
Si Si2 0.859755 0.799156 0.084538
Si Si3 0.554915 0.711449 0.210824
Si Si4 0.163265 0.950267 0.835474
Si Si5 0.476655 0.106998 0.342715
Si Si6 0.247336 0.380536 0.622782
Si Si7 0.021894 0.865913 0.449759
Si Si8 0.674783 0.235276 0.867545
O O1 0.834087 0.587043 0.440943
O O2 0.000000 0.500000 0.500000
O O3 0.105055 0.744348 0.589813
O O4 0.059676 0.381425 0.159504
O O5 0.737241 0.752410 0.167547
O O6 0.798656 0.876859 0.068366
O O7 0.958900 0.985839 0.296695
O O8 0.511921 0.797547 0.433097
O O9 0.465489 0.787372 0.211137
O O10 0.500000 0.500000 0.000000
O O11 0.351029 0.923678 0.788061
O O12 0.000000 0.000000 0.000000
O O13 0.382286 0.242397 0.439446
O O14 0.365328 0.923002 0.202595
O O15 0.112258 0.284647 0.637135
O O16 0.309788 0.572257 0.867642
O O17 0.173432 0.776786 0.265839
O O18 0.000000 0.000000 0.500000
#
# Coordination Sequence:
#
# PCOD9075582 Si02
#       8
#     2   2   2   2   2   2   2   2
#     4  12  28  49  78 102 139 200 265 315 366 435
#     4  12  24  45  75 106 147 197 251 298 366 451
#     4  12  23  41  71 112 154 195 234 296 371 461
#     4  12  26  51  80 102 138 196 263 312 364 441
#     4  12  25  47  73 111 153 192 242 306 376 449
#     4  12  27  44  71 109 154 194 245 311 375 437
#     4  12  23  41  67 107 155 195 231 289 374 459
#     4  12  24  41  68 111 160 192 237 290 373 457
#
# _framework density 21.121480999999999
#
# number of rings (size 3 to 8) (size 9 to 14) (size 15 to 20)
#    0.000    0.000    7.500    3.000    1.750    0.000 
#    0.000    1.250    0.000    0.000    0.000    0.000 
#    0.000    0.000    0.000    0.000    0.000    0.000 
#
# Total GULP energy -89198.755212 kJ/mol
# GULP energy per Si atom -5574.922201 kJ/mol
# Density = 2.107341 g / cm^3
# Si number density = 21.121481 Si / 1000 Ang^3
#
#
#
# Elastic Constant Matrix: (Units=GPa)
#
#
# Indices 1 2 3 4 5 6 
#
# 1 111.4684 28.7520 34.3847 -0.3278 -23.4926 -11.4665
# 2 28.7520 87.0864 22.5695 13.0120 -4.4789 -4.7755
# 3 34.3847 22.5695 92.2841 29.1351 -18.0300 5.4591
# 4 -0.3278 13.0120 29.1351 50.6195 5.3569 -0.8357
# 5 -23.4926 -4.4789 -18.0300 5.3569 36.9714 3.9028
# 6 -11.4665 -4.7755 5.4591 -0.8357 3.9028 50.2131
#
#
#
# Elastic Compliance Matrix: (Units=1/GPa)
#
#
# Indices 1 2 3 4 5 6 
#
# 1 0.012243 -0.003043 -0.003833 0.002593 0.004893 0.002586
# 2 -0.003043 0.013251 -0.001537 -0.002444 -0.000803 0.000754
# 3 -0.003833 -0.001537 0.017851 -0.010818 0.008049 -0.003768
# 4 0.002593 -0.002444 -0.010818 0.027537 -0.008192 0.002631
# 5 0.004893 -0.000803 0.008049 -0.008192 0.035460 -0.002726
# 6 0.002586 0.000754 -0.003768 0.002631 -0.002726 0.021243
#
#
# Mechanical properties :
#
#
# Convention : Reuss Voigt Hill
#
# Bulk Modulus (GPa) = 37.70796 51.36125 44.53460
# Shear Modulus (GPa) = 32.62625 41.23630 36.93128
#
# Velocity S-wave (km/s) = 3.93452 4.42332 4.18606
# Velocity P-wave (km/s) = 6.20744 7.10335 6.67045
#
# Compressibility (1/GPa) = 0.02651960
#
# Stress axis : x y z
#
# Youngs Moduli (GPa) = 81.67743 75.46633 56.01890
#
# Poissons Ratio (x) = 0.22962 0.21473
# Poissons Ratio (y) = 0.24852 0.08610
# Poissons Ratio (z) = 0.31308 0.11600
#
# Static dielectric constant tensor:
#      x y z
#    x 2.025140 0.124570 -0.177150 
#    y 0.124570 2.313490 -0.576470 
#    z -0.177150 -0.576470 2.302830 
# 
# From -- ./inp_files/399961.got.cif
#   From: 2010.05.17/outbox.ucp.g08.bks.cvg/sg2_200_cif.got.tgz:399961.got - 2010.06.11 11:32:03.
