data_PCOD9075385
_publ_section_title
;
Structure prediction by ZEFSAII (Michael W. Deem and Ramdas Pophale) SiO2 
 PCOD9075385
Probable space group: P -1
;
_chemical_formula_sum "Si O2"
_cell_formula_units_Z 16
_cell_length_a 9.000000
_cell_length_b 24.000000
_cell_length_c 21.000000
_cell_angle_alpha 160.000000
_cell_angle_beta 150.000000
_cell_angle_gamma 30.000000
_cell_volume 738.640068
_symmetry_space_group_name_H-M "P -1"
_symmetry_group_IT_number 2
_symmetry_cell_setting 'triclinic'
loop_
_space_group_symop_operation_xyz
x,y,z
-x,-y,-z
loop_
_atom_site_type_symbol
_atom_site_label
_atom_site_fract_x
_atom_site_fract_y
_atom_site_fract_z
Si Si1 0.187558 0.556232 0.571961
Si Si2 0.936768 0.113485 0.664121
Si Si3 0.178331 0.352382 0.215575
Si Si4 0.105966 0.842475 0.758831
Si Si5 0.724728 0.183757 0.926857
Si Si6 0.281765 0.413401 0.106604
Si Si7 0.216274 0.302586 0.626764
Si Si8 0.844247 0.797827 0.356460
O O1 0.223085 0.442368 0.397257
O O2 0.022112 0.746461 0.686148
O O3 0.516851 0.555755 0.725030
O O4 0.000000 0.500000 0.500000
O O5 0.578147 0.236266 0.667994
O O6 0.984559 0.957401 0.566644
O O7 0.000000 0.000000 0.500000
O O8 0.132894 0.253760 0.890035
O O9 0.517422 0.237856 0.193204
O O10 0.964766 0.497054 0.242874
O O11 0.977518 0.228770 0.025346
O O12 0.975566 0.784492 0.583496
O O13 0.919124 0.043166 0.899494
O O14 0.466843 0.147726 0.745049
O O15 0.528429 0.346311 0.069379
O O16 0.051311 0.602201 0.204734
O O17 0.213330 0.236745 0.627567
#
# Coordination Sequence:
#
# PCOD9075385 Si02
#       8
#     2   2   2   2   2   2   2   2
#     4  11  24  47  74  99 140 190 237 297 355 423
#     4  12  26  45  74 109 147 188 234 300 360 427
#     4  11  24  46  75 100 141 194 238 297 359 422
#     4  11  24  46  70 105 145 184 243 296 361 423
#     4  12  25  44  71 106 148 185 239 303 356 427
#     4  12  26  47  72 112 139 191 244 288 367 431
#     4  11  24  48  72 105 146 188 240 297 355 433
#     4  12  26  47  76 105 150 190 238 296 365 426
#
# _framework density 21.661429999999999
#
# number of rings (size 3 to 8) (size 9 to 14) (size 15 to 20)
#    0.000    0.500    3.750    4.875    1.750    4.500 
#    4.500    0.000    0.000    0.000    0.000    0.000 
#    0.000    0.000    0.000    0.000    0.000    0.000 
#
# Total GULP energy -89351.319814 kJ/mol
# GULP energy per Si atom -5584.457488 kJ/mol
# Density = 2.161213 g / cm^3
# Si number density = 21.661430 Si / 1000 Ang^3
#
#
#
# Elastic Constant Matrix: (Units=GPa)
#
#
# Indices 1 2 3 4 5 6 
#
# 1 126.5570 56.5932 10.3401 4.7512 14.6202 5.4367
# 2 56.5932 171.0292 34.6898 20.5435 14.3196 8.4955
# 3 10.3401 34.6898 81.9598 3.6219 25.7213 -2.3343
# 4 4.7512 20.5435 3.6219 42.3124 4.6504 0.0102
# 5 14.6202 14.3196 25.7213 4.6504 35.8138 3.2140
# 6 5.4367 8.4955 -2.3343 0.0102 3.2140 49.2354
#
#
#
# Elastic Compliance Matrix: (Units=1/GPa)
#
#
# Indices 1 2 3 4 5 6 
#
# 1 0.009639 -0.003221 0.001243 0.000773 -0.003621 -0.000213
# 2 -0.003221 0.007929 -0.003131 -0.003323 0.000934 -0.001221
# 3 0.001243 -0.003131 0.017098 0.001221 -0.011872 0.001988
# 4 0.000773 -0.003323 0.001221 0.025410 -0.003231 0.000752
# 5 -0.003621 0.000934 -0.011872 -0.003231 0.038226 -0.002819
# 6 -0.000213 -0.001221 0.001988 0.000752 -0.002819 0.020823
#
#
# Mechanical properties :
#
#
# Convention : Reuss Voigt Hill
#
# Bulk Modulus (GPa) = 40.90048 64.75469 52.82758
# Shear Modulus (GPa) = 36.36579 44.00050 40.18314
#
# Velocity S-wave (km/s) = 4.10179 4.51187 4.31171
# Velocity P-wave (km/s) = 6.43084 7.55655 7.01631
#
# Compressibility (1/GPa) = 0.02444959
#
# Stress axis : x y z
#
# Youngs Moduli (GPa) = 103.74866 126.11537 58.48658
#
# Poissons Ratio (x) = 0.40618 -0.07272
# Poissons Ratio (y) = 0.33414 0.18311
# Poissons Ratio (z) = -0.12899 0.39484
#
# Static dielectric constant tensor:
#      x y z
#    x 1.829760 -0.015480 0.003870 
#    y -0.015480 1.791130 0.024440 
#    z 0.003870 0.024440 1.861990 
# 
# From -- ./inp_files/592003.got.cif
#   From: 2010.05.17/outbox.ucp.g08.bks.cvg/sg2_297_cif.got.tgz:592003.got - 2010.06.11 11:32:03.
