data_PCOD9075656
_publ_section_title
;
Structure prediction by ZEFSAII (Michael W. Deem and Ramdas Pophale) SiO2 
 PCOD9075656
Probable space group: P -1
;
_chemical_formula_sum "Si O2"
_cell_formula_units_Z 15
_cell_length_a 12.000000
_cell_length_b 6.000000
_cell_length_c 15.000000
_cell_angle_alpha 90.000000
_cell_angle_beta 130.000000
_cell_angle_gamma 120.000000
_cell_volume 626.794717
_symmetry_space_group_name_H-M "P -1"
_symmetry_group_IT_number 2
_symmetry_cell_setting 'triclinic'
loop_
_space_group_symop_operation_xyz
x,y,z
-x,-y,-z
loop_
_atom_site_type_symbol
_atom_site_label
_atom_site_fract_x
_atom_site_fract_y
_atom_site_fract_z
Si Si1 0.167536 0.162695 0.257428
Si Si2 0.640155 0.692932 0.204551
Si Si3 0.550969 0.991075 0.904093
Si Si4 0.539384 0.180465 0.608115
Si Si5 0.000000 0.000000 0.500000
Si Si6 0.879433 0.189115 0.192075
Si Si7 0.815490 0.185841 0.873167
Si Si8 0.122136 0.804693 0.409465
O O1 0.374541 0.488845 0.363240
O O2 0.008859 0.196115 0.186112
O O3 0.138435 0.998567 0.151937
O O4 0.146854 0.983386 0.333576
O O5 0.556912 0.360986 0.137430
O O6 0.766309 0.795294 0.358466
O O7 0.528883 0.830752 0.150935
O O8 0.786472 0.900543 0.201048
O O9 0.668718 0.036056 0.878040
O O10 0.708538 0.164840 0.064069
O O11 0.704430 0.216306 0.742910
O O12 0.500000 0.000000 0.500000
O O13 0.336627 0.968886 0.552320
O O14 0.010660 0.816458 0.429628
O O15 0.013718 0.472410 0.324014
O O16 0.000000 0.500000 0.000000
#
# Coordination Sequence:
#
# PCOD9075656 Si02
#       8
#     2   2   2   2   1   2   2   2
#     4  12  25  47  80 110 158 211 261 333 403 480
#     4  12  29  53  81 117 159 214 266 340 402 484
#     4  12  30  51  83 119 162 211 271 333 404 486
#     4  12  25  46  76 115 156 209 267 329 405 487
#     4  12  28  50  82 112 158 204 272 330 406 470
#     4  12  27  51  80 112 161 207 271 327 410 483
#     4  12  29  49  78 117 161 209 269 335 403 480
#     4  12  26  48  76 115 155 205 267 330 402 485
#
# _framework density 23.931280000000001
#
# number of rings (size 3 to 8) (size 9 to 14) (size 15 to 20)
#    0.000    0.000    4.000    4.400    7.467    4.267 
#    0.000    0.000    0.000    0.000    0.000    0.000 
#    0.000    0.000    0.000    0.000    0.000    0.000 
#
# Total GULP energy -83533.723177 kJ/mol
# GULP energy per Si atom -5568.914878 kJ/mol
# Density = 2.387681 g / cm^3
# Si number density = 23.931280 Si / 1000 Ang^3
#
#
#
# Elastic Constant Matrix: (Units=GPa)
#
#
# Indices 1 2 3 4 5 6 
#
# 1 185.2321 56.6705 45.6416 43.1050 -3.1325 -39.0813
# 2 56.6705 126.4218 42.4897 42.0251 0.6271 -5.8952
# 3 45.6416 42.4897 132.8146 32.3688 17.1401 -24.3386
# 4 43.1050 42.0251 32.3688 31.8054 -10.9927 0.7687
# 5 -3.1325 0.6271 17.1401 -10.9927 42.2253 -1.4482
# 6 -39.0813 -5.8952 -24.3386 0.7687 -1.4482 37.1406
#
#
#
# Elastic Compliance Matrix: (Units=1/GPa)
#
#
# Indices 1 2 3 4 5 6 
#
# 1 0.017617 0.005880 0.010639 -0.048213 -0.014729 0.026866
# 2 0.005880 0.018654 0.007692 -0.045766 -0.014378 0.014575
# 3 0.010639 0.007692 0.023292 -0.056775 -0.022601 0.027973
# 4 -0.048213 -0.045766 -0.056775 0.245264 0.080668 -0.097133
# 5 -0.014729 -0.014378 -0.022601 0.080668 0.051872 -0.032238
# 6 0.026866 0.014575 0.027973 -0.097133 -0.032238 0.076593
#
#
# Mechanical properties :
#
#
# Convention : Reuss Voigt Hill
#
# Bulk Modulus (GPa) = 9.26053 81.56356 45.41205
# Shear Modulus (GPa) = 11.88030 42.21204 27.04617
#
# Velocity S-wave (km/s) = 2.23050 4.20442 3.36543
# Velocity P-wave (km/s) = 3.24215 7.59776 5.84112
#
# Compressibility (1/GPa) = 0.10798522
#
# Stress axis : x y z
#
# Youngs Moduli (GPa) = 56.76299 53.60891 42.93324
#
# Poissons Ratio (x) = -0.31522 -0.45677
# Poissons Ratio (y) = -0.33376 -0.33025
# Poissons Ratio (z) = -0.60391 -0.41237
#
# Static dielectric constant tensor:
#      x y z
#    x 1.903260 0.061630 0.026980 
#    y 0.061630 1.984550 -0.068260 
#    z 0.026980 -0.068260 1.986240 
# 
# From -- ./inp_files/511053.got.cif
#   From: 2010.05.17/outbox.ucp.g08.bks.cvg/sg2_256_cif.got.tgz:511053.got - 2010.06.11 11:32:03.
