data_PCOD9075762
_publ_section_title
;
Structure prediction by ZEFSAII (Michael W. Deem and Ramdas Pophale) SiO2 
 PCOD9075762
Probable space group: P -1
;
_chemical_formula_sum "Si O2"
_cell_formula_units_Z 16
_cell_length_a 17.886366
_cell_length_b 15.822323
_cell_length_c 27.286498
_cell_angle_alpha 16.930172
_cell_angle_beta 161.136272
_cell_angle_gamma 154.924673
_cell_volume 727.051982
_symmetry_space_group_name_H-M "P -1"
_symmetry_group_IT_number 2
_symmetry_cell_setting 'triclinic'
loop_
_space_group_symop_operation_xyz
x,y,z
-x,-y,-z
loop_
_atom_site_type_symbol
_atom_site_label
_atom_site_fract_x
_atom_site_fract_y
_atom_site_fract_z
Si Si1 0.659900 0.066375 0.231266
Si Si2 0.148240 0.779948 0.332536
Si Si3 0.550973 0.558828 0.763172
Si Si4 0.607879 0.730840 0.476876
Si Si5 0.662162 0.515823 0.474491
Si Si6 0.075086 0.413777 0.943681
Si Si7 0.780963 0.286797 0.973163
Si Si8 0.782763 0.768047 0.192349
O O1 0.664328 0.004696 0.325963
O O2 0.748717 0.784799 0.412221
O O3 0.793637 0.353151 0.138044
O O4 0.397754 0.088853 0.037055
O O5 0.411857 0.768357 0.524203
O O6 0.158610 0.576590 0.404440
O O7 0.987542 0.670743 0.338004
O O8 0.058984 0.097054 0.085739
O O9 0.647401 0.284161 0.944204
O O10 0.373279 0.465643 0.746760
O O11 0.776472 0.664752 0.872523
O O12 0.500000 0.500000 0.500000
O O13 0.423895 0.743581 0.399326
O O14 0.842748 0.574842 0.725803
O O15 0.425332 0.603077 0.251142
O O16 0.000000 0.500000 0.000000
O O17 0.857269 0.992447 0.156909
#
# Coordination Sequence:
#
# PCOD9075762 Si02
#       8
#     2   2   2   2   2   2   2   2
#     4   9  20  39  60  81 107 144 191 233 270 322
#     4  11  21  36  54  83 118 148 177 223 280 331
#     4  10  21  35  54  81 114 149 183 223 271 330
#     4  10  19  38  62  82 106 145 188 232 275 325
#     4   9  20  36  55  81 112 145 185 226 273 330
#     4  11  21  36  59  85 110 143 185 229 277 330
#     4  10  18  32  55  81 109 146 189 226 266 324
#     4  10  20  36  55  80 112 150 187 224 272 328
#
# _framework density 22.006681
#
# number of rings (size 3 to 8) (size 9 to 14) (size 15 to 20)
#    0.000    2.000    0.000    5.250    0.000    2.000 
#    0.000    8.750    0.000    0.000    0.000    0.000 
#    0.000    0.000    0.000    0.000    0.000    0.000 
#
# Total GULP energy -89199.789169 kJ/mol
# GULP energy per Si atom -5574.986823 kJ/mol
# Density = 2.195659 g / cm^3
# Si number density = 22.006681 Si / 1000 Ang^3
#
#
#
# Elastic Constant Matrix: (Units=GPa)
#
#
# Indices 1 2 3 4 5 6 
#
# 1 118.9252 -1.9821 28.4064 -10.4793 24.5128 2.7365
# 2 -1.9821 29.6347 1.0385 1.0335 4.8194 9.3750
# 3 28.4064 1.0385 61.5530 -1.8092 8.3856 3.0368
# 4 -10.4793 1.0335 -1.8092 23.4896 4.1295 -0.4331
# 5 24.5128 4.8194 8.3856 4.1295 30.6199 -1.5548
# 6 2.7365 9.3750 3.0368 -0.4331 -1.5548 24.9487
#
#
#
# Elastic Compliance Matrix: (Units=1/GPa)
#
#
# Indices 1 2 3 4 5 6 
#
# 1 0.012157 0.003187 -0.003952 0.006723 -0.010189 -0.002568
# 2 0.003187 0.040670 0.000029 0.001081 -0.009930 -0.016236
# 3 -0.003952 0.000029 0.018435 -0.000032 -0.001984 -0.001946
# 4 0.006723 0.001081 -0.000032 0.047615 -0.012019 -0.001062
# 5 -0.010189 -0.009930 -0.001984 -0.012019 0.044933 0.007682
# 6 -0.002568 -0.016236 -0.001946 -0.001062 0.007682 0.047162
#
#
# Mechanical properties :
#
#
# Convention : Reuss Voigt Hill
#
# Bulk Modulus (GPa) = 14.32890 29.44873 21.88882
# Shear Modulus (GPa) = 21.21278 27.98833 24.60056
#
# Velocity S-wave (km/s) = 3.10808 3.57011 3.34708
# Velocity P-wave (km/s) = 4.40517 5.51408 4.99052
#
# Compressibility (1/GPa) = 0.06978901
#
# Stress axis : x y z
#
# Youngs Moduli (GPa) = 82.25470 24.58831 54.24521
#
# Poissons Ratio (x) = -0.07835 0.21437
# Poissons Ratio (y) = -0.26211 -0.00157
# Poissons Ratio (z) = 0.32506 -0.00071
#
# Static dielectric constant tensor:
#      x y z
#    x 1.854730 0.015240 -0.016590 
#    y 0.015240 1.840540 -0.009590 
#    z -0.016590 -0.009590 1.887530 
# 
# From -- ./inp_files/355581.got.cif
#   From: 2010.05.17/outbox.cif.g08.bks.cpg/sg2_178_cif.got.tgz:355581.got - 2010.06.03 11:33:40.
