data_PCOD9075071
_publ_section_title
;
Structure prediction by ZEFSAII (Michael W. Deem and Ramdas Pophale) SiO2 
 PCOD9075071
Probable space group: P -1
;
_chemical_formula_sum "Si O2"
_cell_formula_units_Z 16
_cell_length_a 15.000000
_cell_length_b 15.000000
_cell_length_c 15.000000
_cell_angle_alpha 140.000000
_cell_angle_beta 140.000000
_cell_angle_gamma 20.000000
_cell_volume 725.414092
_symmetry_space_group_name_H-M "P -1"
_symmetry_group_IT_number 2
_symmetry_cell_setting 'triclinic'
loop_
_space_group_symop_operation_xyz
x,y,z
-x,-y,-z
loop_
_atom_site_type_symbol
_atom_site_label
_atom_site_fract_x
_atom_site_fract_y
_atom_site_fract_z
Si Si1 0.963502 0.755286 0.907605
Si Si2 0.556272 0.398828 0.326634
Si Si3 0.165865 0.261886 0.012634
Si Si4 0.619539 0.183323 0.698381
Si Si5 0.354475 0.933545 0.751240
Si Si6 0.467063 0.642529 0.921841
Si Si7 0.164321 0.987185 0.465686
Si Si8 0.955299 0.390694 0.334870
O O1 0.925001 0.707896 0.935624
O O2 0.924802 0.704421 0.747133
O O3 0.277755 0.512273 0.954348
O O4 0.792296 0.046922 0.006333
O O5 0.537304 0.310630 0.327443
O O6 0.514740 0.351818 0.166215
O O7 0.323222 0.709776 0.394011
O O8 0.847658 0.223107 0.401686
O O9 0.430506 0.126714 0.130952
O O10 0.000000 0.500000 0.000000
O O11 0.189518 0.108815 0.848782
O O12 0.535762 0.419228 0.814318
O O13 0.696393 0.085627 0.577351
O O14 0.360120 0.354295 0.686450
O O15 0.880030 0.886277 0.714826
O O16 0.213841 0.044291 0.632521
O O17 0.000000 0.500000 0.500000
#
# Coordination Sequence:
#
# PCOD9075071 Si02
#       8
#     2   2   2   2   2   2   2   2
#     4  12  26  46  75 101 141 192 232 294 362 398
#     4  11  22  43  68 106 141 178 226 287 352 405
#     4  11  27  44  68 100 142 192 233 290 336 422
#     4  11  25  47  72 107 139 182 236 292 355 403
#     4  11  25  42  66 101 139 185 237 277 343 424
#     4  11  23  45  77 104 141 180 236 299 347 425
#     4  11  25  41  74 102 139 183 223 292 347 410
#     4  12  28  48  72 104 143 186 233 289 347 434
#
# _framework density 22.056367999999999
#
# number of rings (size 3 to 8) (size 9 to 14) (size 15 to 20)
#    0.000    0.750    1.250    6.375    7.000    4.000 
#    0.000    0.000    0.000    0.000    0.000    0.000 
#    0.000    0.000    0.000    0.000    0.000    0.000 
#
# Total GULP energy -89128.321421 kJ/mol
# GULP energy per Si atom -5570.520089 kJ/mol
# Density = 2.200617 g / cm^3
# Si number density = 22.056368 Si / 1000 Ang^3
#
#
#
# Elastic Constant Matrix: (Units=GPa)
#
#
# Indices 1 2 3 4 5 6 
#
# 1 76.8170 -6.0461 24.0108 8.3786 -25.4022 -7.1553
# 2 -6.0461 108.0217 2.7789 0.6343 3.4435 5.3914
# 3 24.0108 2.7789 100.9138 6.1435 -32.5409 3.8939
# 4 8.3786 0.6343 6.1435 17.8185 -2.3079 7.3711
# 5 -25.4022 3.4435 -32.5409 -2.3079 32.1048 -2.2176
# 6 -7.1553 5.3914 3.8939 7.3711 -2.2176 29.6166
#
#
#
# Elastic Compliance Matrix: (Units=1/GPa)
#
#
# Indices 1 2 3 4 5 6 
#
# 1 0.020380 0.000205 0.000925 -0.011395 0.016834 0.008861
# 2 0.000205 0.009435 -0.000843 0.000362 -0.001801 -0.001782
# 3 0.000925 -0.000843 0.015020 -0.003751 0.015813 0.000520
# 4 -0.011395 0.000362 -0.003751 0.070021 -0.009235 -0.020444
# 5 0.016834 -0.001801 0.015813 -0.009235 0.060657 0.009156
# 6 0.008861 -0.001782 0.000520 -0.020444 0.009156 0.041936
#
#
# Mechanical properties :
#
#
# Convention : Reuss Voigt Hill
#
# Bulk Modulus (GPa) = 22.02172 36.35996 29.19084
# Shear Modulus (GPa) = 21.55096 33.57525 27.56311
#
# Velocity S-wave (km/s) = 3.12923 3.90583 3.53890
# Velocity P-wave (km/s) = 4.80230 6.07137 5.47374
#
# Compressibility (1/GPa) = 0.04540972
#
# Stress axis : x y z
#
# Youngs Moduli (GPa) = 49.06820 105.99080 66.57919
#
# Poissons Ratio (x) = -0.02172 -0.06161
# Poissons Ratio (y) = -0.01005 0.05610
# Poissons Ratio (z) = -0.04541 0.08931
#
# Static dielectric constant tensor:
#      x y z
#    x 1.844500 0.027040 0.031830 
#    y 0.027040 1.868800 -0.007600 
#    z 0.031830 -0.007600 1.876570 
# 
# From -- ./inp_files/534306.got.cif
#   From: 2010.05.17/outbox.ucp.g08.bks.cvg/sg2_268_cif.got.tgz:534306.got - 2010.06.11 11:32:03.
