data_PCOD9075397
_publ_section_title
;
Structure prediction by ZEFSAII (Michael W. Deem and Ramdas Pophale) SiO2 
 PCOD9075397
Probable space group: P -1
;
_chemical_formula_sum "Si O2"
_cell_formula_units_Z 14
_cell_length_a 30.000000
_cell_length_b 24.000000
_cell_length_c 15.000000
_cell_angle_alpha 160.000000
_cell_angle_beta 20.000000
_cell_angle_gamma 170.000000
_cell_volume 622.618477
_symmetry_space_group_name_H-M "P -1"
_symmetry_group_IT_number 2
_symmetry_cell_setting 'triclinic'
loop_
_space_group_symop_operation_xyz
x,y,z
-x,-y,-z
loop_
_atom_site_type_symbol
_atom_site_label
_atom_site_fract_x
_atom_site_fract_y
_atom_site_fract_z
Si Si1 0.995813 0.154503 0.803330
Si Si2 0.711049 0.328342 0.478681
Si Si3 0.615552 0.134565 0.884406
Si Si4 0.883331 0.832045 0.209175
Si Si5 0.480330 0.737650 0.087690
Si Si6 0.123451 0.793121 0.256372
Si Si7 0.378870 0.177401 0.732778
O O1 0.108983 0.213187 0.771602
O O2 0.000000 0.000000 0.500000
O O3 0.121251 0.466991 0.009292
O O4 0.690989 0.873811 0.957978
O O5 0.721030 0.412310 0.685306
O O6 0.520783 0.226532 0.617548
O O7 0.994996 0.646440 0.375803
O O8 0.596268 0.021095 0.244048
O O9 0.611996 0.953135 0.563736
O O10 0.500000 0.000000 0.000000
O O11 0.424213 0.063712 0.092937
O O12 0.934226 0.083997 0.484113
O O13 0.618454 0.501239 0.156867
O O14 0.081819 0.914427 0.914205
O O15 0.000000 0.500000 0.000000
O O16 0.500000 0.500000 0.000000
#
# Coordination Sequence:
#
# PCOD9075397 Si02
#       7
#     2   2   2   2   2   2   2
#     4  12  29  49  76 111 155 195 253 320 376 452
#     4  11  24  46  73 104 149 189 246 311 372 435
#     4  12  29  47  77 112 154 204 251 308 390 446
#     4  12  28  47  78 110 147 200 256 305 387 441
#     4  11  27  47  75 109 147 190 250 316 368 449
#     4  12  26  48  73 105 148 198 245 308 370 451
#     4  12  25  48  77 112 155 199 254 317 367 456
#
# _framework density 22.485679999999999
#
# number of rings (size 3 to 8) (size 9 to 14) (size 15 to 20)
#    0.000    0.286    4.286    2.571   12.000    4.000 
#    0.000    0.000    0.000    0.000    0.000    0.000 
#    0.000    0.000    0.000    0.000    0.000    0.000 
#
# Total GULP energy -77972.541868 kJ/mol
# GULP energy per Si atom -5569.467276 kJ/mol
# Density = 2.243450 g / cm^3
# Si number density = 22.485680 Si / 1000 Ang^3
#
#
#
# Elastic Constant Matrix: (Units=GPa)
#
#
# Indices 1 2 3 4 5 6 
#
# 1 116.0694 39.9331 55.3396 24.9249 13.0007 -10.5485
# 2 39.9331 64.6877 42.7328 8.5649 12.0221 1.7356
# 3 55.3396 42.7328 200.5207 18.7587 7.7836 -13.6086
# 4 24.9249 8.5649 18.7587 50.4600 7.3881 -6.7573
# 5 13.0007 12.0221 7.7836 7.3881 50.3076 3.1165
# 6 -10.5485 1.7356 -13.6086 -6.7573 3.1165 35.8253
#
#
#
# Elastic Compliance Matrix: (Units=1/GPa)
#
#
# Indices 1 2 3 4 5 6 
#
# 1 0.012752 -0.006134 -0.001594 -0.004126 -0.001149 0.002768
# 2 -0.006134 0.021933 -0.003157 0.000421 -0.002999 -0.003728
# 3 -0.001594 -0.003157 0.006296 -0.000789 0.000190 0.001910
# 4 -0.004126 0.000421 -0.000789 0.022837 -0.002451 0.002985
# 5 -0.001149 -0.002999 0.000190 -0.002451 0.021373 -0.002442
# 6 0.002768 -0.003728 0.001910 0.002985 -0.002442 0.030410
#
#
# Mechanical properties :
#
#
# Convention : Reuss Voigt Hill
#
# Bulk Modulus (GPa) = 52.05306 73.03209 62.54258
# Shear Modulus (GPa) = 34.77710 43.53674 39.15692
#
# Velocity S-wave (km/s) = 3.93699 4.40500 4.17755
# Velocity P-wave (km/s) = 6.62316 7.64342 7.15151
#
# Compressibility (1/GPa) = 0.01921117
#
# Stress axis : x y z
#
# Youngs Moduli (GPa) = 78.41912 45.59412 158.83732
#
# Poissons Ratio (x) = 0.27966 0.25313
# Poissons Ratio (y) = 0.48101 0.50148
# Poissons Ratio (z) = 0.12497 0.14395
#
# Static dielectric constant tensor:
#      x y z
#    x 1.856930 0.100660 0.048420 
#    y 0.100660 2.143360 -0.005600 
#    z 0.048420 -0.005600 1.911730 
# 
# From -- ./inp_files/545154.got.cif
#   From: 2010.05.17/outbox.ucp.g08.bks.cvg/sg2_273_cif.got.tgz:545154.got - 2010.06.11 11:32:03.
