data_PCOD9075866
_publ_section_title
;
Structure prediction by ZEFSAII (Michael W. Deem and Ramdas Pophale) SiO2 
 PCOD9075866
Probable space group: P -1
;
_chemical_formula_sum "Si O2"
_cell_formula_units_Z 16
_cell_length_a 15.375010
_cell_length_b 11.792685
_cell_length_c 12.414619
_cell_angle_alpha 36.452292
_cell_angle_beta 36.451624
_cell_angle_gamma 62.915919
_cell_volume 667.250195
_symmetry_space_group_name_H-M "P -1"
_symmetry_group_IT_number 2
_symmetry_cell_setting 'triclinic'
loop_
_space_group_symop_operation_xyz
x,y,z
-x,-y,-z
loop_
_atom_site_type_symbol
_atom_site_label
_atom_site_fract_x
_atom_site_fract_y
_atom_site_fract_z
Si Si1 0.639734 0.169322 0.590522
Si Si2 0.371902 0.319455 0.566540
Si Si3 0.364518 0.203756 0.986824
Si Si4 0.130528 0.460583 0.328306
Si Si5 0.140959 0.525985 0.685531
Si Si6 0.835899 0.088582 0.762666
Si Si7 0.754747 0.202329 0.227563
Si Si8 0.204370 0.171792 0.624020
O O1 0.499004 0.196072 0.775254
O O2 0.815369 0.373808 0.314859
O O3 0.628498 0.173519 0.470941
O O4 0.638264 0.945832 0.797517
O O5 0.556142 0.538219 0.254792
O O6 0.238535 0.398048 0.667580
O O7 0.341649 0.270560 0.508631
O O8 0.287460 0.080975 0.892966
O O9 0.187788 0.071809 0.193094
O O10 0.215794 0.375308 0.391253
O O11 0.000000 0.500000 0.500000
O O12 0.019857 0.254118 0.510865
O O13 0.249890 0.680638 0.967450
O O14 0.215493 0.742728 0.365453
O O15 0.944123 0.368505 0.965273
O O16 0.748178 0.975884 0.381558
O O17 0.000000 0.000000 0.000000
#
# Coordination Sequence:
#
# PCOD9075866 Si02
#       8
#     2   2   2   2   2   2   2   2
#     4   9  19  36  56  81 110 149 188 228 276 325
#     4  11  19  34  58  82 110 147 187 225 274 331
#     4   9  20  37  58  79 108 151 195 225 266 331
#     4  11  20  34  57  88 114 145 184 225 281 333
#     4   9  18  32  54  82 113 140 177 230 282 338
#     4  10  18  32  56  85 107 140 189 225 271 333
#     4  11  20  34  57  83 117 144 178 234 283 326
#     4  12  20  35  56  87 114 144 183 224 280 336
#
# _framework density 23.979009999999999
#
# number of rings (size 3 to 8) (size 9 to 14) (size 15 to 20)
#    0.000    1.750    3.750    2.250    0.000    0.000 
#    0.000    6.875    0.000   18.750    0.000    0.000 
#    0.000    0.000    0.000    0.000    0.000    0.000 
#
# Total GULP energy -89423.108430 kJ/mol
# GULP energy per Si atom -5588.944277 kJ/mol
# Density = 2.392443 g / cm^3
# Si number density = 23.979010 Si / 1000 Ang^3
#
#
#
# Elastic Constant Matrix: (Units=GPa)
#
#
# Indices 1 2 3 4 5 6 
#
# 1 63.7936 22.4203 10.9902 1.6945 24.6049 15.3638
# 2 22.4203 103.1967 54.8351 -4.9200 26.0497 10.3114
# 3 10.9902 54.8351 46.4173 -6.0142 19.1838 -0.5087
# 4 1.6945 -4.9200 -6.0142 28.4193 10.7716 2.8694
# 5 24.6049 26.0497 19.1838 10.7716 44.5476 2.7546
# 6 15.3638 10.3114 -0.5087 2.8694 2.7546 31.8783
#
#
#
# Elastic Compliance Matrix: (Units=1/GPa)
#
#
# Indices 1 2 3 4 5 6 
#
# 1 0.023360 -0.002031 0.003059 0.005069 -0.013650 -0.009829
# 2 -0.002031 0.029145 -0.033946 -0.000921 -0.000532 -0.008861
# 3 0.003059 -0.033946 0.069197 0.013389 -0.015540 0.010748
# 4 0.005069 -0.000921 0.013389 0.045072 -0.018655 -0.004376
# 5 -0.013650 -0.000532 -0.015540 -0.018655 0.041215 0.004620
# 6 -0.009829 -0.008861 0.010748 -0.004376 0.004620 0.039139
#
#
# Mechanical properties :
#
#
# Convention : Reuss Voigt Hill
#
# Bulk Modulus (GPa) = 17.90039 43.32210 30.61125
# Shear Modulus (GPa) = 15.07906 29.31317 22.19611
#
# Velocity S-wave (km/s) = 2.51040 3.50015 3.04575
# Velocity P-wave (km/s) = 3.98548 5.86861 5.01621
#
# Compressibility (1/GPa) = 0.05586469
#
# Stress axis : x y z
#
# Youngs Moduli (GPa) = 42.80902 34.31101 14.45154
#
# Poissons Ratio (x) = 0.06969 -0.04421
# Poissons Ratio (y) = 0.08695 0.49057
# Poissons Ratio (z) = -0.13095 1.16473
#
# Static dielectric constant tensor:
#      x y z
#    x 2.000800 0.005710 -0.064970 
#    y 0.005710 1.883660 0.033050 
#    z -0.064970 0.033050 1.981200 
# 
# From -- ./inp_files/463488.got.cif
#   From: 2010.05.17/outbox.cif.g08.bks.cpg/sg2_232_cif.got.tgz:463488.got - 2010.06.03 11:33:40.
