data_PCOD9075869
_publ_section_title
;
Structure prediction by ZEFSAII (Michael W. Deem and Ramdas Pophale) SiO2 
 PCOD9075869
Probable space group: P -1
;
_chemical_formula_sum "Si O2"
_cell_formula_units_Z 16
_cell_length_a 8.944713
_cell_length_b 7.839283
_cell_length_c 15.306873
_cell_angle_alpha 80.049174
_cell_angle_beta 129.854663
_cell_angle_gamma 71.706018
_cell_volume 671.499529
_symmetry_space_group_name_H-M "P -1"
_symmetry_group_IT_number 2
_symmetry_cell_setting 'triclinic'
loop_
_space_group_symop_operation_xyz
x,y,z
-x,-y,-z
loop_
_atom_site_type_symbol
_atom_site_label
_atom_site_fract_x
_atom_site_fract_y
_atom_site_fract_z
Si Si1 0.364180 0.227759 0.674979
Si Si2 0.151919 0.390494 0.393334
Si Si3 0.466970 0.648362 0.555201
Si Si4 0.191836 0.195816 0.091393
Si Si5 0.320578 0.510794 0.797808
Si Si6 0.307546 0.501472 0.165986
Si Si7 0.944930 0.854341 0.320797
Si Si8 0.511023 0.822662 0.961326
O O1 0.251989 0.347513 0.532896
O O2 0.351468 0.365539 0.738899
O O3 0.204359 0.145418 0.653667
O O4 0.633200 0.034801 0.785128
O O5 0.368482 0.275151 0.418604
O O6 0.960435 0.336174 0.315511
O O7 0.016625 0.644632 0.310279
O O8 0.500000 0.500000 0.500000
O O9 0.575276 0.517928 0.695765
O O10 0.189676 0.816453 0.444294
O O11 0.209434 0.354746 0.145905
O O12 0.308788 0.209244 0.044358
O O13 0.923787 0.275375 0.966906
O O14 0.492093 0.577917 0.825796
O O15 0.406652 0.375378 0.929869
O O16 0.759053 0.063776 0.181401
O O17 0.500000 0.000000 0.000000
#
# Coordination Sequence:
#
# PCOD9075869 Si02
#       8
#     2   2   2   2   2   2   2   2
#     4  10  19  35  57  86 116 152 201 248 290 350
#     4  10  18  32  56  85 118 151 197 248 294 341
#     4  10  20  34  58  86 115 155 198 245 288 348
#     4  10  24  42  59  84 127 165 187 247 310 354
#     4  11  20  34  62  90 113 158 204 250 283 355
#     4  11  24  41  59  87 125 160 199 240 307 362
#     4   9  18  32  55  87 118 149 188 247 302 339
#     4  11  19  38  62  89 120 152 200 246 294 346
#
# _framework density 23.827269999999999
#
# number of rings (size 3 to 8) (size 9 to 14) (size 15 to 20)
#    0.000    1.750    3.750    4.500    1.750    2.000 
#    0.000    6.250    0.000    0.000    0.000    0.000 
#    0.000    0.000    0.000    0.000    0.000    0.000 
#
# Total GULP energy -89420.098661 kJ/mol
# GULP energy per Si atom -5588.756166 kJ/mol
# Density = 2.377304 g / cm^3
# Si number density = 23.827270 Si / 1000 Ang^3
#
#
#
# Elastic Constant Matrix: (Units=GPa)
#
#
# Indices 1 2 3 4 5 6 
#
# 1 80.9433 -3.4783 59.1487 -3.6522 26.9184 -2.2108
# 2 -3.4783 37.0801 23.1890 -1.7792 8.2632 -1.7135
# 3 59.1487 23.1890 178.4701 -5.5592 23.5592 -6.1085
# 4 -3.6522 -1.7792 -5.5592 17.1381 -7.1721 2.7076
# 5 26.9184 8.2632 23.5592 -7.1721 58.5587 -1.5671
# 6 -2.2108 -1.7135 -6.1085 2.7076 -1.5671 16.2237
#
#
#
# Elastic Compliance Matrix: (Units=1/GPa)
#
#
# Indices 1 2 3 4 5 6 
#
# 1 0.020102 0.007761 -0.006654 -0.000346 -0.007691 0.000369
# 2 0.007761 0.032823 -0.006017 0.000477 -0.005677 0.001631
# 3 -0.006654 -0.006017 0.008591 0.000732 0.000584 0.001627
# 4 -0.000346 0.000477 0.000732 0.063115 0.007272 -0.009552
# 5 -0.007691 -0.005677 0.000584 0.007272 0.022055 -0.000511
# 6 0.000369 0.001631 0.001627 -0.009552 -0.000511 0.064018
#
#
# Mechanical properties :
#
#
# Convention : Reuss Voigt Hill
#
# Bulk Modulus (GPa) = 19.34323 50.46802 34.90563
# Shear Modulus (GPa) = 21.02996 32.89305 26.96151
#
# Velocity S-wave (km/s) = 2.97408 3.71951 3.36749
# Velocity P-wave (km/s) = 4.46422 6.29866 5.45905
#
# Compressibility (1/GPa) = 0.05169766
#
# Stress axis : x y z
#
# Youngs Moduli (GPa) = 49.74592 30.46668 116.39486
#
# Poissons Ratio (x) = -0.23645 0.77444
# Poissons Ratio (y) = -0.38608 0.70034
# Poissons Ratio (z) = 0.33099 0.18332
#
# Static dielectric constant tensor:
#      x y z
#    x 1.962390 0.043230 0.064590 
#    y 0.043230 1.964580 0.031330 
#    z 0.064590 0.031330 1.916220 
# 
# From -- ./inp_files/282884.got.cif
#   From: 2010.05.17/outbox.cif.g08.bks.cpg/sg2_142_cif.got.tgz:282884.got - 2010.06.03 11:33:40.
