data_PCOD9075080
_publ_section_title
;
Structure prediction by ZEFSAII (Michael W. Deem and Ramdas Pophale) SiO2 
 PCOD9075080
Probable space group: P -1
;
_chemical_formula_sum "Si O2"
_cell_formula_units_Z 12
_cell_length_a 12.000000
_cell_length_b 9.000000
_cell_length_c 12.000000
_cell_angle_alpha 120.000000
_cell_angle_beta 140.000000
_cell_angle_gamma 40.000000
_cell_volume 523.519695
_symmetry_space_group_name_H-M "P -1"
_symmetry_group_IT_number 2
_symmetry_cell_setting 'triclinic'
loop_
_space_group_symop_operation_xyz
x,y,z
-x,-y,-z
loop_
_atom_site_type_symbol
_atom_site_label
_atom_site_fract_x
_atom_site_fract_y
_atom_site_fract_z
Si Si1 0.311740 0.359495 0.072138
Si Si2 0.962998 0.313642 0.678559
Si Si3 0.562508 0.825434 0.647447
Si Si4 0.031138 0.276657 0.454978
Si Si5 0.890011 0.913648 0.950283
Si Si6 0.746974 0.157383 0.162453
O O1 0.399595 0.233764 0.212636
O O2 0.523255 0.270993 0.115574
O O3 0.123547 0.640449 0.056071
O O4 0.155535 0.314781 0.879508
O O5 0.701487 0.573458 0.598717
O O6 0.021658 0.255447 0.572396
O O7 0.021179 0.092605 0.697293
O O8 0.279016 0.045645 0.501943
O O9 0.707375 0.899564 0.750473
O O10 0.000000 0.500000 0.500000
O O11 0.810674 0.313537 0.255494
O O12 0.744158 0.078597 0.008079
O O13 0.000000 0.000000 0.000000
#
# Coordination Sequence:
#
# PCOD9075080 Si02
#       6
#     2   2   2   2   2   2
#     4  11  22  43  76 101 126 169 228 282 323 390
#     4  11  22  45  70  99 129 172 228 272 327 392
#     4  11  23  46  72  95 134 174 221 280 325 393
#     4  12  30  43  61  99 143 181 216 267 337 396
#     4  11  25  42  69 105 131 169 224 278 336 384
#     4  12  24  43  69  99 133 176 224 265 330 401
#
# _framework density 22.921773999999999
#
# number of rings (size 3 to 8) (size 9 to 14) (size 15 to 20)
#    0.000    0.667    5.000    3.000    7.000    3.333 
#    0.000    0.000    0.000    0.000    0.000    0.000 
#    0.000    0.000    0.000    0.000    0.000    0.000 
#
# Total GULP energy -67208.262056 kJ/mol
# GULP energy per Si atom -5600.688505 kJ/mol
# Density = 2.286960 g / cm^3
# Si number density = 22.921774 Si / 1000 Ang^3
#
#
#
# Elastic Constant Matrix: (Units=GPa)
#
#
# Indices 1 2 3 4 5 6 
#
# 1 114.1630 28.1487 3.7589 2.8100 25.6667 -21.8334
# 2 28.1487 102.4871 11.4892 6.3640 25.0565 -19.0652
# 3 3.7589 11.4892 21.1501 5.6938 9.5536 -5.0322
# 4 2.8100 6.3640 5.6938 29.9125 -7.1093 12.2374
# 5 25.6667 25.0565 9.5536 -7.1093 38.8896 1.1494
# 6 -21.8334 -19.0652 -5.0322 12.2374 1.1494 55.0906
#
#
#
# Elastic Compliance Matrix: (Units=1/GPa)
#
#
# Indices 1 2 3 4 5 6 
#
# 1 0.013120 0.000953 0.007736 -0.009574 -0.013179 0.008638
# 2 0.000953 0.014395 0.002185 -0.009803 -0.012469 0.007997
# 3 0.007736 0.002185 0.069700 -0.028435 -0.029340 0.017117
# 4 -0.009574 -0.009803 -0.028435 0.058826 0.031068 -0.023499
# 5 -0.013179 -0.012469 -0.029340 0.031068 0.055932 -0.020286
# 6 0.008638 0.007997 0.017117 -0.023499 -0.020286 0.031549
#
#
# Mechanical properties :
#
#
# Convention : Reuss Voigt Hill
#
# Bulk Modulus (GPa) = 8.40603 36.06597 22.23600
# Shear Modulus (GPa) = 19.12555 37.73877 28.43216
#
# Velocity S-wave (km/s) = 2.89170 4.06201 3.52575
# Velocity P-wave (km/s) = 3.85026 6.14560 5.12801
#
# Compressibility (1/GPa) = 0.11896219
#
# Stress axis : x y z
#
# Youngs Moduli (GPa) = 76.21733 69.46622 14.34726
#
# Poissons Ratio (x) = -0.06617 -0.11099
# Poissons Ratio (y) = -0.07260 -0.03134
# Poissons Ratio (z) = -0.58963 -0.15175
#
# Static dielectric constant tensor:
#      x y z
#    x 1.821850 0.037760 -0.018340 
#    y 0.037760 1.868620 -0.000860 
#    z -0.018340 -0.000860 1.887160 
# 
# From -- ./inp_files/154927.got.cif
#   From: 2010.05.17/outbox.ucp.g08.bks.cvg/sg2_78_cif.got.tgz:154927.got - 2010.06.11 11:32:03.
