data_PCOD9075667
_publ_section_title
;
Structure prediction by ZEFSAII (Michael W. Deem and Ramdas Pophale) SiO2 
 PCOD9075667
Probable space group: P -1
;
_chemical_formula_sum "Si O2"
_cell_formula_units_Z 13
_cell_length_a 12.000000
_cell_length_b 9.000000
_cell_length_c 12.000000
_cell_angle_alpha 40.000000
_cell_angle_beta 120.000000
_cell_angle_gamma 140.000000
_cell_volume 523.519695
_symmetry_space_group_name_H-M "P -1"
_symmetry_group_IT_number 2
_symmetry_cell_setting 'triclinic'
loop_
_space_group_symop_operation_xyz
x,y,z
-x,-y,-z
loop_
_atom_site_type_symbol
_atom_site_label
_atom_site_fract_x
_atom_site_fract_y
_atom_site_fract_z
Si Si1 0.695447 0.782695 0.193731
Si Si2 0.438294 0.801748 0.915246
Si Si3 0.756258 0.517872 0.635876
Si Si4 0.177295 0.379094 0.839717
Si Si5 0.096054 0.297546 0.167121
Si Si6 0.500000 0.500000 0.500000
Si Si7 0.954672 0.297677 0.485365
O O1 0.585864 0.829642 0.035424
O O2 0.742037 0.616820 0.237087
O O3 0.571419 0.579147 0.355102
O O4 0.897807 0.110914 0.136163
O O5 0.265391 0.626638 0.004982
O O6 0.342923 0.560367 0.903232
O O7 0.547827 0.175248 0.727868
O O8 0.877683 0.602755 0.749758
O O9 0.711639 0.730966 0.506901
O O10 0.861771 0.556465 0.563202
O O11 0.133527 0.600506 0.688754
O O12 0.000000 0.000000 0.000000
O O13 0.124033 0.050320 0.315847
O O14 0.000000 0.500000 0.500000
#
# Coordination Sequence:
#
# PCOD9075667 Si02
#       7
#     2   2   2   2   2   1   2
#     4  12  26  49  78 115 157 205 262 325 391 463
#     4  12  28  49  79 116 159 203 266 324 396 469
#     4  12  28  48  75 121 154 212 256 331 391 466
#     4  12  25  50  81 117 155 207 260 329 399 463
#     4  12  26  50  78 112 162 207 258 323 391 476
#     4  12  26  48  74 110 164 200 268 314 386 470
#     4  12  25  50  81 114 155 208 268 316 396 466
#
# _framework density 24.831921999999999
#
# number of rings (size 3 to 8) (size 9 to 14) (size 15 to 20)
#    0.000    0.000    6.154    2.308    2.154    1.846 
#    0.000    2.308    0.000    0.000    0.000    0.000 
#    0.000    0.000    0.000    0.000    0.000    0.000 
#
# Total GULP energy -72460.360925 kJ/mol
# GULP energy per Si atom -5573.873917 kJ/mol
# Density = 2.477540 g / cm^3
# Si number density = 24.831922 Si / 1000 Ang^3
#
#
#
# Elastic Constant Matrix: (Units=GPa)
#
#
# Indices 1 2 3 4 5 6 
#
# 1 153.4384 8.9838 -7.9234 23.5910 -20.3676 13.1813
# 2 8.9838 144.6779 0.8476 27.9591 -11.3596 22.4936
# 3 -7.9234 0.8476 51.9839 5.0526 -1.5921 9.6235
# 4 23.5910 27.9591 5.0526 54.9029 3.8602 3.1894
# 5 -20.3676 -11.3596 -1.5921 3.8602 46.6645 8.2639
# 6 13.1813 22.4936 9.6235 3.1894 8.2639 50.3613
#
#
#
# Elastic Compliance Matrix: (Units=1/GPa)
#
#
# Indices 1 2 3 4 5 6 
#
# 1 0.008282 0.001354 0.002549 -0.004619 0.005087 -0.003801
# 2 0.001354 0.008944 0.001628 -0.005287 0.004148 -0.005006
# 3 0.002549 0.001628 0.021146 -0.003785 0.003567 -0.005781
# 4 -0.004619 -0.005287 -0.003785 0.023444 -0.006045 0.003801
# 5 0.005087 0.004148 0.003567 -0.006045 0.026673 -0.007859
# 6 -0.003801 -0.005006 -0.005781 0.003801 -0.007859 0.025241
#
#
# Mechanical properties :
#
#
# Convention : Reuss Voigt Hill
#
# Bulk Modulus (GPa) = 20.22936 39.32401 29.77668
# Shear Modulus (GPa) = 41.96554 53.59855 47.78205
#
# Velocity S-wave (km/s) = 4.11540 4.65096 4.39135
# Velocity P-wave (km/s) = 5.54493 6.68673 6.14242
#
# Compressibility (1/GPa) = 0.04943311
#
# Stress axis : x y z
#
# Youngs Moduli (GPa) = 120.74984 111.80687 47.29039
#
# Poissons Ratio (x) = -0.15138 -0.12053
# Poissons Ratio (y) = -0.16348 -0.07700
# Poissons Ratio (z) = -0.30776 -0.18204
#
# Static dielectric constant tensor:
#      x y z
#    x 1.747390 -0.039150 -0.223550 
#    y -0.039150 1.999000 0.119570 
#    z -0.223550 0.119570 1.845170 
# 
# From -- ./inp_files/418780.got.cif
#   From: 2010.05.17/outbox.ucp.g08.bks.cvg/sg2_210_cif.got.tgz:418780.got - 2010.06.11 11:32:03.
