data_PCOD9075635
_publ_section_title
;
Structure prediction by ZEFSAII (Michael W. Deem and Ramdas Pophale) SiO2 
 PCOD9075635
Probable space group: P -1
;
_chemical_formula_sum "Si O2"
_cell_formula_units_Z 15
_cell_length_a 9.000000
_cell_length_b 9.000000
_cell_length_c 9.000000
_cell_angle_alpha 100.000000
_cell_angle_beta 60.000000
_cell_angle_gamma 90.000000
_cell_volume 618.510989
_symmetry_space_group_name_H-M "P -1"
_symmetry_group_IT_number 2
_symmetry_cell_setting 'triclinic'
loop_
_space_group_symop_operation_xyz
x,y,z
-x,-y,-z
loop_
_atom_site_type_symbol
_atom_site_label
_atom_site_fract_x
_atom_site_fract_y
_atom_site_fract_z
Si Si1 0.329127 0.421078 0.031214
Si Si2 0.500000 0.000000 0.500000
Si Si3 0.855372 0.302456 0.013057
Si Si4 0.128195 0.237560 0.328599
Si Si5 0.588881 0.241483 0.688664
Si Si6 0.809652 0.751462 0.361796
Si Si7 0.684412 0.068521 0.902195
Si Si8 0.206634 0.594710 0.603946
O O1 0.400567 0.288004 0.861229
O O2 0.500000 0.500000 0.000000
O O3 0.203484 0.543070 0.023654
O O4 0.254654 0.347816 0.202598
O O5 0.628564 0.091931 0.546547
O O6 0.366057 0.155139 0.583194
O O7 0.720986 0.177750 0.036377
O O8 0.038302 0.244108 0.835387
O O9 0.844682 0.327308 0.198484
O O10 0.144355 0.197869 0.486546
O O11 0.947267 0.334356 0.411420
O O12 0.172598 0.074754 0.200627
O O13 0.689787 0.183978 0.779915
O O14 0.634391 0.373033 0.576198
O O15 0.781613 0.578424 0.384532
O O16 0.500000 0.000000 0.000000
#
# Coordination Sequence:
#
# PCOD9075635 Si02
#       8
#     2   1   2   2   2   2   2   2
#     4  12  24  46  79 111 148 202 259 314 383 461
#     4  12  30  46  78 110 156 198 260 312 394 448
#     4  12  28  48  78 113 156 203 260 319 390 458
#     4  12  26  46  80 110 153 205 259 316 389 458
#     4  12  27  48  75 111 155 197 255 318 383 460
#     4  12  27  51  78 113 159 204 258 323 383 467
#     4  12  26  48  76 111 155 202 255 316 391 461
#     4  12  29  48  80 116 153 204 262 318 387 461
#
# _framework density 24.251791999999998
#
# number of rings (size 3 to 8) (size 9 to 14) (size 15 to 20)
#    0.000    0.000    5.333    3.200    5.600    4.800 
#    0.000    0.000    0.000    0.000    0.000    0.000 
#    0.000    0.000    0.000    0.000    0.000    0.000 
#
# Total GULP energy -83555.721436 kJ/mol
# GULP energy per Si atom -5570.381429 kJ/mol
# Density = 2.419659 g / cm^3
# Si number density = 24.251792 Si / 1000 Ang^3
#
#
#
# Elastic Constant Matrix: (Units=GPa)
#
#
# Indices 1 2 3 4 5 6 
#
# 1 58.3509 27.3443 -1.0000 -7.1704 -10.2017 -36.0878
# 2 27.3443 84.9390 16.0295 27.0509 2.1887 -13.5180
# 3 -1.0000 16.0295 56.8040 -36.4442 -7.6542 -18.0927
# 4 -7.1704 27.0509 -36.4442 19.1818 -4.3595 -9.2938
# 5 -10.2017 2.1887 -7.6542 -4.3595 34.7323 4.8111
# 6 -36.0878 -13.5180 -18.0927 -9.2938 4.8111 42.2397
#
#
#
# Elastic Compliance Matrix: (Units=1/GPa)
#
#
# Indices 1 2 3 4 5 6 
#
# 1 0.016051 0.004181 -0.011613 -0.019378 -0.001367 0.005969
# 2 0.004181 0.008202 0.006667 0.008226 0.001736 0.010665
# 3 -0.011613 0.006667 0.002245 -0.015059 -0.003883 -0.009697
# 4 -0.019378 0.008226 -0.015059 -0.007261 -0.007515 -0.021115
# 5 -0.001367 0.001736 -0.003883 -0.007515 0.027459 -0.007057
# 6 0.005969 0.010665 -0.009697 -0.021115 -0.007057 0.024192
#
#
# Mechanical properties :
#
#
# Convention : Reuss Voigt Hill
#
# Bulk Modulus (GPa) = 40.04951 31.64906 35.84929
# Shear Modulus (GPa) = 61.92778 29.74543 45.83660
#
# Velocity S-wave (km/s) = 5.05873 3.50598 4.35216
# Velocity P-wave (km/s) = 7.11835 5.42842 6.33003
#
# Compressibility (1/GPa) = 0.02496909
#
# Stress axis : x y z
#
# Youngs Moduli (GPa) = 62.30177 121.92491 445.42155
#
# Poissons Ratio (x) = -0.50976 5.17254
# Poissons Ratio (y) = -0.26048 -2.96984
# Poissons Ratio (z) = 0.72349 -0.81293
#
# Static dielectric constant tensor:
#      x y z
#    x 2.018280 0.085030 0.035590 
#    y 0.085030 1.885390 0.059500 
#    z 0.035590 0.059500 1.975800 
# 
# From -- ./inp_files/159082.got.cif
#   From: 2010.05.17/outbox.ucp.g08.bks.cvg/sg2_80_cif.got.tgz:159082.got - 2010.06.11 11:32:03.
