data_PCOD9075259
_publ_section_title
;
Structure prediction by ZEFSAII (Michael W. Deem and Ramdas Pophale) SiO2 
 PCOD9075259
Probable space group: P -1
;
_chemical_formula_sum "Si O2"
_cell_formula_units_Z 14
_cell_length_a 15.000000
_cell_length_b 9.000000
_cell_length_c 9.000000
_cell_angle_alpha 140.000000
_cell_angle_beta 60.000000
_cell_angle_gamma 100.000000
_cell_volume 626.690879
_symmetry_space_group_name_H-M "P -1"
_symmetry_group_IT_number 2
_symmetry_cell_setting 'triclinic'
loop_
_space_group_symop_operation_xyz
x,y,z
-x,-y,-z
loop_
_atom_site_type_symbol
_atom_site_label
_atom_site_fract_x
_atom_site_fract_y
_atom_site_fract_z
Si Si1 0.743693 0.774901 0.591878
Si Si2 0.128390 0.871045 0.251431
Si Si3 0.173024 0.948134 0.731195
Si Si4 0.555843 0.648347 0.461843
Si Si5 0.337214 0.109924 0.916220
Si Si6 0.070796 0.723443 0.882095
Si Si7 0.708241 0.422559 0.901581
O O1 0.652949 0.716137 0.519119
O O2 0.865326 0.556164 0.333187
O O3 0.781882 0.001990 0.695623
O O4 0.696603 0.806236 0.822254
O O5 0.183598 0.623170 0.117256
O O6 0.116305 0.856863 0.073755
O O7 0.000000 0.000000 0.500000
O O8 0.118551 0.770294 0.720918
O O9 0.251802 0.805973 0.422300
O O10 0.248153 0.013882 0.839760
O O11 0.062367 0.173636 0.938449
O O12 0.500000 0.500000 0.500000
O O13 0.458674 0.894306 0.668138
O O14 0.610460 0.475358 0.142644
O O15 0.330316 0.336143 0.987778
#
# Coordination Sequence:
#
# PCOD9075259 Si02
#       7
#     2   2   2   2   2   2   2
#     4  12  26  49  79 104 149 198 247 301 370 441
#     4  12  26  46  73 113 152 197 243 300 368 451
#     4  11  25  44  74 112 149 190 241 309 373 438
#     4  12  28  53  79 104 145 201 253 308 369 432
#     4  12  27  48  74 111 144 196 252 300 372 435
#     4  11  23  45  74 108 151 196 241 300 373 450
#     4  12  27  46  73 110 148 187 250 310 362 433
#
# _framework density 22.339562000000001
#
# number of rings (size 3 to 8) (size 9 to 14) (size 15 to 20)
#    0.000    0.286    5.714    2.571    4.000    1.714 
#    0.000    0.000    0.000    0.000    0.000    0.000 
#    0.000    0.000    0.000    0.000    0.000    0.000 
#
# Total GULP energy -78167.866623 kJ/mol
# GULP energy per Si atom -5583.419045 kJ/mol
# Density = 2.228872 g / cm^3
# Si number density = 22.339562 Si / 1000 Ang^3
#
#
#
# Elastic Constant Matrix: (Units=GPa)
#
#
# Indices 1 2 3 4 5 6 
#
# 1 143.3481 33.8796 54.3870 18.2270 -9.5844 -29.7689
# 2 33.8796 112.4020 49.5675 -13.2684 -9.3020 -16.0029
# 3 54.3870 49.5675 127.4575 -11.0910 -16.4938 -11.7269
# 4 18.2270 -13.2684 -11.0910 34.8003 -27.0694 -6.4078
# 5 -9.5844 -9.3020 -16.4938 -27.0694 37.9822 11.0289
# 6 -29.7689 -16.0029 -11.7269 -6.4078 11.0289 39.9096
#
#
#
# Elastic Compliance Matrix: (Units=1/GPa)
#
#
# Indices 1 2 3 4 5 6 
#
# 1 0.018043 -0.006101 -0.012242 -0.040088 -0.033826 0.010326
# 2 -0.006101 0.014802 0.001960 0.026344 0.021652 0.000207
# 3 -0.012242 0.001960 0.020305 0.041996 0.037914 -0.006113
# 4 -0.040088 0.026344 0.041996 0.191439 0.156689 -0.019562
# 5 -0.033826 0.021652 0.037914 0.156689 0.158188 -0.023966
# 6 0.010326 0.000207 -0.006113 -0.019562 -0.023966 0.034527
#
#
# Mechanical properties :
#
#
# Convention : Reuss Voigt Hill
#
# Bulk Modulus (GPa) = 49.05670 73.20840 61.13255
# Shear Modulus (GPa) = 10.48515 38.89665 24.69090
#
# Velocity S-wave (km/s) = 2.16881 4.17724 3.32814
# Velocity P-wave (km/s) = 5.31779 7.49051 6.49564
#
# Compressibility (1/GPa) = 0.02038458
#
# Stress axis : x y z
#
# Youngs Moduli (GPa) = 55.42457 67.55741 49.24832
#
# Poissons Ratio (x) = 0.41218 0.60288
# Poissons Ratio (y) = 0.33816 -0.09654
# Poissons Ratio (z) = 0.67849 -0.13243
#
# Static dielectric constant tensor:
#      x y z
#    x 1.771070 0.011200 0.021130 
#    y 0.011200 1.871090 0.054920 
#    z 0.021130 0.054920 1.954370 
# 
# From -- ./inp_files/47042.got.cif
#   From: 2010.05.17/outbox.ucp.g08.bks.cvg/sg2_24_cif.got.tgz:47042.got - 2010.06.11 11:32:03.
