data_PCOD9075007
_publ_section_title
;
Structure prediction by ZEFSAII (Michael W. Deem and Ramdas Pophale) SiO2 
 PCOD9075007
Probable space group: P -1
;
_chemical_formula_sum "Si O2"
_cell_formula_units_Z 15
_cell_length_a 12.000000
_cell_length_b 12.000000
_cell_length_c 15.000000
_cell_angle_alpha 120.000000
_cell_angle_beta 20.000000
_cell_angle_gamma 120.000000
_cell_volume 636.464036
_symmetry_space_group_name_H-M "P -1"
_symmetry_group_IT_number 2
_symmetry_cell_setting 'triclinic'
loop_
_space_group_symop_operation_xyz
x,y,z
-x,-y,-z
loop_
_atom_site_type_symbol
_atom_site_label
_atom_site_fract_x
_atom_site_fract_y
_atom_site_fract_z
Si Si1 0.761535 0.452340 0.914570
Si Si2 0.486352 0.518473 0.681517
Si Si3 0.282904 0.830753 0.425509
Si Si4 0.262770 0.304000 0.100926
Si Si5 0.244157 0.077954 0.277833
Si Si6 0.687592 0.232218 0.150239
Si Si7 0.500000 0.000000 0.500000
Si Si8 0.415512 0.224391 0.549859
O O1 0.526571 0.342753 0.996643
O O2 0.140349 0.425256 0.605439
O O3 0.625829 0.474115 0.126219
O O4 0.747530 0.578943 0.914275
O O5 0.264391 0.613018 0.834215
O O6 0.464323 0.373719 0.601790
O O7 0.572823 0.798318 0.127178
O O8 0.993974 0.870197 0.595210
O O9 0.420918 0.940618 0.434528
O O10 0.080591 0.721959 0.597244
O O11 0.463713 0.179973 0.214992
O O12 0.000000 0.000000 0.500000
O O13 0.500000 0.000000 0.000000
O O14 0.507811 0.206190 0.369800
O O15 0.041996 0.178399 0.847364
O O16 0.635387 0.139136 0.408969
#
# Coordination Sequence:
#
# PCOD9075007 Si02
#       8
#     2   2   2   2   2   2   1   2
#     4  11  22  39  67 100 137 179 221 279 339 404
#     4  12  24  44  70 102 140 180 229 286 347 409
#     4  12  26  44  68  98 132 180 226 281 345 406
#     4  11  23  41  64  98 136 176 230 275 335 411
#     4  12  25  45  70 101 137 177 233 290 343 404
#     4  12  25  46  73 103 140 183 233 286 343 407
#     4  12  28  48  72 100 142 184 232 284 346 420
#     4  12  27  46  70 103 141 186 232 282 345 410
#
# _framework density 23.567710000000002
#
# number of rings (size 3 to 8) (size 9 to 14) (size 15 to 20)
#    0.000    0.267    0.000   10.400    0.000    5.333 
#    0.000    0.000    0.000    0.000    0.000    0.000 
#    0.000    0.000    0.000    0.000    0.000    0.000 
#
# Total GULP energy -83658.916381 kJ/mol
# GULP energy per Si atom -5577.261092 kJ/mol
# Density = 2.351407 g / cm^3
# Si number density = 23.567710 Si / 1000 Ang^3
#
#
#
# Elastic Constant Matrix: (Units=GPa)
#
#
# Indices 1 2 3 4 5 6 
#
# 1 145.9524 17.3693 20.2205 11.1676 49.0139 8.1642
# 2 17.3693 62.1221 -4.9205 -0.4644 22.7668 2.8214
# 3 20.2205 -4.9205 131.2548 6.8175 37.7314 8.5126
# 4 11.1676 -0.4644 6.8175 33.0687 7.8522 5.0639
# 5 49.0139 22.7668 37.7314 7.8522 48.7606 -4.6284
# 6 8.1642 2.8214 8.5126 5.0639 -4.6284 48.9407
#
#
#
# Elastic Compliance Matrix: (Units=1/GPa)
#
#
# Indices 1 2 3 4 5 6 
#
# 1 0.011658 0.003039 0.003189 -0.000118 -0.015982 -0.004174
# 2 0.003039 0.023264 0.006252 0.003508 -0.019811 -0.005172
# 3 0.003189 0.006252 0.012278 0.001051 -0.016239 -0.004673
# 4 -0.000118 0.003508 0.001051 0.032709 -0.008028 -0.004509
# 5 -0.015982 -0.019811 -0.016239 -0.008028 0.060938 0.013226
# 6 -0.004174 -0.005172 -0.004673 -0.004509 0.013226 0.023957
#
#
# Mechanical properties :
#
#
# Convention : Reuss Voigt Hill
#
# Bulk Modulus (GPa) = 13.85779 44.96309 29.41044
# Shear Modulus (GPa) = 30.50683 46.59802 38.55243
#
# Velocity S-wave (km/s) = 3.60173 4.45139 4.04891
# Velocity P-wave (km/s) = 4.81553 6.74830 5.86212
#
# Compressibility (1/GPa) = 0.07216158
#
# Stress axis : x y z
#
# Youngs Moduli (GPa) = 85.77998 42.98415 81.44360
#
# Poissons Ratio (x) = -0.13063 -0.25974
# Poissons Ratio (y) = -0.26069 -0.50920
# Poissons Ratio (z) = -0.27357 -0.26875
#
# Static dielectric constant tensor:
#      x y z
#    x 1.844990 -0.028940 -0.104720 
#    y -0.028940 1.990280 0.030500 
#    z -0.104720 0.030500 1.891620 
# 
# From -- ./inp_files/66318.got.cif
#   From: 2010.05.17/outbox.ucp.g08.bks.cvg/sg2_34_cif.got.tgz:66318.got - 2010.06.11 11:32:03.
