data_PCOD9075366
_publ_section_title
;
Structure prediction by ZEFSAII (Michael W. Deem and Ramdas Pophale) SiO2 
 PCOD9075366
Probable space group: P -1
;
_chemical_formula_sum "Si O2"
_cell_formula_units_Z 16
_cell_length_a 27.000000
_cell_length_b 9.000000
_cell_length_c 27.000000
_cell_angle_alpha 140.000000
_cell_angle_beta 10.000000
_cell_angle_gamma 140.000000
_cell_volume 728.340053
_symmetry_space_group_name_H-M "P -1"
_symmetry_group_IT_number 2
_symmetry_cell_setting 'triclinic'
loop_
_space_group_symop_operation_xyz
x,y,z
-x,-y,-z
loop_
_atom_site_type_symbol
_atom_site_label
_atom_site_fract_x
_atom_site_fract_y
_atom_site_fract_z
Si Si1 0.112925 0.473488 0.437503
Si Si2 0.972695 0.234215 0.974589
Si Si3 0.024274 0.087136 0.203359
Si Si4 0.422527 0.948539 0.290994
Si Si5 0.366597 0.765860 0.939789
Si Si6 0.550133 0.991325 0.506288
Si Si7 0.578298 0.145932 0.910315
Si Si8 0.817164 0.432905 0.417493
O O1 0.195929 0.735956 0.441276
O O2 0.000000 0.500000 0.500000
O O3 0.901374 0.271905 0.621582
O O4 0.409824 0.366666 0.122535
O O5 0.265190 0.207063 0.707839
O O6 0.916408 0.089077 0.942898
O O7 0.000000 0.500000 0.000000
O O8 0.747918 0.091218 0.195595
O O9 0.765583 0.954974 0.455971
O O10 0.926996 0.310926 0.327346
O O11 0.303679 0.144083 0.976182
O O12 0.538212 0.127982 0.180347
O O13 0.533533 0.552015 0.737725
O O14 0.469145 0.971339 0.929118
O O15 0.040562 0.647364 0.233260
O O16 0.718070 0.229627 0.423725
O O17 0.500000 0.000000 0.500000
O O18 0.500000 0.000000 0.000000
#
# Coordination Sequence:
#
# PCOD9075366 Si02
#       8
#     2   2   2   2   2   2   2   2
#     4  12  26  48  69  94 137 175 222 285 339 390
#     4  11  24  45  70 102 140 174 222 279 324 393
#     4  11  25  45  68 100 134 178 225 266 339 399
#     4  12  26  43  70  98 131 179 225 275 338 399
#     4  12  26  44  68  99 137 172 227 279 332 397
#     4  11  24  45  71 102 137 180 224 264 337 397
#     4  12  28  46  68 101 131 174 230 277 338 401
#     4  11  25  45  68  97 138 177 217 279 328 395
#
# _framework density 21.967760999999999
#
# number of rings (size 3 to 8) (size 9 to 14) (size 15 to 20)
#    0.000    0.500    1.250    7.500    7.000    3.000 
#    0.000    0.000    0.000    0.000    0.000    0.000 
#    0.000    0.000    0.000    0.000    0.000    0.000 
#
# Total GULP energy -89304.060820 kJ/mol
# GULP energy per Si atom -5581.503801 kJ/mol
# Density = 2.191776 g / cm^3
# Si number density = 21.967761 Si / 1000 Ang^3
#
#
#
# Elastic Constant Matrix: (Units=GPa)
#
#
# Indices 1 2 3 4 5 6 
#
# 1 136.1469 1.6454 20.7167 8.3351 -12.9742 -21.9177
# 2 1.6454 21.4158 -63.4264 32.8786 -9.7088 -2.2067
# 3 20.7167 -63.4264 -1.1092 41.7666 -23.2535 18.8042
# 4 8.3351 32.8786 41.7666 2.2820 1.2976 -8.9582
# 5 -12.9742 -9.7088 -23.2535 1.2976 37.1163 -4.2646
# 6 -21.9177 -2.2067 18.8042 -8.9582 -4.2646 17.1355
#
#
#
# Elastic Compliance Matrix: (Units=1/GPa)
#
#
# Indices 1 2 3 4 5 6 
#
# 1 0.010869 0.003793 -0.001742 -0.003649 0.005643 0.015799
# 2 0.003793 0.012974 -0.007255 0.009764 0.002145 0.020121
# 3 -0.001742 -0.007255 0.005027 0.014437 0.000008 -0.001130
# 4 -0.003649 0.009764 0.014437 0.024023 0.008971 -0.004461
# 5 0.005643 0.002145 0.000008 0.008971 0.031466 0.020006
# 6 0.015799 0.020121 -0.001130 -0.004461 0.020006 0.085045
#
#
# Mechanical properties :
#
#
# Convention : Reuss Voigt Hill
#
# Bulk Modulus (GPa) = 54.16347 8.25832 31.21089
# Shear Modulus (GPa) = 26.88673 24.47462 25.68067
#
# Velocity S-wave (km/s) = 3.50225 3.34146 3.42280
# Velocity P-wave (km/s) = 6.40810 4.31909 5.46435
#
# Compressibility (1/GPa) = 0.01846263
#
# Stress axis : x y z
#
# Youngs Moduli (GPa) = 92.00615 77.07679 198.92384
#
# Poissons Ratio (x) = -0.29236 0.34656
# Poissons Ratio (y) = -0.34898 1.44310
# Poissons Ratio (z) = 0.16029 0.55916
#
# Static dielectric constant tensor:
#      x y z
#    x 1.739430 0.029690 0.050460 
#    y 0.029690 1.783940 0.035060 
#    z 0.050460 0.035060 1.859020 
# 
# From -- ./inp_files/617693.got.cif
#   From: 2010.05.17/outbox.ucp.g08.bks.cvg/sg2_309_cif.got.tgz:617693.got - 2010.06.11 11:32:03.
