data_PCOD9075328
_publ_section_title
;
Structure prediction by ZEFSAII (Michael W. Deem and Ramdas Pophale) SiO2 
 PCOD9075328
Probable space group: P -1
;
_chemical_formula_sum "Si O2"
_cell_formula_units_Z 16
_cell_length_a 9.000000
_cell_length_b 18.000000
_cell_length_c 6.000000
_cell_angle_alpha 60.000000
_cell_angle_beta 60.000000
_cell_angle_gamma 70.000000
_cell_volume 723.492119
_symmetry_space_group_name_H-M "P -1"
_symmetry_group_IT_number 2
_symmetry_cell_setting 'triclinic'
loop_
_space_group_symop_operation_xyz
x,y,z
-x,-y,-z
loop_
_atom_site_type_symbol
_atom_site_label
_atom_site_fract_x
_atom_site_fract_y
_atom_site_fract_z
Si Si1 0.815885 0.731486 0.548885
Si Si2 0.894864 0.924507 0.096390
Si Si3 0.312738 0.490436 0.769425
Si Si4 0.563706 0.215351 0.060716
Si Si5 0.832736 0.150421 0.340424
Si Si6 0.178904 0.434159 0.462902
Si Si7 0.384770 0.947121 0.016880
Si Si8 0.169283 0.688671 0.582255
O O1 0.870818 0.828957 0.347058
O O2 0.620132 0.739257 0.780272
O O3 0.826194 0.669003 0.416387
O O4 0.976246 0.687361 0.637752
O O5 0.992989 0.896018 0.833044
O O6 0.706520 0.977418 0.181024
O O7 0.000000 0.000000 0.000000
O O8 0.500000 0.500000 0.500000
O O9 0.236635 0.448038 0.661926
O O10 0.235800 0.589550 0.722351
O O11 0.281656 0.452975 0.110242
O O12 0.684778 0.170174 0.233813
O O13 0.525283 0.137753 0.042896
O O14 0.690378 0.274946 0.747469
O O15 0.764595 0.088685 0.669385
O O16 0.846119 0.242882 0.306351
O O17 0.000000 0.500000 0.500000
O O18 0.500000 0.000000 0.000000
#
# Coordination Sequence:
#
# PCOD9075328 Si02
#       8
#     2   2   2   2   2   2   2   2
#     4  12  27  46  78 105 150 197 246 323 379 460
#     4  12  24  45  71 101 143 196 246 301 383 447
#     4  12  28  51  84 114 161 206 263 327 396 474
#     4  11  25  48  68 108 146 190 257 305 385 455
#     4  11  24  43  69  98 146 185 249 305 372 462
#     4  12  28  52  78 120 157 204 264 322 399 475
#     4  11  25  42  65 101 138 191 244 312 371 447
#     4  11  26  47  73 107 144 198 247 313 381 461
#
# _framework density 22.114961000000001
#
# number of rings (size 3 to 8) (size 9 to 14) (size 15 to 20)
#    0.000    0.500    3.750    3.375    8.750    1.000 
#    0.000    0.000    0.000    0.000    0.000    0.000 
#    0.000    0.000    0.000    0.000    0.000    0.000 
#
# Total GULP energy -89070.987468 kJ/mol
# GULP energy per Si atom -5566.936717 kJ/mol
# Density = 2.206463 g / cm^3
# Si number density = 22.114961 Si / 1000 Ang^3
#
#
#
# Elastic Constant Matrix: (Units=GPa)
#
#
# Indices 1 2 3 4 5 6 
#
# 1 62.6635 15.9086 -15.8905 2.7873 -12.2483 19.2419
# 2 15.9086 168.5508 17.9462 6.4756 -4.0393 14.7922
# 3 -15.8905 17.9462 85.2828 7.7538 -1.0882 -0.3269
# 4 2.7873 6.4756 7.7538 49.4611 -8.4096 2.2280
# 5 -12.2483 -4.0393 -1.0882 -8.4096 24.7371 12.5368
# 6 19.2419 14.7922 -0.3269 2.2280 12.5368 48.5469
#
#
#
# Elastic Compliance Matrix: (Units=1/GPa)
#
#
# Indices 1 2 3 4 5 6 
#
# 1 0.026765 -0.001236 0.005257 0.002326 0.022200 -0.016036
# 2 -0.001236 0.006407 -0.001548 -0.000247 0.001177 -0.001765
# 3 0.005257 -0.001548 0.013199 -0.001432 0.003662 -0.002403
# 4 0.002326 -0.000247 -0.001432 0.022442 0.011085 -0.004749
# 5 0.022200 0.001177 0.003662 0.011085 0.069524 -0.027596
# 6 -0.016036 -0.001765 -0.002403 -0.004749 -0.027596 0.034821
#
#
# Mechanical properties :
#
#
# Convention : Reuss Voigt Hill
#
# Bulk Modulus (GPa) = 19.48626 39.15844 29.32235
# Shear Modulus (GPa) = 26.98080 44.45120 35.71600
#
# Velocity S-wave (km/s) = 3.49667 4.48817 4.02309
# Velocity P-wave (km/s) = 5.01326 6.67858 5.90492
#
# Compressibility (1/GPa) = 0.05131821
#
# Stress axis : x y z
#
# Youngs Moduli (GPa) = 37.36188 156.07912 75.76499
#
# Poissons Ratio (x) = 0.19292 -0.39833
# Poissons Ratio (y) = 0.04618 0.11727
# Poissons Ratio (z) = -0.19643 0.24159
#
# Static dielectric constant tensor:
#      x y z
#    x 1.904810 0.010180 0.007660 
#    y 0.010180 1.806220 -0.006080 
#    z 0.007660 -0.006080 1.904800 
# 
# From -- ./inp_files/46523.got.cif
#   From: 2010.05.17/outbox.ucp.g08.bks.cvg/sg2_24_cif.got.tgz:46523.got - 2010.06.11 11:32:03.
