data_PCOD9075573
_publ_section_title
;
Structure prediction by ZEFSAII (Michael W. Deem and Ramdas Pophale) SiO2 
 PCOD9075573
Probable space group: P -1
;
_chemical_formula_sum "Si O2"
_cell_formula_units_Z 14
_cell_length_a 6.000000
_cell_length_b 15.000000
_cell_length_c 15.000000
_cell_angle_alpha 30.000000
_cell_angle_beta 90.000000
_cell_angle_gamma 100.000000
_cell_volume 632.984913
_symmetry_space_group_name_H-M "P -1"
_symmetry_group_IT_number 2
_symmetry_cell_setting 'triclinic'
loop_
_space_group_symop_operation_xyz
x,y,z
-x,-y,-z
loop_
_atom_site_type_symbol
_atom_site_label
_atom_site_fract_x
_atom_site_fract_y
_atom_site_fract_z
Si Si1 0.129745 0.322925 0.878991
Si Si2 0.440813 0.182794 0.310177
Si Si3 0.492124 0.731203 0.456531
Si Si4 0.897624 0.471306 0.125468
Si Si5 0.121271 0.193030 0.456117
Si Si6 0.746504 0.996269 0.058549
Si Si7 0.688845 0.921909 0.792567
O O1 0.282005 0.517567 0.654352
O O2 0.065528 0.365241 0.943697
O O3 0.291625 0.195171 0.017782
O O4 0.884994 0.191274 0.944969
O O5 0.621509 0.372113 0.189598
O O6 0.208653 0.153634 0.393573
O O7 0.456695 0.193226 0.193619
O O8 0.500000 0.000000 0.500000
O O9 0.672187 0.724994 0.541433
O O10 0.636422 0.818382 0.285968
O O11 0.391905 0.900211 0.335438
O O12 0.982785 0.330055 0.307769
O O13 0.000000 0.500000 0.000000
O O14 0.941960 0.015354 0.662248
O O15 0.500000 0.000000 0.000000
O O16 0.000000 0.000000 0.000000
#
# Coordination Sequence:
#
# PCOD9075573 Si02
#       7
#     2   2   2   2   2   2   2
#     4  12  27  52  83 116 159 219 257 345 413 475
#     4  12  23  40  63 105 159 218 265 316 379 455
#     4  12  27  52  80 120 156 203 276 333 417 502
#     4  12  28  41  65 118 160 211 276 311 391 483
#     4  12  22  44  69 102 161 212 270 330 380 476
#     4  12  31  58  89 124 156 206 278 350 436 513
#     4  12  25  45  74 111 163 217 267 323 392 481
#
# _framework density 22.117431
#
# number of rings (size 3 to 8) (size 9 to 14) (size 15 to 20)
#    0.000    0.000    7.143    2.143    6.000    3.429 
#    0.000    0.000    0.000    0.000    0.000    0.000 
#    0.000    0.000    0.000    0.000    0.000    0.000 
#
# Total GULP energy -77958.317674 kJ/mol
# GULP energy per Si atom -5568.451262 kJ/mol
# Density = 2.206709 g / cm^3
# Si number density = 22.117431 Si / 1000 Ang^3
#
#
#
# Elastic Constant Matrix: (Units=GPa)
#
#
# Indices 1 2 3 4 5 6 
#
# 1 93.9382 44.2387 41.1100 -1.7117 -7.0733 14.4876
# 2 44.2387 114.3310 39.2331 -0.9396 -14.4725 23.3388
# 3 41.1100 39.2331 155.5252 17.1612 -2.3423 7.1434
# 4 -1.7117 -0.9396 17.1612 43.5270 -1.8781 -5.1100
# 5 -7.0733 -14.4725 -2.3423 -1.8781 47.5263 9.8076
# 6 14.4876 23.3388 7.1434 -5.1100 9.8076 53.2155
#
#
#
# Elastic Compliance Matrix: (Units=1/GPa)
#
#
# Indices 1 2 3 4 5 6 
#
# 1 0.014134 -0.003982 -0.002786 0.001407 0.001183 -0.001810
# 2 -0.003982 0.012434 -0.001850 0.000451 0.004119 -0.004837
# 3 -0.002786 -0.001850 0.007969 -0.003286 -0.000783 0.000329
# 4 0.001407 0.000451 -0.003286 0.024612 0.000726 0.002090
# 5 0.001183 0.004119 -0.000783 0.000726 0.023768 -0.006334
# 6 -0.001810 -0.004837 0.000329 0.002090 -0.006334 0.022730
#
#
# Mechanical properties :
#
#
# Convention : Reuss Voigt Hill
#
# Bulk Modulus (GPa) = 57.79783 68.10642 62.95213
# Shear Modulus (GPa) = 38.86563 44.80127 41.83345
#
# Velocity S-wave (km/s) = 4.19649 4.50556 4.35377
# Velocity P-wave (km/s) = 7.04767 7.61096 7.33473
#
# Compressibility (1/GPa) = 0.01730169
#
# Stress axis : x y z
#
# Youngs Moduli (GPa) = 70.75366 80.42145 125.49372
#
# Poissons Ratio (x) = 0.32024 0.34958
# Poissons Ratio (y) = 0.28174 0.23213
# Poissons Ratio (z) = 0.19710 0.14876
#
# Static dielectric constant tensor:
#      x y z
#    x 2.263760 -0.149550 0.157760 
#    y -0.149550 1.995750 -0.125400 
#    z 0.157760 -0.125400 1.970850 
# 
# From -- ./inp_files/484124.got.cif
#   From: 2010.05.17/outbox.ucp.g08.bks.cvg/sg2_243_cif.got.tgz:484124.got - 2010.06.11 11:32:03.
