data_PCOD9075112
_publ_section_title
;
Structure prediction by ZEFSAII (Michael W. Deem and Ramdas Pophale) SiO2 
 PCOD9075112
Probable space group: P -1
;
_chemical_formula_sum "Si O2"
_cell_formula_units_Z 16
_cell_length_a 9.000000
_cell_length_b 18.000000
_cell_length_c 12.000000
_cell_angle_alpha 140.000000
_cell_angle_beta 100.000000
_cell_angle_gamma 50.000000
_cell_volume 729.599496
_symmetry_space_group_name_H-M "P -1"
_symmetry_group_IT_number 2
_symmetry_cell_setting 'triclinic'
loop_
_space_group_symop_operation_xyz
x,y,z
-x,-y,-z
loop_
_atom_site_type_symbol
_atom_site_label
_atom_site_fract_x
_atom_site_fract_y
_atom_site_fract_z
Si Si1 0.392166 0.952374 0.489251
Si Si2 0.538197 0.634462 0.214612
Si Si3 0.811645 0.376541 0.164220
Si Si4 0.966653 0.143558 0.474457
Si Si5 0.569972 0.574978 0.896723
Si Si6 0.389767 0.008300 0.806628
Si Si7 0.416648 0.855676 0.044317
Si Si8 0.303584 0.342524 0.381289
O O1 0.314158 0.017146 0.681453
O O2 0.168319 0.039573 0.481676
O O3 0.500000 0.000000 0.500000
O O4 0.597847 0.725776 0.280648
O O5 0.756758 0.460780 0.128919
O O6 0.271065 0.784583 0.422764
O O7 0.507920 0.596495 0.044844
O O8 0.656210 0.353300 0.114124
O O9 0.682112 0.544581 0.424910
O O10 0.104289 0.193456 0.030026
O O11 0.832592 0.345624 0.655455
O O12 0.131660 0.006767 0.229604
O O13 0.581402 0.692574 0.976264
O O14 0.536854 0.036344 0.833386
O O15 0.562936 0.827957 0.707971
O O16 0.531876 0.749025 0.816496
O O17 0.000000 0.500000 0.500000
#
# Coordination Sequence:
#
# PCOD9075112 Si02
#       8
#     2   2   2   2   2   2   2   2
#     4  12  22  38  70 108 138 179 233 285 345 418
#     4  11  22  46  70 103 148 187 220 284 359 423
#     4  11  25  45  75 101 133 191 233 283 348 424
#     4  11  24  42  69 103 148 183 222 287 354 420
#     4  11  25  45  72 105 147 181 230 285 351 425
#     4  12  25  46  73 100 138 182 238 288 354 413
#     4  12  27  43  70 104 135 187 234 294 345 403
#     4  12  28  49  73  98 138 189 239 291 351 410
#
# _framework density 21.929839999999999
#
# number of rings (size 3 to 8) (size 9 to 14) (size 15 to 20)
#    0.000    0.500    5.000    3.750    3.500    1.500 
#    0.000    6.875    0.000    0.000    0.000    0.000 
#    0.000    0.000    0.000    0.000    0.000    0.000 
#
# Total GULP energy -89147.271246 kJ/mol
# GULP energy per Si atom -5571.704453 kJ/mol
# Density = 2.187993 g / cm^3
# Si number density = 21.929840 Si / 1000 Ang^3
#
#
#
# Elastic Constant Matrix: (Units=GPa)
#
#
# Indices 1 2 3 4 5 6 
#
# 1 52.7964 39.9834 38.5986 0.2200 -2.4006 5.9295
# 2 39.9834 113.8345 56.2830 13.6509 -24.8702 23.0763
# 3 38.5986 56.2830 123.6452 -9.4968 -18.0882 17.2175
# 4 0.2200 13.6509 -9.4968 50.4901 3.6318 -5.3359
# 5 -2.4006 -24.8702 -18.0882 3.6318 24.7664 1.1675
# 6 5.9295 23.0763 17.2175 -5.3359 1.1675 34.5117
#
#
#
# Elastic Compliance Matrix: (Units=1/GPa)
#
#
# Indices 1 2 3 4 5 6 
#
# 1 0.033241 -0.014142 -0.007355 0.004467 -0.017416 0.008694
# 2 -0.014142 0.024081 -0.001737 -0.010086 0.023737 -0.015168
# 3 -0.007355 -0.001737 0.012874 0.002018 0.006835 -0.003917
# 4 0.004467 -0.010086 0.002018 0.024750 -0.012286 0.009212
# 5 -0.017416 0.023737 0.006835 -0.012286 0.070288 -0.020566
# 6 0.008694 -0.015168 -0.003917 0.009212 -0.020566 0.041698
#
#
# Mechanical properties :
#
#
# Convention : Reuss Voigt Hill
#
# Bulk Modulus (GPa) = 42.14322 62.22292 52.18307
# Shear Modulus (GPa) = 19.13436 32.31440 25.72438
#
# Velocity S-wave (km/s) = 2.95706 3.84283 3.42867
# Velocity P-wave (km/s) = 5.56039 6.93722 6.28661
#
# Compressibility (1/GPa) = 0.02372861
#
# Stress axis : x y z
#
# Youngs Moduli (GPa) = 30.08354 41.52639 77.67297
#
# Poissons Ratio (x) = 0.58728 0.57126
# Poissons Ratio (y) = 0.42545 0.13491
# Poissons Ratio (z) = 0.22125 0.07213
#
# Static dielectric constant tensor:
#      x y z
#    x 1.798940 -0.023980 0.124300 
#    y -0.023980 1.775330 -0.048950 
#    z 0.124300 -0.048950 2.060680 
# 
# From -- ./inp_files/403387.got.cif
#   From: 2010.05.17/outbox.ucp.g08.bks.cvg/sg2_202_cif.got.tgz:403387.got - 2010.06.11 11:32:03.
