data_PCOD9075203
_publ_section_title
;
Structure prediction by ZEFSAII (Michael W. Deem and Ramdas Pophale) SiO2 
 PCOD9075203
Probable space group: P -1
;
_chemical_formula_sum "Si O2"
_cell_formula_units_Z 16
_cell_length_a 12.000000
_cell_length_b 12.000000
_cell_length_c 12.000000
_cell_angle_alpha 120.000000
_cell_angle_beta 100.000000
_cell_angle_gamma 130.000000
_cell_volume 763.164900
_symmetry_space_group_name_H-M "P -1"
_symmetry_group_IT_number 2
_symmetry_cell_setting 'triclinic'
loop_
_space_group_symop_operation_xyz
x,y,z
-x,-y,-z
loop_
_atom_site_type_symbol
_atom_site_label
_atom_site_fract_x
_atom_site_fract_y
_atom_site_fract_z
Si Si1 0.299134 0.392751 0.447697
Si Si2 0.769627 0.962888 0.468539
Si Si3 0.812020 0.279979 0.515511
Si Si4 0.319400 0.585697 0.335256
Si Si5 0.451760 0.288242 0.130569
Si Si6 0.862274 0.802499 0.031231
Si Si7 0.768266 0.690894 0.202825
Si Si8 0.289958 0.853778 0.828259
O O1 0.500000 0.500000 0.500000
O O2 0.285408 0.491576 0.404121
O O3 0.371309 0.524983 0.644957
O O4 0.083166 0.092498 0.251312
O O5 0.554661 0.772773 0.415093
O O6 0.761171 0.829568 0.319306
O O7 0.797306 0.123924 0.488589
O O8 0.993555 0.145006 0.662933
O O9 0.705847 0.286290 0.581173
O O10 0.708014 0.167288 0.316207
O O11 0.063877 0.569605 0.687658
O O12 0.139758 0.336784 0.101822
O O13 0.595899 0.445088 0.122967
O O14 0.279448 0.237266 0.088144
O O15 0.309699 0.022166 0.953171
O O16 0.726589 0.651813 0.045517
O O17 0.500000 0.000000 0.000000
#
# Coordination Sequence:
#
# PCOD9075203 Si02
#       8
#     2   2   2   2   2   2   2   2
#     4  12  24  42  65 102 140 176 224 285 346 409
#     4  11  23  46  70  99 137 186 229 284 348 395
#     4  11  26  47  70  99 144 182 232 279 335 420
#     4  12  25  44  67 102 145 186 224 278 347 413
#     4  12  24  43  74 100 135 178 229 292 343 399
#     4  12  25  41  68 105 137 180 225 283 350 403
#     4  11  23  43  71 104 134 173 240 293 334 405
#     4  11  25  46  72 102 131 186 234 282 338 404
#
# _framework density 20.965325
#
# number of rings (size 3 to 8) (size 9 to 14) (size 15 to 20)
#    0.000    0.500    2.500    6.375    3.500    3.000 
#    2.250    0.625    0.000    0.000    0.000    0.000 
#    0.000    0.000    0.000    0.000    0.000    0.000 
#
# Total GULP energy -89462.586831 kJ/mol
# GULP energy per Si atom -5591.411677 kJ/mol
# Density = 2.091761 g / cm^3
# Si number density = 20.965325 Si / 1000 Ang^3
#
#
#
# Elastic Constant Matrix: (Units=GPa)
#
#
# Indices 1 2 3 4 5 6 
#
# 1 106.5112 23.1771 24.4639 1.8755 -0.8630 -2.6079
# 2 23.1771 113.4414 44.2849 5.1895 0.5599 -5.5866
# 3 24.4639 44.2849 145.1187 0.5076 7.5600 -0.2969
# 4 1.8755 5.1895 0.5076 40.8632 2.1556 -3.7986
# 5 -0.8630 0.5599 7.5600 2.1556 32.1864 2.6265
# 6 -2.6079 -5.5866 -0.2969 -3.7986 2.6265 34.5765
#
#
#
# Elastic Compliance Matrix: (Units=1/GPa)
#
#
# Indices 1 2 3 4 5 6 
#
# 1 0.010029 -0.001531 -0.001251 -0.000241 0.000571 0.000428
# 2 -0.001531 0.010387 -0.002927 -0.001106 0.000427 0.001384
# 3 -0.001251 -0.002927 0.008091 0.000399 -0.001885 -0.000311
# 4 -0.000241 -0.001106 0.000399 0.024974 -0.001974 0.002700
# 5 0.000571 0.000427 -0.001885 -0.001974 0.031859 -0.002541
# 6 0.000428 0.001384 -0.000311 0.002700 -0.002541 0.029664
#
#
# Mechanical properties :
#
#
# Convention : Reuss Voigt Hill
#
# Bulk Modulus (GPa) = 58.52154 60.99145 59.75649
# Shear Modulus (GPa) = 37.84446 39.73490 38.78968
#
# Velocity S-wave (km/s) = 4.25325 4.35819 4.30604
# Velocity P-wave (km/s) = 7.21764 7.38105 7.29980
#
# Compressibility (1/GPa) = 0.01708772
#
# Stress axis : x y z
#
# Youngs Moduli (GPa) = 99.71452 96.27106 123.58953
#
# Poissons Ratio (x) = 0.14740 0.15466
# Poissons Ratio (y) = 0.15268 0.36178
# Poissons Ratio (z) = 0.12478 0.28181
#
# Static dielectric constant tensor:
#      x y z
#    x 1.779530 -0.019370 0.010450 
#    y -0.019370 1.785360 -0.002620 
#    z 0.010450 -0.002620 1.772290 
# 
# From -- ./inp_files/428751.got.cif
#   From: 2010.05.17/outbox.ucp.g08.bks.cvg/sg2_215_cif.got.tgz:428751.got - 2010.06.11 11:32:03.
