data_PCOD9075467
_publ_section_title
;
Structure prediction by ZEFSAII (Michael W. Deem and Ramdas Pophale) SiO2 
 PCOD9075467
Probable space group: P -1
;
_chemical_formula_sum "Si O2"
_cell_formula_units_Z 16
_cell_length_a 15.000000
_cell_length_b 9.000000
_cell_length_c 9.000000
_cell_angle_alpha 80.000000
_cell_angle_beta 140.000000
_cell_angle_gamma 110.000000
_cell_volume 725.993766
_symmetry_space_group_name_H-M "P -1"
_symmetry_group_IT_number 2
_symmetry_cell_setting 'triclinic'
loop_
_space_group_symop_operation_xyz
x,y,z
-x,-y,-z
loop_
_atom_site_type_symbol
_atom_site_label
_atom_site_fract_x
_atom_site_fract_y
_atom_site_fract_z
Si Si1 0.875236 0.747630 0.203296
Si Si2 0.402165 0.984553 0.542796
Si Si3 0.163432 0.730948 0.087869
Si Si4 0.446006 0.348373 0.570431
Si Si5 0.229468 0.827174 0.632045
Si Si6 0.369945 0.547797 0.915654
Si Si7 0.725916 0.014572 0.036247
Si Si8 0.149429 0.365736 0.145185
O O1 0.050762 0.772729 0.430512
O O2 0.819742 0.898370 0.140269
O O3 0.771132 0.607875 0.199899
O O4 0.839253 0.698686 0.993744
O O5 0.302665 0.859131 0.320524
O O6 0.293185 0.933086 0.551742
O O7 0.434216 0.173697 0.522565
O O8 0.557618 0.956251 0.772454
O O9 0.172063 0.554048 0.131328
O O10 0.177602 0.809406 0.931300
O O11 0.010641 0.719061 0.974357
O O12 0.500000 0.500000 0.500000
O O13 0.553692 0.384144 0.841789
O O14 0.282472 0.341014 0.410806
O O15 0.292115 0.951586 0.822100
O O16 0.299866 0.681798 0.742807
O O17 0.500000 0.500000 0.000000
#
# Coordination Sequence:
#
# PCOD9075467 Si02
#       8
#     2   2   2   2   2   2   2   2
#     4  12  26  47  77 106 152 195 248 308 370 445
#     4  12  26  48  76 106 152 195 246 309 370 443
#     4  11  26  45  75 107 146 199 244 311 372 437
#     4  12  26  46  76 103 148 192 246 307 366 436
#     4  12  27  51  73 107 156 197 246 301 379 444
#     4  12  28  47  75 111 148 199 247 305 372 443
#     4  12  26  45  74 110 147 194 254 302 373 439
#     4  11  25  46  72 110 148 189 255 307 369 440
#
# _framework density 22.038757
#
# number of rings (size 3 to 8) (size 9 to 14) (size 15 to 20)
#    0.000    0.250    3.750    4.500    7.000    2.000 
#    0.000    0.000    0.000    0.000    0.000    0.000 
#    0.000    0.000    0.000    0.000    0.000    0.000 
#
# Total GULP energy -89456.761882 kJ/mol
# GULP energy per Si atom -5591.047618 kJ/mol
# Density = 2.198860 g / cm^3
# Si number density = 22.038757 Si / 1000 Ang^3
#
#
#
# Elastic Constant Matrix: (Units=GPa)
#
#
# Indices 1 2 3 4 5 6 
#
# 1 123.6519 18.7872 27.5063 3.0537 31.1564 -3.5001
# 2 18.7872 88.9402 37.7279 0.0601 26.5770 -7.4241
# 3 27.5063 37.7279 93.7604 6.5809 33.9220 1.4234
# 4 3.0537 0.0601 6.5809 32.8092 -7.5447 10.2804
# 5 31.1564 26.5770 33.9220 -7.5447 51.9064 -5.0825
# 6 -3.5001 -7.4241 1.4234 10.2804 -5.0825 41.4096
#
#
#
# Elastic Compliance Matrix: (Units=1/GPa)
#
#
# Indices 1 2 3 4 5 6 
#
# 1 0.009743 -0.000027 -0.000641 -0.002309 -0.005681 0.000717
# 2 -0.000027 0.014606 -0.004147 -0.001030 -0.004662 0.002442
# 3 -0.000641 -0.004147 0.016064 -0.004791 -0.008808 -0.001241
# 4 -0.002309 -0.001030 -0.004791 0.036382 0.009542 -0.008076
# 5 -0.005681 -0.004662 -0.008808 0.009542 0.032262 0.000578
# 6 0.000717 0.002442 -0.001241 -0.008076 0.000578 0.026766
#
#
# Mechanical properties :
#
#
# Convention : Reuss Voigt Hill
#
# Bulk Modulus (GPa) = 32.48610 52.71058 42.59834
# Shear Modulus (GPa) = 32.10995 40.04712 36.07853
#
# Velocity S-wave (km/s) = 3.82118 4.26740 4.05044
# Velocity P-wave (km/s) = 5.85158 6.94622 6.42227
#
# Compressibility (1/GPa) = 0.03078240
#
# Stress axis : x y z
#
# Youngs Moduli (GPa) = 102.64250 68.46343 62.25013
#
# Poissons Ratio (x) = 0.00187 0.03989
# Poissons Ratio (y) = 0.00280 0.25817
# Poissons Ratio (z) = 0.06577 0.28394
#
# Static dielectric constant tensor:
#      x y z
#    x 1.874670 0.022250 -0.092510 
#    y 0.022250 1.781450 -0.021460 
#    z -0.092510 -0.021460 1.930350 
# 
# From -- ./inp_files/298447.got.cif
#   From: 2010.05.17/outbox.ucp.g08.bks.cvg/sg2_150_cif.got.tgz:298447.got - 2010.06.11 11:32:03.
