data_PCOD9075570
_publ_section_title
;
Structure prediction by ZEFSAII (Michael W. Deem and Ramdas Pophale) SiO2 
 PCOD9075570
Probable space group: P -1
;
_chemical_formula_sum "Si O2"
_cell_formula_units_Z 14
_cell_length_a 27.000000
_cell_length_b 27.000000
_cell_length_c 15.000000
_cell_angle_alpha 20.000000
_cell_angle_beta 160.000000
_cell_angle_gamma 170.000000
_cell_volume 630.401208
_symmetry_space_group_name_H-M "P -1"
_symmetry_group_IT_number 2
_symmetry_cell_setting 'triclinic'
loop_
_space_group_symop_operation_xyz
x,y,z
-x,-y,-z
loop_
_atom_site_type_symbol
_atom_site_label
_atom_site_fract_x
_atom_site_fract_y
_atom_site_fract_z
Si Si1 0.353803 0.368443 0.573543
Si Si2 0.947251 0.766757 0.950800
Si Si3 0.022510 0.542847 0.341218
Si Si4 0.547194 0.083932 0.836720
Si Si5 0.872730 0.510932 0.955273
Si Si6 0.372989 0.069757 0.311127
Si Si7 0.684414 0.806151 0.809690
O O1 0.500000 0.500000 0.500000
O O2 0.256163 0.437506 0.335967
O O3 0.612009 0.520078 0.812173
O O4 0.093910 0.025960 0.705784
O O5 0.990719 0.646304 0.182257
O O6 0.140924 0.940024 0.073040
O O7 0.293473 0.668067 0.598599
O O8 0.740161 0.195884 0.436062
O O9 0.047053 0.640177 0.123371
O O10 0.435204 0.155116 0.514440
O O11 0.884643 0.331639 0.971327
O O12 0.500000 0.000000 0.000000
O O13 0.375202 0.824771 0.917461
O O14 0.350901 0.146278 0.233706
O O15 0.500000 0.500000 0.000000
O O16 0.000000 0.000000 0.000000
#
# Coordination Sequence:
#
# PCOD9075570 Si02
#       7
#     2   2   2   2   2   2   2
#     4  12  26  43  68 103 147 188 230 281 347 418
#     4  12  26  42  69 107 145 184 233 287 342 419
#     4  12  22  43  73  99 139 185 233 273 349 425
#     4  12  27  49  74 106 138 185 249 299 358 431
#     4  12  24  45  75  99 137 191 229 281 356 426
#     4  12  25  45  69 103 138 183 237 287 351 423
#     4  12  26  46  74 100 138 184 234 302 365 412
#
# _framework density 22.208079000000001
#
# number of rings (size 3 to 8) (size 9 to 14) (size 15 to 20)
#    0.000    0.000    4.286    6.000    2.000    3.429 
#    0.000    0.000    0.000    0.000    0.000    0.000 
#    0.000    0.000    0.000    0.000    0.000    0.000 
#
# Total GULP energy -77977.058722 kJ/mol
# GULP energy per Si atom -5569.789909 kJ/mol
# Density = 2.215753 g / cm^3
# Si number density = 22.208079 Si / 1000 Ang^3
#
#
#
# Elastic Constant Matrix: (Units=GPa)
#
#
# Indices 1 2 3 4 5 6 
#
# 1 118.0078 34.5290 73.5190 -4.9660 11.7029 -14.2700
# 2 34.5290 158.1360 53.9039 -4.9471 14.6801 4.5400
# 3 73.5190 53.9039 186.1376 13.2938 33.0735 -4.4184
# 4 -4.9660 -4.9471 13.2938 49.2269 -13.6419 10.4614
# 5 11.7029 14.6801 33.0735 -13.6419 58.9868 7.6199
# 6 -14.2700 4.5400 -4.4184 10.4614 7.6199 38.6348
#
#
#
# Elastic Compliance Matrix: (Units=1/GPa)
#
#
# Indices 1 2 3 4 5 6 
#
# 1 0.012116 -0.001181 -0.004542 0.001672 0.000363 0.003570
# 2 -0.001181 0.007297 -0.001806 0.001517 0.000029 -0.001917
# 3 -0.004542 -0.001806 0.008978 -0.004862 -0.005050 0.001874
# 4 0.001672 0.001517 -0.004862 0.026468 0.009316 -0.009121
# 5 0.000363 0.000029 -0.005050 0.009316 0.022825 -0.007471
# 6 0.003570 -0.001917 0.001874 -0.009121 -0.007471 0.031585
#
#
# Mechanical properties :
#
#
# Convention : Reuss Voigt Hill
#
# Bulk Modulus (GPa) = 75.00350 87.35392 81.17871
# Shear Modulus (GPa) = 38.82841 49.39166 44.11004
#
# Velocity S-wave (km/s) = 4.18591 4.72109 4.46153
# Velocity P-wave (km/s) = 7.56366 8.31492 7.94817
#
# Compressibility (1/GPa) = 0.01333271
#
# Stress axis : x y z
#
# Youngs Moduli (GPa) = 82.53829 137.04600 111.37760
#
# Poissons Ratio (x) = 0.16184 0.50593
# Poissons Ratio (y) = 0.09747 0.20112
# Poissons Ratio (z) = 0.37493 0.24747
#
# Static dielectric constant tensor:
#      x y z
#    x 1.917050 0.168540 -0.105100 
#    y 0.168540 2.056940 -0.025640 
#    z -0.105100 -0.025640 1.895970 
# 
# From -- ./inp_files/216928.got.cif
#   From: 2010.05.17/outbox.ucp.g08.bks.cvg/sg2_109_cif.got.tgz:216928.got - 2010.06.11 11:32:03.
