data_PCOD9075472
_publ_section_title
;
Structure prediction by ZEFSAII (Michael W. Deem and Ramdas Pophale) SiO2 
 PCOD9075472
Probable space group: P -1
;
_chemical_formula_sum "Si O2"
_cell_formula_units_Z 16
_cell_length_a 14.486696
_cell_length_b 10.826459
_cell_length_c 8.289537
_cell_angle_alpha 138.218492
_cell_angle_beta 77.897941
_cell_angle_gamma 87.591223
_cell_volume 806.794482
_symmetry_space_group_name_H-M "P -1"
_symmetry_group_IT_number 2
_symmetry_cell_setting 'triclinic'
loop_
_space_group_symop_operation_xyz
x,y,z
-x,-y,-z
loop_
_atom_site_type_symbol
_atom_site_label
_atom_site_fract_x
_atom_site_fract_y
_atom_site_fract_z
Si Si1 0.816214 0.598028 0.300490
Si Si2 0.554835 0.951705 0.205465
Si Si3 0.546755 0.670571 0.194363
Si Si4 0.370676 0.458176 0.615917
Si Si5 0.573997 0.171335 0.113481
Si Si6 0.897982 0.262153 0.701611
Si Si7 0.973643 0.516468 0.709574
Si Si8 0.888329 0.854492 0.306288
O O1 0.725863 0.601559 0.451461
O O2 0.920543 0.547569 0.302801
O O3 0.811685 0.786184 0.377974
O O4 0.829463 0.419306 0.998693
O O5 0.592857 0.754714 0.106532
O O6 0.532299 0.133992 0.513656
O O7 0.609200 0.016826 0.096045
O O8 0.455194 0.929123 0.132205
O O9 0.614263 0.588843 0.244981
O O10 0.500000 0.500000 0.000000
O O11 0.467962 0.319791 0.357224
O O12 0.362784 0.682553 0.802729
O O13 0.914337 0.369027 0.638812
O O14 0.006499 0.196990 0.685402
O O15 0.858891 0.081722 0.509670
O O16 0.000000 0.500000 0.500000
O O17 0.912710 0.724132 0.009777
#
# Coordination Sequence:
#
# PCOD9075472 Si02
#       8
#     2   2   2   2   2   2   2   2
#     4   9  18  33  50  75  98 134 172 209 245 299
#     4   9  18  33  53  72  96 128 182 209 256 314
#     4  10  18  32  54  76  94 129 175 215 255 309
#     4  10  19  33  55  73 103 139 179 215 261 308
#     4   9  18  34  52  74 101 143 173 214 268 309
#     4   8  15  31  52  74  96 131 167 200 242 306
#     4   9  17  30  54  76 103 132 161 201 258 306
#     4   8  15  31  53  71  98 130 167 200 244 301
#
# _framework density 19.831568999999998
#
# number of rings (size 3 to 8) (size 9 to 14) (size 15 to 20)
#    0.000    3.000    1.250    1.500    0.000    0.500 
#    6.750    2.500    2.750    0.000    0.000    0.000 
#    0.000    0.000    0.000    0.000    0.000    0.000 
#
# Total GULP energy -89080.358014 kJ/mol
# GULP energy per Si atom -5567.522376 kJ/mol
# Density = 1.978643 g / cm^3
# Si number density = 19.831569 Si / 1000 Ang^3
#
#
#
# Elastic Constant Matrix: (Units=GPa)
#
#
# Indices 1 2 3 4 5 6 
#
# 1 29.2761 15.3928 13.9810 9.3246 -2.5845 23.1608
# 2 15.3928 152.0117 66.2466 17.6307 13.3936 22.8798
# 3 13.9810 66.2466 73.9016 13.5431 25.4314 14.8715
# 4 9.3246 17.6307 13.5431 35.0856 7.5678 11.8022
# 5 -2.5845 13.3936 25.4314 7.5678 18.7609 -0.1468
# 6 23.1608 22.8798 14.8715 11.8022 -0.1468 26.2558
#
#
#
# Elastic Compliance Matrix: (Units=1/GPa)
#
#
# Indices 1 2 3 4 5 6 
#
# 1 0.139198 0.013451 -0.034836 -0.005076 0.057965 -0.112174
# 2 0.013451 0.013576 -0.017598 -0.003219 0.017219 -0.012185
# 3 -0.034836 -0.017598 0.058208 0.008792 -0.074618 0.008726
# 4 -0.005076 -0.003219 0.008792 0.038857 -0.026114 -0.015309
# 5 0.057965 0.017219 -0.074618 -0.026114 0.160589 -0.011237
# 6 -0.112174 -0.012185 0.008726 -0.015309 -0.011237 0.149532
#
#
# Mechanical properties :
#
#
# Convention : Reuss Voigt Hill
#
# Bulk Modulus (GPa) = 7.51786 49.60335 28.56061
# Shear Modulus (GPa) = 7.32855 26.65840 16.99347
#
# Velocity S-wave (km/s) = 1.92443 3.67037 2.93044
# Velocity P-wave (km/s) = 2.95584 6.55963 5.08752
#
# Compressibility (1/GPa) = 0.13301653
#
# Stress axis : x y z
#
# Youngs Moduli (GPa) = 7.18400 73.66109 17.17991
#
# Poissons Ratio (x) = -0.99085 0.59848
# Poissons Ratio (y) = -0.09663 0.30233
# Poissons Ratio (z) = 0.25026 1.29628
#
# Static dielectric constant tensor:
#      x y z
#    x 1.756510 0.043680 -0.042260 
#    y 0.043680 1.842720 -0.057360 
#    z -0.042260 -0.057360 1.759640 
# 
# From -- ./inp_files/270777.got.cif
#   From: 2010.05.17/outbox.cif.g08.bks.cpg/sg2_136_cif.got.tgz:270777.got - 2010.06.03 11:33:40.
