data_PCOD9075293
_publ_section_title
;
Structure prediction by ZEFSAII (Michael W. Deem and Ramdas Pophale) SiO2 
 PCOD9075293
Probable space group: P -1
;
_chemical_formula_sum "Si O2"
_cell_formula_units_Z 14
_cell_length_a 27.972179
_cell_length_b 21.385821
_cell_length_c 12.592132
_cell_angle_alpha 18.245157
_cell_angle_beta 159.989833
_cell_angle_gamma 163.648013
_cell_volume 628.759771
_symmetry_space_group_name_H-M "P -1"
_symmetry_group_IT_number 2
_symmetry_cell_setting 'triclinic'
loop_
_space_group_symop_operation_xyz
x,y,z
-x,-y,-z
loop_
_atom_site_type_symbol
_atom_site_label
_atom_site_fract_x
_atom_site_fract_y
_atom_site_fract_z
Si Si1 0.536710 0.706381 0.873179
Si Si2 0.683342 0.184658 0.654433
Si Si3 0.332360 0.170362 0.438541
Si Si4 0.172671 0.363358 0.923810
Si Si5 0.219715 0.925150 0.381798
Si Si6 0.362862 0.632294 0.087903
Si Si7 0.186439 0.089868 0.699259
O O1 0.391935 0.756243 0.498336
O O2 0.636636 0.798724 0.820196
O O3 0.445604 0.435844 0.177735
O O4 0.705254 0.897030 0.995008
O O5 0.815492 0.445597 0.442935
O O6 0.500000 0.000000 0.500000
O O7 0.784973 0.066318 0.072106
O O8 0.452831 0.177356 0.769763
O O9 0.254787 0.957841 0.528969
O O10 0.190809 0.176333 0.197979
O O11 0.986935 0.199733 0.863434
O O12 0.344034 0.553468 0.052378
O O13 0.254549 0.739069 0.706015
O O14 0.275947 0.365399 0.394094
O O15 0.000000 0.000000 0.500000
#
# Coordination Sequence:
#
# PCOD9075293 Si02
#       7
#     2   2   2   2   2   2   2
#     4   9  20  36  56  77 109 154 191 219 275 349
#     4   9  18  35  55  80 112 149 186 228 277 337
#     4  10  23  40  58  82 117 153 187 230 287 341
#     4  11  22  38  61  87 111 147 195 238 278 330
#     4  12  22  38  59  87 116 148 188 239 283 331
#     4  11  22  35  57  87 114 146 188 234 283 335
#     4  10  18  32  53  84 115 143 182 238 284 323
#
# _framework density 22.266057
#
# number of rings (size 3 to 8) (size 9 to 14) (size 15 to 20)
#    0.000    1.714    0.000    6.429    0.000    1.143 
#    0.000    0.000    0.000    0.000    0.000   21.000 
#    0.000    0.000    0.000    0.000    0.000    0.000 
#
# Total GULP energy -78083.882719 kJ/mol
# GULP energy per Si atom -5577.420194 kJ/mol
# Density = 2.221538 g / cm^3
# Si number density = 22.266057 Si / 1000 Ang^3
#
#
#
# Elastic Constant Matrix: (Units=GPa)
#
#
# Indices 1 2 3 4 5 6 
#
# 1 78.6933 17.8579 22.1501 4.7886 0.5823 8.2157
# 2 17.8579 35.2757 14.1679 6.6556 4.1472 13.4720
# 3 22.1501 14.1679 70.7169 7.2881 3.1482 25.1721
# 4 4.7886 6.6556 7.2881 21.4893 6.0765 -3.7791
# 5 0.5823 4.1472 3.1482 6.0765 24.8999 9.7867
# 6 8.2157 13.4720 25.1721 -3.7791 9.7867 36.6336
#
#
#
# Elastic Compliance Matrix: (Units=1/GPa)
#
#
# Indices 1 2 3 4 5 6 
#
# 1 0.015205 -0.006866 -0.004087 0.000297 0.000519 0.001815
# 2 -0.006866 0.040114 0.001530 -0.015408 0.003661 -0.016831
# 3 -0.004087 0.001530 0.022653 -0.012554 0.007294 -0.018455
# 4 0.000297 -0.015408 -0.012554 0.066741 -0.022836 0.027211
# 5 0.000519 0.003661 0.007294 -0.022836 0.053252 -0.023057
# 6 0.001815 -0.016831 -0.018455 0.027211 -0.023057 0.054728
#
#
# Mechanical properties :
#
#
# Convention : Reuss Voigt Hill
#
# Bulk Modulus (GPa) = 16.91315 32.55976 24.73645
# Shear Modulus (GPa) = 17.16762 25.30522 21.23642
#
# Velocity S-wave (km/s) = 2.77974 3.37485 3.09165
# Velocity P-wave (km/s) = 4.23262 5.46268 4.88651
#
# Compressibility (1/GPa) = 0.05912560
#
# Stress axis : x y z
#
# Youngs Moduli (GPa) = 65.76981 24.92899 44.14486
#
# Poissons Ratio (x) = 0.17116 0.18041
# Poissons Ratio (y) = 0.45158 -0.06754
# Poissons Ratio (z) = 0.26878 -0.03814
#
# Static dielectric constant tensor:
#      x y z
#    x 1.909040 -0.046840 0.015380 
#    y -0.046840 1.857400 -0.006140 
#    z 0.015380 -0.006140 1.819370 
# 
# From -- ./inp_files/181932.got.cif
#   From: 2010.05.17/outbox.cif.g08.bks.cpg/sg2_91_cif.got.tgz:181932.got - 2010.06.03 11:33:40.
