data_PCOD9075358
_publ_section_title
;
Structure prediction by ZEFSAII (Michael W. Deem and Ramdas Pophale) SiO2 
 PCOD9075358
Probable space group: P -1
;
_chemical_formula_sum "Si O2"
_cell_formula_units_Z 16
_cell_length_a 12.000000
_cell_length_b 9.000000
_cell_length_c 15.000000
_cell_angle_alpha 100.000000
_cell_angle_beta 30.000000
_cell_angle_gamma 110.000000
_cell_volume 734.803614
_symmetry_space_group_name_H-M "P -1"
_symmetry_group_IT_number 2
_symmetry_cell_setting 'triclinic'
loop_
_space_group_symop_operation_xyz
x,y,z
-x,-y,-z
loop_
_atom_site_type_symbol
_atom_site_label
_atom_site_fract_x
_atom_site_fract_y
_atom_site_fract_z
Si Si1 0.851758 0.898542 0.291446
Si Si2 0.879260 0.589784 0.457966
Si Si3 0.260376 0.491148 0.113173
Si Si4 0.595910 0.241036 0.280700
Si Si5 0.383347 0.396317 0.707492
Si Si6 0.786001 0.043957 0.798608
Si Si7 0.040256 0.224588 0.082592
Si Si8 0.589558 0.748759 0.782038
O O1 0.631424 0.867899 0.510999
O O2 0.751186 0.725447 0.291498
O O3 0.093092 0.952637 0.189262
O O4 0.921817 0.040734 0.183829
O O5 0.676823 0.472700 0.516535
O O6 0.713940 0.623448 0.652154
O O7 0.073402 0.507116 0.317607
O O8 0.045718 0.776702 0.335149
O O9 0.122183 0.339797 0.126397
O O10 0.500000 0.500000 0.000000
O O11 0.363504 0.647172 0.991117
O O12 0.657893 0.436022 0.255971
O O13 0.510342 0.194427 0.232236
O O14 0.832090 0.232406 0.161235
O O15 0.275192 0.293721 0.862286
O O16 0.780413 0.899504 0.720535
O O17 0.500000 0.000000 0.000000
#
# Coordination Sequence:
#
# PCOD9075358 Si02
#       8
#     2   2   2   2   2   2   2   2
#     4  12  26  45  71 110 151 192 251 309 380 438
#     4  11  24  46  77 102 145 203 243 311 360 449
#     4  12  26  47  72 107 153 195 247 303 381 450
#     4  11  24  44  76 101 143 201 247 314 358 449
#     4  11  24  47  73 109 145 194 258 302 367 453
#     4  12  25  43  75 108 150 194 250 312 365 446
#     4  12  26  45  71 111 153 193 246 315 378 435
#     4  11  24  48  71 111 142 192 261 294 372 446
#
# _framework density 21.774525000000001
#
# number of rings (size 3 to 8) (size 9 to 14) (size 15 to 20)
#    0.000    0.500    6.250    3.375    3.500    0.500 
#    0.000    0.000    0.000    0.000    0.000    0.000 
#    0.000    0.000    0.000    0.000    0.000    0.000 
#
# Total GULP energy -89290.905590 kJ/mol
# GULP energy per Si atom -5580.681599 kJ/mol
# Density = 2.172497 g / cm^3
# Si number density = 21.774525 Si / 1000 Ang^3
#
#
#
# Elastic Constant Matrix: (Units=GPa)
#
#
# Indices 1 2 3 4 5 6 
#
# 1 136.3083 49.4963 21.8738 -0.0821 -27.2169 27.7665
# 2 49.4963 90.5875 18.4877 -25.3347 -11.1998 26.8945
# 3 21.8738 18.4877 92.2604 -15.1127 -13.1469 10.7539
# 4 -0.0821 -25.3347 -15.1127 49.7069 -1.6636 6.1766
# 5 -27.2169 -11.1998 -13.1469 -1.6636 42.9500 -10.6693
# 6 27.7665 26.8945 10.7539 6.1766 -10.6693 36.9634
#
#
#
# Elastic Compliance Matrix: (Units=1/GPa)
#
#
# Indices 1 2 3 4 5 6 
#
# 1 0.010714 -0.005072 -0.001008 -0.002430 0.004476 -0.002367
# 2 -0.005072 0.021466 0.000606 0.012874 -0.000478 -0.014274
# 3 -0.001008 0.000606 0.012480 0.004602 0.002696 -0.003305
# 4 -0.002430 0.012874 0.004602 0.029795 0.001010 -0.013568
# 5 0.004476 -0.000478 0.002696 0.001010 0.027872 0.004077
# 6 -0.002367 -0.014274 -0.003305 -0.013568 0.004077 0.043623
#
#
# Mechanical properties :
#
#
# Convention : Reuss Voigt Hill
#
# Bulk Modulus (GPa) = 29.66403 55.43020 42.54712
# Shear Modulus (GPa) = 29.73774 41.21060 35.47417
#
# Velocity S-wave (km/s) = 3.69956 4.35513 4.04066
# Velocity P-wave (km/s) = 5.64818 7.12750 6.43052
#
# Compressibility (1/GPa) = 0.03371086
#
# Stress axis : x y z
#
# Youngs Moduli (GPa) = 93.33367 46.58514 80.12899
#
# Poissons Ratio (x) = 0.23628 0.08079
# Poissons Ratio (y) = 0.47339 -0.04852
# Poissons Ratio (z) = 0.09410 -0.02821
#
# Static dielectric constant tensor:
#      x y z
#    x 1.800490 -0.019520 0.009300 
#    y -0.019520 1.840580 0.073760 
#    z 0.009300 0.073760 1.829570 
# 
# From -- ./inp_files/515744.got.cif
#   From: 2010.05.17/outbox.ucp.g08.bks.cvg/sg2_258_cif.got.tgz:515744.got - 2010.06.11 11:32:03.
