data_PCOD9075019
_publ_section_title
;
Structure prediction by ZEFSAII (Michael W. Deem and Ramdas Pophale) SiO2 
 PCOD9075019
Probable space group: P -1
;
_chemical_formula_sum "Si O2"
_cell_formula_units_Z 16
_cell_length_a 9.000000
_cell_length_b 12.000000
_cell_length_c 27.000000
_cell_angle_alpha 150.000000
_cell_angle_beta 150.000000
_cell_angle_gamma 40.000000
_cell_volume 727.497153
_symmetry_space_group_name_H-M "P -1"
_symmetry_group_IT_number 2
_symmetry_cell_setting 'triclinic'
loop_
_space_group_symop_operation_xyz
x,y,z
-x,-y,-z
loop_
_atom_site_type_symbol
_atom_site_label
_atom_site_fract_x
_atom_site_fract_y
_atom_site_fract_z
Si Si1 0.892778 0.890406 0.167661
Si Si2 0.412491 0.698749 0.886079
Si Si3 0.751405 0.854992 0.485881
Si Si4 0.040758 0.473037 0.864872
Si Si5 0.618548 0.366709 0.265941
Si Si6 0.444378 0.169151 0.693159
Si Si7 0.679741 0.902323 0.259021
Si Si8 0.925232 0.013144 0.924749
O O1 0.932988 0.702448 0.149834
O O2 0.215958 0.920423 0.250738
O O3 0.740577 0.130755 0.233019
O O4 0.702996 0.787937 0.029598
O O5 0.409160 0.703417 0.827245
O O6 0.410857 0.435853 0.794642
O O7 0.151423 0.852712 0.896584
O O8 0.798264 0.588934 0.407335
O O9 0.696318 0.874950 0.418220
O O10 0.500000 0.000000 0.500000
O O11 0.036666 0.977554 0.629660
O O12 0.254804 0.356143 0.840007
O O13 0.703613 0.524680 0.768163
O O14 0.092509 0.723696 0.993401
O O15 0.338951 0.075540 0.678630
O O16 0.405329 0.034072 0.203734
O O17 0.000000 0.000000 0.000000
#
# Coordination Sequence:
#
# PCOD9075019 Si02
#       8
#     2   2   2   2   2   2   2   2
#     4  12  22  42  72 103 138 185 234 289 354 416
#     4  11  22  40  68 101 144 182 231 289 352 426
#     4  11  23  49  72  98 142 189 241 292 339 423
#     4  12  24  45  70 101 143 182 234 289 348 425
#     4  11  24  41  71 103 135 180 246 288 339 418
#     4  11  24  42  69 107 141 183 236 292 355 413
#     4  12  25  44  70 100 145 190 228 289 365 410
#     4  12  26  44  69 109 147 183 232 292 360 425
#
# _framework density 21.993213000000001
#
# number of rings (size 3 to 8) (size 9 to 14) (size 15 to 20)
#    0.000    0.500    5.000    4.500    1.750    0.000 
#    0.000   10.625    0.000    0.000    0.000    0.000 
#    0.000    0.000    0.000    0.000    0.000    0.000 
#
# Total GULP energy -89362.265186 kJ/mol
# GULP energy per Si atom -5585.141574 kJ/mol
# Density = 2.194316 g / cm^3
# Si number density = 21.993213 Si / 1000 Ang^3
#
#
#
# Elastic Constant Matrix: (Units=GPa)
#
#
# Indices 1 2 3 4 5 6 
#
# 1 42.8170 9.8567 -23.2845 14.2928 -12.4495 11.2782
# 2 9.8567 132.6797 20.2962 15.8492 4.1436 -2.8422
# 3 -23.2845 20.2962 59.8687 7.8390 -3.5014 5.6305
# 4 14.2928 15.8492 7.8390 22.4511 -16.1912 1.1958
# 5 -12.4495 4.1436 -3.5014 -16.1912 33.6998 6.9346
# 6 11.2782 -2.8422 5.6305 1.1958 6.9346 29.1755
#
#
#
# Elastic Compliance Matrix: (Units=1/GPa)
#
#
# Indices 1 2 3 4 5 6 
#
# 1 0.090654 -0.011499 0.051399 -0.043052 0.030154 -0.051486
# 2 -0.011499 0.011133 -0.009068 -0.006408 -0.011765 0.010339
# 3 0.051399 -0.009068 0.047616 -0.027826 0.018513 -0.033201
# 4 -0.043052 -0.006408 -0.027826 0.109182 0.032562 0.009174
# 5 0.030154 -0.011765 0.018513 0.032562 0.066736 -0.033572
# 6 -0.051486 0.010339 -0.033201 0.009174 -0.033572 0.069196
#
#
# Mechanical properties :
#
#
# Convention : Reuss Voigt Hill
#
# Bulk Modulus (GPa) = 4.73784 27.67801 16.20792
# Shear Modulus (GPa) = 12.40052 32.29841 22.34946
#
# Velocity S-wave (km/s) = 2.37709 3.83634 3.19124
# Velocity P-wave (km/s) = 3.11336 5.67763 4.57867
#
# Compressibility (1/GPa) = 0.21106677
#
# Stress axis : x y z
#
# Youngs Moduli (GPa) = 11.03096 89.82601 21.00125
#
# Poissons Ratio (x) = 1.03290 -1.07944
# Poissons Ratio (y) = 0.12684 0.19043
# Poissons Ratio (z) = -0.56698 0.81452
#
# Static dielectric constant tensor:
#      x y z
#    x 1.837290 0.037540 0.074090 
#    y 0.037540 1.801730 -0.021560 
#    z 0.074090 -0.021560 1.912780 
# 
# From -- ./inp_files/617074.got.cif
#   From: 2010.05.17/outbox.ucp.g08.bks.cvg/sg2_309_cif.got.tgz:617074.got - 2010.06.11 11:32:03.
