data_PCOD9075491
_publ_section_title
;
Structure prediction by ZEFSAII (Michael W. Deem and Ramdas Pophale) SiO2 
 PCOD9075491
Probable space group: P -1
;
_chemical_formula_sum "Si O2"
_cell_formula_units_Z 14
_cell_length_a 7.205625
_cell_length_b 8.911323
_cell_length_c 10.400595
_cell_angle_alpha 102.443377
_cell_angle_beta 120.396609
_cell_angle_gamma 105.588308
_cell_volume 502.765557
_symmetry_space_group_name_H-M "P -1"
_symmetry_group_IT_number 2
_symmetry_cell_setting 'triclinic'
loop_
_space_group_symop_operation_xyz
x,y,z
-x,-y,-z
loop_
_atom_site_type_symbol
_atom_site_label
_atom_site_fract_x
_atom_site_fract_y
_atom_site_fract_z
Si Si1 0.990779 0.092357 0.381584
Si Si2 0.972438 0.304350 0.054182
Si Si3 0.655223 0.945238 0.940518
Si Si4 0.628495 0.189189 0.411211
Si Si5 0.311909 0.590952 0.850606
Si Si6 0.192079 0.437761 0.398214
Si Si7 0.984036 0.767325 0.232134
O O1 0.197472 0.274971 0.440270
O O2 0.785618 0.146819 0.353437
O O3 0.939997 0.934675 0.241060
O O4 0.000000 0.000000 0.500000
O O5 0.748343 0.341975 0.023570
O O6 0.196129 0.429841 0.242865
O O7 0.996665 0.302723 0.912291
O O8 0.904496 0.118887 0.058970
O O9 0.617184 0.937159 0.767500
O O10 0.551371 0.741641 0.902900
O O11 0.500000 0.000000 0.000000
O O12 0.639244 0.376323 0.455552
O O13 0.766034 0.181668 0.589965
O O14 0.075800 0.571109 0.683905
O O15 0.245050 0.390755 0.808656
#
# Coordination Sequence:
#
# PCOD9075491 Si02
#       7
#     2   2   2   2   2   2   2
#     4  10  19  28  48  83 105 128 172 225 250 292
#     4   9  19  34  54  77 107 133 174 209 261 306
#     4  10  18  32  54  77 101 137 174 215 251 305
#     4  10  19  32  55  79 100 134 182 211 250 305
#     4   8  17  31  54  75  98 131 177 209 243 298
#     4   9  18  32  55  77  98 135 181 211 245 303
#     4  10  20  31  52  84 105 133 165 224 256 297
#
# _framework density 27.845983
#
# number of rings (size 3 to 8) (size 9 to 14) (size 15 to 20)
#    0.857    1.714    1.429    0.857    4.000    1.143 
#    0.000    0.000    0.000    8.571    0.000    0.000 
#    0.000    0.000    0.000    0.000    0.000    0.000 
#
# Total GULP energy -77964.311981 kJ/mol
# GULP energy per Si atom -5568.879427 kJ/mol
# Density = 2.778260 g / cm^3
# Si number density = 27.845983 Si / 1000 Ang^3
#
#
#
# Elastic Constant Matrix: (Units=GPa)
#
#
# Indices 1 2 3 4 5 6 
#
# 1 68.6428 19.0159 29.4136 3.8841 -1.4276 3.7346
# 2 19.0159 189.9567 29.6747 21.5424 -6.4943 -8.3511
# 3 29.4136 29.6747 176.1586 6.3159 -31.3352 -0.6170
# 4 3.8841 21.5424 6.3159 41.0805 3.4713 -8.5044
# 5 -1.4276 -6.4943 -31.3352 3.4713 37.2298 2.5502
# 6 3.7346 -8.3511 -0.6170 -8.5044 2.5502 25.6980
#
#
#
# Elastic Compliance Matrix: (Units=1/GPa)
#
#
# Indices 1 2 3 4 5 6 
#
# 1 0.016293 -0.001281 -0.002774 -0.000923 -0.001643 -0.002993
# 2 -0.001281 0.005856 -0.000551 -0.002692 0.000683 0.001117
# 3 -0.002774 -0.000551 0.007370 -0.001230 0.006158 -0.000617
# 4 -0.000923 -0.002692 -0.001230 0.028315 -0.004802 0.009077
# 5 -0.001643 0.000683 0.006158 -0.004802 0.032837 -0.004239
# 6 -0.002993 0.001117 -0.000617 0.009077 -0.004239 0.043121
#
#
# Mechanical properties :
#
#
# Convention : Reuss Voigt Hill
#
# Bulk Modulus (GPa) = 49.24247 65.66294 57.45271
# Shear Modulus (GPa) = 33.38382 44.57860 38.98121
#
# Velocity S-wave (km/s) = 3.46623 4.00546 3.74556
# Velocity P-wave (km/s) = 5.80878 6.70996 6.27557
#
# Compressibility (1/GPa) = 0.02030767
#
# Stress axis : x y z
#
# Youngs Moduli (GPa) = 61.37747 170.75526 135.68623
#
# Poissons Ratio (x) = 0.21868 0.37643
# Poissons Ratio (y) = 0.07860 0.07472
# Poissons Ratio (z) = 0.17028 0.09404
#
# Static dielectric constant tensor:
#      x y z
#    x 2.359990 -0.028280 0.090360 
#    y -0.028280 2.251340 -0.114550 
#    z 0.090360 -0.114550 2.312060 
# 
# From -- ./inp_files/380091.got.cif
#   From: 2010.05.17/outbox.cif.g08.bks.cpg/sg2_191_cif.got.tgz:380091.got - 2010.06.03 11:33:40.
