data_PCOD9075645
_publ_section_title
;
Structure prediction by ZEFSAII (Michael W. Deem and Ramdas Pophale) SiO2 
 PCOD9075645
Probable space group: P -1
;
_chemical_formula_sum "Si O2"
_cell_formula_units_Z 10
_cell_length_a 12.000000
_cell_length_b 9.000000
_cell_length_c 24.000000
_cell_angle_alpha 150.000000
_cell_angle_beta 160.000000
_cell_angle_gamma 40.000000
_cell_volume 425.625602
_symmetry_space_group_name_H-M "P -1"
_symmetry_group_IT_number 2
_symmetry_cell_setting 'triclinic'
loop_
_space_group_symop_operation_xyz
x,y,z
-x,-y,-z
loop_
_atom_site_type_symbol
_atom_site_label
_atom_site_fract_x
_atom_site_fract_y
_atom_site_fract_z
Si Si1 0.362671 0.622673 0.653591
Si Si2 0.394138 0.542180 0.401217
Si Si3 0.725097 0.304055 0.067932
Si Si4 0.804437 0.685059 0.337565
Si Si5 0.372770 0.732991 0.246465
O O1 0.514932 0.612519 0.660757
O O2 0.418282 0.370066 0.639043
O O3 0.988083 0.613268 0.455938
O O4 0.541741 0.947889 0.870579
O O5 0.500000 0.500000 0.500000
O O6 0.003530 0.380409 0.175494
O O7 0.557540 0.907485 0.589896
O O8 0.804343 0.430216 0.208651
O O9 0.500000 0.500000 0.000000
O O10 0.469198 0.718632 0.221296
O O11 0.000000 0.000000 0.500000
O O12 0.000000 0.500000 0.000000
#
# Coordination Sequence:
#
# PCOD9075645 Si02
#       5
#     2   2   2   2   2
#     4  12  26  46  72 108 146 186 233 302 360 412
#     4  12  24  48  74 103 145 189 241 291 349 434
#     4  12  25  43  78 106 137 191 243 290 349 425
#     4  12  24  50  74 103 144 189 246 288 346 436
#     4  12  28  47  72 109 147 187 234 301 364 412
#
# _framework density 23.494827000000001
#
# number of rings (size 3 to 8) (size 9 to 14) (size 15 to 20)
#    0.000    0.000    6.000    3.000    2.800    0.800 
#    3.600    0.000    0.000    0.000    0.000    0.000 
#    0.000    0.000    0.000    0.000    0.000    0.000 
#
# Total GULP energy -55674.843423 kJ/mol
# GULP energy per Si atom -5567.484342 kJ/mol
# Density = 2.344135 g / cm^3
# Si number density = 23.494827 Si / 1000 Ang^3
#
#
#
# Elastic Constant Matrix: (Units=GPa)
#
#
# Indices 1 2 3 4 5 6 
#
# 1 93.9187 -10.8857 0.3091 -25.8985 -32.4560 -3.9583
# 2 -10.8857 81.1887 7.7422 8.9640 -32.9645 38.5560
# 3 0.3091 7.7422 20.5257 17.2596 -52.3668 18.3093
# 4 -25.8985 8.9640 17.2596 26.4056 -23.6169 -11.2635
# 5 -32.4560 -32.9645 -52.3668 -23.6169 25.2345 8.9630
# 6 -3.9583 38.5560 18.3093 -11.2635 8.9630 31.6991
#
#
#
# Elastic Compliance Matrix: (Units=1/GPa)
#
#
# Indices 1 2 3 4 5 6 
#
# 1 -0.010325 0.007443 0.009004 -0.048743 -0.020918 -0.026948
# 2 0.007443 0.012071 -0.019275 0.018919 0.001769 0.003602
# 3 0.009004 -0.019275 -0.001493 0.033340 0.001405 0.036881
# 4 -0.048743 0.018919 0.033340 -0.112908 -0.047840 -0.074947
# 5 -0.020918 0.001769 0.001405 -0.047840 -0.020905 -0.016663
# 6 -0.026948 0.003602 0.036881 -0.074947 -0.016663 -0.019421
#
#
# Mechanical properties :
#
#
# Convention : Reuss Voigt Hill
#
# Bulk Modulus (GPa) = -185.06468 21.10717 -81.97875
# Shear Modulus (GPa) = -33.52879 29.89901 -1.81489
#
# Velocity S-wave (km/s) = -3.78176 3.57119 -0.87985
# Velocity P-wave (km/s) = 9.89991 5.09978 6.00002
#
# Compressibility (1/GPa) = -0.00540352
#
# Stress axis : x y z
#
# Youngs Moduli (GPa) = -96.85116 82.83985 -669.58226
#
# Poissons Ratio (x) = -0.61655 6.02920
# Poissons Ratio (y) = 0.72083 -12.90637
# Poissons Ratio (z) = 0.87209 1.59676
#
# Static dielectric constant tensor:
#      x y z
#    x 1.814320 -0.052190 -0.062800 
#    y -0.052190 1.951490 -0.176130 
#    z -0.062800 -0.176130 2.106920 
# 
# From -- ./inp_files/15224.got.cif
#   From: 2010.05.17/outbox.ucp.g08.bks.cvg/sg2_8_cif.got.tgz:15224.got - 2010.06.11 11:32:03.
