data_PCOD9075141
_publ_section_title
;
Structure prediction by ZEFSAII (Michael W. Deem and Ramdas Pophale) SiO2 
 PCOD9075141
Probable space group: P -1
;
_chemical_formula_sum "Si O2"
_cell_formula_units_Z 16
_cell_length_a 12.000000
_cell_length_b 9.000000
_cell_length_c 15.000000
_cell_angle_alpha 110.000000
_cell_angle_beta 150.000000
_cell_angle_gamma 80.000000
_cell_volume 734.803614
_symmetry_space_group_name_H-M "P -1"
_symmetry_group_IT_number 2
_symmetry_cell_setting 'triclinic'
loop_
_space_group_symop_operation_xyz
x,y,z
-x,-y,-z
loop_
_atom_site_type_symbol
_atom_site_label
_atom_site_fract_x
_atom_site_fract_y
_atom_site_fract_z
Si Si1 0.919528 0.253060 0.885830
Si Si2 0.766631 0.500406 0.704396
Si Si3 0.829670 0.026350 0.059477
Si Si4 0.113881 0.558401 0.418230
Si Si5 0.604367 0.207485 0.209877
Si Si6 0.410564 0.756714 0.186314
Si Si7 0.936506 0.764237 0.574612
Si Si8 0.349734 0.428876 0.966707
O O1 0.846687 0.341644 0.765635
O O2 0.684424 0.227035 0.776631
O O3 0.111743 0.368901 0.108675
O O4 0.035758 0.104735 0.911775
O O5 0.500000 0.500000 0.500000
O O6 0.855312 0.527548 0.670307
O O7 0.727091 0.132291 0.939474
O O8 0.599189 0.948658 0.940986
O O9 0.001344 0.137063 0.270836
O O10 0.330299 0.697237 0.631519
O O11 0.077979 0.423548 0.444478
O O12 0.902757 0.636507 0.265190
O O13 0.480086 0.309817 0.079796
O O14 0.844743 0.187985 0.331194
O O15 0.690093 0.792184 0.379329
O O16 0.338102 0.571849 0.058429
O O17 0.500000 0.500000 0.000000
#
# Coordination Sequence:
#
# PCOD9075141 Si02
#       8
#     2   2   2   2   2   2   2   2
#     4  11  25  45  67 101 140 182 234 288 336 416
#     4  11  23  40  70 102 137 176 231 289 346 398
#     4  12  27  45  68 101 147 182 225 288 355 402
#     4  12  22  41  70 102 132 179 230 281 345 408
#     4  12  26  44  71 106 139 176 238 291 339 416
#     4  12  25  44  70  97 141 185 230 281 344 416
#     4  12  25  44  70 101 140 184 230 283 350 419
#     4  12  22  41  72 101 133 179 227 282 342 404
#
# _framework density 21.774525000000001
#
# number of rings (size 3 to 8) (size 9 to 14) (size 15 to 20)
#    0.000    0.250    5.000    4.125    1.750    4.000 
#    0.000    0.000    0.000    0.000    0.000    0.000 
#    0.000    0.000    0.000    0.000    0.000    0.000 
#
# Total GULP energy -89284.487343 kJ/mol
# GULP energy per Si atom -5580.280459 kJ/mol
# Density = 2.172497 g / cm^3
# Si number density = 21.774525 Si / 1000 Ang^3
#
#
#
# Elastic Constant Matrix: (Units=GPa)
#
#
# Indices 1 2 3 4 5 6 
#
# 1 84.0753 10.9231 -14.9097 -3.7258 10.7358 -6.6628
# 2 10.9231 66.6320 9.3279 -15.8207 -0.8157 -13.1689
# 3 -14.9097 9.3279 110.4877 -19.9238 5.2788 -7.2626
# 4 -3.7258 -15.8207 -19.9238 26.7354 -9.2648 4.5845
# 5 10.7358 -0.8157 5.2788 -9.2648 42.5787 -9.2142
# 6 -6.6628 -13.1689 -7.2626 4.5845 -9.2142 36.8057
#
#
#
# Elastic Compliance Matrix: (Units=1/GPa)
#
#
# Indices 1 2 3 4 5 6 
#
# 1 0.013122 -0.002023 0.002369 0.001103 -0.003142 0.001195
# 2 -0.002023 0.019492 0.000468 0.012189 0.004863 0.006399
# 3 0.002369 0.000468 0.010982 0.008593 0.000302 0.001769
# 4 0.001103 0.012189 0.008593 0.054694 0.011282 0.002268
# 5 -0.003142 0.004863 0.000302 0.011282 0.028283 0.006906
# 6 0.001195 0.006399 0.001769 0.002268 0.006906 0.031471
#
#
# Mechanical properties :
#
#
# Convention : Reuss Voigt Hill
#
# Bulk Modulus (GPa) = 22.11223 30.20863 26.16043
# Shear Modulus (GPa) = 29.15579 38.28087 33.71833
#
# Velocity S-wave (km/s) = 3.66319 4.19747 3.93940
# Velocity P-wave (km/s) = 5.29802 6.11516 5.72120
#
# Compressibility (1/GPa) = 0.04522384
#
# Stress axis : x y z
#
# Youngs Moduli (GPa) = 76.20832 51.30220 91.05570
#
# Poissons Ratio (x) = 0.10379 -0.21572
# Poissons Ratio (y) = 0.15418 -0.04258
# Poissons Ratio (z) = -0.18055 -0.02399
#
# Static dielectric constant tensor:
#      x y z
#    x 1.847980 0.074510 -0.014700 
#    y 0.074510 1.912070 -0.036390 
#    z -0.014700 -0.036390 1.925850 
# 
# From -- ./inp_files/206201.got.cif
#   From: 2010.05.17/outbox.ucp.g08.bks.cvg/sg2_104_cif.got.tgz:206201.got - 2010.06.11 11:32:03.
