data_PCOD9075871
_publ_section_title
;
Structure prediction by ZEFSAII (Michael W. Deem and Ramdas Pophale) SiO2 
 PCOD9075871
Probable space group: P -1
;
_chemical_formula_sum "Si O2"
_cell_formula_units_Z 14
_cell_length_a 16.714581
_cell_length_b 7.549811
_cell_length_c 14.282152
_cell_angle_alpha 54.661359
_cell_angle_beta 153.253506
_cell_angle_gamma 109.033216
_cell_volume 565.714100
_symmetry_space_group_name_H-M "P -1"
_symmetry_group_IT_number 2
_symmetry_cell_setting 'triclinic'
loop_
_space_group_symop_operation_xyz
x,y,z
-x,-y,-z
loop_
_atom_site_type_symbol
_atom_site_label
_atom_site_fract_x
_atom_site_fract_y
_atom_site_fract_z
Si Si1 0.444162 0.281122 0.025688
Si Si2 0.690153 0.064582 0.172419
Si Si3 0.485138 0.458289 0.669684
Si Si4 0.970924 0.274364 0.488687
Si Si5 0.416121 0.160230 0.544056
Si Si6 0.172627 0.883940 0.988100
Si Si7 0.161138 0.996683 0.243359
O O1 0.198957 0.444107 0.741890
O O2 0.500000 0.500000 0.000000
O O3 0.529994 0.113066 0.072949
O O4 0.544130 0.080180 0.276126
O O5 0.829105 0.170888 0.329138
O O6 0.574142 0.249282 0.907817
O O7 0.864530 0.785758 0.403914
O O8 0.349952 0.394697 0.475465
O O9 0.361289 0.721764 0.512300
O O10 0.685859 0.384158 0.836706
O O11 0.083416 0.093222 0.749765
O O12 0.255165 0.179100 0.293184
O O13 0.645722 0.098952 0.771205
O O14 0.976210 0.940709 0.825208
O O15 0.000000 0.000000 0.000000
#
# Coordination Sequence:
#
# PCOD9075871 Si02
#       7
#     2   2   2   2   2   2   2
#     4  10  18  32  56  85 126 164 201 245 279 351
#     4   9  16  30  55  82 119 163 196 233 286 354
#     4   9  22  44  59  94 133 156 208 262 307 376
#     4   9  16  30  55  82 119 163 196 233 286 354
#     4  10  24  44  59  94 133 161 206 265 311 360
#     4   9  22  44  59  94 133 156 208 262 307 376
#     4  12  24  44  73  89 113 167 210 262 337 377
#
# _framework density 24.747482999999999
#
# number of rings (size 3 to 8) (size 9 to 14) (size 15 to 20)
#    0.857    1.429    0.000    4.286    0.000    2.857 
#    5.143    0.000    0.000    0.000    0.000    0.000 
#    0.000    0.000    0.000    0.000    0.000    0.000 
#
# Total GULP energy -78078.193630 kJ/mol
# GULP energy per Si atom -5577.013831 kJ/mol
# Density = 2.469116 g / cm^3
# Si number density = 24.747483 Si / 1000 Ang^3
#
#
#
# Elastic Constant Matrix: (Units=GPa)
#
#
# Indices 1 2 3 4 5 6 
#
# 1 -25.2599 44.0742 213.0724 -65.7153 103.4650 30.4296
# 2 44.0742 146.7083 47.2252 -2.9367 25.0547 -14.0858
# 3 213.0724 47.2252 -75.9423 58.9983 -15.9996 -61.9811
# 4 -65.7153 -2.9367 58.9983 31.6299 7.7265 25.8458
# 5 103.4650 25.0547 -15.9996 7.7265 36.1301 -22.1371
# 6 30.4296 -14.0858 -61.9811 25.8458 -22.1371 35.5672
#
#
#
# Elastic Compliance Matrix: (Units=1/GPa)
#
#
# Indices 1 2 3 4 5 6 
#
# 1 0.005253 -0.002191 0.006579 -0.004589 -0.006219 0.005566
# 2 -0.002191 0.008335 -0.002462 -0.000392 0.000332 0.001376
# 3 0.006579 -0.002462 0.008810 0.001428 -0.014243 -0.001153
# 4 -0.004589 -0.000392 0.001428 0.018931 0.008736 -0.002060
# 5 -0.006219 0.000332 -0.014243 0.008736 0.034473 -0.004260
# 6 0.005566 0.001376 -0.001153 -0.002060 -0.004260 0.020735
#
#
# Mechanical properties :
#
#
# Convention : Reuss Voigt Hill
#
# Bulk Modulus (GPa) = 38.09615 72.69443 55.39529
# Shear Modulus (GPa) = 49.29238 3.40774 26.35006
#
# Velocity S-wave (km/s) = 4.46782 1.17473 3.26660
# Velocity P-wave (km/s) = 6.48402 5.59269 6.05478
#
# Compressibility (1/GPa) = 0.02624937
#
# Stress axis : x y z
#
# Youngs Moduli (GPa) = 190.34974 119.97976 113.50397
#
# Poissons Ratio (x) = 0.26291 -0.74674
# Poissons Ratio (y) = 0.41711 0.27947
# Poissons Ratio (z) = -1.25230 0.29542
#
# Static dielectric constant tensor:
#      x y z
#    x 2.059320 0.212970 0.055480 
#    y 0.212970 2.666660 0.183950 
#    z 0.055480 0.183950 2.043720 
# 
# From -- ./inp_files/537300.got.cif
#   From: 2010.05.17/outbox.cif.g08.bks.cpg/sg2_269_cif.got.tgz:537300.got - 2010.06.03 11:33:40.
