data_PCOD9075368
_publ_section_title
;
Structure prediction by ZEFSAII (Michael W. Deem and Ramdas Pophale) SiO2 
 PCOD9075368
Probable space group: P -1
;
_chemical_formula_sum "Si O2"
_cell_formula_units_Z 14
_cell_length_a 12.000000
_cell_length_b 9.000000
_cell_length_c 12.000000
_cell_angle_alpha 130.000000
_cell_angle_beta 120.000000
_cell_angle_gamma 40.000000
_cell_volume 638.079485
_symmetry_space_group_name_H-M "P -1"
_symmetry_group_IT_number 2
_symmetry_cell_setting 'triclinic'
loop_
_space_group_symop_operation_xyz
x,y,z
-x,-y,-z
loop_
_atom_site_type_symbol
_atom_site_label
_atom_site_fract_x
_atom_site_fract_y
_atom_site_fract_z
Si Si1 0.434610 0.709916 0.167495
Si Si2 0.473498 0.691169 0.434444
Si Si3 0.970231 0.249129 0.847558
Si Si4 0.708867 0.760081 0.298843
Si Si5 0.193987 0.703383 0.429878
Si Si6 0.976522 0.877680 0.824293
Si Si7 0.700544 0.819167 0.066469
O O1 0.488290 0.604292 0.271643
O O2 0.546904 0.781771 0.229246
O O3 0.500000 0.500000 0.000000
O O4 0.228678 0.964486 0.191738
O O5 0.337709 0.686395 0.427525
O O6 0.670006 0.502329 0.500328
O O7 0.358058 0.006979 0.535839
O O8 0.882744 0.363700 0.735818
O O9 0.158937 0.166836 0.908661
O O10 0.815963 0.504532 0.965979
O O11 0.995055 0.002236 0.784841
O O12 0.883776 0.446531 0.257513
O O13 0.701905 0.863174 0.221102
O O14 0.000000 0.000000 0.500000
O O15 0.000000 0.000000 0.000000
O O16 0.500000 0.000000 0.000000
#
# Coordination Sequence:
#
# PCOD9075368 Si02
#       7
#     2   2   2   2   2   2   2
#     4  12  26  46  78 107 152 199 251 311 377 457
#     4  11  27  49  72 117 148 198 258 312 380 452
#     4  11  24  45  70 109 142 198 252 308 369 456
#     4  12  27  47  72 110 152 197 250 320 379 449
#     4  11  25  47  78 103 154 199 251 311 386 454
#     4  12  25  46  74 109 150 196 257 306 384 446
#     4  11  25  43  74 105 150 192 252 312 376 437
#
# _framework density 21.940840000000001
#
# number of rings (size 3 to 8) (size 9 to 14) (size 15 to 20)
#    0.000    0.571    4.286    2.143    4.000    5.143 
#    0.000    0.000    0.000    0.000    0.000    0.000 
#    0.000    0.000    0.000    0.000    0.000    0.000 
#
# Total GULP energy -77971.114390 kJ/mol
# GULP energy per Si atom -5569.365314 kJ/mol
# Density = 2.189090 g / cm^3
# Si number density = 21.940840 Si / 1000 Ang^3
#
#
#
# Elastic Constant Matrix: (Units=GPa)
#
#
# Indices 1 2 3 4 5 6 
#
# 1 102.9589 37.4869 8.4172 -0.0854 1.7212 -31.1920
# 2 37.4869 183.5541 37.8490 -8.1907 -1.6323 -36.6392
# 3 8.4172 37.8490 113.0321 -5.4703 -16.8096 -4.3464
# 4 -0.0854 -8.1907 -5.4703 46.0192 -4.3722 3.6652
# 5 1.7212 -1.6323 -16.8096 -4.3722 39.0587 -6.8016
# 6 -31.1920 -36.6392 -4.3464 3.6652 -6.8016 53.8098
#
#
#
# Elastic Compliance Matrix: (Units=1/GPa)
#
#
# Indices 1 2 3 4 5 6 
#
# 1 0.012052 -0.001193 -0.000243 -0.000685 0.000325 0.006242
# 2 -0.001193 0.006903 -0.002008 0.000704 0.000222 0.003827
# 3 -0.000243 -0.002008 0.010254 0.001300 0.004450 -0.000206
# 4 -0.000685 0.000704 0.001300 0.022366 0.002955 -0.000963
# 5 0.000325 0.000222 0.004450 0.002955 0.028558 0.004107
# 6 0.006242 0.003827 -0.000206 -0.000963 0.004107 0.025376
#
#
# Mechanical properties :
#
#
# Convention : Reuss Voigt Hill
#
# Bulk Modulus (GPa) = 44.80145 63.00572 53.90358
# Shear Modulus (GPa) = 41.72286 48.83031 45.27659
#
# Velocity S-wave (km/s) = 4.36547 4.72269 4.54759
# Velocity P-wave (km/s) = 6.77299 7.64963 7.22462
#
# Compressibility (1/GPa) = 0.02232071
#
# Stress axis : x y z
#
# Youngs Moduli (GPa) = 82.97469 144.86507 97.51945
#
# Poissons Ratio (x) = 0.17282 0.02368
# Poissons Ratio (y) = 0.09899 0.19586
# Poissons Ratio (z) = 0.02015 0.29095
#
# Static dielectric constant tensor:
#      x y z
#    x 1.863090 0.056000 -0.009060 
#    y 0.056000 1.835930 0.013020 
#    z -0.009060 0.013020 1.981440 
# 
# From -- ./inp_files/420077.got.cif
#   From: 2010.05.17/outbox.ucp.g08.bks.cvg/sg2_211_cif.got.tgz:420077.got - 2010.06.11 11:32:03.
