data_PCOD9075022
_publ_section_title
;
Structure prediction by ZEFSAII (Michael W. Deem and Ramdas Pophale) SiO2 
 PCOD9075022
Probable space group: P -1
;
_chemical_formula_sum "Si O2"
_cell_formula_units_Z 14
_cell_length_a 6.000000
_cell_length_b 15.000000
_cell_length_c 15.000000
_cell_angle_alpha 30.000000
_cell_angle_beta 70.000000
_cell_angle_gamma 80.000000
_cell_volume 612.336345
_symmetry_space_group_name_H-M "P -1"
_symmetry_group_IT_number 2
_symmetry_cell_setting 'triclinic'
loop_
_space_group_symop_operation_xyz
x,y,z
-x,-y,-z
loop_
_atom_site_type_symbol
_atom_site_label
_atom_site_fract_x
_atom_site_fract_y
_atom_site_fract_z
Si Si1 0.295267 0.810013 0.174363
Si Si2 0.932538 0.215903 0.952527
Si Si3 0.559989 0.746278 0.551769
Si Si4 0.439484 0.492086 0.621292
Si Si5 0.718822 0.539225 0.014494
Si Si6 0.919528 0.123714 0.681442
Si Si7 0.559982 0.888474 0.793817
O O1 0.114898 0.834127 0.101123
O O2 0.412213 0.658308 0.245336
O O3 0.162974 0.755567 0.334718
O O4 0.500000 0.000000 0.000000
O O5 0.158375 0.395086 0.767316
O O6 0.698492 0.234407 0.025705
O O7 0.995039 0.036878 0.140146
O O8 0.518869 0.669319 0.521253
O O9 0.401494 0.595377 0.770853
O O10 0.852250 0.772628 0.499967
O O11 0.498969 0.945528 0.401010
O O12 0.500000 0.500000 0.500000
O O13 0.500000 0.500000 0.000000
O O14 0.720852 0.752704 0.854046
O O15 0.000000 0.500000 0.000000
O O16 0.698397 0.010263 0.750896
#
# Coordination Sequence:
#
# PCOD9075022 Si02
#       7
#     2   2   2   2   2   2   2
#     4  12  22  37  62 101 145 207 254 304 366 447
#     4  11  22  40  69  97 151 199 259 306 377 455
#     4  11  28  48  78 114 155 204 257 327 384 477
#     4  12  26  41  67 111 155 203 261 308 380 461
#     4  12  32  56  86 120 153 202 263 333 415 483
#     4  11  23  42  71 105 148 201 257 310 385 453
#     4  11  26  48  79 109 149 199 249 325 400 467
#
# _framework density 22.863251999999999
#
# number of rings (size 3 to 8) (size 9 to 14) (size 15 to 20)
#    0.000    0.571    2.857    3.857   10.000    5.714 
#    0.000    0.000    0.000    0.000    0.000    0.000 
#    0.000    0.000    0.000    0.000    0.000    0.000 
#
# Total GULP energy -78187.855578 kJ/mol
# GULP energy per Si atom -5584.846827 kJ/mol
# Density = 2.281121 g / cm^3
# Si number density = 22.863252 Si / 1000 Ang^3
#
#
#
# Elastic Constant Matrix: (Units=GPa)
#
#
# Indices 1 2 3 4 5 6 
#
# 1 95.9277 30.2597 21.0372 0.1492 -6.6204 -23.7678
# 2 30.2597 89.0474 24.3111 -12.4832 13.3232 -28.8546
# 3 21.0372 24.3111 99.1937 2.8127 -5.3223 -22.7551
# 4 0.1492 -12.4832 2.8127 42.4045 -9.1698 6.5273
# 5 -6.6204 13.3232 -5.3223 -9.1698 40.0551 3.6787
# 6 -23.7678 -28.8546 -22.7551 6.5273 3.6787 48.3060
#
#
#
# Elastic Compliance Matrix: (Units=1/GPa)
#
#
# Indices 1 2 3 4 5 6 
#
# 1 0.012808 -0.003415 -0.000839 -0.001029 0.002556 0.003811
# 2 -0.003415 0.016706 -0.002075 0.002509 -0.006509 0.007478
# 3 -0.000839 -0.002075 0.011817 -0.001721 0.001356 0.004044
# 4 -0.001029 0.002509 -0.001721 0.026114 0.005088 -0.003734
# 5 0.002556 -0.006509 0.001356 0.005088 0.029350 -0.004914
# 6 0.003811 0.007478 0.004044 -0.003734 -0.004914 0.029827
#
#
# Mechanical properties :
#
#
# Convention : Reuss Voigt Hill
#
# Bulk Modulus (GPa) = 34.87624 48.37609 41.62616
# Shear Modulus (GPa) = 33.59404 40.05718 36.82561
#
# Velocity S-wave (km/s) = 3.83736 4.19027 4.01769
# Velocity P-wave (km/s) = 5.90942 6.67952 6.30623
#
# Compressibility (1/GPa) = 0.02867282
#
# Stress axis : x y z
#
# Youngs Moduli (GPa) = 78.07625 59.86006 84.62450
#
# Poissons Ratio (x) = 0.20442 0.07098
# Poissons Ratio (y) = 0.26663 0.17560
# Poissons Ratio (z) = 0.06549 0.12421
#
# Static dielectric constant tensor:
#      x y z
#    x 1.990540 -0.019050 0.079270 
#    y -0.019050 1.854240 -0.061440 
#    z 0.079270 -0.061440 2.104140 
# 
# From -- ./inp_files/57039.got.cif
#   From: 2010.05.17/outbox.ucp.g08.bks.cvg/sg2_29_cif.got.tgz:57039.got - 2010.06.11 11:32:03.
