data_PCOD9075745
_publ_section_title
;
Structure prediction by ZEFSAII (Michael W. Deem and Ramdas Pophale) SiO2 
 PCOD9075745
Probable space group: P -1
;
_chemical_formula_sum "Si O2"
_cell_formula_units_Z 16
_cell_length_a 18.260690
_cell_length_b 9.507227
_cell_length_c 9.087459
_cell_angle_alpha 86.835771
_cell_angle_beta 104.007828
_cell_angle_gamma 42.749945
_cell_volume 971.907641
_symmetry_space_group_name_H-M "P -1"
_symmetry_group_IT_number 2
_symmetry_cell_setting 'triclinic'
loop_
_space_group_symop_operation_xyz
x,y,z
-x,-y,-z
loop_
_atom_site_type_symbol
_atom_site_label
_atom_site_fract_x
_atom_site_fract_y
_atom_site_fract_z
Si Si1 0.126210 0.043004 0.771062
Si Si2 0.831769 0.696712 0.268031
Si Si3 0.803412 0.338399 0.298361
Si Si4 0.765274 0.545804 0.827752
Si Si5 0.967696 0.293906 0.182025
Si Si6 0.846702 0.484311 0.563165
Si Si7 0.124698 0.905137 0.090297
Si Si8 0.366966 0.218189 0.970998
O O1 0.174020 0.129301 0.759887
O O2 0.983804 0.257586 0.679824
O O3 0.175322 0.857056 0.691350
O O4 0.155101 0.942516 0.953310
O O5 0.947555 0.466643 0.251842
O O6 0.838309 0.627870 0.440253
O O7 0.719820 0.779306 0.133735
O O8 0.912663 0.254044 0.265796
O O9 0.803197 0.411750 0.452167
O O10 0.688597 0.560182 0.141522
O O11 0.774819 0.603915 0.671484
O O12 0.782621 0.353179 0.821753
O O13 0.878326 0.429539 0.990651
O O14 0.654474 0.738530 0.867234
O O15 0.092822 0.061050 0.194765
O O16 0.000000 0.000000 0.000000
O O17 0.500000 0.000000 0.000000
#
# Coordination Sequence:
#
# PCOD9075745 Si02
#       8
#     2   2   2   2   2   2   2   2
#     4  12  17  29  49  72 110 134 153 200 234 288
#     4   9  22  31  44  76 103 132 165 190 246 290
#     4   9  18  30  49  71  94 130 173 191 227 294
#     4   9  15  29  52  72  90 119 174 203 225 286
#     4   8  14  30  42  65  95 129 160 190 225 288
#     4  10  18  30  47  71 106 134 158 186 234 300
#     4  10  14  25  47  70  93 131 164 194 229 273
#     4   9  18  38  56  69  91 124 168 214 246 285
#
# _framework density 16.462468999999999
#
# number of rings (size 3 to 8) (size 9 to 14) (size 15 to 20)
#    0.000    3.000    6.250    0.750    0.000    1.500 
#    0.000    3.125    0.000    0.000    0.000    1.750 
#    0.000    0.000    0.000    0.000    0.000    0.000 
#
# Total GULP energy -89084.460972 kJ/mol
# GULP energy per Si atom -5567.778811 kJ/mol
# Density = 1.642500 g / cm^3
# Si number density = 16.462469 Si / 1000 Ang^3
#
#
#
# Elastic Constant Matrix: (Units=GPa)
#
#
# Indices 1 2 3 4 5 6 
#
# 1 36.6322 41.7138 20.6907 1.1906 -8.8776 11.6563
# 2 41.7138 76.6263 19.9451 9.5988 -12.2059 2.7164
# 3 20.6907 19.9451 80.7087 19.8838 -23.2745 -0.3343
# 4 1.1906 9.5988 19.8838 21.7395 -1.8627 -7.9556
# 5 -8.8776 -12.2059 -23.2745 -1.8627 16.7297 -3.0693
# 6 11.6563 2.7164 -0.3343 -7.9556 -3.0693 35.8219
#
#
#
# Elastic Compliance Matrix: (Units=1/GPa)
#
#
# Indices 1 2 3 4 5 6 
#
# 1 0.124894 -0.068339 -0.035150 0.041909 -0.033201 -0.029323
# 2 -0.068339 0.053090 0.021012 -0.031099 0.030834 0.014143
# 3 -0.035150 0.021012 0.039241 -0.036849 0.048298 0.006165
# 4 0.041909 -0.031099 -0.036849 0.089362 -0.040901 0.004719
# 5 -0.033201 0.030834 0.048298 -0.040901 0.129293 0.010911
# 6 -0.029323 0.014143 0.006165 0.004719 0.010911 0.038425
#
#
# Mechanical properties :
#
#
# Convention : Reuss Voigt Hill
#
# Bulk Modulus (GPa) = 19.13171 39.85183 29.49177
# Shear Modulus (GPa) = 7.61401 22.29939 14.95670
#
# Velocity S-wave (km/s) = 2.15293 3.68443 3.01746
# Velocity P-wave (km/s) = 4.22218 6.50847 5.48576
#
# Compressibility (1/GPa) = 0.05226925
#
# Stress axis : x y z
#
# Youngs Moduli (GPa) = 8.00677 18.83602 25.48362
#
# Poissons Ratio (x) = 1.28724 0.89576
# Poissons Ratio (y) = 0.54718 -0.53547
# Poissons Ratio (z) = 0.28144 -0.39579
#
# Static dielectric constant tensor:
#      x y z
#    x 1.545190 0.017320 0.001340 
#    y 0.017320 1.592680 0.019170 
#    z 0.001340 0.019170 1.595820 
# 
# From -- ./inp_files/326072.got.cif
#   From: 2010.05.17/outbox.cif.g08.bks.cpg/sg2_164_cif.got.tgz:326072.got - 2010.06.03 11:33:40.
