data_PCOD9075744
_publ_section_title
;
Structure prediction by ZEFSAII (Michael W. Deem and Ramdas Pophale) SiO2 
 PCOD9075744
Probable space group: P -1
;
_chemical_formula_sum "Si O2"
_cell_formula_units_Z 16
_cell_length_a 16.095461
_cell_length_b 9.159477
_cell_length_c 30.796512
_cell_angle_alpha 143.737200
_cell_angle_beta 160.953614
_cell_angle_gamma 34.223362
_cell_volume 825.697128
_symmetry_space_group_name_H-M "P -1"
_symmetry_group_IT_number 2
_symmetry_cell_setting 'triclinic'
loop_
_space_group_symop_operation_xyz
x,y,z
-x,-y,-z
loop_
_atom_site_type_symbol
_atom_site_label
_atom_site_fract_x
_atom_site_fract_y
_atom_site_fract_z
Si Si1 0.680449 0.131176 0.094432
Si Si2 0.086378 0.753761 0.355220
Si Si3 0.323373 0.736724 0.060085
Si Si4 0.483021 0.805506 0.063718
Si Si5 0.604869 0.853272 0.632664
Si Si6 0.783136 0.832999 0.619254
Si Si7 0.820832 0.250703 0.498417
Si Si8 0.298489 0.107745 0.217315
O O1 0.534730 0.445462 0.097224
O O2 0.966866 0.073319 0.245198
O O3 0.695376 0.058943 0.033162
O O4 0.500000 0.000000 0.000000
O O5 0.292022 0.901177 0.477711
O O6 0.249747 0.449229 0.353065
O O7 0.079000 0.783939 0.410806
O O8 0.779683 0.821911 0.205598
O O9 0.380752 0.886304 0.081541
O O10 0.342798 0.887868 0.149692
O O11 0.019745 0.729501 0.903389
O O12 0.500000 0.500000 0.000000
O O13 0.753617 0.865391 0.664710
O O14 0.633870 0.002812 0.726499
O O15 0.839850 0.530488 0.561704
O O16 0.500000 0.000000 0.500000
O O17 0.510964 0.256670 0.347576
O O18 0.000000 0.000000 0.500000
#
# Coordination Sequence:
#
# PCOD9075744 Si02
#       8
#     2   2   2   2   2   2   2   2
#     4  11  24  37  58  82 120 154 189 234 291 349
#     4   9  17  28  54  83 104 139 184 243 274 337
#     4  10  20  35  58  88 113 146 198 234 293 335
#     4  10  18  32  55  78 111 140 192 236 282 325
#     4   9  17  32  52  81 111 141 187 231 291 319
#     4  11  24  37  58  83 118 156 195 231 284 360
#     4  10  19  35  59  85 116 143 194 243 291 322
#     4  10  19  32  62  86 112 144 186 252 280 339
#
# _framework density 19.377565000000001
#
# number of rings (size 3 to 8) (size 9 to 14) (size 15 to 20)
#    0.000    2.000    0.000    7.500    3.500    0.000 
#    0.000    0.000    5.500    4.500    0.000    0.000 
#    0.000    0.000    0.000    0.000    0.000    0.000 
#
# Total GULP energy -89190.391361 kJ/mol
# GULP energy per Si atom -5574.399460 kJ/mol
# Density = 1.933346 g / cm^3
# Si number density = 19.377565 Si / 1000 Ang^3
#
#
#
# Elastic Constant Matrix: (Units=GPa)
#
#
# Indices 1 2 3 4 5 6 
#
# 1 89.2558 25.5599 25.7505 10.0885 -9.6183 -19.0167
# 2 25.5599 32.1082 23.0229 -3.6799 -0.7929 -7.7050
# 3 25.7505 23.0229 167.4293 -12.3800 5.4831 -1.9791
# 4 10.0885 -3.6799 -12.3800 22.6815 -4.5055 1.5369
# 5 -9.6183 -0.7929 5.4831 -4.5055 33.1579 2.6949
# 6 -19.0167 -7.7050 -1.9791 1.5369 2.6949 24.9409
#
#
#
# Elastic Compliance Matrix: (Units=1/GPa)
#
#
# Indices 1 2 3 4 5 6 
#
# 1 0.019522 -0.012624 -0.002127 -0.012023 0.003168 0.011215
# 2 -0.012624 0.045787 -0.003491 0.010724 -0.000831 0.003671
# 3 -0.002127 -0.003491 0.007099 0.004186 -0.001121 -0.002274
# 4 -0.012023 0.010724 0.004186 0.054951 0.004305 -0.009373
# 5 0.003168 -0.000831 -0.001121 0.004305 0.031962 -0.001649
# 6 0.011215 0.003671 -0.002274 -0.009373 -0.001649 0.050355
#
#
# Mechanical properties :
#
#
# Convention : Reuss Voigt Hill
#
# Bulk Modulus (GPa) = 27.83612 48.60667 38.22139
# Shear Modulus (GPa) = 19.36966 30.45340 24.91153
#
# Velocity S-wave (km/s) = 3.16506 3.96862 3.58940
# Velocity P-wave (km/s) = 5.26812 6.79252 6.07830
#
# Compressibility (1/GPa) = 0.03592455
#
# Stress axis : x y z
#
# Youngs Moduli (GPa) = 51.22370 21.84026 140.86239
#
# Poissons Ratio (x) = 0.27572 0.29958
# Poissons Ratio (y) = 0.64666 0.49174
# Poissons Ratio (z) = 0.10894 0.07624
#
# Static dielectric constant tensor:
#      x y z
#    x 1.747160 -0.027140 -0.008630 
#    y -0.027140 1.660640 0.005020 
#    z -0.008630 0.005020 1.755240 
# 
# From -- ./inp_files/523898.got.cif
#   From: 2010.05.17/outbox.cif.g08.bks.cpg/sg2_262_cif.got.tgz:523898.got - 2010.06.03 11:33:40.
