data_PCOD9075204
_publ_section_title
;
Structure prediction by ZEFSAII (Michael W. Deem and Ramdas Pophale) SiO2 
 PCOD9075204
Probable space group: P -1
;
_chemical_formula_sum "Si O2"
_cell_formula_units_Z 16
_cell_length_a 7.852403
_cell_length_b 18.194370
_cell_length_c 13.817676
_cell_angle_alpha 32.099867
_cell_angle_beta 135.079960
_cell_angle_gamma 137.939682
_cell_volume 685.174564
_symmetry_space_group_name_H-M "P -1"
_symmetry_group_IT_number 2
_symmetry_cell_setting 'triclinic'
loop_
_space_group_symop_operation_xyz
x,y,z
-x,-y,-z
loop_
_atom_site_type_symbol
_atom_site_label
_atom_site_fract_x
_atom_site_fract_y
_atom_site_fract_z
Si Si1 0.635574 0.292347 0.032850
Si Si2 0.913417 0.607960 0.735047
Si Si3 0.352783 0.601349 0.785324
Si Si4 0.768260 0.250622 0.598579
Si Si5 0.009909 0.133210 0.646187
Si Si6 0.288984 0.955230 0.746361
Si Si7 0.275243 0.061001 0.408284
Si Si8 0.961800 0.884377 0.021950
O O1 0.336061 0.194085 0.047469
O O2 0.676582 0.462070 0.836010
O O3 0.877198 0.322048 0.172132
O O4 0.671417 0.199776 0.057527
O O5 0.079224 0.556277 0.780955
O O6 0.832214 0.732068 0.511543
O O7 0.312810 0.624962 0.627459
O O8 0.529154 0.769315 0.702818
O O9 0.500000 0.500000 0.000000
O O10 0.909965 0.201454 0.620444
O O11 0.958914 0.252822 0.761144
O O12 0.517597 0.109936 0.692361
O O13 0.754924 0.040904 0.583241
O O14 0.114699 0.008985 0.864551
O O15 0.014319 0.937117 0.697940
O O16 0.299645 0.980660 0.606106
O O17 0.000000 0.000000 0.000000
#
# Coordination Sequence:
#
# PCOD9075204 Si02
#       8
#     2   2   2   2   2   2   2   2
#     4  11  19  34  55  82 116 141 185 233 280 328
#     4  10  22  32  55  87 113 142 183 236 284 320
#     4  10  20  35  53  81 113 144 181 231 285 332
#     4   9  20  35  58  79 105 148 192 223 271 334
#     4  10  18  35  55  82 108 141 193 227 266 328
#     4  10  18  32  53  82 109 144 180 233 279 325
#     4  10  20  30  55  81 111 142 183 235 283 317
#     4  10  19  34  60  79 106 152 195 224 266 332
#
# _framework density 23.351714000000001
#
# number of rings (size 3 to 8) (size 9 to 14) (size 15 to 20)
#    0.000    2.000    3.750    1.500    0.000    2.000 
#    0.000    6.250    0.000    3.000    0.000    0.000 
#    0.000    0.000    0.000    0.000    0.000    0.000 
#
# Total GULP energy -89071.028346 kJ/mol
# GULP energy per Si atom -5566.939272 kJ/mol
# Density = 2.329856 g / cm^3
# Si number density = 23.351714 Si / 1000 Ang^3
#
#
#
# Elastic Constant Matrix: (Units=GPa)
#
#
# Indices 1 2 3 4 5 6 
#
# 1 28.2208 8.5352 11.0429 -9.3454 0.0655 5.9545
# 2 8.5352 58.7940 24.1698 -17.8836 -9.1077 13.2824
# 3 11.0429 24.1698 159.3270 -18.3520 -7.4133 -4.3249
# 4 -9.3454 -17.8836 -18.3520 35.3830 4.7208 -4.9982
# 5 0.0655 -9.1077 -7.4133 4.7208 27.4784 -1.2043
# 6 5.9545 13.2824 -4.3249 -4.9982 -1.2043 18.3942
#
#
#
# Elastic Compliance Matrix: (Units=1/GPa)
#
#
# Indices 1 2 3 4 5 6 
#
# 1 0.041690 -0.000344 -0.002323 0.008351 -0.002788 -0.011706
# 2 -0.000344 0.025316 -0.003076 0.008072 0.005459 -0.016342
# 3 -0.002323 -0.003076 0.007352 0.002297 0.000811 0.005379
# 4 0.008351 0.008072 0.002297 0.036366 -0.002898 0.001700
# 5 -0.002788 0.005459 0.000811 -0.002898 0.038877 -0.001091
# 6 -0.011706 -0.016342 0.005379 0.001700 -0.001091 0.071610
#
#
# Mechanical properties :
#
#
# Convention : Reuss Voigt Hill
#
# Bulk Modulus (GPa) = 15.90567 37.09306 26.49936
# Shear Modulus (GPa) = 19.71182 29.75738 24.73460
#
# Velocity S-wave (km/s) = 2.90854 3.57362 3.25810
# Velocity P-wave (km/s) = 4.25507 5.73992 5.05234
#
# Compressibility (1/GPa) = 0.06287066
#
# Stress axis : x y z
#
# Youngs Moduli (GPa) = 23.98672 39.50075 136.01067
#
# Poissons Ratio (x) = 0.01361 0.31594
# Poissons Ratio (y) = 0.00826 0.41842
# Poissons Ratio (z) = 0.05572 0.12152
#
# Static dielectric constant tensor:
#      x y z
#    x 1.931370 -0.040100 0.009420 
#    y -0.040100 1.910130 0.024950 
#    z 0.009420 0.024950 2.028220 
# 
# From -- ./inp_files/508119.got.cif
#   From: 2010.05.17/outbox.cif.g08.bks.cpg/sg2_255_cif.got.tgz:508119.got - 2010.06.03 11:33:40.
