data_PCOD9075247
_publ_section_title
;
Structure prediction by ZEFSAII (Michael W. Deem and Ramdas Pophale) SiO2 
 PCOD9075247
Probable space group: P -1
;
_chemical_formula_sum "Si O2"
_cell_formula_units_Z 15
_cell_length_a 12.000000
_cell_length_b 21.000000
_cell_length_c 18.000000
_cell_angle_alpha 20.000000
_cell_angle_beta 140.000000
_cell_angle_gamma 150.000000
_cell_volume 744.844803
_symmetry_space_group_name_H-M "P -1"
_symmetry_group_IT_number 2
_symmetry_cell_setting 'triclinic'
loop_
_space_group_symop_operation_xyz
x,y,z
-x,-y,-z
loop_
_atom_site_type_symbol
_atom_site_label
_atom_site_fract_x
_atom_site_fract_y
_atom_site_fract_z
Si Si1 0.240594 0.766921 0.644907
Si Si2 0.756736 0.424114 0.437102
Si Si3 0.038312 0.373161 0.841201
Si Si4 0.993807 0.017428 0.651270
Si Si5 0.576760 0.531124 0.698325
Si Si6 0.606678 0.137939 0.080254
Si Si7 0.500000 0.000000 0.000000
Si Si8 0.883657 0.663814 0.852707
O O1 0.121979 0.588440 0.707332
O O2 0.500000 0.000000 0.500000
O O3 0.109711 0.856218 0.514403
O O4 0.253702 0.607224 0.885038
O O5 0.806507 0.512788 0.279344
O O6 0.646871 0.517615 0.328446
O O7 0.000000 0.500000 0.500000
O O8 0.569785 0.129103 0.677955
O O9 0.763368 0.209786 0.869367
O O10 0.052479 0.175675 0.100047
O O11 0.891215 0.848087 0.709649
O O12 0.272257 0.239189 0.535600
O O13 0.758909 0.631018 0.749243
O O14 0.546817 0.306198 0.891943
O O15 0.858559 0.241879 0.122164
O O16 0.600404 0.117473 0.009378
#
# Coordination Sequence:
#
# PCOD9075247 Si02
#       8
#     2   2   2   2   2   2   1   2
#     4  11  26  42  69 109 147 187 236 297 361 428
#     4  12  28  48  70 104 144 187 238 305 360 416
#     4  11  26  45  71 100 142 191 237 295 359 421
#     4  11  23  45  70 103 139 191 238 281 369 423
#     4  12  26  44  76 108 140 190 241 296 362 434
#     4  12  25  47  75 106 142 188 244 297 357 434
#     4  12  20  52  72  94 146 186 238 298 338 436
#     4  11  24  43  72 108 144 186 241 293 362 432
#
# _framework density 20.138423
#
# number of rings (size 3 to 8) (size 9 to 14) (size 15 to 20)
#    0.000    0.533    6.667    0.800    5.600    1.600 
#    2.400    2.000    0.000    0.000    0.000    0.000 
#    0.000    0.000    0.000    0.000    0.000    0.000 
#
# Total GULP energy -83541.929510 kJ/mol
# GULP energy per Si atom -5569.461967 kJ/mol
# Density = 2.009259 g / cm^3
# Si number density = 20.138423 Si / 1000 Ang^3
#
#
#
# Elastic Constant Matrix: (Units=GPa)
#
#
# Indices 1 2 3 4 5 6 
#
# 1 171.2194 23.7144 66.2356 3.6319 9.5600 10.9047
# 2 23.7144 75.2004 13.4633 -0.1370 -2.2759 14.5801
# 3 66.2356 13.4633 126.5103 -7.5742 -4.1840 2.7627
# 4 3.6319 -0.1370 -7.5742 22.6754 8.3640 -11.4166
# 5 9.5600 -2.2759 -4.1840 8.3640 61.0951 -2.3212
# 6 10.9047 14.5801 2.7627 -11.4166 -2.3212 38.2397
#
#
#
# Elastic Compliance Matrix: (Units=1/GPa)
#
#
# Indices 1 2 3 4 5 6 
#
# 1 0.007964 -0.001291 -0.004228 -0.003570 -0.001194 -0.002612
# 2 -0.001291 0.015131 -0.000979 -0.003569 0.000946 -0.006339
# 3 -0.004228 -0.000979 0.010501 0.005111 0.000735 0.002391
# 4 -0.003570 -0.003569 0.005111 0.058333 -0.006487 0.019031
# 5 -0.001194 0.000946 0.000735 -0.006487 0.017492 -0.000948
# 6 -0.002612 -0.006339 0.002391 0.019031 -0.000948 0.034764
#
#
# Mechanical properties :
#
#
# Convention : Reuss Voigt Hill
#
# Bulk Modulus (GPa) = 48.54273 64.41740 56.48007
# Shear Modulus (GPa) = 30.47916 42.36981 36.42449
#
# Velocity S-wave (km/s) = 3.89457 4.59184 4.25750
# Velocity P-wave (km/s) = 6.66186 7.75694 7.23016
#
# Compressibility (1/GPa) = 0.02060041
#
# Stress axis : x y z
#
# Youngs Moduli (GPa) = 125.57023 66.08916 95.23328
#
# Poissons Ratio (x) = 0.08529 0.40268
# Poissons Ratio (y) = 0.16206 0.09319
# Poissons Ratio (z) = 0.53095 0.06467
#
# Static dielectric constant tensor:
#      x y z
#    x 1.734490 -0.010070 -0.037260 
#    y -0.010070 1.752220 0.007510 
#    z -0.037260 0.007510 1.762580 
# 
# From -- ./inp_files/472460.got.cif
#   From: 2010.05.17/outbox.ucp.g08.bks.cvg/sg2_237_cif.got.tgz:472460.got - 2010.06.11 11:32:03.
