data_PCOD9075444
_publ_section_title
;
Structure prediction by ZEFSAII (Michael W. Deem and Ramdas Pophale) SiO2 
 PCOD9075444
Probable space group: P -1
;
_chemical_formula_sum "Si O2"
_cell_formula_units_Z 16
_cell_length_a 9.000000
_cell_length_b 15.000000
_cell_length_c 12.000000
_cell_angle_alpha 70.000000
_cell_angle_beta 70.000000
_cell_angle_gamma 130.000000
_cell_volume 728.972637
_symmetry_space_group_name_H-M "P -1"
_symmetry_group_IT_number 2
_symmetry_cell_setting 'triclinic'
loop_
_space_group_symop_operation_xyz
x,y,z
-x,-y,-z
loop_
_atom_site_type_symbol
_atom_site_label
_atom_site_fract_x
_atom_site_fract_y
_atom_site_fract_z
Si Si1 0.595975 0.743824 0.118736
Si Si2 0.707372 0.242542 0.650926
Si Si3 0.246513 0.003511 0.478821
Si Si4 0.136616 0.311961 0.638364
Si Si5 0.059818 0.363904 0.304829
Si Si6 0.958826 0.365163 0.093243
Si Si7 0.053024 0.987161 0.298908
Si Si8 0.939702 0.188106 0.989114
O O1 0.420683 0.729386 0.256722
O O2 0.365958 0.542656 0.221036
O O3 0.876851 0.819762 0.054259
O O4 0.728010 0.867320 0.922791
O O5 0.979460 0.320295 0.608974
O O6 0.824027 0.309391 0.462725
O O7 0.414518 0.022218 0.809370
O O8 0.058704 0.806422 0.602770
O O9 0.206407 0.035484 0.356081
O O10 0.610934 0.169126 0.314203
O O11 0.146472 0.023392 0.598318
O O12 0.500000 0.500000 0.500000
O O13 0.091624 0.187559 0.637357
O O14 0.967191 0.231842 0.835170
O O15 0.149196 0.441883 0.123585
O O16 0.020814 0.318250 0.998592
O O17 0.000000 0.500000 0.000000
#
# Coordination Sequence:
#
# PCOD9075444 Si02
#       8
#     2   2   2   2   2   2   2   2
#     4  12  28  47  74 113 148 200 250 305 370 442
#     4  12  26  49  76 108 148 202 245 310 373 438
#     4  11  25  45  72 108 146 199 245 304 375 437
#     4  12  27  47  78 110 152 194 252 309 368 443
#     4  12  26  47  75 103 151 189 250 307 372 438
#     4  12  28  46  75 108 146 197 249 305 376 445
#     4  11  25  45  73 104 152 191 248 303 370 438
#     4  12  27  48  77 109 154 194 253 304 371 439
#
# _framework density 21.948698
#
# number of rings (size 3 to 8) (size 9 to 14) (size 15 to 20)
#    0.000    0.250    3.750    3.750    7.000    3.000 
#    0.000    0.000    0.000    0.000    0.000    0.000 
#    0.000    0.000    0.000    0.000    0.000    0.000 
#
# Total GULP energy -89215.773468 kJ/mol
# GULP energy per Si atom -5575.985842 kJ/mol
# Density = 2.189874 g / cm^3
# Si number density = 21.948698 Si / 1000 Ang^3
#
#
#
# Elastic Constant Matrix: (Units=GPa)
#
#
# Indices 1 2 3 4 5 6 
#
# 1 109.6155 32.3765 6.1447 7.3534 -0.1941 -21.5243
# 2 32.3765 148.3697 23.1587 26.7214 -9.1082 -34.4394
# 3 6.1447 23.1587 54.6266 17.4206 4.1275 -7.1385
# 4 7.3534 26.7214 17.4206 63.4199 -1.8410 -7.9802
# 5 -0.1941 -9.1082 4.1275 -1.8410 45.9625 6.4588
# 6 -21.5243 -34.4394 -7.1385 -7.9802 6.4588 53.8406
#
#
#
# Elastic Compliance Matrix: (Units=1/GPa)
#
#
# Indices 1 2 3 4 5 6 
#
# 1 0.010200 -0.001503 0.000014 -0.000174 -0.000709 0.003178
# 2 -0.001503 0.008944 -0.002407 -0.002355 0.001284 0.004298
# 3 0.000014 -0.002407 0.021165 -0.004768 -0.002693 0.000889
# 4 -0.000174 -0.002355 -0.004768 0.018160 0.000631 0.000408
# 5 -0.000709 0.001284 -0.002693 0.000631 0.022618 -0.002439
# 6 0.003178 0.004298 0.000889 0.000408 -0.002439 0.023064
#
#
# Mechanical properties :
#
#
# Convention : Reuss Voigt Hill
#
# Bulk Modulus (GPa) = 30.75208 48.44130 39.59669
# Shear Modulus (GPa) = 40.72257 49.37338 45.04797
#
# Velocity S-wave (km/s) = 4.31205 4.74802 4.53528
# Velocity P-wave (km/s) = 6.23162 7.22333 6.74572
#
# Compressibility (1/GPa) = 0.03251813
#
# Stress axis : x y z
#
# Youngs Moduli (GPa) = 98.03677 111.80431 47.24782
#
# Poissons Ratio (x) = 0.16800 -0.00066
# Poissons Ratio (y) = 0.14731 0.11373
# Poissons Ratio (z) = -0.00138 0.26913
#
# Static dielectric constant tensor:
#      x y z
#    x 1.884120 0.048410 -0.032390 
#    y 0.048410 1.814140 -0.028790 
#    z -0.032390 -0.028790 1.914650 
# 
# From -- ./inp_files/206787.got.cif
#   From: 2010.05.17/outbox.ucp.g08.bks.cvg/sg2_104_cif.got.tgz:206787.got - 2010.06.11 11:32:03.
