data_PCOD9075527
_publ_section_title
;
Structure prediction by ZEFSAII (Michael W. Deem and Ramdas Pophale) SiO2 
 PCOD9075527
Probable space group: P -1
;
_chemical_formula_sum "Si O2"
_cell_formula_units_Z 16
_cell_length_a 27.000000
_cell_length_b 12.000000
_cell_length_c 27.000000
_cell_angle_alpha 150.000000
_cell_angle_beta 10.000000
_cell_angle_gamma 150.000000
_cell_volume 750.765935
_symmetry_space_group_name_H-M "P -1"
_symmetry_group_IT_number 2
_symmetry_cell_setting 'triclinic'
loop_
_space_group_symop_operation_xyz
x,y,z
-x,-y,-z
loop_
_atom_site_type_symbol
_atom_site_label
_atom_site_fract_x
_atom_site_fract_y
_atom_site_fract_z
Si Si1 0.330761 0.187848 0.409896
Si Si2 0.946503 0.139918 0.991738
Si Si3 0.208301 0.231538 0.874150
Si Si4 0.930701 0.352466 0.353229
Si Si5 0.525670 0.575555 0.087791
Si Si6 0.783701 0.482386 0.439013
Si Si7 0.758594 0.845415 0.862633
Si Si8 0.541489 0.585022 0.436527
O O1 0.271351 0.310922 0.463435
O O2 0.419840 0.384175 0.439577
O O3 0.595006 0.053489 0.091195
O O4 0.084735 0.978679 0.588604
O O5 0.135098 0.243338 0.893435
O O6 0.122889 0.310157 0.846394
O O7 0.981565 0.882617 0.845766
O O8 0.627391 0.203652 0.330635
O O9 0.538329 0.272548 0.582419
O O10 0.085386 0.423612 0.099754
O O11 0.000000 0.000000 0.000000
O O12 0.687033 0.321337 0.624531
O O13 0.815602 0.477971 0.466164
O O14 0.213485 0.473685 0.151567
O O15 0.668547 0.740011 0.965547
O O16 0.343561 0.359567 0.154934
O O17 0.500000 0.500000 0.500000
#
# Coordination Sequence:
#
# PCOD9075527 Si02
#       8
#     2   2   2   2   2   2   2   2
#     4  12  24  45  71 101 137 185 226 267 346 414
#     4  12  24  42  63  98 137 186 220 266 328 395
#     4  12  22  40  63  91 138 183 232 259 311 394
#     4  12  26  42  72 102 140 174 227 284 347 389
#     4  11  26  50  71 103 128 166 236 298 343 400
#     4  12  25  42  64 102 142 181 223 279 326 415
#     4  11  26  48  77  95 128 178 229 290 346 406
#     4  12  27  42  62 100 147 177 225 272 324 406
#
# _framework density 21.311568999999999
#
# number of rings (size 3 to 8) (size 9 to 14) (size 15 to 20)
#    0.000    0.250    3.750    5.250    7.000    2.000 
#    0.000    3.750    0.000    0.000    0.000    0.000 
#    0.000    0.000    0.000    0.000    0.000    0.000 
#
# Total GULP energy -89156.454710 kJ/mol
# GULP energy per Si atom -5572.278419 kJ/mol
# Density = 2.126306 g / cm^3
# Si number density = 21.311569 Si / 1000 Ang^3
#
#
#
# Elastic Constant Matrix: (Units=GPa)
#
#
# Indices 1 2 3 4 5 6 
#
# 1 118.5880 20.4220 8.5834 23.1582 -8.0874 2.3540
# 2 20.4220 70.2247 -14.6291 -5.2502 -4.5155 2.7282
# 3 8.5834 -14.6291 73.9318 -3.0932 -6.3209 5.8553
# 4 23.1582 -5.2502 -3.0932 33.8734 4.9620 -2.5411
# 5 -8.0874 -4.5155 -6.3209 4.9620 34.8012 -4.3975
# 6 2.3540 2.7282 5.8553 -2.5411 -4.3975 38.2302
#
#
#
# Elastic Compliance Matrix: (Units=1/GPa)
#
#
# Indices 1 2 3 4 5 6 
#
# 1 0.011293 -0.004229 -0.002252 -0.009032 0.002915 -0.000314
# 2 -0.004229 0.016886 0.004245 0.005662 0.001033 -0.001100
# 3 -0.002252 0.004245 0.015095 0.003120 0.002068 -0.002031
# 4 -0.009032 0.005662 0.003120 0.037851 -0.006005 0.001499
# 5 0.002915 0.001033 0.002068 -0.006005 0.031107 0.002609
# 6 -0.000314 -0.001100 -0.002031 0.001499 0.002609 0.026966
#
#
# Mechanical properties :
#
#
# Convention : Reuss Voigt Hill
#
# Bulk Modulus (GPa) = 25.77115 32.38856 29.07985
# Shear Modulus (GPa) = 31.92748 37.93883 34.93316
#
# Velocity S-wave (km/s) = 3.87477 4.22382 4.05305
# Velocity P-wave (km/s) = 5.66897 6.24645 5.96470
#
# Compressibility (1/GPa) = 0.03880309
#
# Stress axis : x y z
#
# Youngs Moduli (GPa) = 88.55400 59.21911 66.24500
#
# Poissons Ratio (x) = 0.25042 0.14916
# Poissons Ratio (y) = 0.37447 -0.28118
# Poissons Ratio (z) = 0.19939 -0.25136
#
# Static dielectric constant tensor:
#      x y z
#    x 1.723910 0.015620 -0.048190 
#    y 0.015620 1.752990 0.013780 
#    z -0.048190 0.013780 1.819930 
# 
# From -- ./inp_files/621262.got.cif
#   From: 2010.05.17/outbox.ucp.g08.bks.cvg/sg2_311_cif.got.tgz:621262.got - 2010.06.11 11:32:03.
