data_PCOD9075196
_publ_section_title
;
Structure prediction by ZEFSAII (Michael W. Deem and Ramdas Pophale) SiO2 
 PCOD9075196
Probable space group: P -1
;
_chemical_formula_sum "Si O2"
_cell_formula_units_Z 12
_cell_length_a 6.000000
_cell_length_b 9.000000
_cell_length_c 21.000000
_cell_angle_alpha 150.000000
_cell_angle_beta 100.000000
_cell_angle_gamma 70.000000
_cell_volume 514.362529
_symmetry_space_group_name_H-M "P -1"
_symmetry_group_IT_number 2
_symmetry_cell_setting 'triclinic'
loop_
_space_group_symop_operation_xyz
x,y,z
-x,-y,-z
loop_
_atom_site_type_symbol
_atom_site_label
_atom_site_fract_x
_atom_site_fract_y
_atom_site_fract_z
Si Si1 0.588787 0.415514 0.817882
Si Si2 0.133577 0.364451 0.287138
Si Si3 0.043527 0.806769 0.143959
Si Si4 0.712631 0.885450 0.520434
Si Si5 0.006465 0.350947 0.131211
Si Si6 0.601349 0.325123 0.372947
O O1 0.691559 0.296889 0.848761
O O2 0.295812 0.469172 0.825003
O O3 0.761949 0.631212 0.892985
O O4 0.688240 0.155220 0.670280
O O5 0.399400 0.276495 0.298986
O O6 0.976837 0.714592 0.438712
O O7 0.093828 0.407883 0.226484
O O8 0.034764 0.083635 0.196162
O O9 0.840235 0.990327 0.256391
O O10 0.000000 0.500000 0.000000
O O11 0.683992 0.589364 0.444298
O O12 0.500000 0.000000 0.500000
O O13 0.000000 0.000000 0.000000
O O14 0.500000 0.500000 0.500000
#
# Coordination Sequence:
#
# PCOD9075196 Si02
#       6
#     2   2   2   2   2   2
#     4  12  27  46  75 105 143 190 240 298 360 431
#     4  11  25  44  72 101 142 188 237 301 358 428
#     4  11  27  46  70 103 144 190 241 296 362 434
#     4  11  23  43  68 103 138 180 237 293 361 419
#     4  12  28  47  73 105 146 190 241 299 359 427
#     4  11  25  43  71 101 142 185 240 298 360 425
#
# _framework density 23.329848999999999
#
# number of rings (size 3 to 8) (size 9 to 14) (size 15 to 20)
#    0.000    0.667    1.667    4.500   11.667    4.667 
#    0.000    0.000    0.000    0.000    0.000    0.000 
#    0.000    0.000    0.000    0.000    0.000    0.000 
#
# Total GULP energy -66861.045246 kJ/mol
# GULP energy per Si atom -5571.753770 kJ/mol
# Density = 2.327675 g / cm^3
# Si number density = 23.329849 Si / 1000 Ang^3
#
#
#
# Elastic Constant Matrix: (Units=GPa)
#
#
# Indices 1 2 3 4 5 6 
#
# 1 107.7528 28.6956 6.7578 7.1876 16.7682 -8.5298
# 2 28.6956 80.5028 7.7332 -11.3571 -7.0505 -11.1489
# 3 6.7578 7.7332 99.1532 4.5191 17.2489 -7.2398
# 4 7.1876 -11.3571 4.5191 28.7257 1.7222 19.7799
# 5 16.7682 -7.0505 17.2489 1.7222 38.3990 -3.2300
# 6 -8.5298 -11.1489 -7.2398 19.7799 -3.2300 55.1198
#
#
#
# Elastic Compliance Matrix: (Units=1/GPa)
#
#
# Indices 1 2 3 4 5 6 
#
# 1 0.012491 -0.005748 0.001301 -0.007438 -0.006489 0.003230
# 2 -0.005748 0.016331 -0.002365 0.008236 0.006160 -0.000491
# 3 0.001301 -0.002365 0.011575 -0.004458 -0.005791 0.002504
# 4 -0.007438 0.008236 -0.004458 0.053665 0.002744 -0.019168
# 5 -0.006489 0.006160 -0.005791 0.002744 0.032519 0.000402
# 6 0.003230 -0.000491 0.002504 -0.019168 0.000402 0.025774
#
#
# Mechanical properties :
#
#
# Convention : Reuss Voigt Hill
#
# Bulk Modulus (GPa) = 37.35088 41.53131 39.44110
# Shear Modulus (GPa) = 28.58730 40.73039 34.65884
#
# Velocity S-wave (km/s) = 3.50430 4.18287 3.85853
# Velocity P-wave (km/s) = 5.69370 6.41630 6.06577
#
# Compressibility (1/GPa) = 0.02677313
#
# Stress axis : x y z
#
# Youngs Moduli (GPa) = 80.05606 61.23210 86.39602
#
# Poissons Ratio (x) = 0.35195 -0.11237
# Poissons Ratio (y) = 0.46014 0.20432
# Poissons Ratio (z) = -0.10412 0.14481
#
# Static dielectric constant tensor:
#      x y z
#    x 2.127540 -0.277270 0.021940 
#    y -0.277270 3.555010 -0.632640 
#    z 0.021940 -0.632640 2.187470 
# 
# From -- ./inp_files/21164.got.cif
#   From: 2010.05.17/outbox.ucp.g08.bks.cvg/sg2_11_cif.got.tgz:21164.got - 2010.06.11 11:32:03.
