data_PCOD9075990
_publ_section_title
;
Structure prediction by ZEFSAII (Michael W. Deem and Ramdas Pophale) SiO2 
 PCOD9075990
Probable space group: P -1
;
_chemical_formula_sum "Si O2"
_cell_formula_units_Z 16
_cell_length_a 9.132969
_cell_length_b 9.153311
_cell_length_c 10.279228
_cell_angle_alpha 122.536643
_cell_angle_beta 56.713880
_cell_angle_gamma 96.261665
_cell_volume 584.091100
_symmetry_space_group_name_H-M "P -1"
_symmetry_group_IT_number 2
_symmetry_cell_setting 'triclinic'
loop_
_space_group_symop_operation_xyz
x,y,z
-x,-y,-z
loop_
_atom_site_type_symbol
_atom_site_label
_atom_site_fract_x
_atom_site_fract_y
_atom_site_fract_z
Si Si1 0.479373 0.734479 0.946847
Si Si2 0.046366 0.260833 0.859535
Si Si3 0.791487 0.433034 0.304869
Si Si4 0.415326 0.922510 0.328085
Si Si5 0.077396 0.245300 0.551910
Si Si6 0.572563 0.637935 0.304987
Si Si7 0.781014 0.044586 0.197558
Si Si8 0.189963 0.089544 0.161630
O O1 0.447417 0.767527 0.130672
O O2 0.316555 0.888606 0.034804
O O3 0.473900 0.537311 0.814865
O O4 0.665902 0.786728 0.846670
O O5 0.967373 0.279222 0.759691
O O6 0.234884 0.320240 0.807207
O O7 0.107728 0.059246 0.785351
O O8 0.909922 0.364830 0.084601
O O9 0.888804 0.559864 0.397171
O O10 0.615108 0.578433 0.404861
O O11 0.765802 0.255032 0.296703
O O12 0.429974 0.814245 0.403389
O O13 0.581887 0.010649 0.275766
O O14 0.242340 0.081856 0.449622
O O15 0.052495 0.168306 0.385311
O O16 0.864716 0.930011 0.970660
#
# Coordination Sequence:
#
# PCOD9075990 Si02
#       8
#     2   2   2   2   2   2   2   2
#     4   9  16  32  56  82 120 149 179 222 288 358
#     4  10  23  40  57  79 118 155 192 234 276 328
#     4  11  22  38  60  79 110 161 200 222 272 342
#     4   9  20  34  55  89 121 141 177 240 296 329
#     4  10  21  38  57  84 124 141 179 249 285 322
#     4  10  18  32  58  84 107 153 190 218 276 350
#     4  10  20  39  64  81 109 156 192 225 285 347
#     4   9  18  35  58  88 113 143 185 237 283 331
#
# _framework density 27.392989
#
# number of rings (size 3 to 8) (size 9 to 14) (size 15 to 20)
#    0.000    2.250    1.250    3.000    0.000    5.000 
#    4.500    1.250    2.750    0.000    0.000    0.000 
#    0.000    0.000    0.000    0.000    0.000    0.000 
#
# Total GULP energy -89505.751910 kJ/mol
# GULP energy per Si atom -5594.109494 kJ/mol
# Density = 2.733064 g / cm^3
# Si number density = 27.392989 Si / 1000 Ang^3
#
#
#
# Elastic Constant Matrix: (Units=GPa)
#
#
# Indices 1 2 3 4 5 6 
#
# 1 85.4188 39.9027 34.1680 4.6091 36.2931 7.4093
# 2 39.9027 193.3995 33.4570 22.4214 21.9589 13.9086
# 3 34.1680 33.4570 105.9983 4.9511 23.7480 7.4764
# 4 4.6091 22.4214 4.9511 45.6071 -0.5936 10.2598
# 5 36.2931 21.9589 23.7480 -0.5936 49.2345 11.9005
# 6 7.4093 13.9086 7.4764 10.2598 11.9005 46.7208
#
#
#
# Elastic Compliance Matrix: (Units=1/GPa)
#
#
# Indices 1 2 3 4 5 6 
#
# 1 0.018773 -0.002009 -0.002788 -0.001064 -0.011934 0.001341
# 2 -0.002009 0.006179 -0.000985 -0.002597 -0.000681 -0.000619
# 3 -0.002788 -0.000985 0.011336 -0.000450 -0.002922 -0.000236
# 4 -0.001064 -0.002597 -0.000450 0.024611 0.003748 -0.005345
# 5 -0.011934 -0.000681 -0.002922 0.003748 0.032443 -0.006524
# 6 0.001341 -0.000619 -0.000236 -0.005345 -0.006524 0.024249
#
#
# Mechanical properties :
#
#
# Convention : Reuss Voigt Hill
#
# Bulk Modulus (GPa) = 40.44863 66.65245 53.55054
# Shear Modulus (GPa) = 36.39133 46.79839 41.59486
#
# Velocity S-wave (km/s) = 3.64880 4.13777 3.90096
# Velocity P-wave (km/s) = 5.70524 6.87117 6.31517
#
# Compressibility (1/GPa) = 0.02472272
#
# Stress axis : x y z
#
# Youngs Moduli (GPa) = 53.26931 161.85151 88.21467
#
# Poissons Ratio (x) = 0.32515 0.24597
# Poissons Ratio (y) = 0.10701 0.08689
# Poissons Ratio (z) = 0.14853 0.15942
#
# Static dielectric constant tensor:
#      x y z
#    x 2.191550 0.044030 -0.055060 
#    y 0.044030 2.138060 -0.079810 
#    z -0.055060 -0.079810 2.234120 
# 
# From -- ./inp_files/303933.got.cif
#   From: 2010.05.17/outbox.cif.g08.bks.cpg/sg2_152_cif.got.tgz:303933.got - 2010.06.03 11:33:40.
