data_PCOD9075843
_publ_section_title
;
Structure prediction by ZEFSAII (Michael W. Deem and Ramdas Pophale) SiO2 
 PCOD9075843
Probable space group: P -1
;
_chemical_formula_sum "Si O2"
_cell_formula_units_Z 16
_cell_length_a 20.233052
_cell_length_b 9.174101
_cell_length_c 19.346958
_cell_angle_alpha 44.771030
_cell_angle_beta 20.577327
_cell_angle_gamma 33.893129
_cell_volume 661.205008
_symmetry_space_group_name_H-M "P -1"
_symmetry_group_IT_number 2
_symmetry_cell_setting 'triclinic'
loop_
_space_group_symop_operation_xyz
x,y,z
-x,-y,-z
loop_
_atom_site_type_symbol
_atom_site_label
_atom_site_fract_x
_atom_site_fract_y
_atom_site_fract_z
Si Si1 0.329636 0.131919 0.235957
Si Si2 0.282810 0.704519 0.403325
Si Si3 0.176179 0.740530 0.984747
Si Si4 0.139990 0.287188 0.517824
Si Si5 0.746367 0.259298 0.936277
Si Si6 0.341874 0.138640 0.795249
Si Si7 0.955903 0.344047 0.991444
Si Si8 0.723399 0.155588 0.795458
O O1 0.287276 0.238043 0.320037
O O2 0.061730 0.386594 0.377520
O O3 0.369410 0.862652 0.292349
O O4 0.553112 0.077324 0.995586
O O5 0.539250 0.385886 0.272412
O O6 0.249957 0.767246 0.332590
O O7 0.996350 0.889816 0.647303
O O8 0.982436 0.075638 0.064349
O O9 0.214885 0.657125 0.054783
O O10 0.082461 0.629134 0.062649
O O11 0.975458 0.201675 0.691819
O O12 0.356874 0.094070 0.426330
O O13 0.471489 0.532514 0.087397
O O14 0.753069 0.009896 0.027886
O O15 0.202011 0.256920 0.818549
O O16 0.261919 0.382952 0.842836
#
# Coordination Sequence:
#
# PCOD9075843 Si02
#       8
#     2   2   2   2   2   2   2   2
#     4  10  20  34  53  82 117 148 183 225 270 336
#     4  10  18  32  56  81 113 151 184 222 276 336
#     4   9  18  36  58  82 115 149 185 236 285 327
#     4  10  21  35  55  83 114 150 186 226 280 335
#     4   9  19  36  58  84 117 149 181 228 281 334
#     4  10  19  36  60  82 111 149 188 233 284 335
#     4   9  19  36  59  83 110 144 189 243 285 326
#     4   9  19  33  53  85 116 147 183 222 272 335
#
# _framework density 24.198243000000002
#
# number of rings (size 3 to 8) (size 9 to 14) (size 15 to 20)
#    0.000    2.500    0.000    1.875    0.000    2.000 
#    0.000   10.000    0.000    9.000    0.000    0.000 
#    0.000    0.000    0.000    0.000    0.000    0.000 
#
# Total GULP energy -89152.185014 kJ/mol
# GULP energy per Si atom -5572.011563 kJ/mol
# Density = 2.414317 g / cm^3
# Si number density = 24.198243 Si / 1000 Ang^3
#
#
#
# Elastic Constant Matrix: (Units=GPa)
#
#
# Indices 1 2 3 4 5 6 
#
# 1 123.8315 42.9091 20.0760 19.4831 -17.7703 22.3417
# 2 42.9091 120.0571 1.8782 17.6851 -34.6468 -1.1800
# 3 20.0760 1.8782 112.1567 8.3485 -9.3617 -0.4110
# 4 19.4831 17.6851 8.3485 27.7360 -10.1840 -13.4083
# 5 -17.7703 -34.6468 -9.3617 -10.1840 35.6230 11.5472
# 6 22.3417 -1.1800 -0.4110 -13.4083 11.5472 32.4065
#
#
#
# Elastic Compliance Matrix: (Units=1/GPa)
#
#
# Indices 1 2 3 4 5 6 
#
# 1 0.016892 -0.000760 -0.000914 -0.018628 0.009506 -0.022779
# 2 -0.000760 0.013273 0.001478 -0.006660 0.013087 -0.006393
# 3 -0.000914 0.001478 0.009516 -0.002695 0.003180 -0.001443
# 4 -0.018628 -0.006660 -0.002695 0.072720 -0.010757 0.046487
# 5 0.009506 0.013087 0.003180 -0.010757 0.052800 -0.029301
# 6 -0.022779 -0.006393 -0.001443 0.046487 -0.029301 0.075987
#
#
# Mechanical properties :
#
#
# Convention : Reuss Voigt Hill
#
# Bulk Modulus (GPa) = 25.45244 53.97466 39.71355
# Shear Modulus (GPa) = 19.63291 38.56522 29.09906
#
# Velocity S-wave (km/s) = 2.85149 3.99647 3.47151
# Velocity P-wave (km/s) = 4.62411 6.60677 5.70227
#
# Compressibility (1/GPa) = 0.03928897
#
# Stress axis : x y z
#
# Youngs Moduli (GPa) = 59.20064 75.34343 105.08925
#
# Poissons Ratio (x) = 0.05723 0.09609
# Poissons Ratio (y) = 0.04496 -0.15536
# Poissons Ratio (z) = 0.05413 -0.11138
#
# Static dielectric constant tensor:
#      x y z
#    x 2.065700 -0.006630 0.007430 
#    y -0.006630 1.970090 0.045210 
#    z 0.007430 0.045210 1.999710 
# 
# From -- ./inp_files/601146.got.cif
#   From: 2010.05.17/outbox.cif.g08.bks.cpg/sg2_301_cif.got.tgz:601146.got - 2010.06.03 11:33:40.
