data_PCOD9075805
_publ_section_title
;
Structure prediction by ZEFSAII (Michael W. Deem and Ramdas Pophale) SiO2 
 PCOD9075805
Probable space group: P -1
;
_chemical_formula_sum "Si O2"
_cell_formula_units_Z 14
_cell_length_a 16.736422
_cell_length_b 11.395806
_cell_length_c 14.531544
_cell_angle_alpha 161.768660
_cell_angle_beta 139.761331
_cell_angle_gamma 39.959904
_cell_volume 548.203996
_symmetry_space_group_name_H-M "P -1"
_symmetry_group_IT_number 2
_symmetry_cell_setting 'triclinic'
loop_
_space_group_symop_operation_xyz
x,y,z
-x,-y,-z
loop_
_atom_site_type_symbol
_atom_site_label
_atom_site_fract_x
_atom_site_fract_y
_atom_site_fract_z
Si Si1 0.705324 0.084268 0.698887
Si Si2 0.184636 0.322491 0.883986
Si Si3 0.454503 0.194816 0.806913
Si Si4 0.946862 0.630927 0.650458
Si Si5 0.674299 0.358617 0.605140
Si Si6 0.880001 0.060646 0.290629
Si Si7 0.708499 0.763911 0.768345
O O1 0.618274 0.888953 0.410947
O O2 0.797180 0.779512 0.614875
O O3 0.800649 0.308806 0.891371
O O4 0.608945 0.393333 0.902817
O O5 0.206507 0.958126 0.564834
O O6 0.087149 0.238786 0.816826
O O7 0.298075 0.350960 0.076325
O O8 0.407209 0.908480 0.621596
O O9 0.606442 0.075955 0.856803
O O10 0.976704 0.292184 0.499909
O O11 0.000000 0.500000 0.500000
O O12 0.000000 0.000000 0.000000
O O13 0.631487 0.593548 0.652432
O O14 0.777349 0.410879 0.504680
O O15 0.815969 0.899169 0.025672
#
# Coordination Sequence:
#
# PCOD9075805 Si02
#       7
#     2   2   2   2   2   2   2
#     4  10  21  38  58  85 116 148 188 231 273 331
#     4   8  16  32  55  81 113 144 179 231 275 312
#     4  10  18  32  55  87 122 156 183 217 268 331
#     4  12  26  46  65  80 103 146 194 242 296 344
#     4   8  15  26  48  81 119 156 187 209 252 324
#     4  10  21  38  58  85 116 148 188 231 273 331
#     4  10  18  32  55  87 122 156 183 217 268 331
#
# _framework density 25.537939000000001
#
# number of rings (size 3 to 8) (size 9 to 14) (size 15 to 20)
#    0.000    2.286    0.000    3.000    0.000    0.000 
#    0.000   14.286    0.000    0.000    0.000    0.000 
#    0.000    0.000    0.000    0.000    0.000    0.000 
#
# Total GULP energy -78100.134453 kJ/mol
# GULP energy per Si atom -5578.581032 kJ/mol
# Density = 2.547981 g / cm^3
# Si number density = 25.537939 Si / 1000 Ang^3
#
#
#
# Elastic Constant Matrix: (Units=GPa)
#
#
# Indices 1 2 3 4 5 6 
#
# 1 439.5323 -28.1383 -273.1583 243.4875 -127.6445 73.8179
# 2 -28.1383 121.2930 71.4184 -39.0905 16.8735 3.7493
# 3 -273.1583 71.4184 395.5840 -204.4557 118.3684 -27.7782
# 4 243.4875 -39.0905 -204.4557 176.4765 -87.6204 35.3907
# 5 -127.6445 16.8735 118.3684 -87.6204 119.2846 6.7844
# 6 73.8179 3.7493 -27.7782 35.3907 6.7844 47.3393
#
#
#
# Elastic Compliance Matrix: (Units=1/GPa)
#
#
# Indices 1 2 3 4 5 6 
#
# 1 0.012805 -0.001792 -0.000048 -0.013966 0.004316 -0.010032
# 2 -0.001792 0.009854 -0.001480 0.003877 0.001114 -0.001912
# 3 -0.000048 -0.001480 0.006763 0.007168 -0.001230 -0.001022
# 4 -0.013966 0.003877 0.007168 0.036949 0.004684 -0.002618
# 5 0.004316 0.001114 -0.001230 0.004684 0.018282 -0.013662
# 6 -0.010032 -0.001912 -0.001022 -0.002618 -0.013662 0.040234
#
#
# Mechanical properties :
#
#
# Convention : Reuss Voigt Hill
#
# Bulk Modulus (GPa) = 43.89700 55.18365 49.54032
# Shear Modulus (GPa) = 35.93935 147.70590 91.82263
#
# Velocity S-wave (km/s) = 3.75546 7.61337 6.00279
# Velocity P-wave (km/s) = 6.00257 9.94686 8.21495
#
# Compressibility (1/GPa) = 0.02278060
#
# Stress axis : x y z
#
# Youngs Moduli (GPa) = 78.09171 101.48128 147.86646
#
# Poissons Ratio (x) = 0.18188 0.00713
# Poissons Ratio (y) = 0.13996 0.21891
# Poissons Ratio (z) = 0.00376 0.15024
#
# Static dielectric constant tensor:
#      x y z
#    x 2.084170 -0.007330 0.073150 
#    y -0.007330 1.957600 0.013580 
#    z 0.073150 0.013580 1.973040 
# 
# From -- ./inp_files/66065.got.cif
#   From: 2010.05.17/outbox.cif.g08.bks.cpg/sg2_34_cif.got.tgz:66065.got - 2010.06.03 11:33:40.
