data_PCOD9075678
_publ_section_title
;
Structure prediction by ZEFSAII (Michael W. Deem and Ramdas Pophale) SiO2 
 PCOD9075678
Probable space group: P -1
;
_chemical_formula_sum "Si O2"
_cell_formula_units_Z 16
_cell_length_a 18.000000
_cell_length_b 6.000000
_cell_length_c 15.000000
_cell_angle_alpha 70.000000
_cell_angle_beta 150.000000
_cell_angle_gamma 100.000000
_cell_volume 734.803614
_symmetry_space_group_name_H-M "P -1"
_symmetry_group_IT_number 2
_symmetry_cell_setting 'triclinic'
loop_
_space_group_symop_operation_xyz
x,y,z
-x,-y,-z
loop_
_atom_site_type_symbol
_atom_site_label
_atom_site_fract_x
_atom_site_fract_y
_atom_site_fract_z
Si Si1 0.985315 0.806420 0.087791
Si Si2 0.259093 0.362268 0.367018
Si Si3 0.153947 0.794283 0.819091
Si Si4 0.480463 0.540654 0.246764
Si Si5 0.370058 0.527800 0.785105
Si Si6 0.358084 0.217802 0.291624
Si Si7 0.161367 0.368057 0.724716
Si Si8 0.870917 0.017368 0.614338
O O1 0.100464 0.559966 0.201704
O O2 0.805025 0.820593 0.903334
O O3 0.042361 0.853640 0.240043
O O4 0.000000 0.000000 0.000000
O O5 0.396238 0.406416 0.563836
O O6 0.304836 0.368591 0.309341
O O7 0.228009 0.110518 0.405508
O O8 0.176454 0.567943 0.796255
O O9 0.997785 0.826202 0.711292
O O10 0.151323 0.083533 0.760924
O O11 0.311397 0.722148 0.048199
O O12 0.549043 0.538109 0.218474
O O13 0.435160 0.307239 0.273075
O O14 0.275373 0.364360 0.760045
O O15 0.245744 0.788595 0.597899
O O16 0.500000 0.500000 0.000000
O O17 0.500000 0.000000 0.500000
O O18 0.000000 0.500000 0.500000
#
# Coordination Sequence:
#
# PCOD9075678 Si02
#       8
#     2   2   2   2   2   2   2   2
#     4  12  26  49  77 110 154 207 261 326 398 479
#     4  12  27  49  75 113 158 205 264 323 405 483
#     4  12  30  49  81 116 157 209 275 330 409 479
#     4  12  28  47  77 117 155 213 264 336 402 488
#     4  12  27  51  79 110 161 204 270 332 404 478
#     4  12  27  48  78 112 163 204 266 327 406 484
#     4  12  28  52  77 114 156 211 267 341 404 476
#     4  12  28  48  79 115 154 212 263 330 400 488
#
# _framework density 21.774525000000001
#
# number of rings (size 3 to 8) (size 9 to 14) (size 15 to 20)
#    0.000    0.000    5.000    3.375   10.500    0.500 
#    0.000    0.000    0.000    0.000    0.000    0.000 
#    0.000    0.000    0.000    0.000    0.000    0.000 
#
# Total GULP energy -89112.144475 kJ/mol
# GULP energy per Si atom -5569.509030 kJ/mol
# Density = 2.172497 g / cm^3
# Si number density = 21.774525 Si / 1000 Ang^3
#
#
#
# Elastic Constant Matrix: (Units=GPa)
#
#
# Indices 1 2 3 4 5 6 
#
# 1 121.3022 6.9497 -4.0422 18.2059 -3.6075 -5.6200
# 2 6.9497 66.9760 19.7295 6.9045 -7.9348 0.2560
# 3 -4.0422 19.7295 149.4577 10.1160 5.8220 4.4279
# 4 18.2059 6.9045 10.1160 46.5913 4.9917 3.0187
# 5 -3.6075 -7.9348 5.8220 4.9917 42.9151 1.4070
# 6 -5.6200 0.2560 4.4279 3.0187 1.4070 34.3788
#
#
#
# Elastic Compliance Matrix: (Units=1/GPa)
#
#
# Indices 1 2 3 4 5 6 
#
# 1 0.008961 -0.000580 0.000484 -0.003733 0.000959 0.001695
# 2 -0.000580 0.016256 -0.002159 -0.002094 0.003490 0.000103
# 3 0.000484 -0.002159 0.007139 -0.001252 -0.001159 -0.000667
# 4 -0.003733 -0.002094 -0.001252 0.024008 -0.003245 -0.002409
# 5 0.000959 0.003490 -0.001159 -0.003245 0.024577 -0.000441
# 6 0.001695 0.000103 -0.000667 -0.002409 -0.000441 0.029679
#
#
# Mechanical properties :
#
#
# Convention : Reuss Voigt Hill
#
# Bulk Modulus (GPa) = 35.91365 42.55667 39.23516
# Shear Modulus (GPa) = 40.18938 45.78365 42.98651
#
# Velocity S-wave (km/s) = 4.30083 4.59041 4.44798
# Velocity P-wave (km/s) = 6.41811 6.90525 6.66613
#
# Compressibility (1/GPa) = 0.02784457
#
# Stress axis : x y z
#
# Youngs Moduli (GPa) = 111.59962 61.51646 140.08387
#
# Poissons Ratio (x) = 0.03571 -0.06781
# Poissons Ratio (y) = 0.06477 0.30242
# Poissons Ratio (z) = -0.05402 0.13280
#
# Static dielectric constant tensor:
#      x y z
#    x 1.787620 0.005170 -0.001300 
#    y 0.005170 1.942280 -0.063070 
#    z -0.001300 -0.063070 1.852790 
# 
# From -- ./inp_files/536288.got.cif
#   From: 2010.05.17/outbox.ucp.g08.bks.cvg/sg2_269_cif.got.tgz:536288.got - 2010.06.11 11:32:03.
