data_PCOD9075902
_publ_section_title
;
Structure prediction by ZEFSAII (Michael W. Deem and Ramdas Pophale) SiO2 
 PCOD9075902
Probable space group: P -1
;
_chemical_formula_sum "Si O2"
_cell_formula_units_Z 16
_cell_length_a 17.964143
_cell_length_b 16.727921
_cell_length_c 8.500500
_cell_angle_alpha 131.491149
_cell_angle_beta 142.475523
_cell_angle_gamma 33.076311
_cell_volume 849.124857
_symmetry_space_group_name_H-M "P -1"
_symmetry_group_IT_number 2
_symmetry_cell_setting 'triclinic'
loop_
_space_group_symop_operation_xyz
x,y,z
-x,-y,-z
loop_
_atom_site_type_symbol
_atom_site_label
_atom_site_fract_x
_atom_site_fract_y
_atom_site_fract_z
Si Si1 0.367972 0.356878 0.728461
Si Si2 0.526579 0.114300 0.461481
Si Si3 0.803392 0.827690 0.055183
Si Si4 0.990905 0.435598 0.740841
Si Si5 0.034464 0.623605 0.888139
Si Si6 0.416670 0.441755 0.227994
Si Si7 0.549467 0.138208 0.170341
Si Si8 0.722140 0.795351 0.405058
O O1 0.509649 0.232406 0.684739
O O2 0.324848 0.277074 0.657503
O O3 0.197221 0.483557 0.514918
O O4 0.422031 0.415374 0.015853
O O5 0.583947 0.100027 0.361451
O O6 0.638359 0.957301 0.526205
O O7 0.339921 0.175638 0.219031
O O8 0.902348 0.731544 0.252107
O O9 0.929473 0.744053 0.009128
O O10 0.699739 0.997521 0.135617
O O11 0.052717 0.487547 0.787981
O O12 0.000000 0.500000 0.000000
O O13 0.219636 0.556954 0.091219
O O14 0.919436 0.696169 0.633644
O O15 0.500000 0.500000 0.500000
O O16 0.508018 0.285208 0.255797
O O17 0.381503 0.172066 0.883675
#
# Coordination Sequence:
#
# PCOD9075902 Si02
#       8
#     2   2   2   2   2   2   2   2
#     4  10  20  33  57  84 118 156 180 225 283 340
#     4  11  18  32  54  94 126 147 165 224 293 361
#     4  10  18  32  56  94 124 147 167 225 291 359
#     4   9  16  31  55  92 124 137 173 221 289 353
#     4  10  20  34  58  83 116 150 188 230 281 336
#     4  11  26  44  57  75 107 155 210 247 270 318
#     4  10  23  34  60  84 120 152 185 221 292 341
#     4   9  18  32  54  91 122 142 179 219 290 354
#
# _framework density 18.842929999999999
#
# number of rings (size 3 to 8) (size 9 to 14) (size 15 to 20)
#    0.000    2.000    3.750    2.625    5.250    7.500 
#    0.000    1.250    0.000    1.500    0.000    0.000 
#    0.000    0.000    0.000    0.000    0.000    0.000 
#
# Total GULP energy -89258.674948 kJ/mol
# GULP energy per Si atom -5578.667184 kJ/mol
# Density = 1.880004 g / cm^3
# Si number density = 18.842930 Si / 1000 Ang^3
#
#
#
# Elastic Constant Matrix: (Units=GPa)
#
#
# Indices 1 2 3 4 5 6 
#
# 1 41.2185 33.5248 33.4156 10.7732 -9.9905 -16.8648
# 2 33.5248 141.8792 68.0721 -1.3172 3.0808 -10.6312
# 3 33.4156 68.0721 119.5942 10.7842 -3.5214 -2.2274
# 4 10.7732 -1.3172 10.7842 31.7153 0.2718 -12.3348
# 5 -9.9905 3.0808 -3.5214 0.2718 22.1683 2.7419
# 6 -16.8648 -10.6312 -2.2274 -12.3348 2.7419 26.7844
#
#
#
# Elastic Compliance Matrix: (Units=1/GPa)
#
#
# Indices 1 2 3 4 5 6 
#
# 1 0.055302 -0.006800 -0.009968 -0.005514 0.021062 0.026597
# 2 -0.006800 0.011676 -0.005399 0.005950 -0.006021 0.003260
# 3 -0.009968 -0.005399 0.014536 -0.005576 -0.000157 -0.009763
# 4 -0.005514 0.005950 -0.005576 0.042973 -0.007067 0.018940
# 5 0.021062 -0.006021 -0.000157 -0.007067 0.055259 0.001947
# 6 0.026597 0.003260 -0.009763 0.018940 0.001947 0.063087
#
#
# Mechanical properties :
#
#
# Convention : Reuss Voigt Hill
#
# Bulk Modulus (GPa) = 26.89697 63.63520 45.26608
# Shear Modulus (GPa) = 16.69113 27.31223 22.00168
#
# Velocity S-wave (km/s) = 2.97947 3.81132 3.42078
# Velocity P-wave (km/s) = 5.11289 7.29472 6.29899
#
# Compressibility (1/GPa) = 0.03717891
#
# Stress axis : x y z
#
# Youngs Moduli (GPa) = 18.08262 85.64886 68.79390
#
# Poissons Ratio (x) = 0.58242 0.68577
# Poissons Ratio (y) = 0.12296 0.37140
# Poissons Ratio (z) = 0.18025 0.46240
#
# Static dielectric constant tensor:
#      x y z
#    x 1.701290 -0.032390 -0.077560 
#    y -0.032390 1.715980 0.007930 
#    z -0.077560 0.007930 1.654810 
# 
# From -- ./inp_files/348975.got.cif
#   From: 2010.05.17/outbox.cif.g08.bks.cpg/sg2_175_cif.got.tgz:348975.got - 2010.06.03 11:33:40.
