data_PCOD9075021
_publ_section_title
;
Structure prediction by ZEFSAII (Michael W. Deem and Ramdas Pophale) SiO2 
 PCOD9075021
Probable space group: P -1
;
_chemical_formula_sum "Si O2"
_cell_formula_units_Z 16
_cell_length_a 18.000000
_cell_length_b 15.000000
_cell_length_c 27.000000
_cell_angle_alpha 20.000000
_cell_angle_beta 160.000000
_cell_angle_gamma 160.000000
_cell_volume 746.015535
_symmetry_space_group_name_H-M "P -1"
_symmetry_group_IT_number 2
_symmetry_cell_setting 'triclinic'
loop_
_space_group_symop_operation_xyz
x,y,z
-x,-y,-z
loop_
_atom_site_type_symbol
_atom_site_label
_atom_site_fract_x
_atom_site_fract_y
_atom_site_fract_z
Si Si1 0.399156 0.984082 0.363670
Si Si2 0.511134 0.174568 0.779987
Si Si3 0.416398 0.845384 0.796129
Si Si4 0.094540 0.175483 0.915938
Si Si5 0.035302 0.385846 0.028402
Si Si6 0.649874 0.848244 0.497915
Si Si7 0.797761 0.973484 0.237539
Si Si8 0.471305 0.589703 0.693966
O O1 0.531883 0.936608 0.423834
O O2 0.364328 0.735847 0.511813
O O3 0.137483 0.942354 0.203988
O O4 0.542548 0.297078 0.319333
O O5 0.579051 0.504202 0.633140
O O6 0.370862 0.144556 0.758574
O O7 0.764104 0.164696 0.954340
O O8 0.369475 0.937848 0.772253
O O9 0.201919 0.521790 0.815203
O O10 0.430044 0.074812 0.643696
O O11 0.678535 0.848284 0.954184
O O12 0.000000 0.000000 0.000000
O O13 0.143008 0.689064 0.906490
O O14 0.240192 0.282105 0.208087
O O15 0.000000 0.500000 0.000000
O O16 0.945575 0.027552 0.594582
O O17 0.661331 0.762107 0.215787
#
# Coordination Sequence:
#
# PCOD9075021 Si02
#       8
#     2   2   2   2   2   2   2   2
#     4  11  23  43  67  92 132 172 212 272 323 384
#     4  11  24  42  67  97 135 169 218 273 327 391
#     4  11  25  42  70  99 123 178 221 265 336 389
#     4  11  24  47  68  92 136 169 219 279 323 388
#     4  11  22  42  65  95 135 169 213 274 325 384
#     4  11  23  43  65  96 136 168 221 273 320 388
#     4  11  23  41  65  96 134 170 215 269 325 392
#     4  11  22  40  68  96 126 176 216 256 333 389
#
# _framework density 21.447275000000001
#
# number of rings (size 3 to 8) (size 9 to 14) (size 15 to 20)
#    0.000    1.000    3.750    3.000    0.000    4.000 
#    0.000    1.250    0.000    0.000    0.000    0.000 
#    0.000    0.000    0.000    0.000    0.000    0.000 
#
# Total GULP energy -89441.715314 kJ/mol
# GULP energy per Si atom -5590.107207 kJ/mol
# Density = 2.139846 g / cm^3
# Si number density = 21.447275 Si / 1000 Ang^3
#
#
#
# Elastic Constant Matrix: (Units=GPa)
#
#
# Indices 1 2 3 4 5 6 
#
# 1 0.1707 7.7694 2.7669 -15.3166 -7.5127 -28.8306
# 2 7.7694 49.0696 4.1816 3.9155 -10.5678 -3.9066
# 3 2.7669 4.1816 52.3773 11.8551 -19.3832 1.3837
# 4 -15.3166 3.9155 11.8551 17.7852 -6.1229 -6.8538
# 5 -7.5127 -10.5678 -19.3832 -6.1229 25.7157 -2.2014
# 6 -28.8306 -3.9066 1.3837 -6.8538 -2.2014 25.5928
#
#
#
# Elastic Compliance Matrix: (Units=1/GPa)
#
#
# Indices 1 2 3 4 5 6 
#
# 1 -0.011705 0.000053 0.003344 -0.022866 -0.008048 -0.020174
# 2 0.000053 0.023049 0.002575 -0.001206 0.011493 0.004105
# 3 0.003344 0.002575 0.028618 -0.008395 0.021799 0.002240
# 4 -0.022866 -0.001206 -0.008395 0.033363 -0.007029 -0.017159
# 5 -0.008048 0.011493 0.021799 -0.007029 0.055536 -0.005596
# 6 -0.020174 0.004105 0.002240 -0.017159 -0.005596 0.011776
#
#
# Mechanical properties :
#
#
# Convention : Reuss Voigt Hill
#
# Bulk Modulus (GPa) = 19.26522 14.56148 16.91335
# Shear Modulus (GPa) = 34.24740 19.61205 26.92973
#
# Velocity S-wave (km/s) = 4.00036 3.02724 3.54732
# Velocity P-wave (km/s) = 5.50811 4.36154 4.96801
#
# Compressibility (1/GPa) = 0.05190701
#
# Stress axis : x y z
#
# Youngs Moduli (GPa) = -85.43494 43.38496 34.94296
#
# Poissons Ratio (x) = -0.00232 -0.11685
# Poissons Ratio (y) = 0.00457 -0.08996
# Poissons Ratio (z) = 0.28570 -0.11170
#
# Static dielectric constant tensor:
#      x y z
#    x 1.651740 -0.101110 0.033660 
#    y -0.101110 1.643910 0.076380 
#    z 0.033660 0.076380 1.759070 
# 
# From -- ./inp_files/81256.got.cif
#   From: 2010.05.17/outbox.ucp.g08.bks.cvg/sg2_41_cif.got.tgz:81256.got - 2010.06.11 11:32:03.
