data_PCOD9075483
_publ_section_title
;
Structure prediction by ZEFSAII (Michael W. Deem and Ramdas Pophale) SiO2 
 PCOD9075483
Probable space group: P -1
;
_chemical_formula_sum "Si O2"
_cell_formula_units_Z 14
_cell_length_a 11.215146
_cell_length_b 7.882419
_cell_length_c 10.988165
_cell_angle_alpha 38.858809
_cell_angle_beta 92.640917
_cell_angle_gamma 93.459915
_cell_volume 608.336251
_symmetry_space_group_name_H-M "P -1"
_symmetry_group_IT_number 2
_symmetry_cell_setting 'triclinic'
loop_
_space_group_symop_operation_xyz
x,y,z
-x,-y,-z
loop_
_atom_site_type_symbol
_atom_site_label
_atom_site_fract_x
_atom_site_fract_y
_atom_site_fract_z
Si Si1 0.143765 0.110348 0.633254
Si Si2 0.314084 0.570982 0.460034
Si Si3 0.619576 0.636239 0.176612
Si Si4 0.127565 0.450251 0.192562
Si Si5 0.859558 0.426051 0.211987
Si Si6 0.372605 0.738870 0.106398
Si Si7 0.117614 0.916922 0.344162
O O1 0.246710 0.277398 0.613066
O O2 0.132632 0.271870 0.415649
O O3 0.017011 0.130584 0.682095
O O4 0.158475 0.801849 0.766119
O O5 0.377241 0.573275 0.592408
O O6 0.383445 0.624093 0.309318
O O7 0.214208 0.796681 0.328343
O O8 0.739911 0.589651 0.132138
O O9 0.490310 0.625262 0.110583
O O10 0.623173 0.939804 0.059852
O O11 0.244849 0.642840 0.100340
O O12 0.129296 0.741128 0.566995
O O13 0.137145 0.228281 0.210183
O O14 0.993091 0.559316 0.125469
#
# Coordination Sequence:
#
# PCOD9075483 Si02
#       7
#     2   2   2   2   2   2   2
#     4   8  14  27  50  78 104 130 163 206 250 292
#     4  10  18  32  54  76  99 132 169 202 245 300
#     4  10  21  36  52  73 102 133 167 208 250 293
#     4   8  15  30  51  75 102 132 167 204 246 297
#     4   8  15  30  51  75 102 132 167 204 246 297
#     4  10  21  36  52  73 102 133 167 208 250 293
#     4   8  14  27  50  78 104 130 163 206 250 292
#
# _framework density 23.013587000000001
#
# number of rings (size 3 to 8) (size 9 to 14) (size 15 to 20)
#    0.000    3.143    0.000    2.571    0.000    1.714 
#    0.000   14.286    0.000    6.857    0.000    0.000 
#    0.000    0.000    0.000    0.000    0.000    0.000 
#
# Total GULP energy -78124.690591 kJ/mol
# GULP energy per Si atom -5580.335042 kJ/mol
# Density = 2.296121 g / cm^3
# Si number density = 23.013587 Si / 1000 Ang^3
#
#
#
# Elastic Constant Matrix: (Units=GPa)
#
#
# Indices 1 2 3 4 5 6 
#
# 1 171.0890 43.8145 34.4473 -9.3056 17.8580 -39.4866
# 2 43.8145 33.4034 6.8619 2.9911 9.6549 -1.4577
# 3 34.4473 6.8619 67.1865 -0.1416 3.7331 -10.4404
# 4 -9.3056 2.9911 -0.1416 26.3639 1.0880 6.0394
# 5 17.8580 9.6549 3.7331 1.0880 24.1400 -12.6997
# 6 -39.4866 -1.4577 -10.4404 6.0394 -12.6997 -6.5121
#
#
#
# Elastic Compliance Matrix: (Units=1/GPa)
#
#
# Indices 1 2 3 4 5 6 
#
# 1 0.006930 -0.006925 -0.004218 0.006265 -0.008225 -0.011858
# 2 -0.006925 0.040591 0.002462 -0.011497 -0.000667 0.019593
# 3 -0.004218 0.002462 0.016674 -0.001385 -0.000964 -0.001109
# 4 0.006265 -0.011497 -0.001385 0.040561 0.000334 0.003772
# 5 -0.008225 -0.000667 -0.000964 0.000334 0.037120 -0.020511
# 6 -0.011858 0.019593 -0.001109 0.003772 -0.020511 -0.040770
#
#
# Mechanical properties :
#
#
# Convention : Reuss Voigt Hill
#
# Bulk Modulus (GPa) = 21.35224 49.10293 35.22758
# Shear Modulus (GPa) = 37.29133 21.23536 29.26335
#
# Velocity S-wave (km/s) = 4.02979 3.04095 3.56977
# Velocity P-wave (km/s) = 5.56332 5.80626 5.68609
#
# Compressibility (1/GPa) = 0.04683350
#
# Stress axis : x y z
#
# Youngs Moduli (GPa) = 144.29679 24.63578 59.97532
#
# Poissons Ratio (x) = 0.17059 0.25300
# Poissons Ratio (y) = 0.99919 -0.14766
# Poissons Ratio (z) = 0.60869 -0.06066
#
# Static dielectric constant tensor:
#      x y z
#    x 1.882120 0.015900 0.005960 
#    y 0.015900 1.840710 0.037890 
#    z 0.005960 0.037890 1.901730 
# 
# From -- ./inp_files/235936.got.cif
#   From: 2010.05.17/outbox.cif.g08.bks.cpg/sg2_118_cif.got.tgz:235936.got - 2010.06.03 11:33:40.
