data_PCOD9075967
_publ_section_title
;
Structure prediction by ZEFSAII (Michael W. Deem and Ramdas Pophale) SiO2 
 PCOD9075967
Probable space group: P -1
;
_chemical_formula_sum "Si O2"
_cell_formula_units_Z 16
_cell_length_a 10.425000
_cell_length_b 7.512415
_cell_length_c 13.378369
_cell_angle_alpha 64.077202
_cell_angle_beta 56.109651
_cell_angle_gamma 67.488885
_cell_volume 768.538663
_symmetry_space_group_name_H-M "P -1"
_symmetry_group_IT_number 2
_symmetry_cell_setting 'triclinic'
loop_
_space_group_symop_operation_xyz
x,y,z
-x,-y,-z
loop_
_atom_site_type_symbol
_atom_site_label
_atom_site_fract_x
_atom_site_fract_y
_atom_site_fract_z
Si Si1 0.793806 0.287400 0.265593
Si Si2 0.367324 0.284084 0.780863
Si Si3 0.871706 0.951193 0.144122
Si Si4 0.293779 0.215752 0.463340
Si Si5 0.685136 0.342691 0.688491
Si Si6 0.935654 0.227210 0.434508
Si Si7 0.524518 0.183946 0.541732
Si Si8 0.979504 0.347813 0.680306
O O1 0.762896 0.519068 0.186763
O O2 0.831028 0.133994 0.195901
O O3 0.908412 0.233065 0.324985
O O4 0.631941 0.264502 0.394925
O O5 0.277129 0.102615 0.838893
O O6 0.523031 0.260094 0.788136
O O7 0.448725 0.320028 0.630832
O O8 0.951372 0.757100 0.222383
O O9 0.000000 0.000000 0.000000
O O10 0.348968 0.414582 0.352962
O O11 0.374366 0.152152 0.551012
O O12 0.110804 0.267538 0.558173
O O13 0.366996 0.022133 0.414336
O O14 0.777057 0.294821 0.553762
O O15 0.818566 0.285182 0.729228
O O16 0.030452 0.410960 0.365605
O O17 0.000000 0.000000 0.500000
#
# Coordination Sequence:
#
# PCOD9075967 Si02
#       8
#     2   2   2   2   2   2   2   2
#     4  12  22  40  68  97 136 165 216 269 327 393
#     4  12  23  41  62 101 130 170 214 266 330 401
#     4  12  27  48  70  89 120 178 238 280 312 361
#     4  10  18  32  57  90 130 174 195 248 326 395
#     4  11  23  34  60  96 140 170 201 254 340 416
#     4  11  22  36  60 102 141 175 203 255 339 411
#     4  11  18  32  61  98 135 158 204 259 328 401
#     4  11  22  41  59  94 139 174 219 266 315 396
#
# _framework density 20.818729000000001
#
# number of rings (size 3 to 8) (size 9 to 14) (size 15 to 20)
#    0.000    0.750    6.250    4.125    1.750    0.500 
#    0.000    0.625    0.000    0.750    0.000    0.000 
#    0.000    0.000    0.000    0.000    0.000    0.000 
#
# Total GULP energy -89234.101437 kJ/mol
# GULP energy per Si atom -5577.131340 kJ/mol
# Density = 2.077134 g / cm^3
# Si number density = 20.818729 Si / 1000 Ang^3
#
#
#
# Elastic Constant Matrix: (Units=GPa)
#
#
# Indices 1 2 3 4 5 6 
#
# 1 149.9894 35.8910 26.8587 -1.4869 -28.1412 4.9183
# 2 35.8910 135.5012 22.6602 -0.4709 -3.6366 16.1483
# 3 26.8587 22.6602 64.1119 8.8221 -11.4135 5.2610
# 4 -1.4869 -0.4709 8.8221 14.2369 -3.2440 1.1487
# 5 -28.1412 -3.6366 -11.4135 -3.2440 16.2120 -3.9969
# 6 4.9183 16.1483 5.2610 1.1487 -3.9969 28.0724
#
#
#
# Elastic Compliance Matrix: (Units=1/GPa)
#
#
# Indices 1 2 3 4 5 6 
#
# 1 0.011183 -0.002454 -0.001351 0.006234 0.019714 0.002258
# 2 -0.002454 0.008954 -0.002798 0.000978 -0.005255 -0.004985
# 3 -0.001351 -0.002798 0.020262 -0.010699 0.009098 -0.000218
# 4 0.006234 0.000978 -0.010699 0.082100 0.019892 -0.000177
# 5 0.019714 -0.005255 0.009098 0.019892 0.108179 0.012452
# 6 0.002258 -0.004985 -0.000218 -0.000177 0.012452 0.039915
#
#
# Mechanical properties :
#
#
# Convention : Reuss Voigt Hill
#
# Bulk Modulus (GPa) = 36.77351 57.82471 47.29911
# Shear Modulus (GPa) = 17.07274 29.31709 23.19491
#
# Velocity S-wave (km/s) = 2.86679 3.75668 3.34149
# Velocity P-wave (km/s) = 5.35350 6.83026 6.13647
#
# Compressibility (1/GPa) = 0.02719349
#
# Stress axis : x y z
#
# Youngs Moduli (GPa) = 89.42249 111.67649 49.35288
#
# Poissons Ratio (x) = 0.27410 0.06667
# Poissons Ratio (y) = 0.21948 0.13808
# Poissons Ratio (z) = 0.12080 0.31244
#
# Static dielectric constant tensor:
#      x y z
#    x 1.903820 0.014230 -0.023820 
#    y 0.014230 1.820760 -0.029730 
#    z -0.023820 -0.029730 1.711260 
# 
# From -- ./inp_files/565172.got.cif
#   From: 2010.05.17/outbox.cif.g08.bks.cpg/sg2_283_cif.got.tgz:565172.got - 2010.06.03 11:33:40.
