data_PCOD9075607
_publ_section_title
;
Structure prediction by ZEFSAII (Michael W. Deem and Ramdas Pophale) SiO2 
 PCOD9075607
Probable space group: P -1
;
_chemical_formula_sum "Si O2"
_cell_formula_units_Z 16
_cell_length_a 12.000000
_cell_length_b 15.000000
_cell_length_c 18.000000
_cell_angle_alpha 30.000000
_cell_angle_beta 150.000000
_cell_angle_gamma 130.000000
_cell_volume 731.734496
_symmetry_space_group_name_H-M "P -1"
_symmetry_group_IT_number 2
_symmetry_cell_setting 'triclinic'
loop_
_space_group_symop_operation_xyz
x,y,z
-x,-y,-z
loop_
_atom_site_type_symbol
_atom_site_label
_atom_site_fract_x
_atom_site_fract_y
_atom_site_fract_z
Si Si1 0.792574 0.874068 0.266651
Si Si2 0.022575 0.784000 0.010084
Si Si3 0.668485 0.397932 0.973872
Si Si4 0.469191 0.842617 0.497704
Si Si5 0.609120 0.125646 0.743320
Si Si6 0.924132 0.647218 0.648694
Si Si7 0.993084 0.170328 0.194045
Si Si8 0.216486 0.279922 0.784948
O O1 0.854438 0.697116 0.486701
O O2 0.854956 0.809534 0.264795
O O3 0.941214 0.981656 0.315397
O O4 0.500000 0.000000 0.000000
O O5 0.133273 0.777255 0.997175
O O6 0.762033 0.973995 0.733102
O O7 0.217768 0.789250 0.178086
O O8 0.986912 0.586182 0.130127
O O9 0.525547 0.635416 0.719512
O O10 0.471849 0.306659 0.913361
O O11 0.854112 0.334116 0.056672
O O12 0.850949 0.321174 0.205586
O O13 0.403712 0.831906 0.381660
O O14 0.724248 0.868019 0.624151
O O15 0.331586 0.228166 0.543698
O O16 0.734793 0.888832 0.003028
O O17 0.000000 0.500000 0.500000
#
# Coordination Sequence:
#
# PCOD9075607 Si02
#       8
#     2   2   2   2   2   2   2   2
#     4  12  25  47  71 103 134 181 231 280 341 410
#     4  12  26  45  69 102 142 178 233 288 335 407
#     4  12  26  46  71 103 141 181 231 282 344 415
#     4  12  27  44  69 104 141 183 225 285 351 399
#     4  12  25  46  70 101 139 183 230 278 347 411
#     4  12  26  44  72 106 134 181 234 281 345 409
#     4  12  23  46  72  95 140 183 227 281 336 410
#     4  12  28  47  72 103 142 181 226 287 350 406
#
# _framework density 21.865853999999999
#
# number of rings (size 3 to 8) (size 9 to 14) (size 15 to 20)
#    0.000    0.000    6.250    3.000    5.250    1.000 
#    0.000    1.250    0.000    0.000    0.000    0.000 
#    0.000    0.000    0.000    0.000    0.000    0.000 
#
# Total GULP energy -89407.270569 kJ/mol
# GULP energy per Si atom -5587.954411 kJ/mol
# Density = 2.181609 g / cm^3
# Si number density = 21.865854 Si / 1000 Ang^3
#
#
#
# Elastic Constant Matrix: (Units=GPa)
#
#
# Indices 1 2 3 4 5 6 
#
# 1 9.3872 0.0142 10.6984 19.1445 -18.9005 0.6853
# 2 0.0142 86.2322 27.2691 17.5025 9.7059 -4.0138
# 3 10.6984 27.2691 91.4055 8.9475 -11.4602 -12.4847
# 4 19.1445 17.5025 8.9475 41.2587 1.8570 -6.7280
# 5 -18.9005 9.7059 -11.4602 1.8570 25.0251 13.7917
# 6 0.6853 -4.0138 -12.4847 -6.7280 13.7917 24.8887
#
#
#
# Elastic Compliance Matrix: (Units=1/GPa)
#
#
# Indices 1 2 3 4 5 6 
#
# 1 -0.033733 0.002302 -0.000220 0.022144 -0.046168 0.032759
# 2 0.002302 0.015228 -0.004830 -0.005749 -0.007313 0.002468
# 3 -0.000220 -0.004830 0.013624 -0.000781 0.006881 0.002037
# 4 0.022144 -0.005749 -0.000781 0.013617 0.023927 -0.011507
# 5 -0.046168 -0.007313 0.006881 0.023927 0.005449 0.006992
# 6 0.032759 0.002468 0.002037 -0.011507 0.006992 0.033712
#
#
# Mechanical properties :
#
#
# Convention : Reuss Voigt Hill
#
# Bulk Modulus (GPa) = -96.37920 29.22092 -33.57914
# Shear Modulus (GPa) = 100.13011 28.17072 64.15041
#
# Velocity S-wave (km/s) = 6.77439 3.59324 5.42235
# Velocity P-wave (km/s) = 4.12512 5.53244 4.87978
#
# Compressibility (1/GPa) = -0.01037568
#
# Stress axis : x y z
#
# Youngs Moduli (GPa) = -29.64460 65.66692 73.39825
#
# Poissons Ratio (x) = -0.15116 0.01616
# Poissons Ratio (y) = 0.06824 0.35448
# Poissons Ratio (z) = -0.00653 0.31714
#
# Static dielectric constant tensor:
#      x y z
#    x 1.896520 0.143040 -0.105390 
#    y 0.143040 2.076280 -0.282780 
#    z -0.105390 -0.282780 2.000690 
# 
# From -- ./inp_files/190788.got.cif
#   From: 2010.05.17/outbox.ucp.g08.bks.cvg/sg2_96_cif.got.tgz:190788.got - 2010.06.11 11:32:03.
