data_PCOD9075525
_publ_section_title
;
Structure prediction by ZEFSAII (Michael W. Deem and Ramdas Pophale) SiO2 
 PCOD9075525
Probable space group: P -1
;
_chemical_formula_sum "Si O2"
_cell_formula_units_Z 16
_cell_length_a 15.000000
_cell_length_b 12.000000
_cell_length_c 6.000000
_cell_angle_alpha 50.000000
_cell_angle_beta 90.000000
_cell_angle_gamma 110.000000
_cell_volume 740.289630
_symmetry_space_group_name_H-M "P -1"
_symmetry_group_IT_number 2
_symmetry_cell_setting 'triclinic'
loop_
_space_group_symop_operation_xyz
x,y,z
-x,-y,-z
loop_
_atom_site_type_symbol
_atom_site_label
_atom_site_fract_x
_atom_site_fract_y
_atom_site_fract_z
Si Si1 0.321239 0.257298 0.896205
Si Si2 0.799176 0.069625 0.921023
Si Si3 0.055279 0.039166 0.700758
Si Si4 0.866703 0.583354 0.864387
Si Si5 0.586514 0.038578 0.137682
Si Si6 0.049072 0.562224 0.653286
Si Si7 0.504497 0.242702 0.133965
Si Si8 0.670393 0.574535 0.820086
O O1 0.323679 0.341480 0.538842
O O2 0.425169 0.248125 0.948771
O O3 0.310947 0.330573 0.053272
O O4 0.234949 0.074676 0.079629
O O5 0.873588 0.246183 0.594657
O O6 0.695994 0.071150 0.004335
O O7 0.861886 0.027991 0.168649
O O8 0.104587 0.232878 0.435444
O O9 0.000000 0.000000 0.500000
O O10 0.000000 0.000000 0.000000
O O11 0.751355 0.502552 0.911877
O O12 0.947008 0.533859 0.818749
O O13 0.888579 0.540956 0.166024
O O14 0.579493 0.184653 0.087404
O O15 0.552622 0.888390 0.504490
O O16 0.500000 0.000000 0.000000
O O17 0.000000 0.500000 0.500000
O O18 0.564104 0.418633 0.017633
#
# Coordination Sequence:
#
# PCOD9075525 Si02
#       8
#     2   2   2   2   2   2   2   2
#     4  12  27  49  76 118 149 210 265 318 398 471
#     4  12  26  49  83 110 159 210 260 334 394 471
#     4  12  27  49  79 110 151 203 260 323 389 459
#     4  11  27  46  70 112 149 198 263 312 391 470
#     4  11  26  48  74 115 152 211 265 320 396 479
#     4  11  27  49  73 111 156 203 260 323 401 472
#     4  11  27  48  74 110 163 200 266 323 392 466
#     4  12  29  46  82 112 159 204 262 328 395 462
#
# _framework density 21.613161999999999
#
# number of rings (size 3 to 8) (size 9 to 14) (size 15 to 20)
#    0.000    0.500    3.750    2.250    8.750    0.000 
#    6.750    0.000    0.000    0.000    0.000    0.000 
#    0.000    0.000    0.000    0.000    0.000    0.000 
#
# Total GULP energy -89088.465165 kJ/mol
# GULP energy per Si atom -5568.029073 kJ/mol
# Density = 2.156397 g / cm^3
# Si number density = 21.613162 Si / 1000 Ang^3
#
#
#
# Elastic Constant Matrix: (Units=GPa)
#
#
# Indices 1 2 3 4 5 6 
#
# 1 164.4532 14.1050 28.9020 20.8937 25.9903 6.7944
# 2 14.1050 97.2328 3.8511 19.7714 -6.6565 16.4761
# 3 28.9020 3.8511 69.0775 20.3305 31.8087 6.6337
# 4 20.8937 19.7714 20.3305 35.5996 4.8795 2.9158
# 5 25.9903 -6.6565 31.8087 4.8795 48.6729 10.8635
# 6 6.7944 16.4761 6.6337 2.9158 10.8635 41.0638
#
#
#
# Elastic Compliance Matrix: (Units=1/GPa)
#
#
# Indices 1 2 3 4 5 6 
#
# 1 0.007134 -0.000656 -0.000554 -0.003077 -0.003287 0.000261
# 2 -0.000656 0.013051 0.000436 -0.007171 0.003843 -0.005706
# 3 -0.000554 0.000436 0.025134 -0.012272 -0.014995 0.000695
# 4 -0.003077 -0.007171 -0.012272 0.040179 0.004350 0.001365
# 5 -0.003287 0.003843 -0.014995 0.004350 0.033944 -0.007865
# 6 0.000261 -0.005706 0.000695 0.001365 -0.007865 0.028470
#
#
# Mechanical properties :
#
#
# Convention : Reuss Voigt Hill
#
# Bulk Modulus (GPa) = 22.84703 47.16443 35.00573
# Shear Modulus (GPa) = 30.47823 43.99428 37.23625
#
# Velocity S-wave (km/s) = 3.75930 4.51658 4.15523
# Velocity P-wave (km/s) = 5.42558 7.00491 6.26521
#
# Compressibility (1/GPa) = 0.04376937
#
# Stress axis : x y z
#
# Youngs Moduli (GPa) = 140.17300 76.62472 39.78660
#
# Poissons Ratio (x) = 0.05030 0.02206
# Poissons Ratio (y) = 0.09202 -0.01735
# Poissons Ratio (z) = 0.07771 -0.03342
#
# Static dielectric constant tensor:
#      x y z
#    x 1.866910 0.001340 -0.029900 
#    y 0.001340 2.019490 0.358190 
#    z -0.029900 0.358190 2.332300 
# 
# From -- ./inp_files/94319.got.cif
#   From: 2010.05.17/outbox.ucp.g08.bks.cvg/sg2_48_cif.got.tgz:94319.got - 2010.06.11 11:32:03.
