data_PCOD9075998
_publ_section_title
;
Structure prediction by ZEFSAII (Michael W. Deem and Ramdas Pophale) SiO2 
 PCOD9075998
Probable space group: P -1
;
_chemical_formula_sum "Si O2"
_cell_formula_units_Z 16
_cell_length_a 12.389536
_cell_length_b 13.477901
_cell_length_c 13.705130
_cell_angle_alpha 150.336270
_cell_angle_beta 43.006469
_cell_angle_gamma 126.718642
_cell_volume 767.745577
_symmetry_space_group_name_H-M "P -1"
_symmetry_group_IT_number 2
_symmetry_cell_setting 'triclinic'
loop_
_space_group_symop_operation_xyz
x,y,z
-x,-y,-z
loop_
_atom_site_type_symbol
_atom_site_label
_atom_site_fract_x
_atom_site_fract_y
_atom_site_fract_z
Si Si1 0.307505 0.644416 0.050822
Si Si2 0.365183 0.287060 0.019282
Si Si3 0.119119 0.639443 0.987869
Si Si4 0.249264 0.245614 0.856112
Si Si5 0.156025 0.612904 0.512801
Si Si6 0.088583 0.103942 0.163044
Si Si7 0.885953 0.364318 0.230187
Si Si8 0.077975 0.942574 0.583550
O O1 0.271224 0.644020 0.959904
O O2 0.163466 0.787218 0.318272
O O3 0.466390 0.730245 0.055148
O O4 0.309604 0.415935 0.893192
O O5 0.293898 0.525090 0.274297
O O6 0.235966 0.185167 0.081534
O O7 0.360503 0.208194 0.844858
O O8 0.027928 0.865359 0.229664
O O9 0.156321 0.559431 0.785036
O O10 0.000000 0.500000 0.000000
O O11 0.205012 0.053062 0.659571
O O12 0.078131 0.349251 0.099118
O O13 0.201397 0.558980 0.548019
O O14 0.000000 0.500000 0.500000
O O15 0.075004 0.840290 0.743894
O O16 0.028537 0.174959 0.371851
O O17 0.137898 0.871118 0.951363
#
# Coordination Sequence:
#
# PCOD9075998 Si02
#       8
#     2   2   2   2   2   2   2   2
#     4  12  23  41  58  87 125 154 192 246 293 344
#     4  11  23  35  56  92 125 151 184 242 305 348
#     4  10  20  40  64  81 114 154 205 246 274 348
#     4  10  20  38  58  90 120 150 195 241 287 342
#     4  10  18  32  58  85 115 153 193 229 290 351
#     4   9  19  35  58  88 114 150 191 241 281 349
#     4  10  19  35  60  89 108 147 208 244 274 333
#     4  10  23  37  66  87 108 157 207 236 286 342
#
# _framework density 20.840237999999999
#
# number of rings (size 3 to 8) (size 9 to 14) (size 15 to 20)
#    0.000    2.000    5.000    1.875    3.500    0.500 
#    2.250    3.125    0.000    0.000    0.000    0.000 
#    0.000    0.000    0.000    0.000    0.000    0.000 
#
# Total GULP energy -89191.358453 kJ/mol
# GULP energy per Si atom -5574.459903 kJ/mol
# Density = 2.079281 g / cm^3
# Si number density = 20.840238 Si / 1000 Ang^3
#
#
#
# Elastic Constant Matrix: (Units=GPa)
#
#
# Indices 1 2 3 4 5 6 
#
# 1 128.7668 29.1710 -8.3819 -9.5588 15.6933 -15.9906
# 2 29.1710 95.0129 -6.0620 4.2611 0.9045 -18.6174
# 3 -8.3819 -6.0620 27.2374 0.8046 13.6149 -8.7832
# 4 -9.5588 4.2611 0.8046 18.0995 -4.9532 6.5696
# 5 15.6933 0.9045 13.6149 -4.9532 27.8577 -9.0703
# 6 -15.9906 -18.6174 -8.7832 6.5696 -9.0703 27.8029
#
#
#
# Elastic Compliance Matrix: (Units=1/GPa)
#
#
# Indices 1 2 3 4 5 6 
#
# 1 0.010347 -0.001834 0.008104 0.001800 -0.008030 0.004238
# 2 -0.001834 0.014589 0.007483 -0.009667 -0.000521 0.013192
# 3 0.008104 0.007483 0.065144 -0.017857 -0.031996 0.024032
# 4 0.001800 -0.009667 -0.017857 0.071438 0.013007 -0.023716
# 5 -0.008030 -0.000521 -0.031996 0.013007 0.058715 0.001006
# 6 0.004238 0.013192 0.024032 -0.023716 0.001006 0.060763
#
#
# Mechanical properties :
#
#
# Convention : Reuss Voigt Hill
#
# Bulk Modulus (GPa) = 8.50447 31.16346 19.83396
# Shear Modulus (GPa) = 17.08314 30.50468 23.79391
#
# Velocity S-wave (km/s) = 2.86618 3.83004 3.38261
# Velocity P-wave (km/s) = 3.87853 5.87749 4.97935
#
# Compressibility (1/GPa) = 0.11758526
#
# Stress axis : x y z
#
# Youngs Moduli (GPa) = 96.64183 68.54590 15.35066
#
# Poissons Ratio (x) = 0.12569 -0.12440
# Poissons Ratio (y) = 0.17721 -0.11486
# Poissons Ratio (z) = -0.78314 -0.51291
#
# Static dielectric constant tensor:
#      x y z
#    x 1.768960 -0.027460 0.029960 
#    y -0.027460 1.830740 0.055310 
#    z 0.029960 0.055310 1.817490 
# 
# From -- ./inp_files/357604.got.cif
#   From: 2010.05.17/outbox.cif.g08.bks.cpg/sg2_179_cif.got.tgz:357604.got - 2010.06.03 11:33:40.
