data_PCOD9075986
_publ_section_title
;
Structure prediction by ZEFSAII (Michael W. Deem and Ramdas Pophale) SiO2 
 PCOD9075986
Probable space group: P -1
;
_chemical_formula_sum "Si O2"
_cell_formula_units_Z 15
_cell_length_a 20.708389
_cell_length_b 17.235065
_cell_length_c 8.423019
_cell_angle_alpha 41.104685
_cell_angle_beta 37.298950
_cell_angle_gamma 19.888851
_cell_volume 619.523463
_symmetry_space_group_name_H-M "P -1"
_symmetry_group_IT_number 2
_symmetry_cell_setting 'triclinic'
loop_
_space_group_symop_operation_xyz
x,y,z
-x,-y,-z
loop_
_atom_site_type_symbol
_atom_site_label
_atom_site_fract_x
_atom_site_fract_y
_atom_site_fract_z
Si Si1 0.413022 0.182835 0.003375
Si Si2 0.000000 0.000000 0.000000
Si Si3 0.532498 0.714157 0.808871
Si Si4 0.799708 0.972355 0.578043
Si Si5 0.295766 0.722182 0.156902
Si Si6 0.201329 0.559075 0.619255
Si Si7 0.061598 0.601913 0.370747
Si Si8 0.772085 0.789861 0.387490
O O1 0.247556 0.411992 0.874432
O O2 0.583459 0.119301 0.810438
O O3 0.328560 0.194987 0.300673
O O4 0.500000 0.000000 0.000000
O O5 0.175055 0.916112 0.694229
O O6 0.121331 0.905457 0.081244
O O7 0.647643 0.603726 0.580000
O O8 0.732249 0.514260 0.840407
O O9 0.403196 0.955469 0.718745
O O10 0.366320 0.766692 0.053548
O O11 0.966912 0.782860 0.676226
O O12 0.890635 0.819667 0.481104
O O13 0.245373 0.648692 0.459447
O O14 0.500000 0.500000 0.000000
O O15 0.129211 0.408483 0.603634
O O16 0.950761 0.691693 0.281215
#
# Coordination Sequence:
#
# PCOD9075986 Si02
#       8
#     2   1   2   2   2   2   2   2
#     4  12  21  34  54  79 115 142 173 219 272 327
#     4  10  18  32  58  84 106 134 182 228 268 306
#     4  10  18  33  54  77 105 140 180 225 266 312
#     4  10  20  35  57  82 106 139 180 225 265 316
#     4   9  17  29  51  78 106 133 176 227 267 310
#     4   9  19  32  50  80 106 137 173 220 272 315
#     4  10  21  35  52  77 108 144 183 219 266 316
#     4  11  22  35  51  78 112 145 178 219 270 324
#
# _framework density 24.212157000000001
#
# number of rings (size 3 to 8) (size 9 to 14) (size 15 to 20)
#    0.000    1.867    2.667    3.600    0.000    1.600 
#    0.000    0.000    0.000    3.200    0.000    7.467 
#    0.000    0.000    0.000    0.000    0.000    0.000 
#
# Total GULP energy -83591.964097 kJ/mol
# GULP energy per Si atom -5572.797606 kJ/mol
# Density = 2.415705 g / cm^3
# Si number density = 24.212157 Si / 1000 Ang^3
#
#
#
# Elastic Constant Matrix: (Units=GPa)
#
#
# Indices 1 2 3 4 5 6 
#
# 1 84.9446 7.6488 31.1269 9.7907 -20.5883 -25.1077
# 2 7.6488 37.4656 15.7033 3.0513 8.3467 -12.5540
# 3 31.1269 15.7033 105.5916 -1.5244 -11.9207 -14.8007
# 4 9.7907 3.0513 -1.5244 33.8123 -5.8742 -2.3743
# 5 -20.5883 8.3467 -11.9207 -5.8742 21.6121 5.1306
# 6 -25.1077 -12.5540 -14.8007 -2.3743 5.1306 34.8778
#
#
#
# Elastic Compliance Matrix: (Units=1/GPa)
#
#
# Indices 1 2 3 4 5 6 
#
# 1 0.019898 -0.003320 -0.002223 -0.002077 0.016151 0.009668
# 2 -0.003320 0.041330 -0.006537 -0.006954 -0.027784 0.013326
# 3 -0.002223 -0.006537 0.012063 0.003160 0.007866 0.000224
# 4 -0.002077 -0.006954 0.003160 0.032861 0.011897 -0.002171
# 5 0.016151 -0.027784 0.007866 0.011897 0.081432 -0.006205
# 6 0.009668 0.013326 0.000224 -0.002171 -0.006205 0.041288
#
#
# Mechanical properties :
#
#
# Convention : Reuss Voigt Hill
#
# Bulk Modulus (GPa) = 20.35374 37.43998 28.89686
# Shear Modulus (GPa) = 18.55910 29.62863 24.09386
#
# Velocity S-wave (km/s) = 2.77161 3.50195 3.15797
# Velocity P-wave (km/s) = 4.32055 5.64344 5.02571
#
# Compressibility (1/GPa) = 0.04913103
#
# Stress axis : x y z
#
# Youngs Moduli (GPa) = 50.25692 24.19522 82.89806
#
# Poissons Ratio (x) = 0.08032 0.18431
# Poissons Ratio (y) = 0.16684 0.54191
# Poissons Ratio (z) = 0.11174 0.15817
#
# Static dielectric constant tensor:
#      x y z
#    x 2.023930 0.049700 -0.033900 
#    y 0.049700 1.995950 0.009780 
#    z -0.033900 0.009780 1.957870 
# 
# From -- ./inp_files/348803.got.cif
#   From: 2010.05.17/outbox.cif.g08.bks.cpg/sg2_175_cif.got.tgz:348803.got - 2010.06.03 11:33:40.
