data_PCOD9075223
_publ_section_title
;
Structure prediction by ZEFSAII (Michael W. Deem and Ramdas Pophale) SiO2 
 PCOD9075223
Probable space group: P -1
;
_chemical_formula_sum "Si O2"
_cell_formula_units_Z 16
_cell_length_a 9.871615
_cell_length_b 10.788276
_cell_length_c 15.475950
_cell_angle_alpha 39.016314
_cell_angle_beta 129.142269
_cell_angle_gamma 104.643784
_cell_volume 702.973116
_symmetry_space_group_name_H-M "P -1"
_symmetry_group_IT_number 2
_symmetry_cell_setting 'triclinic'
loop_
_space_group_symop_operation_xyz
x,y,z
-x,-y,-z
loop_
_atom_site_type_symbol
_atom_site_label
_atom_site_fract_x
_atom_site_fract_y
_atom_site_fract_z
Si Si1 0.905213 0.249114 0.937799
Si Si2 0.242830 0.545338 0.514943
Si Si3 0.962754 0.743922 0.442619
Si Si4 0.673681 0.754302 0.543386
Si Si5 0.589822 0.524604 0.777897
Si Si6 0.339179 0.506367 0.837794
Si Si7 0.293620 0.880756 0.734881
Si Si8 0.711922 0.143796 0.765708
O O1 0.849065 0.497499 0.744584
O O2 0.811541 0.319116 0.958400
O O3 0.785224 0.146270 0.890861
O O4 0.133550 0.080530 0.101391
O O5 0.189615 0.349589 0.584569
O O6 0.443365 0.470311 0.690143
O O7 0.264470 0.656939 0.377349
O O8 0.064172 0.739178 0.394975
O O9 0.150047 0.559510 0.674142
O O10 0.854561 0.972808 0.328398
O O11 0.585996 0.737764 0.611125
O O12 0.508619 0.801706 0.377533
O O13 0.732481 0.944617 0.446223
O O14 0.493900 0.556126 0.815763
O O15 0.262079 0.683596 0.788683
O O16 0.479107 0.254261 0.063948
#
# Coordination Sequence:
#
# PCOD9075223 Si02
#       8
#     2   2   2   2   2   2   2   2
#     4   9  19  30  53  82 110 146 174 218 280 334
#     4   9  19  35  57  85 118 144 182 221 279 345
#     4  10  21  38  56  83 115 150 182 229 278 331
#     4   9  20  34  54  83 108 143 178 233 272 326
#     4   8  19  38  57  80 118 140 179 229 277 328
#     4  10  23  42  55  83 108 148 199 232 265 332
#     4  11  23  37  63  78 110 152 190 233 278 314
#     4  10  18  32  53  82 114 142 180 222 274 335
#
# _framework density 22.760473000000001
#
# number of rings (size 3 to 8) (size 9 to 14) (size 15 to 20)
#    0.750    1.750    0.000    1.500    3.500    3.500 
#    0.000    1.875    0.000    0.750    0.000    0.000 
#    0.000    0.000    0.000    0.000    0.000    0.000 
#
# Total GULP energy -89214.912384 kJ/mol
# GULP energy per Si atom -5575.932024 kJ/mol
# Density = 2.270867 g / cm^3
# Si number density = 22.760473 Si / 1000 Ang^3
#
#
#
# Elastic Constant Matrix: (Units=GPa)
#
#
# Indices 1 2 3 4 5 6 
#
# 1 67.4402 15.9081 3.8821 -18.2399 1.6495 -17.3245
# 2 15.9081 31.3068 11.8952 -10.8044 2.9191 -25.0473
# 3 3.8821 11.8952 75.8222 -21.1065 9.9866 -1.9036
# 4 -18.2399 -10.8044 -21.1065 29.2585 -10.4362 8.7206
# 5 1.6495 2.9191 9.9866 -10.4362 31.1887 -6.7520
# 6 -17.3245 -25.0473 -1.9036 8.7206 -6.7520 24.2261
#
#
#
# Elastic Compliance Matrix: (Units=1/GPa)
#
#
# Indices 1 2 3 4 5 6 
#
# 1 0.022666 0.022447 -0.001124 0.014071 0.009776 0.036988
# 2 0.022447 0.344028 -0.050353 0.016197 0.070786 0.381684
# 3 -0.001124 -0.050353 0.024446 0.011520 -0.011841 -0.058390
# 4 0.014071 0.016197 0.011520 0.059900 0.016417 0.010728
# 5 0.009776 0.070786 -0.011841 0.016417 0.053298 0.088191
# 6 0.036988 0.381684 -0.058390 0.010728 0.088191 0.478481
#
#
# Mechanical properties :
#
#
# Convention : Reuss Voigt Hill
#
# Bulk Modulus (GPa) = 3.00229 26.43778 14.72004
# Shear Modulus (GPa) = 4.34063 26.46024 15.40043
#
# Velocity S-wave (km/s) = 1.38247 3.41332 2.60403
# Velocity P-wave (km/s) = 1.96730 5.21299 3.93989
#
# Compressibility (1/GPa) = 0.33307921
#
# Stress axis : x y z
#
# Youngs Moduli (GPa) = 44.11880 2.90674 40.90603
#
# Poissons Ratio (x) = -0.06525 0.04598
# Poissons Ratio (y) = -0.99033 2.05975
# Poissons Ratio (z) = 0.04959 0.14636
#
# Static dielectric constant tensor:
#      x y z
#    x 1.896050 -0.031280 -0.000470 
#    y -0.031280 1.831220 0.013520 
#    z -0.000470 0.013520 1.876340 
# 
# From -- ./inp_files/280706.got.cif
#   From: 2010.05.17/outbox.cif.g08.bks.cpg/sg2_141_cif.got.tgz:280706.got - 2010.06.03 11:33:40.
