data_PCOD9075102
_publ_section_title
;
Structure prediction by ZEFSAII (Michael W. Deem and Ramdas Pophale) SiO2 
 PCOD9075102
Probable space group: P -1
;
_chemical_formula_sum "Si O2"
_cell_formula_units_Z 16
_cell_length_a 13.841374
_cell_length_b 15.306816
_cell_length_c 16.136340
_cell_angle_alpha 161.809260
_cell_angle_beta 47.877525
_cell_angle_gamma 134.394626
_cell_volume 762.324620
_symmetry_space_group_name_H-M "P -1"
_symmetry_group_IT_number 2
_symmetry_cell_setting 'triclinic'
loop_
_space_group_symop_operation_xyz
x,y,z
-x,-y,-z
loop_
_atom_site_type_symbol
_atom_site_label
_atom_site_fract_x
_atom_site_fract_y
_atom_site_fract_z
Si Si1 0.043114 0.692264 0.949937
Si Si2 0.442662 0.715072 0.014480
Si Si3 0.630456 0.762147 0.656485
Si Si4 0.631495 0.297997 0.484658
Si Si5 0.269894 0.607797 0.861248
Si Si6 0.838905 0.663035 0.572951
Si Si7 0.655909 0.087703 0.461200
Si Si8 0.259621 0.480635 0.058227
O O1 0.131701 0.668749 0.960261
O O2 0.104699 0.535188 0.700822
O O3 0.886077 0.539545 0.914701
O O4 0.057454 0.017992 0.200877
O O5 0.541548 0.513113 0.756490
O O6 0.312207 0.605916 0.930670
O O7 0.379452 0.664904 0.097270
O O8 0.535583 0.048168 0.256202
O O9 0.500000 0.500000 0.500000
O O10 0.710497 0.672965 0.451349
O O11 0.711371 0.736458 0.669087
O O12 0.620948 0.088617 0.952201
O O13 0.771318 0.480262 0.526593
O O14 0.663391 0.140363 0.406591
O O15 0.729527 0.374880 0.727836
O O16 0.500000 0.000000 0.500000
O O17 0.718190 0.834237 0.227137
#
# Coordination Sequence:
#
# PCOD9075102 Si02
#       8
#     2   2   2   2   2   2   2   2
#     4  10  23  42  60  86 127 167 202 230 291 364
#     4  12  22  37  62  95 122 153 203 252 305 347
#     4  10  18  32  53  80 118 159 199 237 291 344
#     4  12  24  39  64  94 122 149 202 262 305 351
#     4  10  21  34  55  85 120 160 195 238 286 353
#     4  10  21  39  59  85 123 164 197 245 293 352
#     4  12  23  44  65  93 119 151 200 252 320 353
#     4  12  24  42  66  89 120 162 199 250 299 363
#
# _framework density 20.988432
#
# number of rings (size 3 to 8) (size 9 to 14) (size 15 to 20)
#    0.000    1.000    2.500    5.250    0.000    2.500 
#    0.000    3.750    0.000    7.500    0.000    0.000 
#    0.000    0.000    0.000    0.000    0.000    0.000 
#
# Total GULP energy -89304.960375 kJ/mol
# GULP energy per Si atom -5581.560023 kJ/mol
# Density = 2.094066 g / cm^3
# Si number density = 20.988432 Si / 1000 Ang^3
#
#
#
# Elastic Constant Matrix: (Units=GPa)
#
#
# Indices 1 2 3 4 5 6 
#
# 1 -40.6190 11.9041 3.7962 -122.6311 -87.5545 41.2721
# 2 11.9041 30.5495 0.1365 17.7497 7.5831 -4.7421
# 3 3.7962 0.1365 49.8467 10.2620 12.1527 4.0284
# 4 -122.6311 17.7497 10.2620 -101.5943 -95.7747 45.8328
# 5 -87.5545 7.5831 12.1527 -95.7747 -59.2665 35.0843
# 6 41.2721 -4.7421 4.0284 45.8328 35.0843 20.9083
#
#
#
# Elastic Compliance Matrix: (Units=1/GPa)
#
#
# Indices 1 2 3 4 5 6 
#
# 1 0.012639 0.000259 0.002398 -0.003764 -0.011131 0.001577
# 2 0.000259 0.032464 -0.001594 -0.003788 0.009391 -0.000295
# 3 0.002398 -0.001594 0.021161 0.002117 -0.005520 -0.004549
# 4 -0.003764 -0.003788 0.002117 0.021746 -0.027193 0.004122
# 5 -0.011131 0.009391 -0.005520 -0.027193 0.047041 0.005840
# 6 0.001577 -0.000295 -0.004549 0.004122 0.005840 0.026691
#
#
# Mechanical properties :
#
#
# Convention : Reuss Voigt Hill
#
# Bulk Modulus (GPa) = 14.62234 7.93898 11.28066
# Shear Modulus (GPa) = 27.41031 -26.39447 0.50792
#
# Velocity S-wave (km/s) = 3.61774 -3.55007 0.49247
# Velocity P-wave (km/s) = 4.94295 3.60739 2.38951
#
# Compressibility (1/GPa) = 0.06838850
#
# Stress axis : x y z
#
# Youngs Moduli (GPa) = 79.12152 30.80332 47.25675
#
# Poissons Ratio (x) = -0.00797 -0.11332
# Poissons Ratio (y) = -0.02048 0.07535
# Poissons Ratio (z) = -0.18973 0.04911
#
# Static dielectric constant tensor:
#      x y z
#    x 1.829580 0.148280 0.156910 
#    y 0.148280 2.390180 0.529220 
#    z 0.156910 0.529220 2.184210 
# 
# From -- ./inp_files/367636.got.cif
#   From: 2010.05.17/outbox.cif.g08.bks.cpg/sg2_184_cif.got.tgz:367636.got - 2010.06.03 11:33:40.
