data_PCOD9075316
_publ_section_title
;
Structure prediction by ZEFSAII (Michael W. Deem and Ramdas Pophale) SiO2 
 PCOD9075316
Probable space group: P -1
;
_chemical_formula_sum "Si O2"
_cell_formula_units_Z 16
_cell_length_a 18.000000
_cell_length_b 12.000000
_cell_length_c 9.000000
_cell_angle_alpha 60.000000
_cell_angle_beta 130.000000
_cell_angle_gamma 150.000000
_cell_volume 736.400153
_symmetry_space_group_name_H-M "P -1"
_symmetry_group_IT_number 2
_symmetry_cell_setting 'triclinic'
loop_
_space_group_symop_operation_xyz
x,y,z
-x,-y,-z
loop_
_atom_site_type_symbol
_atom_site_label
_atom_site_fract_x
_atom_site_fract_y
_atom_site_fract_z
Si Si1 0.062651 0.202910 0.013902
Si Si2 0.283771 0.575100 0.491582
Si Si3 0.580970 0.985388 0.390435
Si Si4 0.349424 0.659993 0.872028
Si Si5 0.916633 0.304874 0.171281
Si Si6 0.656159 0.882688 0.299984
Si Si7 0.165723 0.198052 0.468800
Si Si8 0.138627 0.779859 0.169984
O O1 0.125239 0.227298 0.242036
O O2 0.194280 0.429268 0.926895
O O3 0.906065 0.128454 0.890687
O O4 0.000000 0.000000 0.000000
O O5 0.315454 0.609886 0.685591
O O6 0.094307 0.421150 0.317050
O O7 0.290366 0.432617 0.553497
O O8 0.413082 0.794764 0.405332
O O9 0.603235 0.133670 0.210266
O O10 0.733438 0.146642 0.599602
O O11 0.588540 0.863832 0.381951
O O12 0.508678 0.753096 0.077949
O O13 0.967312 0.507905 0.121752
O O14 0.813142 0.144700 0.284453
O O15 0.812958 0.167304 0.977364
O O16 0.737021 0.828842 0.426324
O O17 0.000000 0.000000 0.500000
#
# Coordination Sequence:
#
# PCOD9075316 Si02
#       8
#     2   2   2   2   2   2   2   2
#     4  12  26  44  72 105 148 184 239 295 358 426
#     4  12  25  46  75 101 147 190 237 296 355 418
#     4  12  27  45  73 108 149 182 238 302 358 419
#     4  12  28  46  71 108 148 186 238 300 359 420
#     4  11  24  43  74 102 139 188 242 291 354 425
#     4  12  27  45  72 104 146 187 238 292 364 418
#     4  12  25  48  73 102 142 190 244 291 346 427
#     4  11  24  42  72 103 138 186 241 286 360 417
#
# _framework density 21.727318
#
# number of rings (size 3 to 8) (size 9 to 14) (size 15 to 20)
#    0.000    0.250    3.750    4.500    5.250    4.500 
#    0.000    0.000    0.000    0.000    0.000    0.000 
#    0.000    0.000    0.000    0.000    0.000    0.000 
#
# Total GULP energy -89389.391486 kJ/mol
# GULP energy per Si atom -5586.836968 kJ/mol
# Density = 2.167787 g / cm^3
# Si number density = 21.727318 Si / 1000 Ang^3
#
#
#
# Elastic Constant Matrix: (Units=GPa)
#
#
# Indices 1 2 3 4 5 6 
#
# 1 116.3983 32.3862 43.6835 -12.4889 -5.5012 -8.6434
# 2 32.3862 85.9150 17.5654 -23.8103 -6.9201 12.7819
# 3 43.6835 17.5654 140.4329 -7.9809 -5.8771 13.0705
# 4 -12.4889 -23.8103 -7.9809 36.2508 -1.6243 -4.3439
# 5 -5.5012 -6.9201 -5.8771 -1.6243 37.0597 -4.4328
# 6 -8.6434 12.7819 13.0705 -4.3439 -4.4328 44.3715
#
#
#
# Elastic Compliance Matrix: (Units=1/GPa)
#
#
# Indices 1 2 3 4 5 6 
#
# 1 0.011467 -0.003879 -0.003393 0.001251 0.001042 0.004577
# 2 -0.003879 0.016429 0.000178 0.009072 0.002390 -0.004414
# 3 -0.003393 0.000178 0.008493 0.000468 0.000524 -0.003116
# 4 0.001251 0.009072 0.000468 0.034386 0.003607 0.001219
# 5 0.001042 0.002390 0.000524 0.003607 0.028127 0.002523
# 6 0.004577 -0.004414 -0.003116 0.001219 0.002523 0.025989
#
#
# Mechanical properties :
#
#
# Convention : Reuss Voigt Hill
#
# Bulk Modulus (GPa) = 45.04554 58.89072 51.96813
# Shear Modulus (GPa) = 34.13447 40.14380 37.13914
#
# Velocity S-wave (km/s) = 3.96793 4.30306 4.13889
# Velocity P-wave (km/s) = 6.46296 7.20081 6.84184
#
# Compressibility (1/GPa) = 0.02219976
#
# Stress axis : x y z
#
# Youngs Moduli (GPa) = 87.20402 60.86967 117.75001
#
# Poissons Ratio (x) = 0.23614 0.39955
# Poissons Ratio (y) = 0.33830 -0.02098
# Poissons Ratio (z) = 0.29590 -0.01085
#
# Static dielectric constant tensor:
#      x y z
#    x 1.844530 -0.029710 -0.018750 
#    y -0.029710 1.834080 0.011160 
#    z -0.018750 0.011160 1.785140 
# 
# From -- ./inp_files/333062.got.cif
#   From: 2010.05.17/outbox.ucp.g08.bks.cvg/sg2_167_cif.got.tgz:333062.got - 2010.06.11 11:32:03.
