data_PCOD9075676
_publ_section_title
;
Structure prediction by ZEFSAII (Michael W. Deem and Ramdas Pophale) SiO2 
 PCOD9075676
Probable space group: P -1
;
_chemical_formula_sum "Si O2"
_cell_formula_units_Z 14
_cell_length_a 9.000000
_cell_length_b 9.000000
_cell_length_c 12.000000
_cell_angle_alpha 80.000000
_cell_angle_beta 40.000000
_cell_angle_gamma 80.000000
_cell_volume 614.029152
_symmetry_space_group_name_H-M "P -1"
_symmetry_group_IT_number 2
_symmetry_cell_setting 'triclinic'
loop_
_space_group_symop_operation_xyz
x,y,z
-x,-y,-z
loop_
_atom_site_type_symbol
_atom_site_label
_atom_site_fract_x
_atom_site_fract_y
_atom_site_fract_z
Si Si1 0.842039 0.105019 0.843855
Si Si2 0.660267 0.362192 0.278165
Si Si3 0.843146 0.749932 0.868990
Si Si4 0.044581 0.680670 0.448554
Si Si5 0.475343 0.298679 0.732097
Si Si6 0.571872 0.745741 0.803346
Si Si7 0.643815 0.857034 0.386134
O O1 0.849572 0.240223 0.730950
O O2 0.084171 0.123309 0.765278
O O3 0.851117 0.931199 0.817959
O O4 0.612398 0.137123 0.046494
O O5 0.631332 0.542931 0.276908
O O6 0.593897 0.328728 0.187889
O O7 0.457875 0.284197 0.472070
O O8 0.907633 0.306629 0.205413
O O9 0.727881 0.678005 0.831806
O O10 0.651618 0.724118 0.075876
O O11 0.248299 0.695976 0.418774
O O12 0.000000 0.500000 0.500000
O O13 0.800720 0.776483 0.596314
O O14 0.419035 0.162915 0.702943
O O15 0.500000 0.000000 0.500000
#
# Coordination Sequence:
#
# PCOD9075676 Si02
#       7
#     2   2   2   2   2   2   2
#     4  12  27  49  73 117 158 201 263 326 390 464
#     4  12  26  50  77 115 154 210 262 328 392 462
#     4  12  28  48  77 118 157 204 265 324 393 471
#     4  12  26  49  77 112 156 204 262 323 390 470
#     4  12  27  49  76 112 160 204 266 323 396 470
#     4  12  27  48  81 111 159 206 260 321 401 457
#     4  12  26  48  79 111 158 207 262 326 388 469
#
# _framework density 22.800219999999999
#
# number of rings (size 3 to 8) (size 9 to 14) (size 15 to 20)
#    0.000    0.000    5.714    3.000    2.000    5.143 
#    0.000    0.000    0.000    0.000    0.000    0.000 
#    0.000    0.000    0.000    0.000    0.000    0.000 
#
# Total GULP energy -78106.290438 kJ/mol
# GULP energy per Si atom -5579.020746 kJ/mol
# Density = 2.274833 g / cm^3
# Si number density = 22.800220 Si / 1000 Ang^3
#
#
#
# Elastic Constant Matrix: (Units=GPa)
#
#
# Indices 1 2 3 4 5 6 
#
# 1 191.1777 21.2608 32.3946 23.4965 -25.1067 4.9111
# 2 21.2608 85.4227 19.6369 -5.7308 -0.8702 -6.2029
# 3 32.3946 19.6369 106.1838 6.3945 -20.6405 -1.3512
# 4 23.4965 -5.7308 6.3945 40.8763 -8.5233 0.4549
# 5 -25.1067 -0.8702 -20.6405 -8.5233 63.5920 8.2409
# 6 4.9111 -6.2029 -1.3512 0.4549 8.2409 28.5359
#
#
#
# Elastic Compliance Matrix: (Units=1/GPa)
#
#
# Indices 1 2 3 4 5 6 
#
# 1 0.006305 -0.001669 -0.001066 -0.003264 0.001943 -0.002007
# 2 -0.001669 0.013068 -0.002284 0.002846 -0.001273 0.003342
# 3 -0.001066 -0.002284 0.010792 -0.000755 0.003036 -0.000667
# 4 -0.003264 0.002846 -0.000755 0.027305 0.002154 0.000087
# 5 0.001943 -0.001273 0.003036 0.002154 0.018507 -0.005846
# 6 -0.002007 0.003342 -0.000667 0.000087 -0.005846 0.037771
#
#
# Mechanical properties :
#
#
# Convention : Reuss Voigt Hill
#
# Bulk Modulus (GPa) = 49.68476 58.81876 54.25176
# Shear Modulus (GPa) = 38.31577 47.23364 42.77470
#
# Velocity S-wave (km/s) = 4.10384 4.55645 4.33606
# Velocity P-wave (km/s) = 6.65537 7.31677 6.99389
#
# Compressibility (1/GPa) = 0.02012690
#
# Stress axis : x y z
#
# Youngs Moduli (GPa) = 158.60682 76.52555 92.65811
#
# Poissons Ratio (x) = 0.12773 0.09878
# Poissons Ratio (y) = 0.26473 0.21161
# Poissons Ratio (z) = 0.16909 0.17476
#
# Static dielectric constant tensor:
#      x y z
#    x 1.931840 -0.007030 0.051550 
#    y -0.007030 1.843560 0.011490 
#    z 0.051550 0.011490 1.865780 
# 
# From -- ./inp_files/188502.got.cif
#   From: 2010.05.17/outbox.ucp.g08.bks.cvg/sg2_95_cif.got.tgz:188502.got - 2010.06.11 11:32:03.
