data_PCOD9075705
_publ_section_title
;
Structure prediction by ZEFSAII (Michael W. Deem and Ramdas Pophale) SiO2 
 PCOD9075705
Probable space group: P -1
;
_chemical_formula_sum "Si O2"
_cell_formula_units_Z 16
_cell_length_a 7.708557
_cell_length_b 14.201017
_cell_length_c 14.489055
_cell_angle_alpha 64.606691
_cell_angle_beta 140.116824
_cell_angle_gamma 87.533270
_cell_volume 704.160385
_symmetry_space_group_name_H-M "P -1"
_symmetry_group_IT_number 2
_symmetry_cell_setting 'triclinic'
loop_
_space_group_symop_operation_xyz
x,y,z
-x,-y,-z
loop_
_atom_site_type_symbol
_atom_site_label
_atom_site_fract_x
_atom_site_fract_y
_atom_site_fract_z
Si Si1 0.193472 0.806251 0.256540
Si Si2 0.281429 0.022567 0.586757
Si Si3 0.179813 0.254057 0.010755
Si Si4 0.208361 0.798259 0.835057
Si Si5 0.806277 0.759116 0.412831
Si Si6 0.656759 0.506289 0.156357
Si Si7 0.676478 0.532738 0.633396
Si Si8 0.359381 0.921397 0.001258
O O1 0.509945 0.761353 0.338802
O O2 0.385704 0.694504 0.464940
O O3 0.945581 0.787503 0.108271
O O4 0.981880 0.963073 0.126978
O O5 0.249853 0.112136 0.620334
O O6 0.158747 0.113656 0.406656
O O7 0.000000 0.000000 0.500000
O O8 0.653834 0.869855 0.798346
O O9 0.856235 0.412399 0.833079
O O10 0.500701 0.245556 0.106925
O O11 0.348148 0.659569 0.999388
O O12 0.231051 0.885890 0.878986
O O13 0.680032 0.789763 0.243079
O O14 0.183647 0.619072 0.656205
O O15 0.994115 0.492175 0.270804
O O16 0.500000 0.500000 0.000000
O O17 0.500000 0.500000 0.500000
O O18 0.500000 0.000000 0.000000
#
# Coordination Sequence:
#
# PCOD9075705 Si02
#       8
#     2   2   2   2   2   2   2   2
#     4  10  19  35  58  83 112 147 195 236 281 336
#     4  10  18  32  54  83 111 146 193 230 277 345
#     4   9  16  32  57  83 108 143 196 232 269 343
#     4  10  20  34  55  85 116 150 186 236 292 337
#     4  11  22  36  61  85 109 153 199 237 283 342
#     4  10  19  35  59  85 117 150 195 247 283 341
#     4   8  17  31  54  85 108 147 194 240 275 332
#     4  12  22  37  57  86 122 150 186 242 294 346
#
# _framework density 22.722096000000001
#
# number of rings (size 3 to 8) (size 9 to 14) (size 15 to 20)
#    0.000    2.000    3.750    1.125    0.000    0.500 
#    0.000    0.625    0.000    0.750    0.000    0.000 
#    0.000    0.000    0.000    0.000    0.000    0.000 
#
# Total GULP energy -89195.179704 kJ/mol
# GULP energy per Si atom -5574.698731 kJ/mol
# Density = 2.267038 g / cm^3
# Si number density = 22.722096 Si / 1000 Ang^3
#
#
#
# Elastic Constant Matrix: (Units=GPa)
#
#
# Indices 1 2 3 4 5 6 
#
# 1 19.8428 -10.7632 9.0255 -6.5439 -0.0375 5.2089
# 2 -10.7632 42.3227 11.7514 -3.3391 -2.6060 9.1753
# 3 9.0255 11.7514 181.1596 -30.4800 -25.1872 0.3952
# 4 -6.5439 -3.3391 -30.4800 39.6980 10.5228 -3.9460
# 5 -0.0375 -2.6060 -25.1872 10.5228 17.4785 1.7655
# 6 5.2089 9.1753 0.3952 -3.9460 1.7655 19.6417
#
#
#
# Elastic Compliance Matrix: (Units=1/GPa)
#
#
# Indices 1 2 3 4 5 6 
#
# 1 0.080312 0.029261 -0.004858 0.010164 -0.005317 -0.032350
# 2 0.029261 0.037687 -0.003117 0.002536 0.002187 -0.024989
# 3 -0.004858 -0.003117 0.007617 0.002737 0.008615 0.002367
# 4 0.010164 0.002536 0.002737 0.034010 -0.016574 0.004387
# 5 -0.005317 0.002187 0.008615 -0.016574 0.080970 -0.010392
# 6 -0.032350 -0.024989 0.002367 0.004387 -0.010392 0.072932
#
#
# Mechanical properties :
#
#
# Convention : Reuss Voigt Hill
#
# Bulk Modulus (GPa) = 5.94573 29.26139 17.60356
# Shear Modulus (GPa) = 15.28963 30.91774 23.10369
#
# Velocity S-wave (km/s) = 2.59684 3.69276 3.19218
# Velocity P-wave (km/s) = 3.40791 5.57565 4.62070
#
# Compressibility (1/GPa) = 0.16818785
#
# Stress axis : x y z
#
# Youngs Moduli (GPa) = 12.45149 26.53423 131.27944
#
# Poissons Ratio (x) = -0.77641 0.63774
# Poissons Ratio (y) = -0.36434 0.40922
# Poissons Ratio (z) = 0.06049 0.08271
#
# Static dielectric constant tensor:
#      x y z
#    x 1.913150 -0.009500 -0.004530 
#    y -0.009500 1.849040 -0.097040 
#    z -0.004530 -0.097040 1.996360 
# 
# From -- ./inp_files/238217.got.cif
#   From: 2010.05.17/outbox.cif.g08.bks.cpg/sg2_120_cif.got.tgz:238217.got - 2010.06.03 11:33:40.
