data_PCOD9075802
_publ_section_title
;
Structure prediction by ZEFSAII (Michael W. Deem and Ramdas Pophale) SiO2 
 PCOD9075802
Probable space group: P -1
;
_chemical_formula_sum "Si O2"
_cell_formula_units_Z 12
_cell_length_a 12.306285
_cell_length_b 8.856393
_cell_length_c 7.263210
_cell_angle_alpha 116.468728
_cell_angle_beta 39.268363
_cell_angle_gamma 115.514633
_cell_volume 443.374543
_symmetry_space_group_name_H-M "P -1"
_symmetry_group_IT_number 2
_symmetry_cell_setting 'triclinic'
loop_
_space_group_symop_operation_xyz
x,y,z
-x,-y,-z
loop_
_atom_site_type_symbol
_atom_site_label
_atom_site_fract_x
_atom_site_fract_y
_atom_site_fract_z
Si Si1 0.938859 0.182830 0.665727
Si Si2 0.155114 0.721210 0.739353
Si Si3 0.710519 0.614165 0.634050
Si Si4 0.414049 0.757919 0.962234
Si Si5 0.627777 0.938075 0.444571
Si Si6 0.231488 0.387915 0.878638
O O1 0.115956 0.303456 0.445418
O O2 0.000000 0.000000 0.500000
O O3 0.876332 0.246936 0.983129
O O4 0.773706 0.180890 0.749711
O O5 0.291774 0.589316 0.458079
O O6 0.215610 0.906434 0.677008
O O7 0.974493 0.630593 0.840856
O O8 0.548183 0.717359 0.923052
O O9 0.747762 0.641872 0.382434
O O10 0.521435 0.885495 0.742926
O O11 0.347541 0.564574 0.872726
O O12 0.696329 0.766368 0.202282
O O13 0.500000 0.000000 0.500000
#
# Coordination Sequence:
#
# PCOD9075802 Si02
#       6
#     2   2   2   2   2   2
#     4  11  22  36  56  82 117 151 185 223 271 341
#     4  11  19  36  57  91 108 142 186 236 281 317
#     4  10  19  35  61  83 107 141 195 230 268 324
#     4  11  20  36  59  88 109 145 188 230 280 324
#     4  11  19  29  53  90 115 135 178 247 279 312
#     4  10  18  32  55  87 112 140 182 232 278 327
#
# _framework density 27.065152000000001
#
# number of rings (size 3 to 8) (size 9 to 14) (size 15 to 20)
#    0.000    1.333    5.000    4.500    0.000    0.667 
#    0.000    0.000    0.000    2.000    0.000    0.000 
#    0.000    0.000    0.000    0.000    0.000    0.000 
#
# Total GULP energy -67177.393441 kJ/mol
# GULP energy per Si atom -5598.116120 kJ/mol
# Density = 2.700355 g / cm^3
# Si number density = 27.065152 Si / 1000 Ang^3
#
#
#
# Elastic Constant Matrix: (Units=GPa)
#
#
# Indices 1 2 3 4 5 6 
#
# 1 91.8554 32.2276 79.4144 -7.2591 -28.4037 -7.9120
# 2 32.2276 152.9069 54.3582 4.0310 -16.5277 -21.4590
# 3 79.4144 54.3582 128.4060 -7.9016 -28.2174 -23.3017
# 4 -7.2591 4.0310 -7.9016 53.9885 -9.9746 -27.6399
# 5 -28.4037 -16.5277 -28.2174 -9.9746 57.2688 8.3340
# 6 -7.9120 -21.4590 -23.3017 -27.6399 8.3340 41.4578
#
#
#
# Elastic Compliance Matrix: (Units=1/GPa)
#
#
# Indices 1 2 3 4 5 6 
#
# 1 0.025652 0.000026 -0.015630 -0.000542 0.005719 -0.005387
# 2 0.000026 0.007946 -0.002664 0.000634 0.000681 0.002907
# 3 -0.015630 -0.002664 0.021880 0.008365 0.001803 0.013150
# 4 -0.000542 0.000634 0.008365 0.034391 0.006152 0.026618
# 5 0.005719 0.000681 0.001803 0.006152 0.022148 0.002107
# 6 -0.005387 0.002907 0.013150 0.026618 0.002107 0.049311
#
#
# Mechanical properties :
#
#
# Convention : Reuss Voigt Hill
#
# Bulk Modulus (GPa) = 52.79191 78.35208 65.57199
# Shear Modulus (GPa) = 24.48851 44.35422 34.42137
#
# Velocity S-wave (km/s) = 3.01125 4.05259 3.57009
# Velocity P-wave (km/s) = 5.62477 7.13515 6.42450
#
# Compressibility (1/GPa) = 0.01894230
#
# Stress axis : x y z
#
# Youngs Moduli (GPa) = 38.98294 125.84545 45.70481
#
# Poissons Ratio (x) = -0.00332 0.71438
# Poissons Ratio (y) = -0.00103 0.12176
# Poissons Ratio (z) = 0.60931 0.33525
#
# Static dielectric constant tensor:
#      x y z
#    x 2.096100 0.025790 0.018960 
#    y 0.025790 2.086630 0.005190 
#    z 0.018960 0.005190 2.236850 
# 
# From -- ./inp_files/146689.got.cif
#   From: 2010.05.17/outbox.cif.g08.bks.cpg/sg2_74_cif.got.tgz:146689.got - 2010.06.03 11:33:40.
