data_PCOD9075850
_publ_section_title
;
Structure prediction by ZEFSAII (Michael W. Deem and Ramdas Pophale) SiO2 
 PCOD9075850
Probable space group: P -1
;
_chemical_formula_sum "Si O2"
_cell_formula_units_Z 16
_cell_length_a 23.564664
_cell_length_b 11.595053
_cell_length_c 8.507066
_cell_angle_alpha 106.769779
_cell_angle_beta 129.318942
_cell_angle_gamma 31.908813
_cell_volume 753.312289
_symmetry_space_group_name_H-M "P -1"
_symmetry_group_IT_number 2
_symmetry_cell_setting 'triclinic'
loop_
_space_group_symop_operation_xyz
x,y,z
-x,-y,-z
loop_
_atom_site_type_symbol
_atom_site_label
_atom_site_fract_x
_atom_site_fract_y
_atom_site_fract_z
Si Si1 0.661055 0.067658 0.010702
Si Si2 0.673397 0.432017 0.589947
Si Si3 0.754446 0.080367 0.463497
Si Si4 0.473554 0.165739 0.932804
Si Si5 0.501517 0.688205 0.702268
Si Si6 0.008164 0.488276 0.321760
Si Si7 0.669630 0.696588 0.595745
Si Si8 0.171224 0.318936 0.269926
O O1 0.495943 0.324051 0.717877
O O2 0.626400 0.013330 0.057243
O O3 0.709434 0.113420 0.217044
O O4 0.814882 0.801045 0.067219
O O5 0.792377 0.160817 0.606475
O O6 0.628009 0.463530 0.700324
O O7 0.725619 0.494697 0.705881
O O8 0.590322 0.283289 0.355314
O O9 0.900367 0.773716 0.651278
O O10 0.364704 0.296650 0.640212
O O11 0.417468 0.342795 0.037973
O O12 0.500000 0.000000 0.000000
O O13 0.348382 0.987939 0.467772
O O14 0.000000 0.500000 0.500000
O O15 0.122799 0.417567 0.406998
O O16 0.798781 0.613102 0.762825
O O17 0.500000 0.000000 0.500000
O O18 0.000000 0.500000 0.000000
#
# Coordination Sequence:
#
# PCOD9075850 Si02
#       8
#     2   2   2   2   2   2   2   2
#     4   9  19  32  55  85 110 151 192 235 291 342
#     4  11  19  33  56  84 115 148 190 248 289 340
#     4   9  19  33  53  83 118 150 192 235 291 348
#     4  10  18  32  56  82 118 141 191 248 286 336
#     4  10  19  34  53  85 114 154 191 239 291 340
#     4   9  19  35  55  80 110 152 191 230 282 341
#     4  11  22  36  56  89 117 150 191 244 300 338
#     4  11  21  35  55  85 117 147 194 243 285 350
#
# _framework density 21.239532000000001
#
# number of rings (size 3 to 8) (size 9 to 14) (size 15 to 20)
#    0.000    2.000    2.500    2.250    1.750    0.000 
#    0.000    0.000    0.000    6.000   13.000    0.000 
#    0.000    0.000    0.000    0.000    0.000    0.000 
#
# Total GULP energy -89155.043713 kJ/mol
# GULP energy per Si atom -5572.190232 kJ/mol
# Density = 2.119119 g / cm^3
# Si number density = 21.239532 Si / 1000 Ang^3
#
#
#
# Elastic Constant Matrix: (Units=GPa)
#
#
# Indices 1 2 3 4 5 6 
#
# 1 84.2788 48.6029 0.4318 3.2251 14.4918 -3.9207
# 2 48.6029 106.6693 10.9089 15.5304 16.1306 0.6655
# 3 0.4318 10.9089 62.0124 17.6685 1.0313 -8.8827
# 4 3.2251 15.5304 17.6685 32.3967 0.1666 -1.6581
# 5 14.4918 16.1306 1.0313 0.1666 27.6478 6.2194
# 6 -3.9207 0.6655 -8.8827 -1.6581 6.2194 30.1141
#
#
#
# Elastic Compliance Matrix: (Units=1/GPa)
#
#
# Indices 1 2 3 4 5 6 
#
# 1 0.017217 -0.007336 0.001505 0.001221 -0.005730 0.004098
# 2 -0.007336 0.014272 -0.000926 -0.005636 -0.004191 -0.000988
# 3 0.001505 -0.000926 0.020138 -0.010367 -0.002301 0.006061
# 4 0.001221 -0.005636 -0.010367 0.039021 0.003084 -0.001263
# 5 -0.005730 -0.004191 -0.002301 0.003084 0.043991 -0.010248
# 6 0.004098 -0.000988 0.006061 -0.001263 -0.010248 0.037597
#
#
# Mechanical properties :
#
#
# Convention : Reuss Voigt Hill
#
# Bulk Modulus (GPa) = 26.23617 41.42752 33.83184
# Shear Modulus (GPa) = 25.19470 30.89953 28.04711
#
# Velocity S-wave (km/s) = 3.44789 3.81834 3.63783
# Velocity P-wave (km/s) = 5.31318 6.24395 5.79727
#
# Compressibility (1/GPa) = 0.03811532
#
# Stress axis : x y z
#
# Youngs Moduli (GPa) = 58.08111 70.06559 49.65632
#
# Poissons Ratio (x) = 0.51398 -0.07473
# Poissons Ratio (y) = 0.42606 0.04597
# Poissons Ratio (z) = -0.08741 0.06486
#
# Static dielectric constant tensor:
#      x y z
#    x 1.836850 -0.006580 -0.028450 
#    y -0.006580 1.817620 0.082860 
#    z -0.028450 0.082860 1.937960 
# 
# From -- ./inp_files/262026.got.cif
#   From: 2010.05.17/outbox.cif.g08.bks.cpg/sg2_132_cif.got.tgz:262026.got - 2010.06.03 11:33:40.
