data_PCOD9075747
_publ_section_title
;
Structure prediction by ZEFSAII (Michael W. Deem and Ramdas Pophale) SiO2 
 PCOD9075747
Probable space group: P -1
;
_chemical_formula_sum "Si O2"
_cell_formula_units_Z 16
_cell_length_a 19.626615
_cell_length_b 8.763137
_cell_length_c 12.018178
_cell_angle_alpha 60.383424
_cell_angle_beta 22.351072
_cell_angle_gamma 62.133908
_cell_volume 683.016206
_symmetry_space_group_name_H-M "P -1"
_symmetry_group_IT_number 2
_symmetry_cell_setting 'triclinic'
loop_
_space_group_symop_operation_xyz
x,y,z
-x,-y,-z
loop_
_atom_site_type_symbol
_atom_site_label
_atom_site_fract_x
_atom_site_fract_y
_atom_site_fract_z
Si Si1 0.228541 0.582484 0.812671
Si Si2 0.027555 0.105864 0.211959
Si Si3 0.858579 0.695502 0.233657
Si Si4 0.152312 0.231617 0.192157
Si Si5 0.798004 0.427434 0.719813
Si Si6 0.676228 0.349870 0.699692
Si Si7 0.568488 0.654180 0.123744
Si Si8 0.029730 0.208556 0.748706
O O1 0.057729 0.603057 0.979880
O O2 0.408560 0.610080 0.464370
O O3 0.214336 0.399892 0.964829
O O4 0.172902 0.736970 0.927532
O O5 0.850825 0.226557 0.458501
O O6 0.119095 0.086623 0.201085
O O7 0.969650 0.939046 0.290311
O O8 0.153954 0.208310 0.898553
O O9 0.721424 0.543841 0.516487
O O10 0.864123 0.830106 0.281742
O O11 0.969033 0.295143 0.507528
O O12 0.307298 0.203587 0.057932
O O13 0.666586 0.368115 0.840757
O O14 0.883703 0.611875 0.487656
O O15 0.691842 0.480317 0.971891
O O16 0.514229 0.288214 0.891008
#
# Coordination Sequence:
#
# PCOD9075747 Si02
#       8
#     2   2   2   2   2   2   2   2
#     4   9  18  34  52  79 106 124 170 214 253 292
#     4  11  16  31  57  77  95 141 173 202 249 310
#     4   9  16  31  53  78 104 123 169 214 252 288
#     4  10  21  34  52  79 105 129 173 208 254 307
#     4   9  20  38  52  73 105 133 173 210 249 302
#     4  10  18  32  55  79 102 126 173 216 250 295
#     4  12  20  31  55  80 102 137 163 214 259 295
#     4   8  18  33  54  75  98 137 174 206 246 301
#
# _framework density 23.425505000000001
#
# number of rings (size 3 to 8) (size 9 to 14) (size 15 to 20)
#    0.750    1.500    3.750    2.625    0.000    0.000 
#    0.000    1.875    0.000   12.000    0.000    0.000 
#    0.000    0.000    0.000    0.000    0.000    0.000 
#
# Total GULP energy -89376.408882 kJ/mol
# GULP energy per Si atom -5586.025555 kJ/mol
# Density = 2.337219 g / cm^3
# Si number density = 23.425505 Si / 1000 Ang^3
#
#
#
# Elastic Constant Matrix: (Units=GPa)
#
#
# Indices 1 2 3 4 5 6 
#
# 1 125.0624 37.0990 32.8401 -8.4121 -16.7563 42.2141
# 2 37.0990 95.0692 19.9416 2.7852 7.0866 42.7174
# 3 32.8401 19.9416 114.4596 20.6005 5.9963 13.6182
# 4 -8.4121 2.7852 20.6005 13.7641 13.3510 9.5931
# 5 -16.7563 7.0866 5.9963 13.3510 38.5340 -9.5735
# 6 42.2141 42.7174 13.6182 9.5931 -9.5735 42.8954
#
#
#
# Elastic Compliance Matrix: (Units=1/GPa)
#
#
# Indices 1 2 3 4 5 6 
#
# 1 0.002790 -0.013510 0.005238 -0.043329 0.023873 0.024063
# 2 -0.013510 0.002579 0.010313 -0.060637 0.019349 0.025332
# 3 0.005238 0.010313 0.003765 0.033492 -0.018844 -0.028316
# 4 -0.043329 -0.060637 0.033492 -0.186429 0.089994 0.154171
# 5 0.023873 0.019349 -0.018844 0.089994 -0.010177 -0.059178
# 6 0.024063 0.025332 -0.028316 0.154171 -0.059178 -0.064292
#
#
# Mechanical properties :
#
#
# Convention : Reuss Voigt Hill
#
# Bulk Modulus (GPa) = 75.66711 57.15030 66.40871
# Shear Modulus (GPa) = -19.88559 35.35275 7.73358
#
# Velocity S-wave (km/s) = -2.91673 3.88900 1.81893
# Velocity P-wave (km/s) = 4.58565 6.67947 5.72903
#
# Compressibility (1/GPa) = 0.01321578
#
# Stress axis : x y z
#
# Youngs Moduli (GPa) = 358.42157 387.70817 265.57307
#
# Poissons Ratio (x) = 5.23795 -1.39103
# Poissons Ratio (y) = 4.84229 -2.73878
# Poissons Ratio (z) = -1.87736 -3.99833
#
# Static dielectric constant tensor:
#      x y z
#    x 1.961210 0.021540 -0.000290 
#    y 0.021540 1.899950 0.009310 
#    z -0.000290 0.009310 1.881910 
# 
# From -- ./inp_files/507687.got.cif
#   From: 2010.05.17/outbox.cif.g08.bks.cpg/sg2_254_cif.got.tgz:507687.got - 2010.06.03 11:33:40.
