data_PCOD9075202
_publ_section_title
;
Structure prediction by ZEFSAII (Michael W. Deem and Ramdas Pophale) SiO2 
 PCOD9075202
Probable space group: P -1
;
_chemical_formula_sum "Si O2"
_cell_formula_units_Z 16
_cell_length_a 15.000000
_cell_length_b 18.000000
_cell_length_c 9.000000
_cell_angle_alpha 140.000000
_cell_angle_beta 40.000000
_cell_angle_gamma 150.000000
_cell_volume 740.097418
_symmetry_space_group_name_H-M "P -1"
_symmetry_group_IT_number 2
_symmetry_cell_setting 'triclinic'
loop_
_space_group_symop_operation_xyz
x,y,z
-x,-y,-z
loop_
_atom_site_type_symbol
_atom_site_label
_atom_site_fract_x
_atom_site_fract_y
_atom_site_fract_z
Si Si1 0.109693 0.062690 0.301295
Si Si2 0.685917 0.214463 0.761962
Si Si3 0.702193 0.608119 0.987771
Si Si4 0.598180 0.258727 0.268917
Si Si5 0.227150 0.085673 0.664025
Si Si6 0.569107 0.617391 0.464092
Si Si7 0.679292 0.960244 0.220557
Si Si8 0.075443 0.493672 0.552453
O O1 0.298069 0.222870 0.368925
O O2 0.173156 0.981295 0.010823
O O3 0.000000 0.000000 0.500000
O O4 0.979374 0.066481 0.363186
O O5 0.522520 0.175025 0.804861
O O6 0.892307 0.379620 0.716423
O O7 0.688692 0.086067 0.491993
O O8 0.633649 0.204188 0.988359
O O9 0.828718 0.576555 0.715089
O O10 0.500000 0.500000 0.000000
O O11 0.781955 0.782104 0.142850
O O12 0.664949 0.584134 0.174096
O O13 0.396466 0.128368 0.411972
O O14 0.579140 0.381911 0.427596
O O15 0.763452 0.345067 0.314269
O O16 0.273221 0.098272 0.796224
O O17 0.500000 0.500000 0.500000
O O18 0.000000 0.500000 0.500000
#
# Coordination Sequence:
#
# PCOD9075202 Si02
#       8
#     2   2   2   2   2   2   2   2
#     4  12  22  44  68  99 135 174 228 295 349 409
#     4  11  25  44  64  97 141 183 233 279 350 421
#     4  11  23  43  70  99 137 175 230 291 346 408
#     4  11  23  46  66  98 141 182 231 297 336 418
#     4  11  23  43  71  99 133 181 235 291 350 405
#     4  11  25  40  72 100 136 178 231 289 350 402
#     4  11  25  43  69  96 137 185 228 289 346 422
#     4  12  26  44  70 100 140 188 230 283 352 424
#
# _framework density 21.618776
#
# number of rings (size 3 to 8) (size 9 to 14) (size 15 to 20)
#    0.000    0.750    6.250    2.250    3.500    1.500 
#    2.250    0.000    0.000    0.000    0.000    0.000 
#    0.000    0.000    0.000    0.000    0.000    0.000 
#
# Total GULP energy -89188.237357 kJ/mol
# GULP energy per Si atom -5574.264835 kJ/mol
# Density = 2.156957 g / cm^3
# Si number density = 21.618776 Si / 1000 Ang^3
#
#
#
# Elastic Constant Matrix: (Units=GPa)
#
#
# Indices 1 2 3 4 5 6 
#
# 1 122.7109 35.5439 36.3941 -18.0395 21.2269 26.0961
# 2 35.5439 10.2877 22.6104 -1.2139 -7.8276 14.1647
# 3 36.3941 22.6104 174.3648 -20.3143 24.8112 8.7308
# 4 -18.0395 -1.2139 -20.3143 15.1556 14.5533 4.8563
# 5 21.2269 -7.8276 24.8112 14.5533 35.1046 -3.1618
# 6 26.0961 14.1647 8.7308 4.8563 -3.1618 44.1363
#
#
#
# Elastic Compliance Matrix: (Units=1/GPa)
#
#
# Indices 1 2 3 4 5 6 
#
# 1 0.002146 0.015053 -0.005350 -0.013085 0.011012 -0.002813
# 2 0.015053 0.049238 0.011782 0.101177 -0.052169 -0.041902
# 3 -0.005350 0.011782 0.004753 -0.001641 0.003080 -0.001157
# 4 -0.013085 0.101177 -0.001641 0.064269 0.002167 -0.031326
# 5 0.011012 -0.052169 0.003080 0.002167 0.008017 0.009959
# 6 -0.002813 -0.041902 -0.001157 -0.031326 0.009959 0.042157
#
#
# Mechanical properties :
#
#
# Convention : Reuss Voigt Hill
#
# Bulk Modulus (GPa) = 10.09022 55.16224 32.62623
# Shear Modulus (GPa) = 31.12477 33.06699 32.09588
#
# Velocity S-wave (km/s) = 3.79847 3.91519 3.85727
# Velocity P-wave (km/s) = 4.89033 6.78303 5.91290
#
# Compressibility (1/GPa) = 0.09910582
#
# Stress axis : x y z
#
# Youngs Moduli (GPa) = 466.05398 20.30967 210.41466
#
# Poissons Ratio (x) = -0.30572 1.12578
# Poissons Ratio (y) = -7.01545 -2.47919
# Poissons Ratio (z) = 2.49352 -0.23930
#
# Static dielectric constant tensor:
#      x y z
#    x 1.816730 0.032020 -0.020780 
#    y 0.032020 1.854530 -0.001930 
#    z -0.020780 -0.001930 1.785320 
# 
# From -- ./inp_files/318145.got.cif
#   From: 2010.05.17/outbox.ucp.g08.bks.cvg/sg2_160_cif.got.tgz:318145.got - 2010.06.11 11:32:03.
