data_PCOD9075182
_publ_section_title
;
Structure prediction by ZEFSAII (Michael W. Deem and Ramdas Pophale) SiO2 
 PCOD9075182
Probable space group: P -1
;
_chemical_formula_sum "Si O2"
_cell_formula_units_Z 14
_cell_length_a 9.000000
_cell_length_b 9.000000
_cell_length_c 18.000000
_cell_angle_alpha 30.000000
_cell_angle_beta 60.000000
_cell_angle_gamma 70.000000
_cell_volume 617.235917
_symmetry_space_group_name_H-M "P -1"
_symmetry_group_IT_number 2
_symmetry_cell_setting 'triclinic'
loop_
_space_group_symop_operation_xyz
x,y,z
-x,-y,-z
loop_
_atom_site_type_symbol
_atom_site_label
_atom_site_fract_x
_atom_site_fract_y
_atom_site_fract_z
Si Si1 0.650350 0.119410 0.650879
Si Si2 0.997184 0.538769 0.742452
Si Si3 0.308976 0.272617 0.551255
Si Si4 0.643499 0.570874 0.243023
Si Si5 0.967855 0.821985 0.469225
Si Si6 0.602078 0.198477 0.022088
Si Si7 0.438547 0.717849 0.771594
O O1 0.679377 0.483077 0.491723
O O2 0.834944 0.078180 0.654307
O O3 0.616295 0.956010 0.650583
O O4 0.487591 0.949980 0.814967
O O5 0.968784 0.587882 0.639490
O O6 0.805598 0.380973 0.892192
O O7 0.160381 0.386004 0.790279
O O8 0.063218 0.872370 0.617210
O O9 0.493489 0.388946 0.413013
O O10 0.163811 0.286483 0.518543
O O11 0.297795 0.930124 0.730704
O O12 0.607898 0.383502 0.256864
O O13 0.603542 0.905668 0.097566
O O14 0.474010 0.416615 0.932973
#
# Coordination Sequence:
#
# PCOD9075182 Si02
#       7
#     2   2   2   2   2   2   2
#     4  11  25  45  66  95 136 176 215 270 331 387
#     4  11  23  42  71  98 129 172 222 272 322 386
#     4  11  24  42  68 101 131 171 222 271 325 389
#     4  11  24  42  68 101 131 171 222 271 325 389
#     4  11  23  42  71  98 129 172 222 272 322 386
#     4  11  25  45  66  95 136 176 215 270 331 387
#     4  12  22  40  67  96 132 172 216 266 324 388
#
# _framework density 22.681764999999999
#
# number of rings (size 3 to 8) (size 9 to 14) (size 15 to 20)
#    0.000    0.857    2.857    4.286    4.000    2.286 
#    0.000    2.857    0.000    0.000    0.000    0.000 
#    0.000    0.000    0.000    0.000    0.000    0.000 
#
# Total GULP energy -78095.654764 kJ/mol
# GULP energy per Si atom -5578.261055 kJ/mol
# Density = 2.263014 g / cm^3
# Si number density = 22.681765 Si / 1000 Ang^3
#
#
#
# Elastic Constant Matrix: (Units=GPa)
#
#
# Indices 1 2 3 4 5 6 
#
# 1 162.6312 35.7757 48.2293 0.9355 4.5133 6.5674
# 2 35.7757 90.1134 47.9933 -27.1005 10.0914 2.4141
# 3 48.2293 47.9933 82.6949 -13.4383 -6.1087 0.3995
# 4 0.9355 -27.1005 -13.4383 43.3212 -23.7231 -5.1181
# 5 4.5133 10.0914 -6.1087 -23.7231 38.7984 2.2075
# 6 6.5674 2.4141 0.3995 -5.1181 2.2075 28.6683
#
#
#
# Elastic Compliance Matrix: (Units=1/GPa)
#
#
# Indices 1 2 3 4 5 6 
#
# 1 0.008288 -0.001684 -0.005103 -0.005633 -0.004641 -0.002334
# 2 -0.001684 0.019201 -0.008749 0.009021 -0.000692 0.000555
# 3 -0.005103 -0.008749 0.022223 0.007824 0.011030 0.002144
# 4 -0.005633 0.009021 0.007824 0.047521 0.028214 0.006733
# 5 -0.004641 -0.000692 0.011030 0.028214 0.045339 0.002514
# 6 -0.002334 0.000555 0.002144 0.006733 0.002514 0.036348
#
#
# Mechanical properties :
#
#
# Convention : Reuss Voigt Hill
#
# Bulk Modulus (GPa) = 53.65288 66.60401 60.12844
# Shear Modulus (GPa) = 23.12603 35.72030 29.42317
#
# Velocity S-wave (km/s) = 3.19656 3.97274 3.60560
# Velocity P-wave (km/s) = 6.10983 7.10435 6.62578
#
# Compressibility (1/GPa) = 0.01863833
#
# Stress axis : x y z
#
# Youngs Moduli (GPa) = 120.65251 52.08069 44.99936
#
# Poissons Ratio (x) = 0.08772 0.22964
# Poissons Ratio (y) = 0.20322 0.39370
# Poissons Ratio (z) = 0.61572 0.45566
#
# Static dielectric constant tensor:
#      x y z
#    x 1.848130 -0.048710 0.065000 
#    y -0.048710 1.918910 -0.023310 
#    z 0.065000 -0.023310 1.865200 
# 
# From -- ./inp_files/225993.got.cif
#   From: 2010.05.17/outbox.ucp.g08.bks.cvg/sg2_113_cif.got.tgz:225993.got - 2010.06.11 11:32:03.
