data_PCOD9075734
_publ_section_title
;
Structure prediction by ZEFSAII (Michael W. Deem and Ramdas Pophale) SiO2 
 PCOD9075734
Probable space group: P -1
;
_chemical_formula_sum "Si O2"
_cell_formula_units_Z 16
_cell_length_a 10.049216
_cell_length_b 9.284294
_cell_length_c 21.417409
_cell_angle_alpha 38.937518
_cell_angle_beta 30.117349
_cell_angle_gamma 44.434549
_cell_volume 624.738059
_symmetry_space_group_name_H-M "P -1"
_symmetry_group_IT_number 2
_symmetry_cell_setting 'triclinic'
loop_
_space_group_symop_operation_xyz
x,y,z
-x,-y,-z
loop_
_atom_site_type_symbol
_atom_site_label
_atom_site_fract_x
_atom_site_fract_y
_atom_site_fract_z
Si Si1 0.427719 0.645151 0.417347
Si Si2 0.809024 0.886741 0.026874
Si Si3 0.896786 0.643569 0.688951
Si Si4 0.020182 0.134003 0.751885
Si Si5 0.501947 0.491821 0.306781
Si Si6 0.605694 0.874960 0.626701
Si Si7 0.030402 0.672074 0.124716
Si Si8 0.801802 0.057824 0.374816
O O1 0.500000 0.500000 0.500000
O O2 0.143552 0.760129 0.519612
O O3 0.356415 0.520217 0.423563
O O4 0.710630 0.730882 0.254155
O O5 0.871274 0.944925 0.911356
O O6 0.803217 0.134793 0.979057
O O7 0.562728 0.742589 0.178185
O O8 0.029261 0.722894 0.034127
O O9 0.884914 0.569507 0.791365
O O10 0.647420 0.794938 0.707478
O O11 0.932913 0.387971 0.727826
O O12 0.328967 0.044880 0.675720
O O13 0.006220 0.102091 0.694314
O O14 0.396918 0.355044 0.337844
O O15 0.772001 0.321541 0.275944
O O16 0.822463 0.003598 0.457287
O O17 0.500000 0.000000 0.500000
#
# Coordination Sequence:
#
# PCOD9075734 Si02
#       8
#     2   2   2   2   2   2   2   2
#     4   9  16  28  50  73  96 130 168 205 250 293
#     4   9  16  31  54  71  98 140 172 204 250 291
#     4  10  18  32  55  77 102 134 163 205 262 300
#     4   9  18  32  50  74 103 137 168 200 247 303
#     4   9  17  30  50  75 102 133 167 206 249 301
#     4  10  20  32  50  80 108 127 162 211 254 304
#     4   8  17  31  50  77  99 129 177 213 239 295
#     4   8  16  29  45  70 103 128 159 205 246 294
#
# _framework density 25.610731999999999
#
# number of rings (size 3 to 8) (size 9 to 14) (size 15 to 20)
#    0.000    3.250    0.000    2.250    0.000    4.000 
#    0.000    3.125    0.000   45.750    0.000    0.000 
#    0.000    0.000    0.000    0.000    0.000    0.000 
#
# Total GULP energy -89088.953936 kJ/mol
# GULP energy per Si atom -5568.059621 kJ/mol
# Density = 2.555244 g / cm^3
# Si number density = 25.610732 Si / 1000 Ang^3
#
#
#
# Elastic Constant Matrix: (Units=GPa)
#
#
# Indices 1 2 3 4 5 6 
#
# 1 73.1096 21.6435 12.7510 -8.7460 18.3742 -4.1811
# 2 21.6435 57.1436 22.6597 -13.4522 -2.6326 -4.5980
# 3 12.7510 22.6597 122.2037 -31.2071 5.7451 2.1694
# 4 -8.7460 -13.4522 -31.2071 27.9746 7.1103 3.6263
# 5 18.3742 -2.6326 5.7451 7.1103 27.9221 -6.0027
# 6 -4.1811 -4.5980 2.1694 3.6263 -6.0027 47.2626
#
#
#
# Elastic Compliance Matrix: (Units=1/GPa)
#
#
# Indices 1 2 3 4 5 6 
#
# 1 0.021393 -0.007657 0.003047 0.011487 -0.018839 -0.002266
# 2 -0.007657 0.022856 -0.003106 0.002879 0.007623 0.002436
# 3 0.003047 -0.003106 0.013444 0.017482 -0.010223 -0.003289
# 4 0.011487 0.002879 0.017482 0.069056 -0.030331 -0.008657
# 5 -0.018839 0.007623 -0.010223 -0.030331 0.060820 0.009596
# 6 -0.002266 0.002436 -0.003289 -0.008657 0.009596 0.023229
#
#
# Mechanical properties :
#
#
# Convention : Reuss Voigt Hill
#
# Bulk Modulus (GPa) = 23.66155 40.72947 32.19551
# Shear Modulus (GPa) = 20.80593 33.65871 27.23232
#
# Velocity S-wave (km/s) = 2.85334 3.62918 3.26439
# Velocity P-wave (km/s) = 4.48491 5.78784 5.17752
#
# Compressibility (1/GPa) = 0.04226266
#
# Stress axis : x y z
#
# Youngs Moduli (GPa) = 46.74500 43.75149 74.38096
#
# Poissons Ratio (x) = 0.33500 -0.22664
# Poissons Ratio (y) = 0.35792 0.23099
# Poissons Ratio (z) = -0.14243 0.13587
#
# Static dielectric constant tensor:
#      x y z
#    x 2.220010 0.010050 -0.090340 
#    y 0.010050 2.089780 -0.019470 
#    z -0.090340 -0.019470 2.090460 
# 
# From -- ./inp_files/618353.got.cif
#   From: 2010.05.17/outbox.cif.g08.bks.cpg/sg2_310_cif.got.tgz:618353.got - 2010.06.03 11:33:40.
