data_PCOD9075035
_publ_section_title
;
Structure prediction by ZEFSAII (Michael W. Deem and Ramdas Pophale) SiO2 
 PCOD9075035
Probable space group: P -1
;
_chemical_formula_sum "Si O2"
_cell_formula_units_Z 16
_cell_length_a 15.000000
_cell_length_b 9.000000
_cell_length_c 12.000000
_cell_angle_alpha 110.000000
_cell_angle_beta 70.000000
_cell_angle_gamma 150.000000
_cell_volume 757.522634
_symmetry_space_group_name_H-M "P -1"
_symmetry_group_IT_number 2
_symmetry_cell_setting 'triclinic'
loop_
_space_group_symop_operation_xyz
x,y,z
-x,-y,-z
loop_
_atom_site_type_symbol
_atom_site_label
_atom_site_fract_x
_atom_site_fract_y
_atom_site_fract_z
Si Si1 0.022335 0.163508 0.626235
Si Si2 0.980171 0.022012 0.200221
Si Si3 0.588667 0.960029 0.991123
Si Si4 0.173804 0.794115 0.247748
Si Si5 0.785200 0.147192 0.165013
Si Si6 0.680114 0.232897 0.416517
Si Si7 0.902559 0.507157 0.603777
Si Si8 0.742159 0.711603 0.031912
O O1 0.230296 0.512411 0.637175
O O2 0.890792 0.127887 0.659180
O O3 0.000000 0.000000 0.500000
O O4 0.976076 0.029889 0.731429
O O5 0.990251 0.210690 0.299591
O O6 0.123486 0.183988 0.084870
O O7 0.794918 0.735572 0.141344
O O8 0.443676 0.627961 0.007960
O O9 0.681852 0.009770 0.858854
O O10 0.500000 0.000000 0.000000
O O11 0.724216 0.165010 0.089616
O O12 0.226857 0.756943 0.318363
O O13 0.993599 0.467521 0.185527
O O14 0.691140 0.085922 0.302233
O O15 0.755497 0.921160 0.086994
O O16 0.811908 0.450052 0.520497
O O17 0.500000 0.000000 0.500000
O O18 0.000000 0.500000 0.500000
#
# Coordination Sequence:
#
# PCOD9075035 Si02
#       8
#     2   2   2   2   2   2   2   2
#     4  11  22  41  67  99 129 173 219 268 329 395
#     4  11  23  40  70  96 132 171 227 264 330 401
#     4  12  28  41  66 102 137 169 225 282 331 383
#     4  11  24  42  70  97 133 179 218 275 331 401
#     4  11  24  47  66  94 136 179 222 264 341 403
#     4  11  26  40  70 100 130 171 216 278 328 386
#     4  12  20  45  68  95 130 175 221 261 327 404
#     4  11  25  43  67  97 129 180 216 277 331 388
#
# _framework density 21.121480999999999
#
# number of rings (size 3 to 8) (size 9 to 14) (size 15 to 20)
#    0.000    0.750    5.000    2.250    8.750    1.000 
#    0.000    0.000    0.000    4.500    0.000    0.000 
#    0.000    0.000    0.000    0.000    0.000    0.000 
#
# Total GULP energy -89095.343610 kJ/mol
# GULP energy per Si atom -5568.458976 kJ/mol
# Density = 2.107341 g / cm^3
# Si number density = 21.121481 Si / 1000 Ang^3
#
#
#
# Elastic Constant Matrix: (Units=GPa)
#
#
# Indices 1 2 3 4 5 6 
#
# 1 34.1878 -0.7822 2.6749 9.6461 -7.2985 -12.0621
# 2 -0.7822 33.6571 11.7083 -1.2165 -27.9418 -2.0508
# 3 2.6749 11.7083 115.5353 7.9606 -10.4648 1.4309
# 4 9.6461 -1.2165 7.9606 33.9920 -3.6270 -11.3458
# 5 -7.2985 -27.9418 -10.4648 -3.6270 45.9938 -2.2640
# 6 -12.0621 -2.0508 1.4309 -11.3458 -2.2640 19.9110
#
#
#
# Elastic Compliance Matrix: (Units=1/GPa)
#
#
# Indices 1 2 3 4 5 6 
#
# 1 0.046141 0.022393 -0.001866 0.001875 0.022323 0.033999
# 2 0.022393 0.079569 -0.005270 0.015927 0.053787 0.037331
# 3 -0.001866 -0.005270 0.009367 -0.003590 -0.001876 -0.004605
# 4 0.001875 0.015927 -0.003590 0.041125 0.013779 0.028035
# 5 0.022323 0.053787 -0.001876 0.013779 0.060289 0.033905
# 6 0.033999 0.037331 -0.004605 0.028035 0.033905 0.094827
#
#
# Mechanical properties :
#
#
# Convention : Reuss Voigt Hill
#
# Bulk Modulus (GPa) = 6.03899 23.39804 14.71852
# Shear Modulus (GPa) = 14.04496 31.29798 22.67147
#
# Velocity S-wave (km/s) = 2.58148 3.85360 3.27981
# Velocity P-wave (km/s) = 3.42794 5.55898 4.61806
#
# Compressibility (1/GPa) = 0.16559052
#
# Stress axis : x y z
#
# Youngs Moduli (GPa) = 21.67291 12.56778 106.75688
#
# Poissons Ratio (x) = -0.28143 0.19920
# Poissons Ratio (y) = -0.48532 0.56259
# Poissons Ratio (z) = 0.04044 0.06623
#
# Static dielectric constant tensor:
#      x y z
#    x 1.842100 -0.008760 0.015360 
#    y -0.008760 1.734570 -0.018640 
#    z 0.015360 -0.018640 1.704550 
# 
# From -- ./inp_files/216401.got.cif
#   From: 2010.05.17/outbox.ucp.g08.bks.cvg/sg2_109_cif.got.tgz:216401.got - 2010.06.11 11:32:03.
