data_PCOD9075731
_publ_section_title
;
Structure prediction by ZEFSAII (Michael W. Deem and Ramdas Pophale) SiO2 
 PCOD9075731
Probable space group: P -1
;
_chemical_formula_sum "Si O2"
_cell_formula_units_Z 15
_cell_length_a 14.174950
_cell_length_b 6.957960
_cell_length_c 5.914486
_cell_angle_alpha 73.529199
_cell_angle_beta 105.896943
_cell_angle_gamma 102.579812
_cell_volume 531.759857
_symmetry_space_group_name_H-M "P -1"
_symmetry_group_IT_number 2
_symmetry_cell_setting 'triclinic'
loop_
_space_group_symop_operation_xyz
x,y,z
-x,-y,-z
loop_
_atom_site_type_symbol
_atom_site_label
_atom_site_fract_x
_atom_site_fract_y
_atom_site_fract_z
Si Si1 0.878556 0.889277 0.330485
Si Si2 0.138567 0.438128 0.198381
Si Si3 0.469301 0.160318 0.743993
Si Si4 0.500000 0.500000 0.000000
Si Si5 0.711825 0.739563 0.911210
Si Si6 0.326103 0.810571 0.315761
Si Si7 0.723839 0.145846 0.254087
Si Si8 0.985907 0.324548 0.736961
O O1 0.894712 0.745209 0.594186
O O2 0.980168 0.883849 0.257518
O O3 0.834185 0.087278 0.317724
O O4 0.790513 0.766858 0.160295
O O5 0.244725 0.387931 0.212803
O O6 0.119756 0.651719 0.225611
O O7 0.067660 0.406591 0.948769
O O8 0.553699 0.170520 0.604003
O O9 0.355066 0.058496 0.683220
O O10 0.483701 0.379856 0.787532
O O11 0.500000 0.000000 0.000000
O O12 0.396994 0.362975 0.066407
O O13 0.709916 0.971428 0.768877
O O14 0.292884 0.720140 0.578196
O O15 0.302418 0.770641 0.039288
O O16 0.000000 0.500000 0.500000
#
# Coordination Sequence:
#
# PCOD9075731 Si02
#       8
#     2   2   2   1   2   2   2   2
#     4   9  15  27  44  72 103 139 181 230 282 338
#     4   9  15  27  44  66 105 140 174 229 284 334
#     4  10  20  36  55  76 110 149 198 245 285 335
#     4  12  20  36  56  80 110 156 202 236 290 334
#     4  10  19  30  50  72 107 146 191 234 280 335
#     4  10  19  35  55  72 106 149 185 239 288 326
#     4  10  18  32  55  75 103 151 182 235 288 331
#     4   8  15  24  42  70 100 138 174 222 286 341
#
# _framework density 28.208221000000002
#
# number of rings (size 3 to 8) (size 9 to 14) (size 15 to 20)
#    0.000    2.400    5.333    0.400    0.000    0.000 
#    0.000    2.667    0.000    0.000    0.000    0.000 
#    0.000   39.467    0.000   42.267    0.000    7.200 
#
# Total GULP energy -83505.644307 kJ/mol
# GULP energy per Si atom -5567.042954 kJ/mol
# Density = 2.814402 g / cm^3
# Si number density = 28.208221 Si / 1000 Ang^3
#
#
#
# Elastic Constant Matrix: (Units=GPa)
#
#
# Indices 1 2 3 4 5 6 
#
# 1 110.1634 42.6155 29.4478 7.3627 -32.2052 -40.4895
# 2 42.6155 78.6476 25.5263 -2.2893 -5.2146 -1.1500
# 3 29.4478 25.5263 169.4998 0.6572 -10.6507 9.0682
# 4 7.3627 -2.2893 0.6572 23.9835 -4.4762 1.0544
# 5 -32.2052 -5.2146 -10.6507 -4.4762 54.5132 22.7481
# 6 -40.4895 -1.1500 9.0682 1.0544 22.7481 53.3392
#
#
#
# Elastic Compliance Matrix: (Units=1/GPa)
#
#
# Indices 1 2 3 4 5 6 
#
# 1 0.020520 -0.010020 -0.002522 -0.007026 0.004195 0.014140
# 2 -0.010020 0.018362 -0.000754 0.004938 -0.001106 -0.006708
# 3 -0.002522 -0.000754 0.006730 0.000934 0.001363 -0.003674
# 4 -0.007026 0.004938 0.000934 0.045285 0.003459 -0.007756
# 5 0.004195 -0.001106 0.001363 0.003459 0.024419 -0.007554
# 6 0.014140 -0.006708 -0.003674 -0.007756 -0.007554 0.033336
#
#
# Mechanical properties :
#
#
# Convention : Reuss Voigt Hill
#
# Bulk Modulus (GPa) = 52.57679 61.49889 57.03784
# Shear Modulus (GPa) = 27.53552 43.74860 35.64206
#
# Velocity S-wave (km/s) = 3.12773 3.94244 3.55848
# Velocity P-wave (km/s) = 5.63231 6.52479 6.09491
#
# Compressibility (1/GPa) = 0.01901980
#
# Stress axis : x y z
#
# Youngs Moduli (GPa) = 48.73211 54.46174 148.58873
#
# Poissons Ratio (x) = 0.54572 0.37470
# Poissons Ratio (y) = 0.48831 0.11205
# Poissons Ratio (z) = 0.12289 0.04107
#
# Static dielectric constant tensor:
#      x y z
#    x 2.362790 -0.124030 -0.044060 
#    y -0.124030 2.240800 0.093080 
#    z -0.044060 0.093080 2.259060 
# 
# From -- ./inp_files/90571.got.cif
#   From: 2010.05.17/outbox.cif.g08.bks.cpg/sg2_46_cif.got.tgz:90571.got - 2010.06.03 11:33:40.
