data_PCOD9075488
_publ_section_title
;
Structure prediction by ZEFSAII (Michael W. Deem and Ramdas Pophale) SiO2 
 PCOD9075488
Probable space group: P -1
;
_chemical_formula_sum "Si O2"
_cell_formula_units_Z 12
_cell_length_a 18.000000
_cell_length_b 15.000000
_cell_length_c 9.000000
_cell_angle_alpha 40.000000
_cell_angle_beta 40.000000
_cell_angle_gamma 20.000000
_cell_volume 522.298147
_symmetry_space_group_name_H-M "P -1"
_symmetry_group_IT_number 2
_symmetry_cell_setting 'triclinic'
loop_
_space_group_symop_operation_xyz
x,y,z
-x,-y,-z
loop_
_atom_site_type_symbol
_atom_site_label
_atom_site_fract_x
_atom_site_fract_y
_atom_site_fract_z
Si Si1 0.359171 0.377380 0.089589
Si Si2 0.071693 0.228166 0.556333
Si Si3 0.341940 0.783999 0.923796
Si Si4 0.933076 0.191321 0.246776
Si Si5 0.092713 0.562697 0.767066
Si Si6 0.461724 0.015607 0.211947
O O1 0.517268 0.264432 0.121713
O O2 0.488746 0.123930 0.128909
O O3 0.138349 0.554691 0.290023
O O4 0.283781 0.565576 0.837724
O O5 0.209757 0.228472 0.351634
O O6 0.029416 0.239401 0.435232
O O7 0.246363 0.941864 0.717880
O O8 0.500000 0.500000 0.000000
O O9 0.125895 0.976696 0.105372
O O10 0.928566 0.332350 0.180867
O O11 0.000000 0.000000 0.500000
O O12 0.344125 0.293242 0.663301
O O13 0.000000 0.500000 0.000000
O O14 0.500000 0.000000 0.000000
#
# Coordination Sequence:
#
# PCOD9075488 Si02
#       6
#     2   2   2   2   2   2
#     4  11  25  48  69 102 142 185 230 291 347 422
#     4  11  26  43  71 100 145 181 233 283 353 412
#     4  11  28  47  69  99 140 191 235 279 350 425
#     4  11  27  44  73 104 140 181 240 293 352 409
#     4  12  24  44  72 107 143 181 230 295 351 416
#     4  12  23  42  72 105 139 178 233 283 356 414
#
# _framework density 22.975383000000001
#
# number of rings (size 3 to 8) (size 9 to 14) (size 15 to 20)
#    0.000    0.667    3.333    2.500    7.000    7.333 
#    0.000    0.000    0.000    0.000    0.000    0.000 
#    0.000    0.000    0.000    0.000    0.000    0.000 
#
# Total GULP energy -66953.029765 kJ/mol
# GULP energy per Si atom -5579.419147 kJ/mol
# Density = 2.292309 g / cm^3
# Si number density = 22.975383 Si / 1000 Ang^3
#
#
#
# Elastic Constant Matrix: (Units=GPa)
#
#
# Indices 1 2 3 4 5 6 
#
# 1 -4.3675 -35.3329 -31.4760 -31.8674 41.8383 1.1649
# 2 -35.3329 21.1368 -27.6939 -29.6877 19.9294 7.1298
# 3 -31.4760 -27.6939 52.9816 -24.7000 38.8177 -17.1975
# 4 -31.8674 -29.6877 -24.7000 21.9815 -11.1190 2.6422
# 5 41.8383 19.9294 38.8177 -11.1190 34.1298 -10.3684
# 6 1.1649 7.1298 -17.1975 2.6422 -10.3684 45.8280
#
#
#
# Elastic Compliance Matrix: (Units=1/GPa)
#
#
# Indices 1 2 3 4 5 6 
#
# 1 0.008434 -0.011789 -0.007125 -0.011201 0.000939 -0.000196
# 2 -0.011789 0.016451 -0.005682 0.005268 0.012453 -0.001878
# 3 -0.007125 -0.005682 0.011729 -0.006337 -0.001697 0.005448
# 4 -0.011201 0.005268 -0.006337 0.045917 0.033431 0.002003
# 5 0.000939 0.012453 -0.001697 0.033431 0.034709 0.003327
# 6 -0.000196 -0.001878 0.005448 0.002003 0.003327 0.024800
#
#
# Mechanical properties :
#
#
# Convention : Reuss Voigt Hill
#
# Bulk Modulus (GPa) = -79.50942 -13.25051 -46.37996
# Shear Modulus (GPa) = 26.73228 31.33810 29.03519
#
# Velocity S-wave (km/s) = 3.41474 3.69722 3.55879
# Velocity P-wave (km/s) = 4.37427 3.52791 1.82867
#
# Compressibility (1/GPa) = -0.01257713
#
# Stress axis : x y z
#
# Youngs Moduli (GPa) = 118.56070 60.78559 85.26032
#
# Poissons Ratio (x) = 0.71659 0.60749
# Poissons Ratio (y) = 1.39768 0.48444
# Poissons Ratio (z) = 0.84476 0.34538
#
# Static dielectric constant tensor:
#      x y z
#    x 1.840020 -0.060660 -0.104420 
#    y -0.060660 1.767140 0.116250 
#    z -0.104420 0.116250 1.769770 
# 
# From -- ./inp_files/21911.got.cif
#   From: 2010.05.17/outbox.ucp.g08.bks.cvg/sg2_11_cif.got.tgz:21911.got - 2010.06.11 11:32:03.
