data_PCOD9075958
_publ_section_title
;
Structure prediction by ZEFSAII (Michael W. Deem and Ramdas Pophale) SiO2 
 PCOD9075958
Probable space group: P -1
;
_chemical_formula_sum "Si O2"
_cell_formula_units_Z 15
_cell_length_a 8.337589
_cell_length_b 8.408492
_cell_length_c 14.185708
_cell_angle_alpha 135.631966
_cell_angle_beta 58.481771
_cell_angle_gamma 127.371259
_cell_volume 545.556862
_symmetry_space_group_name_H-M "P -1"
_symmetry_group_IT_number 2
_symmetry_cell_setting 'triclinic'
loop_
_space_group_symop_operation_xyz
x,y,z
-x,-y,-z
loop_
_atom_site_type_symbol
_atom_site_label
_atom_site_fract_x
_atom_site_fract_y
_atom_site_fract_z
Si Si1 0.477115 0.685798 0.948777
Si Si2 0.309618 0.406357 0.448499
Si Si3 0.809600 0.742758 0.254894
Si Si4 0.056083 0.802930 0.838002
Si Si5 0.281147 0.646241 0.186329
Si Si6 0.597021 0.058790 0.351725
Si Si7 0.808504 0.931948 0.826304
Si Si8 0.000000 0.000000 0.500000
O O1 0.330083 0.534843 0.846721
O O2 0.588449 0.509188 0.881092
O O3 0.655052 0.927044 0.954230
O O4 0.346525 0.714104 0.087778
O O5 0.500000 0.500000 0.500000
O O6 0.330887 0.669910 0.512863
O O7 0.318652 0.224016 0.287422
O O8 0.107056 0.241646 0.496808
O O9 0.882414 0.826832 0.372219
O O10 0.677903 0.897719 0.324862
O O11 0.008379 0.824916 0.160762
O O12 0.284654 0.903822 0.770335
O O13 0.950956 0.544032 0.813326
O O14 0.929159 0.773769 0.767319
O O15 0.000000 0.000000 0.000000
O O16 0.356586 0.899807 0.331863
#
# Coordination Sequence:
#
# PCOD9075958 Si02
#       8
#     2   2   2   2   2   2   2   1
#     4   9  15  29  52  82 116 148 182 227 282 339
#     4  11  24  41  58  81 116 156 196 240 288 338
#     4   9  18  33  54  83 114 148 189 231 279 339
#     4  10  18  32  57  89 119 146 184 238 290 341
#     4   9  17  29  52  85 117 146 185 236 286 336
#     4  10  21  36  58  88 117 149 194 238 282 343
#     4   9  18  31  52  79 109 147 186 225 279 337
#     4  10  22  38  58  80 114 158 192 232 286 338
#
# _framework density 27.494842999999999
#
# number of rings (size 3 to 8) (size 9 to 14) (size 15 to 20)
#    0.000    2.400    0.000    4.800    0.000    5.867 
#    0.000    9.333    0.000    7.200    0.000   18.667 
#    0.000    0.000    0.000    0.000    0.000    0.000 
#
# Total GULP energy -83777.941855 kJ/mol
# GULP energy per Si atom -5585.196124 kJ/mol
# Density = 2.743226 g / cm^3
# Si number density = 27.494843 Si / 1000 Ang^3
#
#
#
# Elastic Constant Matrix: (Units=GPa)
#
#
# Indices 1 2 3 4 5 6 
#
# 1 74.6014 17.3355 23.8510 17.7001 24.6077 4.5194
# 2 17.3355 173.9911 54.3247 -8.9346 5.2818 26.0122
# 3 23.8510 54.3247 74.1547 2.4590 17.7583 -6.3640
# 4 17.7001 -8.9346 2.4590 55.9443 -9.2966 3.5173
# 5 24.6077 5.2818 17.7583 -9.2966 44.1147 14.5401
# 6 4.5194 26.0122 -6.3640 3.5173 14.5401 28.1798
#
#
#
# Elastic Compliance Matrix: (Units=1/GPa)
#
#
# Indices 1 2 3 4 5 6 
#
# 1 0.022472 -0.005428 0.003313 -0.012439 -0.020559 0.014315
# 2 -0.005428 0.016367 -0.018093 0.010433 0.020506 -0.030206
# 3 0.003313 -0.018093 0.037346 -0.013509 -0.031602 0.042596
# 4 -0.012439 0.010433 -0.013509 0.030313 0.026851 -0.028325
# 5 -0.020559 0.020506 -0.031602 0.026851 0.070692 -0.062596
# 6 0.014315 -0.030206 0.042596 -0.028325 -0.062596 0.106526
#
#
# Mechanical properties :
#
#
# Convention : Reuss Voigt Hill
#
# Bulk Modulus (GPa) = 27.95783 57.08552 42.52168
# Shear Modulus (GPa) = 14.87850 40.79681 27.83766
#
# Velocity S-wave (km/s) = 2.32876 3.85619 3.18538
# Velocity P-wave (km/s) = 4.17388 6.37450 5.38774
#
# Compressibility (1/GPa) = 0.03576815
#
# Stress axis : x y z
#
# Youngs Moduli (GPa) = 44.49955 61.10015 26.77667
#
# Poissons Ratio (x) = 0.33167 -0.08871
# Poissons Ratio (y) = 0.24155 0.48447
# Poissons Ratio (z) = -0.14743 1.10549
#
# Static dielectric constant tensor:
#      x y z
#    x 2.231750 -0.073680 -0.113750 
#    y -0.073680 2.134670 0.012080 
#    z -0.113750 0.012080 2.160520 
# 
# From -- ./inp_files/493803.got.cif
#   From: 2010.05.17/outbox.cif.g08.bks.cpg/sg2_247_cif.got.tgz:493803.got - 2010.06.03 11:33:40.
