data_PCOD9075925
_publ_section_title
;
Structure prediction by ZEFSAII (Michael W. Deem and Ramdas Pophale) SiO2 
 PCOD9075925
Probable space group: P -1
;
_chemical_formula_sum "Si O2"
_cell_formula_units_Z 16
_cell_length_a 8.592336
_cell_length_b 9.257228
_cell_length_c 18.754609
_cell_angle_alpha 40.911794
_cell_angle_beta 128.512243
_cell_angle_gamma 99.639000
_cell_volume 616.345337
_symmetry_space_group_name_H-M "P -1"
_symmetry_group_IT_number 2
_symmetry_cell_setting 'triclinic'
loop_
_space_group_symop_operation_xyz
x,y,z
-x,-y,-z
loop_
_atom_site_type_symbol
_atom_site_label
_atom_site_fract_x
_atom_site_fract_y
_atom_site_fract_z
Si Si1 0.278745 0.475292 0.450300
Si Si2 0.420609 0.905589 0.079244
Si Si3 0.126533 0.886202 0.889751
Si Si4 0.444629 0.249972 0.339316
Si Si5 0.027673 0.507976 0.221063
Si Si6 0.371133 0.947187 0.807799
Si Si7 0.972978 0.004006 0.575604
Si Si8 0.666869 0.864407 0.803970
O O1 0.500000 0.500000 0.500000
O O2 0.047163 0.779181 0.293185
O O3 0.194039 0.425758 0.370177
O O4 0.440684 0.177242 0.643193
O O5 0.303595 0.778089 0.050426
O O6 0.189575 0.181312 0.944363
O O7 0.617747 0.830272 0.225426
O O8 0.500000 0.000000 0.000000
O O9 0.919466 0.828646 0.866315
O O10 0.310499 0.798643 0.907319
O O11 0.187154 0.488810 0.208742
O O12 0.500000 0.000000 0.500000
O O13 0.686599 0.237188 0.424449
O O14 0.412807 0.208118 0.263498
O O15 0.968875 0.288598 0.280124
O O16 0.144031 0.052378 0.650475
O O17 0.624187 0.746099 0.907203
O O18 0.000000 0.000000 0.500000
#
# Coordination Sequence:
#
# PCOD9075925 Si02
#       8
#     2   2   2   2   2   2   2   2
#     4   9  17  30  53  82 111 145 192 234 292 350
#     4   9  21  42  61  81 113 157 209 237 279 350
#     4   9  20  36  59  80 111 158 194 242 294 338
#     4  10  18  32  57  83 116 149 184 231 301 350
#     4  10  19  35  61  81 113 157 194 238 293 349
#     4  11  22  36  59  83 117 156 196 240 289 343
#     4  11  20  34  56  88 124 146 183 245 301 349
#     4  11  19  35  56  88 117 146 192 245 295 351
#
# _framework density 25.959472999999999
#
# number of rings (size 3 to 8) (size 9 to 14) (size 15 to 20)
#    0.000    2.000    3.750    1.500    1.750    1.500 
#    0.000    1.875    5.500    0.000    0.000    0.000 
#    0.000    0.000    0.000    0.000    0.000    0.000 
#
# Total GULP energy -89166.329278 kJ/mol
# GULP energy per Si atom -5572.895580 kJ/mol
# Density = 2.590039 g / cm^3
# Si number density = 25.959473 Si / 1000 Ang^3
#
#
#
# Elastic Constant Matrix: (Units=GPa)
#
#
# Indices 1 2 3 4 5 6 
#
# 1 196.0331 47.0581 31.2369 18.7100 23.8585 -17.4400
# 2 47.0581 73.8469 24.4517 36.6178 5.6303 3.9057
# 3 31.2369 24.4517 76.5933 30.2148 6.7647 6.3029
# 4 18.7100 36.6178 30.2148 63.3777 8.5124 7.6158
# 5 23.8585 5.6303 6.7647 8.5124 44.3497 13.8236
# 6 -17.4400 3.9057 6.3029 7.6158 13.8236 56.5137
#
#
#
# Elastic Compliance Matrix: (Units=1/GPa)
#
#
# Indices 1 2 3 4 5 6 
#
# 1 0.007243 -0.004617 -0.002043 0.001663 -0.004455 0.003648
# 2 -0.004617 0.022217 -0.000868 -0.011165 0.002557 -0.001984
# 3 -0.002043 -0.000868 0.016962 -0.006844 0.000450 -0.001650
# 4 0.001663 -0.011165 -0.006844 0.025496 -0.003134 -0.000621
# 5 -0.004455 0.002557 0.000450 -0.003134 0.027627 -0.007937
# 6 0.003648 -0.001984 -0.001650 -0.000621 -0.007937 0.021167
#
#
# Mechanical properties :
#
#
# Convention : Reuss Voigt Hill
#
# Bulk Modulus (GPa) = 31.88102 61.32962 46.60532
# Shear Modulus (GPa) = 34.19417 49.09667 41.64542
#
# Velocity S-wave (km/s) = 3.63328 4.35360 4.00965
# Velocity P-wave (km/s) = 5.46889 6.99630 6.27921
#
# Compressibility (1/GPa) = 0.03136662
#
# Stress axis : x y z
#
# Youngs Moduli (GPa) = 138.06431 45.01002 58.95492
#
# Poissons Ratio (x) = 0.20782 0.12043
# Poissons Ratio (y) = 0.63747 0.05117
# Poissons Ratio (z) = 0.28203 0.03907
#
# Static dielectric constant tensor:
#      x y z
#    x 2.001690 0.044360 -0.071020 
#    y 0.044360 2.068510 -0.028490 
#    z -0.071020 -0.028490 2.210740 
# 
# From -- ./inp_files/298593.got.cif
#   From: 2010.05.17/outbox.cif.g08.bks.cpg/sg2_150_cif.got.tgz:298593.got - 2010.06.03 11:33:40.
