data_PCOD9075543
_publ_section_title
;
Structure prediction by ZEFSAII (Michael W. Deem and Ramdas Pophale) SiO2 
 PCOD9075543
Probable space group: P -1
;
_chemical_formula_sum "Si O2"
_cell_formula_units_Z 14
_cell_length_a 12.000000
_cell_length_b 9.000000
_cell_length_c 18.000000
_cell_angle_alpha 70.000000
_cell_angle_beta 140.000000
_cell_angle_gamma 140.000000
_cell_volume 647.049418
_symmetry_space_group_name_H-M "P -1"
_symmetry_group_IT_number 2
_symmetry_cell_setting 'triclinic'
loop_
_space_group_symop_operation_xyz
x,y,z
-x,-y,-z
loop_
_atom_site_type_symbol
_atom_site_label
_atom_site_fract_x
_atom_site_fract_y
_atom_site_fract_z
Si Si1 0.733231 0.446741 0.504839
Si Si2 0.426400 0.994867 0.316557
Si Si3 0.250381 0.624798 0.165452
Si Si4 0.736776 0.041300 0.091406
Si Si5 0.844115 0.968377 0.321997
Si Si6 0.839145 0.501126 0.203253
Si Si7 0.842310 0.050585 0.599974
O O1 0.980096 0.510496 0.661485
O O2 0.609557 0.293452 0.386629
O O3 0.415283 0.224822 0.429802
O O4 0.920789 0.750114 0.555942
O O5 0.396597 0.888688 0.239122
O O6 0.074088 0.724686 0.216997
O O7 0.632586 0.030406 0.463441
O O8 0.513981 0.730625 0.236195
O O9 0.054620 0.361457 0.166174
O O10 0.000000 0.500000 0.000000
O O11 0.806636 0.005962 0.210887
O O12 0.500000 0.000000 0.000000
O O13 0.515112 0.788360 0.958931
O O14 0.014542 0.935230 0.397151
O O15 0.878052 0.669002 0.254473
#
# Coordination Sequence:
#
# PCOD9075543 Si02
#       7
#     2   2   2   2   2   2   2
#     4   9  17  34  59  83 113 152 192 232 283 340
#     4   9  18  35  59  85 114 150 191 238 281 338
#     4  12  23  37  60  89 113 149 201 236 281 345
#     4  12  20  38  62  83 113 154 194 240 282 330
#     4  12  23  36  59  91 118 150 190 240 287 341
#     4   9  16  35  60  84 111 153 195 234 278 337
#     4   9  20  35  58  88 120 150 189 233 293 345
#
# _framework density 21.636678
#
# number of rings (size 3 to 8) (size 9 to 14) (size 15 to 20)
#    0.000    1.714    4.286    3.000    0.000    1.714 
#    0.000    0.714    0.000    1.714    0.000    0.000 
#    0.000    0.000    0.000    0.000    0.000    0.000 
#
# Total GULP energy -78114.861522 kJ/mol
# GULP energy per Si atom -5579.632966 kJ/mol
# Density = 2.158743 g / cm^3
# Si number density = 21.636678 Si / 1000 Ang^3
#
#
#
# Elastic Constant Matrix: (Units=GPa)
#
#
# Indices 1 2 3 4 5 6 
#
# 1 96.2553 43.2391 22.1629 28.1774 12.0103 16.4988
# 2 43.2391 53.2448 19.6983 26.9184 -0.0302 5.7872
# 3 22.1629 19.6983 74.4662 34.7953 -27.7205 -1.0544
# 4 28.1774 26.9184 34.7953 34.7925 0.8194 -8.2305
# 5 12.0103 -0.0302 -27.7205 0.8194 37.4813 -0.0609
# 6 16.4988 5.7872 -1.0544 -8.2305 -0.0609 21.0462
#
#
#
# Elastic Compliance Matrix: (Units=1/GPa)
#
#
# Indices 1 2 3 4 5 6 
#
# 1 0.025487 -0.003277 0.007730 -0.033299 -0.001776 -0.031719
# 2 -0.003277 0.068991 0.054947 -0.121123 0.044293 -0.060888
# 3 0.007730 0.054947 0.113981 -0.185546 0.085780 -0.087772
# 4 -0.033299 -0.121123 -0.185546 0.385589 -0.134758 0.200515
# 5 -0.001776 0.044293 0.085780 -0.134758 0.093577 -0.058918
# 6 -0.031719 -0.060888 -0.087772 0.200515 -0.058918 0.162971
#
#
# Mechanical properties :
#
#
# Convention : Reuss Voigt Hill
#
# Bulk Modulus (GPa) = 3.05566 43.79635 23.42601
# Shear Modulus (GPa) = 5.94614 27.92173 16.93393
#
# Velocity S-wave (km/s) = 1.65956 3.59622 2.80062
# Velocity P-wave (km/s) = 2.25555 6.12613 4.61611
#
# Compressibility (1/GPa) = 0.32726179
#
# Stress axis : x y z
#
# Youngs Moduli (GPa) = 39.23511 14.49456 8.77335
#
# Poissons Ratio (x) = 0.04749 -0.06782
# Poissons Ratio (y) = 0.12856 -0.48207
# Poissons Ratio (z) = -0.30329 -0.79644
#
# Static dielectric constant tensor:
#      x y z
#    x 1.810360 -0.041590 -0.027940 
#    y -0.041590 1.883270 -0.008780 
#    z -0.027940 -0.008780 1.799810 
# 
# From -- ./inp_files/220251.got.cif
#   From: 2010.05.17/outbox.ucp.g08.bks.cvg/sg2_111_cif.got.tgz:220251.got - 2010.06.11 11:32:03.
