data_PCOD9075928
_publ_section_title
;
Structure prediction by ZEFSAII (Michael W. Deem and Ramdas Pophale) SiO2 
 PCOD9075928
Probable space group: P -1
;
_chemical_formula_sum "Si O2"
_cell_formula_units_Z 16
_cell_length_a 11.155792
_cell_length_b 7.617971
_cell_length_c 18.451327
_cell_angle_alpha 59.112468
_cell_angle_beta 26.420801
_cell_angle_gamma 69.997737
_cell_volume 569.634859
_symmetry_space_group_name_H-M "P -1"
_symmetry_group_IT_number 2
_symmetry_cell_setting 'triclinic'
loop_
_space_group_symop_operation_xyz
x,y,z
-x,-y,-z
loop_
_atom_site_type_symbol
_atom_site_label
_atom_site_fract_x
_atom_site_fract_y
_atom_site_fract_z
Si Si1 0.347194 0.958634 0.750417
Si Si2 0.565105 0.249053 0.893404
Si Si3 0.266857 0.209103 0.885809
Si Si4 0.938786 0.600726 0.854780
Si Si5 0.412536 0.808476 0.946690
Si Si6 0.049819 0.860445 0.587903
Si Si7 0.152516 0.490232 0.513908
Si Si8 0.545378 0.683812 0.498310
O O1 0.304483 0.120620 0.802539
O O2 0.659060 0.941598 0.602989
O O3 0.379258 0.090404 0.630375
O O4 0.048990 0.774866 0.944814
O O5 0.293185 0.310128 0.002128
O O6 0.621015 0.326023 0.931466
O O7 0.855017 0.349267 0.671331
O O8 0.500000 0.000000 0.000000
O O9 0.537456 0.415003 0.707695
O O10 0.299283 0.012316 0.959316
O O11 0.017111 0.735803 0.708608
O O12 0.247418 0.632088 0.712317
O O13 0.769771 0.356991 0.977909
O O14 0.748787 0.895512 0.730845
O O15 0.091967 0.696928 0.539036
O O16 0.208951 0.335049 0.578870
O O17 0.500000 0.500000 0.500000
#
# Coordination Sequence:
#
# PCOD9075928 Si02
#       8
#     2   2   2   2   2   2   2   2
#     4   9  18  28  42  77 113 138 167 204 264 325
#     4  11  22  39  57  76 103 144 187 224 258 312
#     4  10  20  28  47  79 115 138 169 208 273 321
#     4  10  18  32  57  85 104 133 180 222 270 313
#     4  11  19  33  54  81 107 140 170 223 270 314
#     4   9  16  29  49  73 110 131 173 208 264 304
#     4  11  19  33  50  81 110 143 170 217 267 317
#     4  11  16  30  55  79 112 138 169 220 269 307
#
# _framework density 28.088166000000001
#
# number of rings (size 3 to 8) (size 9 to 14) (size 15 to 20)
#    0.000    1.750    6.250    2.250    1.750    2.000 
#    0.000    1.250    0.000    0.000    0.000    8.750 
#    0.000    0.000    0.000    0.000    0.000    0.000 
#
# Total GULP energy -89633.540547 kJ/mol
# GULP energy per Si atom -5602.096284 kJ/mol
# Density = 2.802424 g / cm^3
# Si number density = 28.088166 Si / 1000 Ang^3
#
#
#
# Elastic Constant Matrix: (Units=GPa)
#
#
# Indices 1 2 3 4 5 6 
#
# 1 83.6561 14.2042 27.3054 14.3148 -9.0984 -22.3469
# 2 14.2042 74.7039 43.2721 8.3956 -10.0244 9.5517
# 3 27.3054 43.2721 278.4023 23.9820 -32.5250 -6.8571
# 4 14.3148 8.3956 23.9820 41.3730 -15.9674 -4.8748
# 5 -9.0984 -10.0244 -32.5250 -15.9674 53.0920 7.5904
# 6 -22.3469 9.5517 -6.8571 -4.8748 7.5904 31.5312
#
#
#
# Elastic Compliance Matrix: (Units=1/GPa)
#
#
# Indices 1 2 3 4 5 6 
#
# 1 0.016742 -0.004287 -0.000486 -0.003575 -0.001141 0.012780
# 2 -0.004287 0.017029 -0.002111 -0.000991 0.002225 -0.009345
# 3 -0.000486 -0.002111 0.004282 -0.001153 0.001703 0.000638
# 4 -0.003575 -0.000991 -0.001153 0.029089 0.007203 0.000279
# 5 -0.001141 0.002225 0.001703 0.007203 0.023063 -0.005550
# 6 0.012780 -0.009345 0.000638 0.000279 -0.005550 0.045121
#
#
# Mechanical properties :
#
#
# Convention : Reuss Voigt Hill
#
# Bulk Modulus (GPa) = 41.17954 67.36951 54.27453
# Shear Modulus (GPa) = 31.80869 48.66461 40.23665
#
# Velocity S-wave (km/s) = 3.36885 4.16693 3.78896
# Velocity P-wave (km/s) = 5.46122 6.86936 6.20536
#
# Compressibility (1/GPa) = 0.02428391
#
# Stress axis : x y z
#
# Youngs Moduli (GPa) = 59.73011 58.72323 233.54909
#
# Poissons Ratio (x) = 0.25175 0.11355
# Poissons Ratio (y) = 0.25606 0.49307
# Poissons Ratio (z) = 0.02904 0.12398
#
# Static dielectric constant tensor:
#      x y z
#    x 2.337540 0.137030 0.036200 
#    y 0.137030 2.175130 -0.001600 
#    z 0.036200 -0.001600 2.183980 
# 
# From -- ./inp_files/609801.got.cif
#   From: 2010.05.17/outbox.cif.g08.bks.cpg/sg2_305_cif.got.tgz:609801.got - 2010.06.03 11:33:40.
