data_PCOD9075425
_publ_section_title
;
Structure prediction by ZEFSAII (Michael W. Deem and Ramdas Pophale) SiO2 
 PCOD9075425
Probable space group: P -1
;
_chemical_formula_sum "Si O2"
_cell_formula_units_Z 16
_cell_length_a 6.000000
_cell_length_b 15.000000
_cell_length_c 18.000000
_cell_angle_alpha 150.000000
_cell_angle_beta 70.000000
_cell_angle_gamma 110.000000
_cell_volume 757.522634
_symmetry_space_group_name_H-M "P -1"
_symmetry_group_IT_number 2
_symmetry_cell_setting 'triclinic'
loop_
_space_group_symop_operation_xyz
x,y,z
-x,-y,-z
loop_
_atom_site_type_symbol
_atom_site_label
_atom_site_fract_x
_atom_site_fract_y
_atom_site_fract_z
Si Si1 0.932771 0.266912 0.743285
Si Si2 0.234919 0.969681 0.543739
Si Si3 0.558716 0.182136 0.844916
Si Si4 0.448451 0.209634 0.381183
Si Si5 0.111053 0.686757 0.484010
Si Si6 0.062479 0.279542 0.139353
Si Si7 0.006380 0.313620 0.999978
Si Si8 0.640121 0.040823 0.090666
O O1 0.915527 0.160371 0.591192
O O2 0.683734 0.244810 0.799228
O O3 0.976817 0.476676 0.872252
O O4 0.120218 0.161241 0.694365
O O5 0.208601 0.852304 0.537711
O O6 0.500000 0.000000 0.500000
O O7 0.572039 0.969887 0.696723
O O8 0.281456 0.240757 0.914371
O O9 0.766353 0.244288 0.929235
O O10 0.698970 0.306293 0.461036
O O11 0.503001 0.139605 0.241572
O O12 0.183505 0.289912 0.462580
O O13 0.128579 0.487180 0.304185
O O14 0.955269 0.280597 0.069291
O O15 0.867917 0.179822 0.144647
O O16 0.273816 0.146340 0.022907
O O17 0.500000 0.000000 0.000000
#
# Coordination Sequence:
#
# PCOD9075425 Si02
#       8
#     2   2   2   2   2   2   2   2
#     4  11  25  42  64 104 142 192 243 302 356 424
#     4  11  25  43  70  98 150 201 240 296 367 434
#     4  12  25  44  70 105 145 193 245 300 364 425
#     4  12  27  49  79 107 151 192 244 307 371 440
#     4  12  28  49  76 112 150 197 247 301 367 445
#     4  11  27  48  77 110 147 194 247 306 374 443
#     4  12  26  44  72 105 142 193 247 300 360 439
#     4  11  27  51  80 108 148 192 243 310 380 443
#
# _framework density 21.121480999999999
#
# number of rings (size 3 to 8) (size 9 to 14) (size 15 to 20)
#    0.000    0.500    3.750    3.000   10.500    1.000 
#    0.000    0.000    0.000    0.000    0.000    0.000 
#    0.000    0.000    0.000    0.000    0.000    0.000 
#
# Total GULP energy -89153.120082 kJ/mol
# GULP energy per Si atom -5572.070005 kJ/mol
# Density = 2.107341 g / cm^3
# Si number density = 21.121481 Si / 1000 Ang^3
#
#
#
# Elastic Constant Matrix: (Units=GPa)
#
#
# Indices 1 2 3 4 5 6 
#
# 1 146.0455 11.5865 49.4988 -7.4853 -2.5289 -9.3579
# 2 11.5865 81.3000 21.1526 -4.4615 -5.9603 -8.1752
# 3 49.4988 21.1526 94.6689 7.4048 -6.0739 -10.5221
# 4 -7.4853 -4.4615 7.4048 44.4397 -9.2197 -0.6580
# 5 -2.5289 -5.9603 -6.0739 -9.2197 51.2601 -12.7577
# 6 -9.3579 -8.1752 -10.5221 -0.6580 -12.7577 42.3529
#
#
#
# Elastic Compliance Matrix: (Units=1/GPa)
#
#
# Indices 1 2 3 4 5 6 
#
# 1 0.008574 0.000243 -0.004571 0.002368 0.000589 0.001020
# 2 0.000243 0.013598 -0.002903 0.002419 0.002358 0.002705
# 3 -0.004571 -0.002903 0.014168 -0.003160 0.001103 0.002233
# 4 0.002368 0.002419 -0.003160 0.024738 0.004994 0.002094
# 5 0.000589 0.002358 0.001103 0.004994 0.022782 0.007799
# 6 0.001020 0.002705 0.002233 0.002094 0.007799 0.027295
#
#
# Mechanical properties :
#
#
# Convention : Reuss Voigt Hill
#
# Bulk Modulus (GPa) = 45.70727 54.05449 49.88088
# Shear Modulus (GPa) = 37.61941 43.59563 40.60752
#
# Velocity S-wave (km/s) = 4.22488 4.54810 4.38947
# Velocity P-wave (km/s) = 6.74438 7.29576 7.02548
#
# Compressibility (1/GPa) = 0.02187836
#
# Stress axis : x y z
#
# Youngs Moduli (GPa) = 116.62893 73.53848 70.58107
#
# Poissons Ratio (x) = -0.01788 0.32266
# Poissons Ratio (y) = -0.02836 0.20488
# Poissons Ratio (z) = 0.53317 0.21347
#
# Static dielectric constant tensor:
#      x y z
#    x 1.829260 0.031500 0.034290 
#    y 0.031500 1.774530 -0.031660 
#    z 0.034290 -0.031660 1.794180 
# 
# From -- ./inp_files/142539.got.cif
#   From: 2010.05.17/outbox.ucp.g08.bks.cvg/sg2_72_cif.got.tgz:142539.got - 2010.06.11 11:32:03.
