data_PCOD9075272
_publ_section_title
;
Structure prediction by ZEFSAII (Michael W. Deem and Ramdas Pophale) SiO2 
 PCOD9075272
Probable space group: P -1
;
_chemical_formula_sum "Si O2"
_cell_formula_units_Z 16
_cell_length_a 9.000000
_cell_length_b 15.000000
_cell_length_c 9.000000
_cell_angle_alpha 140.000000
_cell_angle_beta 70.000000
_cell_angle_gamma 110.000000
_cell_volume 727.419504
_symmetry_space_group_name_H-M "P -1"
_symmetry_group_IT_number 2
_symmetry_cell_setting 'triclinic'
loop_
_space_group_symop_operation_xyz
x,y,z
-x,-y,-z
loop_
_atom_site_type_symbol
_atom_site_label
_atom_site_fract_x
_atom_site_fract_y
_atom_site_fract_z
Si Si1 0.309617 0.994225 0.086541
Si Si2 0.771009 0.223658 0.636923
Si Si3 0.449593 0.298555 0.954194
Si Si4 0.788348 0.918911 0.090546
Si Si5 0.949624 0.634745 0.108630
Si Si6 0.931995 0.268409 0.133015
Si Si7 0.701166 0.402345 0.599307
Si Si8 0.365113 0.254133 0.591340
O O1 0.290022 0.111429 0.363163
O O2 0.220241 0.033136 0.015963
O O3 0.500000 0.000000 0.000000
O O4 0.220923 0.847939 0.989769
O O5 0.637593 0.279169 0.862724
O O6 0.937127 0.242481 0.691037
O O7 0.764391 0.333245 0.640563
O O8 0.760049 0.062548 0.373707
O O9 0.363528 0.196293 0.974939
O O10 0.405997 0.235832 0.725670
O O11 0.368383 0.445378 0.175018
O O12 0.935547 0.828074 0.966778
O O13 0.766143 0.640833 0.221301
O O14 0.987821 0.655986 0.946305
O O15 0.000000 0.500000 0.000000
O O16 0.843525 0.378707 0.404945
O O17 0.528890 0.306619 0.515484
#
# Coordination Sequence:
#
# PCOD9075272 Si02
#       8
#     2   2   2   2   2   2   2   2
#     4  12  25  46  73 107 144 186 246 302 356 426
#     4  11  24  44  75 101 147 191 248 297 363 435
#     4  11  24  45  72 106 143 195 245 295 366 436
#     4  12  26  45  71 112 146 193 241 297 371 432
#     4  12  27  46  72 110 145 189 245 304 365 427
#     4  12  27  47  72 108 151 191 239 299 375 433
#     4  11  24  48  74 100 150 198 240 296 366 445
#     4  11  23  46  71 102 142 187 244 305 354 423
#
# _framework density 21.995560999999999
#
# number of rings (size 3 to 8) (size 9 to 14) (size 15 to 20)
#    0.000    0.500    3.750    5.250    5.250    2.500 
#    0.000    1.875    0.000    0.000    0.000    0.000 
#    0.000    0.000    0.000    0.000    0.000    0.000 
#
# Total GULP energy -89227.809648 kJ/mol
# GULP energy per Si atom -5576.738103 kJ/mol
# Density = 2.194550 g / cm^3
# Si number density = 21.995561 Si / 1000 Ang^3
#
#
#
# Elastic Constant Matrix: (Units=GPa)
#
#
# Indices 1 2 3 4 5 6 
#
# 1 111.5117 15.8891 12.9605 -14.1372 -28.4139 1.0863
# 2 15.8891 104.2216 27.6697 1.1053 -9.8104 0.8956
# 3 12.9605 27.6697 120.7618 5.0471 -20.1307 1.3483
# 4 -14.1372 1.1053 5.0471 20.4695 8.2347 -9.1133
# 5 -28.4139 -9.8104 -20.1307 8.2347 45.8457 1.3780
# 6 1.0863 0.8956 1.3483 -9.1133 1.3780 36.0764
#
#
#
# Elastic Compliance Matrix: (Units=1/GPa)
#
#
# Indices 1 2 3 4 5 6 
#
# 1 0.011356 -0.001210 -0.000299 0.006247 0.005494 0.001068
# 2 -0.001210 0.010425 -0.002046 -0.001490 0.000867 -0.000555
# 3 -0.000299 -0.002046 0.009796 -0.005186 0.004664 -0.001795
# 4 0.006247 -0.001490 -0.005186 0.066767 -0.011238 0.017338
# 5 0.005494 0.000867 0.004664 -0.011238 0.029599 -0.004331
# 6 0.001068 -0.000555 -0.001795 0.017338 -0.004331 0.032313
#
#
# Mechanical properties :
#
#
# Convention : Reuss Voigt Hill
#
# Bulk Modulus (GPa) = 40.87040 49.94816 45.40928
# Shear Modulus (GPa) = 28.48650 39.14338 33.81494
#
# Velocity S-wave (km/s) = 3.60266 4.22311 3.92516
# Velocity P-wave (km/s) = 5.99392 6.82181 6.42122
#
# Compressibility (1/GPa) = 0.02446758
#
# Stress axis : x y z
#
# Youngs Moduli (GPa) = 88.05628 95.92562 102.08444
#
# Poissons Ratio (x) = 0.11610 0.03049
# Poissons Ratio (y) = 0.10658 0.20883
# Poissons Ratio (z) = 0.02630 0.19624
#
# Static dielectric constant tensor:
#      x y z
#    x 1.876140 0.039610 0.025920 
#    y 0.039610 1.804010 0.007310 
#    z 0.025920 0.007310 1.880500 
# 
# From -- ./inp_files/209212.got.cif
#   From: 2010.05.17/outbox.ucp.g08.bks.cvg/sg2_105_cif.got.tgz:209212.got - 2010.06.11 11:32:03.
