data_PCOD9075664
_publ_section_title
;
Structure prediction by ZEFSAII (Michael W. Deem and Ramdas Pophale) SiO2 
 PCOD9075664
Probable space group: P -1
;
_chemical_formula_sum "Si O2"
_cell_formula_units_Z 15
_cell_length_a 12.000000
_cell_length_b 12.000000
_cell_length_c 9.000000
_cell_angle_alpha 50.000000
_cell_angle_beta 40.000000
_cell_angle_gamma 60.000000
_cell_volume 638.079485
_symmetry_space_group_name_H-M "P -1"
_symmetry_group_IT_number 2
_symmetry_cell_setting 'triclinic'
loop_
_space_group_symop_operation_xyz
x,y,z
-x,-y,-z
loop_
_atom_site_type_symbol
_atom_site_label
_atom_site_fract_x
_atom_site_fract_y
_atom_site_fract_z
Si Si1 0.944123 0.763768 0.561636
Si Si2 0.000000 0.500000 0.500000
Si Si3 0.929413 0.339050 0.162725
Si Si4 0.442997 0.713965 0.499157
Si Si5 0.459627 0.259210 0.955900
Si Si6 0.043582 0.065564 0.068548
Si Si7 0.546185 0.981147 0.298348
Si Si8 0.369083 0.480197 0.288300
O O1 0.011276 0.655175 0.455444
O O2 0.038431 0.741267 0.644214
O O3 0.742370 0.719238 0.818281
O O4 0.965251 0.933285 0.357317
O O5 0.817512 0.551053 0.562125
O O6 0.731437 0.369673 0.287470
O O7 0.991230 0.225533 0.061854
O O8 0.000000 0.500000 0.000000
O O9 0.534375 0.742796 0.225763
O O10 0.405957 0.869447 0.474714
O O11 0.562646 0.640684 0.563708
O O12 0.595350 0.377696 0.772011
O O13 0.523175 0.117836 0.098695
O O14 0.252095 0.064444 0.872309
O O15 0.000000 0.000000 0.000000
O O16 0.500000 0.000000 0.500000
O O17 0.500000 0.500000 0.000000
#
# Coordination Sequence:
#
# PCOD9075664 Si02
#       8
#     2   1   2   2   2   2   2   2
#     4  12  27  49  79 112 161 212 272 333 412 484
#     4  12  28  46  82 112 162 210 274 340 408 486
#     4  12  28  51  80 118 159 212 268 337 408 487
#     4  12  27  48  77 113 158 208 269 332 411 485
#     4  12  25  50  74 113 158 211 265 338 405 491
#     4  12  28  49  80 118 159 211 276 330 407 492
#     4  12  26  48  77 114 159 215 265 336 410 484
#     4  12  26  49  75 113 156 208 267 331 409 481
#
# _framework density 23.508043000000001
#
# number of rings (size 3 to 8) (size 9 to 14) (size 15 to 20)
#    0.000    0.000    1.333    8.400    3.733    2.133 
#    0.000    0.000    0.000    0.000    0.000    0.000 
#    0.000    0.000    0.000    0.000    0.000    0.000 
#
# Total GULP energy -83540.987719 kJ/mol
# GULP energy per Si atom -5569.399181 kJ/mol
# Density = 2.345454 g / cm^3
# Si number density = 23.508043 Si / 1000 Ang^3
#
#
#
# Elastic Constant Matrix: (Units=GPa)
#
#
# Indices 1 2 3 4 5 6 
#
# 1 240.7054 50.7601 77.4109 -19.7322 -14.4556 5.9717
# 2 50.7601 124.5424 52.4715 -15.4650 7.3003 21.5778
# 3 77.4109 52.4715 100.9578 -22.1668 6.9419 -1.0338
# 4 -19.7322 -15.4650 -22.1668 37.0881 8.7763 -6.2145
# 5 -14.4556 7.3003 6.9419 8.7763 62.8385 -3.5321
# 6 5.9717 21.5778 -1.0338 -6.2145 -3.5321 59.5828
#
#
#
# Elastic Compliance Matrix: (Units=1/GPa)
#
#
# Indices 1 2 3 4 5 6 
#
# 1 0.005766 -0.000629 -0.004284 -0.000260 0.001890 -0.000339
# 2 -0.000629 0.011371 -0.005183 0.000915 -0.001253 -0.004124
# 3 -0.004284 -0.005183 0.017781 0.007484 -0.003213 0.003205
# 4 -0.000260 0.000915 0.007484 0.033482 -0.005501 0.002991
# 5 0.001890 -0.001253 -0.003213 -0.005501 0.017656 0.000681
# 6 -0.000339 -0.004124 0.003205 0.002991 0.000681 0.018719
#
#
# Mechanical properties :
#
#
# Convention : Reuss Voigt Hill
#
# Bulk Modulus (GPa) = 67.91205 91.94342 79.92773
# Shear Modulus (GPa) = 38.49882 50.93944 44.71913
#
# Velocity S-wave (km/s) = 4.05122 4.66004 4.36626
# Velocity P-wave (km/s) = 7.12985 8.25536 7.71316
#
# Compressibility (1/GPa) = 0.01472493
#
# Stress axis : x y z
#
# Youngs Moduli (GPa) = 173.44270 87.94453 56.24026
#
# Poissons Ratio (x) = 0.05532 0.24095
# Poissons Ratio (y) = 0.10910 0.29148
# Poissons Ratio (z) = 0.74309 0.45580
#
# Static dielectric constant tensor:
#      x y z
#    x 1.812980 0.006970 -0.005440 
#    y 0.006970 1.995330 0.007900 
#    z -0.005440 0.007900 1.929290 
# 
# From -- ./inp_files/261395.got.cif
#   From: 2010.05.17/outbox.ucp.g08.bks.cvg/sg2_131_cif.got.tgz:261395.got - 2010.06.11 11:32:03.
