data_PCOD9075715
_publ_section_title
;
Structure prediction by ZEFSAII (Michael W. Deem and Ramdas Pophale) SiO2 
 PCOD9075715
Probable space group: P -1
;
_chemical_formula_sum "Si O2"
_cell_formula_units_Z 16
_cell_length_a 12.104511
_cell_length_b 8.618015
_cell_length_c 18.800748
_cell_angle_alpha 42.790907
_cell_angle_beta 48.763776
_cell_angle_gamma 39.385974
_cell_volume 825.934459
_symmetry_space_group_name_H-M "P -1"
_symmetry_group_IT_number 2
_symmetry_cell_setting 'triclinic'
loop_
_space_group_symop_operation_xyz
x,y,z
-x,-y,-z
loop_
_atom_site_type_symbol
_atom_site_label
_atom_site_fract_x
_atom_site_fract_y
_atom_site_fract_z
Si Si1 0.832072 0.692089 0.193073
Si Si2 0.532833 0.718311 0.046521
Si Si3 0.104234 0.581946 0.220165
Si Si4 0.673866 0.196992 0.761696
Si Si5 0.060311 0.770229 0.953718
Si Si6 0.050705 0.774537 0.793200
Si Si7 0.472791 0.100230 0.159957
Si Si8 0.922935 0.360023 0.623615
O O1 0.816316 0.469619 0.232337
O O2 0.951106 0.561067 0.256427
O O3 0.633281 0.959621 0.195234
O O4 0.943797 0.744679 0.070819
O O5 0.436707 0.656430 0.168704
O O6 0.732335 0.449211 0.041844
O O7 0.458808 0.816130 0.965785
O O8 0.500000 0.000000 0.000000
O O9 0.292209 0.367470 0.175820
O O10 0.129357 0.525943 0.312347
O O11 0.024384 0.902969 0.128015
O O12 0.765396 0.359197 0.649626
O O13 0.575412 0.113803 0.777154
O O14 0.848753 0.899342 0.811963
O O15 0.060159 0.689818 0.898717
O O16 0.065809 0.032099 0.689387
O O17 0.000000 0.500000 0.500000
#
# Coordination Sequence:
#
# PCOD9075715 Si02
#       8
#     2   2   2   2   2   2   2   2
#     4  12  21  36  58  87 127 163 190 237 292 355
#     4  10  18  32  54  85 123 159 196 231 274 348
#     4  11  23  40  54  91 124 154 201 241 303 356
#     4   9  18  37  58  86 112 153 211 234 278 358
#     4  11  21  34  55  84 131 164 194 234 285 351
#     4   9  18  35  59  83 114 150 210 233 280 355
#     4  11  22  35  59  85 130 161 190 238 289 355
#     4   9  21  41  68  83 108 156 205 259 304 342
#
# _framework density 19.371997
#
# number of rings (size 3 to 8) (size 9 to 14) (size 15 to 20)
#    0.750    1.000    2.500    3.750    0.000    1.500 
#    0.000    2.500    0.000   13.500    0.000    0.000 
#    0.000    0.000    0.000    0.000    0.000    0.000 
#
# Total GULP energy -89074.346368 kJ/mol
# GULP energy per Si atom -5567.146648 kJ/mol
# Density = 1.932791 g / cm^3
# Si number density = 19.371997 Si / 1000 Ang^3
#
#
#
# Elastic Constant Matrix: (Units=GPa)
#
#
# Indices 1 2 3 4 5 6 
#
# 1 42.5976 26.3703 10.1649 -1.2002 -0.9794 -2.6378
# 2 26.3703 104.3180 13.1357 3.9584 0.5828 -11.1721
# 3 10.1649 13.1357 76.5197 1.8266 -22.4572 11.7470
# 4 -1.2002 3.9584 1.8266 7.9868 -0.7354 4.2282
# 5 -0.9794 0.5828 -22.4572 -0.7354 28.2549 -0.9258
# 6 -2.6378 -11.1721 11.7470 4.2282 -0.9258 37.0430
#
#
#
# Elastic Compliance Matrix: (Units=1/GPa)
#
#
# Indices 1 2 3 4 5 6 
#
# 1 0.028916 -0.007259 -0.003096 0.008636 -0.001089 -0.000161
# 2 -0.007259 0.012679 -0.002539 -0.009767 -0.002617 0.005162
# 3 -0.003096 -0.002539 0.019397 0.001418 0.015172 -0.006920
# 4 0.008636 -0.009767 0.001418 0.141407 0.004692 -0.018804
# 5 -0.001089 -0.002617 0.015172 0.004692 0.047425 -0.005028
# 6 -0.000161 0.005162 -0.006920 -0.018804 -0.005028 0.032756
#
#
# Mechanical properties :
#
#
# Convention : Reuss Voigt Hill
#
# Bulk Modulus (GPa) = 28.40653 35.86413 32.13533
# Shear Modulus (GPa) = 15.61997 26.24124 20.93060
#
# Velocity S-wave (km/s) = 2.84265 3.68448 3.29060
# Velocity P-wave (km/s) = 5.04676 6.05426 5.57332
#
# Compressibility (1/GPa) = 0.03520317
#
# Stress axis : x y z
#
# Youngs Moduli (GPa) = 34.58274 78.87177 51.55429
#
# Poissons Ratio (x) = 0.57250 0.15963
# Poissons Ratio (y) = 0.25102 0.13092
# Poissons Ratio (z) = 0.10708 0.20029
#
# Static dielectric constant tensor:
#      x y z
#    x 1.807480 0.036060 -0.019560 
#    y 0.036060 1.723000 -0.015230 
#    z -0.019560 -0.015230 1.650800 
# 
# From -- ./inp_files/565744.got.cif
#   From: 2010.05.17/outbox.cif.g08.bks.cpg/sg2_283_cif.got.tgz:565744.got - 2010.06.03 11:33:40.
