data_PCOD9075184
_publ_section_title
;
Structure prediction by ZEFSAII (Michael W. Deem and Ramdas Pophale) SiO2 
 PCOD9075184
Probable space group: P -1
;
_chemical_formula_sum "Si O2"
_cell_formula_units_Z 16
_cell_length_a 9.540825
_cell_length_b 8.524855
_cell_length_c 20.015725
_cell_angle_alpha 62.421721
_cell_angle_beta 26.283719
_cell_angle_gamma 72.294196
_cell_volume 612.912716
_symmetry_space_group_name_H-M "P -1"
_symmetry_group_IT_number 2
_symmetry_cell_setting 'triclinic'
loop_
_space_group_symop_operation_xyz
x,y,z
-x,-y,-z
loop_
_atom_site_type_symbol
_atom_site_label
_atom_site_fract_x
_atom_site_fract_y
_atom_site_fract_z
Si Si1 0.434186 0.478184 0.375390
Si Si2 0.217267 0.900396 0.845263
Si Si3 0.577862 0.941898 0.550370
Si Si4 0.437443 0.978593 0.877288
Si Si5 0.855330 0.574541 0.296089
Si Si6 0.773568 0.292881 0.768259
Si Si7 0.807237 0.734529 0.746088
Si Si8 0.574043 0.458782 0.170061
O O1 0.462098 0.271924 0.398654
O O2 0.730031 0.599856 0.270464
O O3 0.482721 0.528739 0.267044
O O4 0.080001 0.442280 0.569792
O O5 0.347147 0.965469 0.704211
O O6 0.181158 0.675098 0.905641
O O7 0.464041 0.993560 0.781849
O O8 0.897533 0.967803 0.978843
O O9 0.500000 0.000000 0.500000
O O10 0.928366 0.069785 0.398325
O O11 0.681372 0.115607 0.796408
O O12 0.479227 0.772738 0.910341
O O13 0.500000 0.500000 0.500000
O O14 0.075929 0.731751 0.219156
O O15 0.042101 0.414476 0.253775
O O16 0.446090 0.365952 0.901387
O O17 0.726676 0.685112 0.712930
#
# Coordination Sequence:
#
# PCOD9075184 Si02
#       8
#     2   2   2   2   2   2   2   2
#     4  10  18  32  53  81 120 141 186 235 287 328
#     4   9  22  38  56  84 118 149 187 239 286 332
#     4  11  20  34  60  86 110 150 190 235 287 337
#     4  10  20  38  59  84 116 149 191 235 282 338
#     4   9  19  34  51  84 115 150 177 234 287 333
#     4  10  19  32  55  84 110 150 187 230 282 340
#     4  10  19  34  59  84 111 145 192 234 280 336
#     4   9  20  33  54  83 111 145 187 240 281 326
#
# _framework density 26.104859000000001
#
# number of rings (size 3 to 8) (size 9 to 14) (size 15 to 20)
#    0.000    2.250    2.500    0.375    1.750    2.000 
#    0.000    0.625    0.000    3.000    0.000    0.000 
#    0.000    0.000    0.000    0.000    0.000    0.000 
#
# Total GULP energy -89247.061129 kJ/mol
# GULP energy per Si atom -5577.941321 kJ/mol
# Density = 2.604544 g / cm^3
# Si number density = 26.104859 Si / 1000 Ang^3
#
#
#
# Elastic Constant Matrix: (Units=GPa)
#
#
# Indices 1 2 3 4 5 6 
#
# 1 151.7682 51.1212 49.4472 26.0723 2.5958 24.3486
# 2 51.1212 109.3345 34.2940 31.1360 -11.9015 23.0082
# 3 49.4472 34.2940 76.3514 32.9586 -3.0206 10.7228
# 4 26.0723 31.1360 32.9586 45.6892 -6.2012 -2.6452
# 5 2.5958 -11.9015 -3.0206 -6.2012 28.5085 12.3954
# 6 24.3486 23.0082 10.7228 -2.6452 12.3954 45.2527
#
#
#
# Elastic Compliance Matrix: (Units=1/GPa)
#
#
# Indices 1 2 3 4 5 6 
#
# 1 0.009384 -0.002407 -0.004294 -0.000956 -0.001450 -0.002466
# 2 -0.002407 0.015811 -0.000068 -0.008672 0.009163 -0.009744
# 3 -0.004294 -0.000068 0.022510 -0.013770 0.001591 -0.004230
# 4 -0.000956 -0.008672 -0.013770 0.038730 -0.001262 0.010796
# 5 -0.001450 0.009163 0.001591 -0.001262 0.046329 -0.017020
# 6 -0.002466 -0.009744 -0.004230 0.010796 -0.017020 0.034675
#
#
# Mechanical properties :
#
#
# Convention : Reuss Voigt Hill
#
# Bulk Modulus (GPa) = 29.26896 67.46431 48.36664
# Shear Modulus (GPa) = 25.99233 37.39621 31.69427
#
# Velocity S-wave (km/s) = 3.15888 3.78900 3.48819
# Velocity P-wave (km/s) = 4.95390 6.71131 5.89842
#
# Compressibility (1/GPa) = 0.03416589
#
# Stress axis : x y z
#
# Youngs Moduli (GPa) = 106.56898 63.24797 44.42497
#
# Poissons Ratio (x) = 0.15224 0.19076
# Poissons Ratio (y) = 0.25652 0.00302
# Poissons Ratio (z) = 0.45762 0.00430
#
# Static dielectric constant tensor:
#      x y z
#    x 1.951390 0.079640 -0.154970 
#    y 0.079640 2.049320 0.061380 
#    z -0.154970 0.061380 2.073470 
# 
# From -- ./inp_files/268425.got.cif
#   From: 2010.05.17/outbox.cif.g08.bks.cpg/sg2_135_cif.got.tgz:268425.got - 2010.06.03 11:33:40.
