data_PCOD9075876
_publ_section_title
;
Structure prediction by ZEFSAII (Michael W. Deem and Ramdas Pophale) SiO2 
 PCOD9075876
Probable space group: P -1
;
_chemical_formula_sum "Si O2"
_cell_formula_units_Z 16
_cell_length_a 10.524316
_cell_length_b 12.338924
_cell_length_c 11.697650
_cell_angle_alpha 62.251728
_cell_angle_beta 35.557250
_cell_angle_gamma 84.932548
_cell_volume 645.368992
_symmetry_space_group_name_H-M "P -1"
_symmetry_group_IT_number 2
_symmetry_cell_setting 'triclinic'
loop_
_space_group_symop_operation_xyz
x,y,z
-x,-y,-z
loop_
_atom_site_type_symbol
_atom_site_label
_atom_site_fract_x
_atom_site_fract_y
_atom_site_fract_z
Si Si1 0.218816 0.679834 0.751042
Si Si2 0.672392 0.346849 0.079513
Si Si3 0.588557 0.421019 0.885242
Si Si4 0.309913 0.329955 0.684325
Si Si5 0.192658 0.926516 0.239851
Si Si6 0.314730 0.226303 0.967026
Si Si7 0.882462 0.300896 0.423492
Si Si8 0.129841 0.303108 0.585231
O O1 0.255875 0.723849 0.835417
O O2 0.495637 0.710959 0.489447
O O3 0.147596 0.744592 0.665365
O O4 0.000000 0.500000 0.000000
O O5 0.400931 0.319922 0.340619
O O6 0.618764 0.312526 0.999763
O O7 0.908048 0.522112 0.815883
O O8 0.395732 0.336324 0.960534
O O9 0.843243 0.559882 0.567790
O O10 0.500000 0.500000 0.000000
O O11 0.500000 0.500000 0.500000
O O12 0.194648 0.246768 0.929497
O O13 0.137372 0.317179 0.708647
O O14 0.049810 0.792757 0.500300
O O15 0.105369 0.851370 0.216760
O O16 0.500000 0.000000 0.000000
O O17 0.149575 0.057318 0.213070
O O18 0.604452 0.267504 0.690987
#
# Coordination Sequence:
#
# PCOD9075876 Si02
#       8
#     2   2   2   2   2   2   2   2
#     4   8  16  30  50  80 108 142 179 224 288 334
#     4   9  17  31  55  82 106 139 189 236 283 326
#     4  10  19  33  54  82 110 143 186 240 281 325
#     4  10  18  32  56  86 114 142 187 246 278 332
#     4  10  21  37  52  81 121 159 185 226 285 347
#     4  10  21  35  54  85 116 149 192 227 287 345
#     4   9  17  33  56  80 112 149 184 234 280 337
#     4  10  19  34  58  80 114 149 188 232 292 327
#
# _framework density 24.792017999999999
#
# number of rings (size 3 to 8) (size 9 to 14) (size 15 to 20)
#    0.000    2.500    2.500    0.000    0.000    1.000 
#    0.000    2.500    0.000    0.750    0.000    0.000 
#    0.000    0.000    0.000    0.000    0.000    0.000 
#
# Total GULP energy -89309.143059 kJ/mol
# GULP energy per Si atom -5581.821441 kJ/mol
# Density = 2.473559 g / cm^3
# Si number density = 24.792018 Si / 1000 Ang^3
#
#
#
# Elastic Constant Matrix: (Units=GPa)
#
#
# Indices 1 2 3 4 5 6 
#
# 1 168.5839 52.4244 25.5470 -4.8182 37.0226 51.4399
# 2 52.4244 106.8283 39.5234 13.0052 11.0260 31.1824
# 3 25.5470 39.5234 69.6409 13.8619 5.4878 13.8518
# 4 -4.8182 13.0052 13.8619 50.9878 1.0277 3.2271
# 5 37.0226 11.0260 5.4878 1.0277 40.7729 5.3661
# 6 51.4399 31.1824 13.8518 3.2271 5.3661 44.2690
#
#
#
# Elastic Compliance Matrix: (Units=1/GPa)
#
#
# Indices 1 2 3 4 5 6 
#
# 1 0.012313 -0.001539 -0.001099 0.002797 -0.009110 -0.011978
# 2 -0.001539 0.014470 -0.005970 -0.001797 -0.000837 -0.006303
# 3 -0.001099 -0.005970 0.018913 -0.003715 0.000185 -0.000187
# 4 0.002797 -0.001797 -0.003715 0.021519 -0.001810 -0.002171
# 5 -0.009110 -0.000837 0.000185 -0.001810 0.032076 0.007361
# 6 -0.011978 -0.006303 -0.000187 -0.002171 0.007361 0.040272
#
#
# Mechanical properties :
#
#
# Convention : Reuss Voigt Hill
#
# Bulk Modulus (GPa) = 35.11498 64.44917 49.78207
# Shear Modulus (GPa) = 30.07103 42.37649 36.22376
#
# Velocity S-wave (km/s) = 3.48650 4.13883 3.82659
# Velocity P-wave (km/s) = 5.51381 6.99230 6.29660
#
# Compressibility (1/GPa) = 0.02847788
#
# Stress axis : x y z
#
# Youngs Moduli (GPa) = 81.21826 69.10834 52.87407
#
# Poissons Ratio (x) = 0.10638 0.05813
# Poissons Ratio (y) = 0.12502 0.31566
# Poissons Ratio (z) = 0.08929 0.41258
#
# Static dielectric constant tensor:
#      x y z
#    x 2.198270 -0.068320 -0.040130 
#    y -0.068320 1.985600 0.060160 
#    z -0.040130 0.060160 1.950670 
# 
# From -- ./inp_files/432799.got.cif
#   From: 2010.05.17/outbox.cif.g08.bks.cpg/sg2_217_cif.got.tgz:432799.got - 2010.06.03 11:33:40.
