data_PCOD9075474
_publ_section_title
;
Structure prediction by ZEFSAII (Michael W. Deem and Ramdas Pophale) SiO2 
 PCOD9075474
Probable space group: P -1
;
_chemical_formula_sum "Si O2"
_cell_formula_units_Z 16
_cell_length_a 18.000000
_cell_length_b 9.000000
_cell_length_c 12.000000
_cell_angle_alpha 130.000000
_cell_angle_beta 150.000000
_cell_angle_gamma 50.000000
_cell_volume 725.531033
_symmetry_space_group_name_H-M "P -1"
_symmetry_group_IT_number 2
_symmetry_cell_setting 'triclinic'
loop_
_space_group_symop_operation_xyz
x,y,z
-x,-y,-z
loop_
_atom_site_type_symbol
_atom_site_label
_atom_site_fract_x
_atom_site_fract_y
_atom_site_fract_z
Si Si1 0.178079 0.892146 0.175185
Si Si2 0.371621 0.196884 0.885539
Si Si3 0.232625 0.287691 0.507345
Si Si4 0.974610 0.652591 0.392353
Si Si5 0.938452 0.767875 0.156338
Si Si6 0.546472 0.549952 0.277984
Si Si7 0.780245 0.193749 0.062419
Si Si8 0.224704 0.583606 0.289235
O O1 0.238327 0.737978 0.280584
O O2 0.248114 0.088530 0.358474
O O3 0.202210 0.787107 0.037684
O O4 0.000000 0.000000 0.000000
O O5 0.308147 0.196572 0.677156
O O6 0.205957 0.279416 0.773776
O O7 0.470974 0.361853 0.090966
O O8 0.500000 0.000000 0.000000
O O9 0.321951 0.434599 0.632071
O O10 0.059965 0.421374 0.364352
O O11 0.976952 0.773315 0.338987
O O12 0.096952 0.703402 0.665248
O O13 0.096880 0.712738 0.267542
O O14 0.833307 0.967873 0.066168
O O15 0.851571 0.588470 0.942072
O O16 0.631263 0.526559 0.499527
O O17 0.402114 0.719076 0.125359
#
# Coordination Sequence:
#
# PCOD9075474 Si02
#       8
#     2   2   2   2   2   2   2   2
#     4  12  25  45  80 109 151 201 258 310 377 455
#     4  12  29  47  74 115 155 197 251 315 384 448
#     4  12  26  49  79 106 154 205 251 310 376 454
#     4  12  27  49  81 111 152 200 258 308 377 461
#     4  11  25  46  79 109 149 201 256 308 378 453
#     4  12  28  48  75 112 159 196 253 320 379 442
#     4  12  28  47  76 114 151 207 252 310 381 454
#     4  11  25  48  74 113 153 197 253 316 376 446
#
# _framework density 22.052813
#
# number of rings (size 3 to 8) (size 9 to 14) (size 15 to 20)
#    0.000    0.250    3.750    4.125    7.000    2.500 
#    0.000    0.000    0.000    0.000    0.000    0.000 
#    0.000    0.000    0.000    0.000    0.000    0.000 
#
# Total GULP energy -89319.387979 kJ/mol
# GULP energy per Si atom -5582.461749 kJ/mol
# Density = 2.200262 g / cm^3
# Si number density = 22.052813 Si / 1000 Ang^3
#
#
#
# Elastic Constant Matrix: (Units=GPa)
#
#
# Indices 1 2 3 4 5 6 
#
# 1 115.0865 42.8007 39.6601 -3.8151 -1.3795 10.7988
# 2 42.8007 149.7547 43.1842 -32.3504 4.4091 17.3494
# 3 39.6601 43.1842 99.8004 -21.8578 1.8541 2.2889
# 4 -3.8151 -32.3504 -21.8578 53.0333 3.7295 -5.3958
# 5 -1.3795 4.4091 1.8541 3.7295 39.4583 -14.6994
# 6 10.7988 17.3494 2.2889 -5.3958 -14.6994 30.5024
#
#
#
# Elastic Compliance Matrix: (Units=1/GPa)
#
#
# Indices 1 2 3 4 5 6 
#
# 1 0.011044 -0.002246 -0.003893 -0.002463 0.000023 -0.002765
# 2 -0.002246 0.009636 -0.002091 0.004550 -0.003503 -0.005412
# 3 -0.003893 -0.002091 0.013336 0.004177 -0.000079 0.002268
# 4 -0.002463 0.004550 0.004177 0.023449 -0.002703 0.000816
# 5 0.000023 -0.003503 -0.000079 -0.002703 0.032369 0.017111
# 6 -0.002765 -0.005412 0.002268 0.000816 0.017111 0.045061
#
#
# Mechanical properties :
#
#
# Convention : Reuss Voigt Hill
#
# Bulk Modulus (GPa) = 56.96456 68.43684 62.70070
# Shear Modulus (GPa) = 31.80479 40.53189 36.16834
#
# Velocity S-wave (km/s) = 3.80176 4.29178 4.05418
# Velocity P-wave (km/s) = 6.71999 7.46054 7.09993
#
# Compressibility (1/GPa) = 0.01755477
#
# Stress axis : x y z
#
# Youngs Moduli (GPa) = 90.54451 103.78221 74.98285
#
# Poissons Ratio (x) = 0.23312 0.29194
# Poissons Ratio (y) = 0.20339 0.15679
# Poissons Ratio (z) = 0.35253 0.21701
#
# Static dielectric constant tensor:
#      x y z
#    x 1.880960 -0.067000 0.015780 
#    y -0.067000 1.841250 0.026840 
#    z 0.015780 0.026840 1.876040 
# 
# From -- ./inp_files/298661.got.cif
#   From: 2010.05.17/outbox.ucp.g08.bks.cvg/sg2_150_cif.got.tgz:298661.got - 2010.06.11 11:32:03.
