data_PCOD9075627
_publ_section_title
;
Structure prediction by ZEFSAII (Michael W. Deem and Ramdas Pophale) SiO2 
 PCOD9075627
Probable space group: P -1
;
_chemical_formula_sum "Si O2"
_cell_formula_units_Z 14
_cell_length_a 12.000000
_cell_length_b 6.000000
_cell_length_c 18.000000
_cell_angle_alpha 100.000000
_cell_angle_beta 150.000000
_cell_angle_gamma 80.000000
_cell_volume 637.442765
_symmetry_space_group_name_H-M "P -1"
_symmetry_group_IT_number 2
_symmetry_cell_setting 'triclinic'
loop_
_space_group_symop_operation_xyz
x,y,z
-x,-y,-z
loop_
_atom_site_type_symbol
_atom_site_label
_atom_site_fract_x
_atom_site_fract_y
_atom_site_fract_z
Si Si1 0.628155 0.242214 0.885450
Si Si2 0.704281 0.957666 0.051314
Si Si3 0.216286 0.606436 0.665155
Si Si4 0.074970 0.168578 0.371880
Si Si5 0.494952 0.551431 0.412400
Si Si6 0.380114 0.885453 0.642458
Si Si7 0.019247 0.428178 0.917863
O O1 0.429376 0.433330 0.774492
O O2 0.576610 0.055763 0.782405
O O3 0.872932 0.339508 0.032370
O O4 0.606747 0.133999 0.946306
O O5 0.805132 0.750781 0.038237
O O6 0.936145 0.021359 0.226764
O O7 0.500000 0.000000 0.000000
O O8 0.285132 0.808319 0.662536
O O9 0.000000 0.500000 0.500000
O O10 0.123728 0.672713 0.696773
O O11 0.291937 0.293963 0.473001
O O12 0.182679 0.014762 0.490800
O O13 0.500000 0.500000 0.500000
O O14 0.537725 0.330918 0.371445
O O15 0.235406 0.631601 0.251648
O O16 0.000000 0.500000 0.000000
#
# Coordination Sequence:
#
# PCOD9075627 Si02
#       7
#     2   2   2   2   2   2   2
#     4  12  26  46  74 105 146 193 243 301 365 433
#     4  12  29  48  74 109 150 191 240 303 376 432
#     4  12  24  44  75 108 141 183 244 304 362 429
#     4  12  26  45  74 109 148 191 241 303 366 430
#     4  12  27  45  69 105 146 191 244 298 358 433
#     4  12  24  45  74 106 139 189 248 299 362 433
#     4  12  27  49  72 105 149 192 248 297 356 437
#
# _framework density 21.962755999999999
#
# number of rings (size 3 to 8) (size 9 to 14) (size 15 to 20)
#    0.000    0.000    2.857    7.286    2.000   10.286 
#    0.000    0.000    0.000    0.000    0.000    0.000 
#    0.000    0.000    0.000    0.000    0.000    0.000 
#
# Total GULP energy -77950.033766 kJ/mol
# GULP energy per Si atom -5567.859555 kJ/mol
# Density = 2.191277 g / cm^3
# Si number density = 21.962756 Si / 1000 Ang^3
#
#
#
# Elastic Constant Matrix: (Units=GPa)
#
#
# Indices 1 2 3 4 5 6 
#
# 1 167.6065 49.5985 37.8056 8.7670 7.3007 -1.8958
# 2 49.5985 67.9062 34.7717 13.5575 7.4997 9.0695
# 3 37.8056 34.7717 127.1621 21.9152 4.3664 24.3844
# 4 8.7670 13.5575 21.9152 37.4571 0.2889 -2.0061
# 5 7.3007 7.4997 4.3664 0.2889 47.8847 -4.6148
# 6 -1.8958 9.0695 24.3844 -2.0061 -4.6148 31.7774
#
#
#
# Elastic Compliance Matrix: (Units=1/GPa)
#
#
# Indices 1 2 3 4 5 6 
#
# 1 0.008018 -0.005739 -0.001749 0.001414 0.000172 0.003573
# 2 -0.005739 0.022282 -0.002182 -0.005734 -0.002942 -0.005817
# 3 -0.001749 -0.002182 0.011854 -0.006217 -0.001318 -0.009162
# 4 0.001414 -0.005734 -0.006217 0.032537 0.001903 0.008822
# 5 0.000172 -0.002942 -0.001318 0.001903 0.021925 0.005165
# 6 0.003573 -0.005817 -0.009162 0.008822 0.005165 0.041680
#
#
# Mechanical properties :
#
#
# Convention : Reuss Voigt Hill
#
# Bulk Modulus (GPa) = 43.83367 67.44736 55.64051
# Shear Modulus (GPa) = 30.25889 39.45711 34.85800
#
# Velocity S-wave (km/s) = 3.71581 4.24317 3.98822
# Velocity P-wave (km/s) = 6.19768 7.40152 6.82619
#
# Compressibility (1/GPa) = 0.02281351
#
# Stress axis : x y z
#
# Youngs Moduli (GPa) = 124.71536 44.87928 84.35829
#
# Poissons Ratio (x) = 0.25758 0.14756
# Poissons Ratio (y) = 0.71578 0.18407
# Poissons Ratio (z) = 0.21815 0.09793
#
# Static dielectric constant tensor:
#      x y z
#    x 1.809150 -0.045750 -0.057650 
#    y -0.045750 1.893350 0.015570 
#    z -0.057650 0.015570 1.784400 
# 
# From -- ./inp_files/69071.got.cif
#   From: 2010.05.17/outbox.ucp.g08.bks.cvg/sg2_35_cif.got.tgz:69071.got - 2010.06.11 11:32:03.
