data_PCOD9075322
_publ_section_title
;
Structure prediction by ZEFSAII (Michael W. Deem and Ramdas Pophale) SiO2 
 PCOD9075322
Probable space group: P -1
;
_chemical_formula_sum "Si O2"
_cell_formula_units_Z 14
_cell_length_a 21.000000
_cell_length_b 12.000000
_cell_length_c 15.000000
_cell_angle_alpha 140.000000
_cell_angle_beta 20.000000
_cell_angle_gamma 150.000000
_cell_volume 620.704002
_symmetry_space_group_name_H-M "P -1"
_symmetry_group_IT_number 2
_symmetry_cell_setting 'triclinic'
loop_
_space_group_symop_operation_xyz
x,y,z
-x,-y,-z
loop_
_atom_site_type_symbol
_atom_site_label
_atom_site_fract_x
_atom_site_fract_y
_atom_site_fract_z
Si Si1 0.687692 0.450028 0.997150
Si Si2 0.290068 0.854160 0.912883
Si Si3 0.467398 0.814876 0.364698
Si Si4 0.950029 0.880391 0.817237
Si Si5 0.591325 0.687142 0.415666
Si Si6 0.939726 0.318609 0.710643
Si Si7 0.891131 0.919654 0.461481
O O1 0.663334 0.600317 0.188553
O O2 0.396116 0.249920 0.232379
O O3 0.861956 0.630482 0.799531
O O4 0.817867 0.365627 0.822728
O O5 0.382061 0.708475 0.680221
O O6 0.472763 0.081403 0.750900
O O7 0.277912 0.830511 0.020376
O O8 0.033051 0.818881 0.216925
O O9 0.187219 0.565042 0.576922
O O10 0.500000 0.000000 0.500000
O O11 0.688169 0.822923 0.112132
O O12 0.100508 0.016215 0.612854
O O13 0.150703 0.062254 0.739280
O O14 0.500000 0.500000 0.500000
O O15 0.017158 0.167274 0.493543
#
# Coordination Sequence:
#
# PCOD9075322 Si02
#       7
#     2   2   2   2   2   2   2
#     4  12  24  42  70  98 135 172 222 275 331 391
#     4  11  25  43  69  94 135 173 217 275 331 385
#     4  11  25  43  68 101 133 170 221 273 332 391
#     4  11  24  43  65  98 133 172 221 277 327 389
#     4  12  22  43  69  98 133 168 222 276 337 384
#     4  12  25  44  68  97 135 178 220 268 326 397
#     4  11  26  44  65  98 133 179 225 264 327 396
#
# _framework density 22.555033999999999
#
# number of rings (size 3 to 8) (size 9 to 14) (size 15 to 20)
#    0.000    0.571    2.857    4.714    0.000    5.143 
#    0.000    0.000    0.000    0.000    0.000    0.000 
#    0.000    0.000    0.000    0.000    0.000    0.000 
#
# Total GULP energy -78088.845169 kJ/mol
# GULP energy per Si atom -5577.774655 kJ/mol
# Density = 2.250370 g / cm^3
# Si number density = 22.555034 Si / 1000 Ang^3
#
#
#
# Elastic Constant Matrix: (Units=GPa)
#
#
# Indices 1 2 3 4 5 6 
#
# 1 68.6079 37.7356 4.9565 -6.0633 -12.9942 -34.3009
# 2 37.7356 115.6088 35.8601 -8.2852 -17.8552 -7.3889
# 3 4.9565 35.8601 75.3500 3.4326 -27.5616 -5.7646
# 4 -6.0633 -8.2852 3.4326 45.2590 -7.3889 -1.2166
# 5 -12.9942 -17.8552 -27.5616 -7.3889 46.8389 0.4217
# 6 -34.3009 -7.3889 -5.7646 -1.2166 0.4217 59.1986
#
#
#
# Elastic Compliance Matrix: (Units=1/GPa)
#
#
# Indices 1 2 3 4 5 6 
#
# 1 0.029344 -0.008939 0.006770 0.003721 0.009154 0.016557
# 2 -0.008939 0.013263 -0.006455 0.001453 -0.000956 -0.004116
# 3 0.006770 -0.006455 0.020459 0.000176 0.011439 0.005031
# 4 0.003721 0.001453 0.000176 0.023807 0.005420 0.002805
# 5 0.009154 -0.000956 0.011439 0.005420 0.031055 0.006189
# 6 0.016557 -0.004116 0.005031 0.002805 0.006189 0.026476
#
#
# Mechanical properties :
#
#
# Convention : Reuss Voigt Hill
#
# Bulk Modulus (GPa) = 21.82581 46.29679 34.06130
# Shear Modulus (GPa) = 28.26066 42.32695 35.29381
#
# Velocity S-wave (km/s) = 3.54356 4.33668 3.96003
# Velocity P-wave (km/s) = 5.14200 6.75622 6.00361
#
# Compressibility (1/GPa) = 0.04581732
#
# Stress axis : x y z
#
# Youngs Moduli (GPa) = 34.07897 75.39567 48.87823
#
# Poissons Ratio (x) = 0.67397 -0.33089
# Poissons Ratio (y) = 0.30464 0.31551
# Poissons Ratio (z) = -0.23071 0.48667
#
# Static dielectric constant tensor:
#      x y z
#    x 1.905610 0.020790 0.052770 
#    y 0.020790 1.871730 0.018320 
#    z 0.052770 0.018320 1.841140 
# 
# From -- ./inp_files/380868.got.cif
#   From: 2010.05.17/outbox.ucp.g08.bks.cvg/sg2_191_cif.got.tgz:380868.got - 2010.06.11 11:32:03.
