data_PCOD9075751
_publ_section_title
;
Structure prediction by ZEFSAII (Michael W. Deem and Ramdas Pophale) SiO2 
 PCOD9075751
Probable space group: P -1
;
_chemical_formula_sum "Si O2"
_cell_formula_units_Z 14
_cell_length_a 14.164150
_cell_length_b 14.860400
_cell_length_c 14.453584
_cell_angle_alpha 150.400223
_cell_angle_beta 153.868888
_cell_angle_gamma 32.688340
_cell_volume 635.277194
_symmetry_space_group_name_H-M "P -1"
_symmetry_group_IT_number 2
_symmetry_cell_setting 'triclinic'
loop_
_space_group_symop_operation_xyz
x,y,z
-x,-y,-z
loop_
_atom_site_type_symbol
_atom_site_label
_atom_site_fract_x
_atom_site_fract_y
_atom_site_fract_z
Si Si1 0.289519 0.706467 0.906575
Si Si2 0.787253 0.618188 0.332032
Si Si3 0.612308 0.381014 0.288585
Si Si4 0.750996 0.945564 0.712568
Si Si5 0.891448 0.390431 0.923944
Si Si6 0.861627 0.684767 0.750701
Si Si7 0.245361 0.627121 0.404055
O O1 0.255524 0.505709 0.729233
O O2 0.281243 0.727449 0.807425
O O3 0.552832 0.687677 0.137687
O O4 0.190105 0.860371 0.038484
O O5 0.870028 0.790094 0.600852
O O6 0.955192 0.480872 0.288947
O O7 0.342278 0.450830 0.115572
O O8 0.675749 0.581814 0.523980
O O9 0.725765 0.272245 0.383997
O O10 0.761568 0.848171 0.735118
O O11 0.500000 0.000000 0.500000
O O12 0.839188 0.283709 0.690783
O O13 0.003586 0.265418 0.998999
O O14 0.074525 0.502042 0.161336
O O15 0.500000 0.500000 0.500000
#
# Coordination Sequence:
#
# PCOD9075751 Si02
#       7
#     2   2   2   2   2   2   2
#     4  10  20  35  55  75 112 153 186 233 278 323
#     4  10  20  37  53  76 112 150 194 234 271 322
#     4  10  18  32  55  79 111 145 181 227 282 327
#     4  10  22  35  51  78 112 151 194 232 273 324
#     4   9  17  31  54  84 109 141 183 223 281 335
#     4  11  20  34  56  77 111 150 187 234 273 325
#     4   8  16  30  53  86 112 134 178 231 273 336
#
# _framework density 22.037624000000001
#
# number of rings (size 3 to 8) (size 9 to 14) (size 15 to 20)
#    0.000    2.286    2.857    0.429    0.000    0.571 
#    0.000    0.000    0.000    0.857    0.000   34.000 
#    0.000    0.000    0.000    0.000    0.000    0.000 
#
# Total GULP energy -77981.058742 kJ/mol
# GULP energy per Si atom -5570.075624 kJ/mol
# Density = 2.198747 g / cm^3
# Si number density = 22.037624 Si / 1000 Ang^3
#
#
#
# Elastic Constant Matrix: (Units=GPa)
#
#
# Indices 1 2 3 4 5 6 
#
# 1 114.6595 26.3666 45.6196 -19.2430 -32.1522 3.2909
# 2 26.3666 53.6188 21.5319 -19.9727 -23.3298 13.7941
# 3 45.6196 21.5319 112.3151 -16.1552 -19.3274 3.8539
# 4 -19.2430 -19.9727 -16.1552 33.4901 7.1012 -10.3080
# 5 -32.1522 -23.3298 -19.3274 7.1012 53.5490 -18.7670
# 6 3.2909 13.7941 3.8539 -10.3080 -18.7670 26.5775
#
#
#
# Elastic Compliance Matrix: (Units=1/GPa)
#
#
# Indices 1 2 3 4 5 6 
#
# 1 0.013371 -0.001559 -0.003158 0.005851 0.008096 0.007597
# 2 -0.001559 0.029489 -0.001613 0.012919 0.008183 -0.004090
# 3 -0.003158 -0.001613 0.011131 0.002820 0.001718 0.001921
# 4 0.005851 0.012919 0.002820 0.045339 0.010049 0.016842
# 5 0.008096 0.008183 0.001718 0.010049 0.034320 0.022633
# 6 0.007597 -0.004090 0.001921 0.016842 0.022633 0.061043
#
#
# Mechanical properties :
#
#
# Convention : Reuss Voigt Hill
#
# Bulk Modulus (GPa) = 24.19574 51.95882 38.07728
# Shear Modulus (GPa) = 22.61108 35.19500 28.90304
#
# Velocity S-wave (km/s) = 3.20663 4.00064 3.62544
# Velocity P-wave (km/s) = 4.97123 6.70586 5.90262
#
# Compressibility (1/GPa) = 0.04132959
#
# Stress axis : x y z
#
# Youngs Moduli (GPa) = 74.79152 33.91042 89.84153
#
# Poissons Ratio (x) = 0.05288 0.28370
# Poissons Ratio (y) = 0.11662 0.14495
# Poissons Ratio (z) = 0.23618 0.05471
#
# Static dielectric constant tensor:
#      x y z
#    x 1.877600 -0.026610 -0.014920 
#    y -0.026610 1.901760 -0.063980 
#    z -0.014920 -0.063980 1.863740 
# 
# From -- ./inp_files/534614.got.cif
#   From: 2010.05.17/outbox.cif.g08.bks.cpg/sg2_268_cif.got.tgz:534614.got - 2010.06.03 11:33:40.
