data_PCOD9075764
_publ_section_title
;
Structure prediction by ZEFSAII (Michael W. Deem and Ramdas Pophale) SiO2 
 PCOD9075764
Probable space group: P -1
;
_chemical_formula_sum "Si O2"
_cell_formula_units_Z 16
_cell_length_a 22.803239
_cell_length_b 13.689123
_cell_length_c 12.969702
_cell_angle_alpha 149.998827
_cell_angle_beta 151.213116
_cell_angle_gamma 21.360643
_cell_volume 680.891430
_symmetry_space_group_name_H-M "P -1"
_symmetry_group_IT_number 2
_symmetry_cell_setting 'triclinic'
loop_
_space_group_symop_operation_xyz
x,y,z
-x,-y,-z
loop_
_atom_site_type_symbol
_atom_site_label
_atom_site_fract_x
_atom_site_fract_y
_atom_site_fract_z
Si Si1 0.383969 0.457649 0.511725
Si Si2 0.775482 0.666417 0.571181
Si Si3 0.478162 0.741251 0.228291
Si Si4 0.394482 0.204589 0.922275
Si Si5 0.350678 0.694034 0.362141
Si Si6 0.889935 0.740342 0.396972
Si Si7 0.722639 0.962408 0.116867
Si Si8 0.951143 0.285379 0.696525
O O1 0.448009 0.342606 0.619485
O O2 0.554901 0.255925 0.519931
O O3 0.203454 0.541587 0.297713
O O4 0.330944 0.747682 0.689586
O O5 0.598829 0.747625 0.353338
O O6 0.868377 0.448437 0.609719
O O7 0.905760 0.520063 0.542439
O O8 0.713911 0.948814 0.773729
O O9 0.500000 0.500000 0.000000
O O10 0.334788 0.497827 0.112312
O O11 0.542433 0.048362 0.918163
O O12 0.215327 0.291482 0.724888
O O13 0.500000 0.000000 0.000000
O O14 0.500000 0.500000 0.500000
O O15 0.175476 0.977328 0.401724
O O16 0.814158 0.805689 0.223305
O O17 0.866674 0.803068 0.101739
O O18 0.000000 0.000000 0.500000
#
# Coordination Sequence:
#
# PCOD9075764 Si02
#       8
#     2   2   2   2   2   2   2   2
#     4   9  17  31  53  82 108 145 188 224 275 334
#     4   9  20  37  60  84 107 144 194 236 281 337
#     4  10  21  40  62  77 107 150 195 241 283 318
#     4   9  16  27  46  76 112 146 180 210 262 341
#     4  11  18  31  53  81 114 152 181 214 285 343
#     4  10  18  32  55  81 114 147 177 228 281 340
#     4   8  14  27  49  76 109 137 172 218 279 329
#     4   8  14  28  53  79 111 140 167 229 285 324
#
# _framework density 23.498607
#
# number of rings (size 3 to 8) (size 9 to 14) (size 15 to 20)
#    0.000    2.750    3.750    0.000    0.000    1.000 
#    0.000    8.125    0.000   12.000    0.000    0.000 
#    0.000    0.000    0.000    0.000    0.000    0.000 
#
# Total GULP energy -89207.738348 kJ/mol
# GULP energy per Si atom -5575.483647 kJ/mol
# Density = 2.344512 g / cm^3
# Si number density = 23.498607 Si / 1000 Ang^3
#
#
#
# Elastic Constant Matrix: (Units=GPa)
#
#
# Indices 1 2 3 4 5 6 
#
# 1 120.5374 56.9046 42.3353 -9.9035 24.7465 -40.5656
# 2 56.9046 124.4152 41.4401 25.4325 12.5914 -56.5801
# 3 42.3353 41.4401 57.8256 23.4676 24.7258 -11.9225
# 4 -9.9035 25.4325 23.4676 27.3960 -0.3709 -3.0153
# 5 24.7465 12.5914 24.7258 -0.3709 37.5285 -7.5215
# 6 -40.5656 -56.5801 -11.9225 -3.0153 -7.5215 56.3837
#
#
#
# Elastic Compliance Matrix: (Units=1/GPa)
#
#
# Indices 1 2 3 4 5 6 
#
# 1 0.040493 -0.011030 -0.057981 0.076152 0.018425 0.012334
# 2 -0.011030 0.024765 0.008433 -0.032436 -0.003609 0.016483
# 3 -0.057981 0.008433 0.133891 -0.146534 -0.058380 -0.020565
# 4 0.076152 -0.032436 -0.146534 0.221747 0.061676 0.011340
# 5 0.018425 -0.003609 -0.058380 0.061676 0.056407 0.008113
# 6 0.012334 0.016483 -0.020565 0.011340 0.008113 0.040490
#
#
# Mechanical properties :
#
#
# Convention : Reuss Voigt Hill
#
# Bulk Modulus (GPa) = 12.82193 64.90424 38.86308
# Shear Modulus (GPa) = 7.51940 35.06819 21.29379
#
# Velocity S-wave (km/s) = 1.79078 3.86729 3.01354
# Velocity P-wave (km/s) = 3.12156 6.90084 5.35564
#
# Compressibility (1/GPa) = 0.07799140
#
# Stress axis : x y z
#
# Youngs Moduli (GPa) = 24.69588 40.37884 7.46879
#
# Poissons Ratio (x) = 0.44539 0.43305
# Poissons Ratio (y) = 0.27240 -0.06298
# Poissons Ratio (z) = 1.43190 -0.34051
#
# Static dielectric constant tensor:
#      x y z
#    x 1.440690 -0.725510 -0.297780 
#    y -0.725510 0.987580 -0.446390 
#    z -0.297780 -0.446390 1.722740 
# 
# From -- ./inp_files/518049.got.cif
#   From: 2010.05.17/outbox.cif.g08.bks.cpg/sg2_260_cif.got.tgz:518049.got - 2010.06.03 11:33:40.
