data_PCOD9075025
_publ_section_title
;
Structure prediction by ZEFSAII (Michael W. Deem and Ramdas Pophale) SiO2 
 PCOD9075025
Probable space group: P -1
;
_chemical_formula_sum "Si O2"
_cell_formula_units_Z 16
_cell_length_a 9.000000
_cell_length_b 9.000000
_cell_length_c 12.000000
_cell_angle_alpha 100.000000
_cell_angle_beta 50.000000
_cell_angle_gamma 90.000000
_cell_volume 725.212580
_symmetry_space_group_name_H-M "P -1"
_symmetry_group_IT_number 2
_symmetry_cell_setting 'triclinic'
loop_
_space_group_symop_operation_xyz
x,y,z
-x,-y,-z
loop_
_atom_site_type_symbol
_atom_site_label
_atom_site_fract_x
_atom_site_fract_y
_atom_site_fract_z
Si Si1 0.995944 0.228909 0.761424
Si Si2 0.624550 0.307415 0.100083
Si Si3 0.948437 0.548870 0.407958
Si Si4 0.584265 0.955955 0.130320
Si Si5 0.467292 0.527179 0.390356
Si Si6 0.577990 0.848803 0.368308
Si Si7 0.874083 0.976823 0.666747
Si Si8 0.227583 0.281685 0.175581
O O1 0.973395 0.053737 0.730834
O O2 0.978001 0.303310 0.657345
O O3 0.215479 0.235861 0.695047
O O4 0.822301 0.303747 0.933646
O O5 0.614017 0.431568 0.219832
O O6 0.426234 0.344868 0.126051
O O7 0.617878 0.131405 0.118689
O O8 0.720049 0.558978 0.534804
O O9 0.000000 0.500000 0.500000
O O10 0.051143 0.417438 0.257060
O O11 0.621904 0.907891 0.232727
O O12 0.353279 0.946723 0.221725
O O13 0.708405 0.840051 0.969065
O O14 0.500000 0.500000 0.500000
O O15 0.446260 0.710755 0.404683
O O16 0.500000 0.000000 0.500000
O O17 0.850763 0.808048 0.694181
O O18 0.000000 0.000000 0.500000
#
# Coordination Sequence:
#
# PCOD9075025 Si02
#       8
#     2   2   2   2   2   2   2   2
#     4  12  26  46  69 104 141 190 232 288 350 414
#     4  11  24  47  74 102 151 179 231 297 347 414
#     4  12  27  44  73 105 141 185 238 286 352 418
#     4  11  24  45  72 105 139 188 230 292 353 411
#     4  12  27  49  69 101 145 189 225 293 353 410
#     4  12  29  47  72 105 140 184 241 286 352 421
#     4  11  22  40  72 101 138 179 239 291 345 406
#     4  11  23  45  69 111 140 182 235 295 351 407
#
# _framework density 22.062495999999999
#
# number of rings (size 3 to 8) (size 9 to 14) (size 15 to 20)
#    0.000    0.500    5.000    3.000    8.750    2.500 
#    0.000    0.000    0.000    0.000    0.000    0.000 
#    0.000    0.000    0.000    0.000    0.000    0.000 
#
# Total GULP energy -89269.622869 kJ/mol
# GULP energy per Si atom -5579.351429 kJ/mol
# Density = 2.201228 g / cm^3
# Si number density = 22.062496 Si / 1000 Ang^3
#
#
#
# Elastic Constant Matrix: (Units=GPa)
#
#
# Indices 1 2 3 4 5 6 
#
# 1 9.9292 -16.6398 5.6468 -12.6820 19.4663 6.5901
# 2 -16.6398 76.1125 44.7770 -0.0027 7.7325 13.3696
# 3 5.6468 44.7770 158.9087 0.2251 8.4344 8.9043
# 4 -12.6820 -0.0027 0.2251 45.6986 6.8655 8.2100
# 5 19.4663 7.7325 8.4344 6.8655 35.9086 -1.3403
# 6 6.5901 13.3696 8.9043 8.2100 -1.3403 23.5327
#
#
#
# Elastic Compliance Matrix: (Units=1/GPa)
#
#
# Indices 1 2 3 4 5 6 
#
# 1 -0.040433 -0.019341 0.003617 -0.021212 0.030412 0.030074
# 2 -0.019341 0.008412 -0.002533 -0.007895 0.010963 0.004974
# 3 0.003617 -0.002533 0.007251 0.002100 -0.003642 -0.003258
# 4 -0.021212 -0.007895 0.002100 0.013437 0.010343 0.005532
# 5 0.030412 0.010963 -0.003642 0.010343 0.007261 -0.016562
# 6 0.030074 0.004974 -0.003258 0.005532 -0.016562 0.029606
#
#
# Mechanical properties :
#
#
# Convention : Reuss Voigt Hill
#
# Bulk Modulus (GPa) = -16.31800 34.72426 9.20313
# Shear Modulus (GPa) = 120.13834 35.10574 77.62204
#
# Velocity S-wave (km/s) = 7.38728 3.99331 5.93794
# Velocity P-wave (km/s) = 8.08394 6.08566 7.15491
#
# Compressibility (1/GPa) = -0.06128203
#
# Stress axis : x y z
#
# Youngs Moduli (GPa) = -24.73225 118.87420 137.91433
#
# Poissons Ratio (x) = 2.29912 -0.49887
# Poissons Ratio (y) = -0.47834 0.34927
# Poissons Ratio (z) = 0.08946 0.30105
#
# Static dielectric constant tensor:
#      x y z
#    x 1.842890 -0.014640 -0.013110 
#    y -0.014640 1.779550 0.024310 
#    z -0.013110 0.024310 1.774490 
# 
# From -- ./inp_files/184406.got.cif
#   From: 2010.05.17/outbox.ucp.g08.bks.cvg/sg2_93_cif.got.tgz:184406.got - 2010.06.11 11:32:03.
