data_PCOD9075794
_publ_section_title
;
Structure prediction by ZEFSAII (Michael W. Deem and Ramdas Pophale) SiO2 
 PCOD9075794
Probable space group: P -1
;
_chemical_formula_sum "Si O2"
_cell_formula_units_Z 14
_cell_length_a 20.155595
_cell_length_b 12.582311
_cell_length_c 13.300219
_cell_angle_alpha 37.777985
_cell_angle_beta 156.189274
_cell_angle_gamma 154.736275
_cell_volume 567.618077
_symmetry_space_group_name_H-M "P -1"
_symmetry_group_IT_number 2
_symmetry_cell_setting 'triclinic'
loop_
_space_group_symop_operation_xyz
x,y,z
-x,-y,-z
loop_
_atom_site_type_symbol
_atom_site_label
_atom_site_fract_x
_atom_site_fract_y
_atom_site_fract_z
Si Si1 0.366461 0.740714 0.874380
Si Si2 0.431659 0.004243 0.241464
Si Si3 0.131468 0.822485 0.631162
Si Si4 0.016216 0.086734 0.347481
Si Si5 0.960288 0.388914 0.848718
Si Si6 0.412442 0.641484 0.411475
Si Si7 0.170692 0.270844 0.083987
O O1 0.211813 0.784863 0.669791
O O2 0.392590 0.764018 0.772981
O O3 0.263523 0.484626 0.971608
O O4 0.626846 0.968527 0.120654
O O5 0.289751 0.829898 0.278749
O O6 0.543705 0.899319 0.455051
O O7 0.206085 0.958373 0.940745
O O8 0.958852 0.557331 0.651272
O O9 0.025214 0.933401 0.396564
O O10 0.256634 0.387359 0.449541
O O11 0.000000 0.000000 0.500000
O O12 0.199284 0.589208 0.101084
O O13 0.037401 0.279106 0.976837
O O14 0.608102 0.672142 0.607208
O O15 0.000000 0.000000 0.000000
#
# Coordination Sequence:
#
# PCOD9075794 Si02
#       7
#     2   2   2   2   2   2   2
#     4  10  20  35  55  83 117 152 189 233 284 341
#     4  11  21  33  56  92 120 143 184 243 299 333
#     4  10  18  32  55  85 121 147 186 229 290 340
#     4  11  17  29  52  89 119 148 177 234 290 344
#     4  10  21  36  61  93 116 142 187 244 291 336
#     4  11  20  34  58  89 118 145 185 247 286 328
#     4  11  24  42  59  80 114 162 200 225 277 351
#
# _framework density 24.664473000000001
#
# number of rings (size 3 to 8) (size 9 to 14) (size 15 to 20)
#    0.000    1.429    4.286    3.000    0.000    2.286 
#    0.000    2.143    0.000    0.000    0.000    0.000 
#    0.000    0.000    0.000    0.000    0.000    0.000 
#
# Total GULP energy -77941.191531 kJ/mol
# GULP energy per Si atom -5567.227966 kJ/mol
# Density = 2.460834 g / cm^3
# Si number density = 24.664473 Si / 1000 Ang^3
#
#
#
# Elastic Constant Matrix: (Units=GPa)
#
#
# Indices 1 2 3 4 5 6 
#
# 1 42.0395 54.3104 30.9069 7.7527 54.2871 35.2250
# 2 54.3104 47.7747 45.2482 -44.1795 15.8616 22.5189
# 3 30.9069 45.2482 99.2070 -13.8122 16.8514 -29.2473
# 4 7.7527 -44.1795 -13.8122 28.1215 -10.6456 20.1518
# 5 54.2871 15.8616 16.8514 -10.6456 9.1347 -25.3751
# 6 35.2250 22.5189 -29.2473 20.1518 -25.3751 4.2460
#
#
#
# Elastic Compliance Matrix: (Units=1/GPa)
#
#
# Indices 1 2 3 4 5 6 
#
# 1 0.000123 0.003867 -0.002123 0.008067 0.012877 0.002521
# 2 0.003867 -0.001730 0.002505 -0.014160 -0.008325 0.011800
# 3 -0.002123 0.002505 0.011615 0.008446 -0.007666 -0.001565
# 4 0.008067 -0.014160 0.008446 0.006714 -0.004146 0.009707
# 5 0.012877 -0.008325 -0.007666 -0.004146 0.013424 -0.015582
# 6 0.002521 0.011800 -0.001565 0.009707 -0.015582 0.002049
#
#
# Mechanical properties :
#
#
# Convention : Reuss Voigt Hill
#
# Bulk Modulus (GPa) = 54.03188 49.99469 52.01329
# Shear Modulus (GPa) = 167.42217 12.20416 89.81317
#
# Velocity S-wave (km/s) = 8.24786 2.22684 6.04095
# Velocity P-wave (km/s) = 10.61402 5.18900 8.35413
#
# Compressibility (1/GPa) = 0.01850759
#
# Stress axis : x y z
#
# Youngs Moduli (GPa) = 8149.12100 -578.18031 86.09379
#
# Poissons Ratio (x) = 2.23591 0.18277
# Poissons Ratio (y) = -31.51388 -0.21570
# Poissons Ratio (z) = 17.30017 1.44857
#
# Static dielectric constant tensor:
#      x y z
#    x 1.879780 -0.131030 0.019330 
#    y -0.131030 2.050800 0.106340 
#    z 0.019330 0.106340 1.970400 
# 
# From -- ./inp_files/181434.got.cif
#   From: 2010.05.17/outbox.cif.g08.bks.cpg/sg2_91_cif.got.tgz:181434.got - 2010.06.03 11:33:40.
