data_PCOD9075765
_publ_section_title
;
Structure prediction by ZEFSAII (Michael W. Deem and Ramdas Pophale) SiO2 
 PCOD9075765
Probable space group: P -1
;
_chemical_formula_sum "Si O2"
_cell_formula_units_Z 12
_cell_length_a 10.898969
_cell_length_b 16.864199
_cell_length_c 11.783928
_cell_angle_alpha 35.807212
_cell_angle_beta 121.611309
_cell_angle_gamma 146.823191
_cell_volume 607.191667
_symmetry_space_group_name_H-M "P -1"
_symmetry_group_IT_number 2
_symmetry_cell_setting 'triclinic'
loop_
_space_group_symop_operation_xyz
x,y,z
-x,-y,-z
loop_
_atom_site_type_symbol
_atom_site_label
_atom_site_fract_x
_atom_site_fract_y
_atom_site_fract_z
Si Si1 0.187171 0.719986 0.990530
Si Si2 0.369237 0.755145 0.700374
Si Si3 0.695384 0.775155 0.755642
Si Si4 0.745593 0.407940 0.609678
Si Si5 0.759585 0.919491 0.357228
Si Si6 0.718110 0.191474 0.633511
O O1 0.249001 0.658842 0.188807
O O2 0.895308 0.471162 0.097730
O O3 0.186452 0.876604 0.849567
O O4 0.440875 0.907995 0.818030
O O5 0.583700 0.806905 0.744015
O O6 0.274045 0.688160 0.600133
O O7 0.500000 0.000000 0.500000
O O8 0.702571 0.827993 0.565304
O O9 0.500000 0.500000 0.000000
O O10 0.986843 0.956811 0.708343
O O11 0.494170 0.298312 0.588166
O O12 0.732736 0.275567 0.664573
O O13 0.022974 0.691692 0.394511
#
# Coordination Sequence:
#
# PCOD9075765 Si02
#       6
#     2   2   2   2   2   2
#     4  10  18  32  55  82 103 138 178 224 269 305
#     4  11  22  35  51  78 113 147 178 210 258 325
#     4  11  21  34  52  76 114 142 173 219 263 315
#     4   9  17  29  54  81 106 129 176 231 271 299
#     4  10  19  32  53  80 109 135 175 223 273 306
#     4   9  17  31  48  76 109 131 174 221 262 300
#
# _framework density 19.763119
#
# number of rings (size 3 to 8) (size 9 to 14) (size 15 to 20)
#    0.000    2.000    5.000    2.000    0.000    2.000 
#    0.000    0.000    0.000    4.000    0.000   15.167 
#    0.000    0.000    0.000    0.000    0.000    0.000 
#
# Total GULP energy -66810.687215 kJ/mol
# GULP energy per Si atom -5567.557268 kJ/mol
# Density = 1.971814 g / cm^3
# Si number density = 19.763119 Si / 1000 Ang^3
#
#
#
# Elastic Constant Matrix: (Units=GPa)
#
#
# Indices 1 2 3 4 5 6 
#
# 1 101.6483 61.7911 54.6688 -21.2175 -9.0680 50.9473
# 2 61.7911 90.2248 22.7805 -20.6447 -11.2321 55.5166
# 3 54.6688 22.7805 65.0539 -25.7912 -17.9298 24.6372
# 4 -21.2175 -20.6447 -25.7912 37.4848 6.1842 -12.2100
# 5 -9.0680 -11.2321 -17.9298 6.1842 35.6273 -8.8677
# 6 50.9473 55.5166 24.6372 -12.2100 -8.8677 51.6101
#
#
#
# Elastic Compliance Matrix: (Units=1/GPa)
#
#
# Indices 1 2 3 4 5 6 
#
# 1 0.035864 -0.014028 -0.027005 -0.007915 -0.010263 -0.011059
# 2 -0.014028 0.042484 0.018681 0.015384 0.007639 -0.035818
# 3 -0.027005 0.018681 0.048466 0.022811 0.017410 -0.008185
# 4 -0.007915 0.015384 0.022811 0.042752 0.004730 -0.008697
# 5 -0.010263 0.007639 0.017410 0.004730 0.036033 0.000913
# 6 -0.011059 -0.035818 -0.008185 -0.008697 0.000913 0.070828
#
#
# Mechanical properties :
#
#
# Convention : Reuss Voigt Hill
#
# Bulk Modulus (GPa) = 12.17878 59.48974 35.83426
# Shear Modulus (GPa) = 14.34716 32.79021 23.56868
#
# Velocity S-wave (km/s) = 2.69728 4.07770 3.45709
# Velocity P-wave (km/s) = 3.98449 7.23443 5.84008
#
# Compressibility (1/GPa) = 0.08211003
#
# Stress axis : x y z
#
# Youngs Moduli (GPa) = 27.88310 23.53830 20.63286
#
# Poissons Ratio (x) = 0.33019 0.55720
# Poissons Ratio (y) = 0.39113 -0.38544
# Poissons Ratio (z) = 0.75299 -0.43971
#
# Static dielectric constant tensor:
#      x y z
#    x 1.714660 0.041580 -0.041180 
#    y 0.041580 1.777590 -0.014590 
#    z -0.041180 -0.014590 1.717100 
# 
# From -- ./inp_files/246351.got.cif
#   From: 2010.05.17/outbox.cif.g08.bks.cpg/sg2_124_cif.got.tgz:246351.got - 2010.06.03 11:33:40.
