data_PCOD9075117
_publ_section_title
;
Structure prediction by ZEFSAII (Michael W. Deem and Ramdas Pophale) SiO2 
 PCOD9075117
Probable space group: P -1
;
_chemical_formula_sum "Si O2"
_cell_formula_units_Z 12
_cell_length_a 8.293282
_cell_length_b 19.233714
_cell_length_c 13.289464
_cell_angle_alpha 27.593282
_cell_angle_beta 32.828541
_cell_angle_gamma 47.095310
_cell_volume 514.758430
_symmetry_space_group_name_H-M "P -1"
_symmetry_group_IT_number 2
_symmetry_cell_setting 'triclinic'
loop_
_space_group_symop_operation_xyz
x,y,z
-x,-y,-z
loop_
_atom_site_type_symbol
_atom_site_label
_atom_site_fract_x
_atom_site_fract_y
_atom_site_fract_z
Si Si1 0.544042 0.453340 0.237391
Si Si2 0.146002 0.988026 0.220348
Si Si3 0.063402 0.284004 0.187093
Si Si4 0.768732 0.959850 0.265976
Si Si5 0.936169 0.261719 0.894799
Si Si6 0.221144 0.661006 0.920685
O O1 0.654280 0.461138 0.054398
O O2 0.769224 0.347487 0.297332
O O3 0.197956 0.359865 0.560385
O O4 0.642120 0.612409 0.043247
O O5 0.021037 0.893204 0.507142
O O6 0.945041 0.903398 0.339027
O O7 0.500000 0.000000 0.000000
O O8 0.091682 0.157721 0.020701
O O9 0.067248 0.320492 0.019899
O O10 0.472561 0.826480 0.565701
O O11 0.710882 0.122043 0.129788
O O12 0.000000 0.000000 0.000000
O O13 0.820712 0.364493 0.905991
#
# Coordination Sequence:
#
# PCOD9075117 Si02
#       6
#     2   2   2   2   2   2
#     4   9  18  35  54  72 107 139 173 205 254 307
#     4  10  18  32  53  81 104 130 174 214 258 301
#     4   9  18  35  52  74 109 133 173 213 251 307
#     4  10  18  33  55  77 105 135 169 218 255 302
#     4  10  20  30  59  75 103 134 176 212 253 306
#     4  10  18  34  53  79 100 138 176 206 256 309
#
# _framework density 23.311906
#
# number of rings (size 3 to 8) (size 9 to 14) (size 15 to 20)
#    2.000    0.333    3.333    1.500    0.000    1.333 
#    0.000    0.833    0.000    1.000    0.000    0.000 
#    0.000    0.000    0.000    0.000    0.000    0.000 
#
# Total GULP energy -66877.265379 kJ/mol
# GULP energy per Si atom -5573.105448 kJ/mol
# Density = 2.325885 g / cm^3
# Si number density = 23.311906 Si / 1000 Ang^3
#
#
#
# Elastic Constant Matrix: (Units=GPa)
#
#
# Indices 1 2 3 4 5 6 
#
# 1 93.5204 12.3722 -4.0505 -6.8446 -3.5647 20.8290
# 2 12.3722 74.1887 -10.3078 -2.6614 1.7918 9.8484
# 3 -4.0505 -10.3078 34.1266 -9.7452 -6.0537 0.6285
# 4 -6.8446 -2.6614 -9.7452 25.2265 5.9053 9.0570
# 5 -3.5647 1.7918 -6.0537 5.9053 40.4569 -6.8660
# 6 20.8290 9.8484 0.6285 9.0570 -6.8660 42.4702
#
#
#
# Elastic Compliance Matrix: (Units=1/GPa)
#
#
# Indices 1 2 3 4 5 6 
#
# 1 0.013360 -0.000239 0.003899 0.008359 -0.000888 -0.008481
# 2 -0.000239 0.015305 0.006161 0.006109 -0.001530 -0.005073
# 3 0.003899 0.006161 0.037332 0.018448 0.001682 -0.007556
# 4 0.008359 0.006109 0.018448 0.058804 -0.008706 -0.019737
# 5 -0.000888 -0.001530 0.001682 -0.008706 0.027427 0.007056
# 6 -0.008481 -0.005073 -0.007556 -0.019737 0.007056 0.034343
#
#
# Mechanical properties :
#
#
# Convention : Reuss Voigt Hill
#
# Bulk Modulus (GPa) = 11.67713 21.98485 16.83099
# Shear Modulus (GPa) = 25.57869 35.21886 30.39877
#
# Velocity S-wave (km/s) = 3.31605 3.89108 3.61501
# Velocity P-wave (km/s) = 4.43639 5.44413 4.96589
#
# Compressibility (1/GPa) = 0.08563752
#
# Stress axis : x y z
#
# Youngs Moduli (GPa) = 74.84991 65.34008 26.78683
#
# Poissons Ratio (x) = 0.01563 -0.10444
# Poissons Ratio (y) = 0.01791 -0.16503
# Poissons Ratio (z) = -0.29183 -0.40255
#
# Static dielectric constant tensor:
#      x y z
#    x 1.901030 -0.010570 -0.008710 
#    y -0.010570 2.005660 -0.002160 
#    z -0.008710 -0.002160 1.807910 
# 
# From -- ./inp_files/382181.got.cif
#   From: 2010.05.17/outbox.cif.g08.bks.cpg/sg2_192_cif.got.tgz:382181.got - 2010.06.03 11:33:40.
