data_PCOD9075873
_publ_section_title
;
Structure prediction by ZEFSAII (Michael W. Deem and Ramdas Pophale) SiO2 
 PCOD9075873
Probable space group: P -1
;
_chemical_formula_sum "Si O2"
_cell_formula_units_Z 12
_cell_length_a 8.499644
_cell_length_b 14.462728
_cell_length_c 9.076009
_cell_angle_alpha 89.110118
_cell_angle_beta 52.159968
_cell_angle_gamma 46.915941
_cell_volume 459.820147
_symmetry_space_group_name_H-M "P -1"
_symmetry_group_IT_number 2
_symmetry_cell_setting 'triclinic'
loop_
_space_group_symop_operation_xyz
x,y,z
-x,-y,-z
loop_
_atom_site_type_symbol
_atom_site_label
_atom_site_fract_x
_atom_site_fract_y
_atom_site_fract_z
Si Si1 0.141782 0.588286 0.272532
Si Si2 0.193379 0.798830 0.534209
Si Si3 0.000581 0.533564 0.828998
Si Si4 0.913633 0.940137 0.385703
Si Si5 0.765833 0.784191 0.775391
Si Si6 0.625663 0.007547 0.265469
O O1 0.093276 0.615455 0.476978
O O2 0.112234 0.498932 0.223713
O O3 0.743252 0.795974 0.452694
O O4 0.500000 0.500000 0.000000
O O5 0.546831 0.627481 0.434181
O O6 0.886875 0.840353 0.737148
O O7 0.215984 0.788831 0.340211
O O8 0.129863 0.932910 0.591117
O O9 0.768572 0.716893 0.914553
O O10 0.000000 0.500000 0.000000
O O11 0.534826 0.032924 0.653913
O O12 0.966035 0.887945 0.186671
O O13 0.387403 0.937501 0.885922
#
# Coordination Sequence:
#
# PCOD9075873 Si02
#       6
#     2   2   2   2   2   2
#     4  10  20  36  55  85 110 147 182 224 280 328
#     4  10  18  32  56  86 110 144 181 226 282 324
#     4  12  23  35  55  86 114 144 185 236 282 321
#     4   9  16  31  56  85 107 145 190 216 266 346
#     4   9  20  36  56  83 115 144 185 223 284 325
#     4   8  17  33  57  82 109 147 186 221 270 326
#
# _framework density 26.097161
#
# number of rings (size 3 to 8) (size 9 to 14) (size 15 to 20)
#    1.000    1.333    1.667    2.000    0.000    0.000 
#    0.000    0.000    0.000   10.000    8.667    0.000 
#    0.000    0.000    0.000    0.000    0.000    0.000 
#
# Total GULP energy -66937.666733 kJ/mol
# GULP energy per Si atom -5578.138894 kJ/mol
# Density = 2.603776 g / cm^3
# Si number density = 26.097161 Si / 1000 Ang^3
#
#
#
# Elastic Constant Matrix: (Units=GPa)
#
#
# Indices 1 2 3 4 5 6 
#
# 1 165.0563 64.3970 38.5787 -15.7903 2.7303 3.3035
# 2 64.3970 125.0935 32.3446 -52.5590 11.9946 -8.6668
# 3 38.5787 32.3446 89.7045 -19.0462 7.8780 6.3017
# 4 -15.7903 -52.5590 -19.0462 49.9576 3.6167 2.3811
# 5 2.7303 11.9946 7.8780 3.6167 31.5400 -2.4443
# 6 3.3035 -8.6668 6.3017 2.3811 -2.4443 54.0385
#
#
#
# Elastic Compliance Matrix: (Units=1/GPa)
#
#
# Indices 1 2 3 4 5 6 
#
# 1 0.008570 -0.006085 -0.002711 -0.004885 0.002744 -0.000844
# 2 -0.006085 0.020852 0.000167 0.020663 -0.009632 0.002351
# 3 -0.002711 0.000167 0.013780 0.004947 -0.003978 -0.001812
# 4 -0.004885 0.020663 0.004947 0.043055 -0.013567 0.000525
# 5 0.002744 -0.009632 -0.003978 -0.013567 0.037763 0.001057
# 6 -0.000844 0.002351 -0.001812 0.000525 0.001057 0.019170
#
#
# Mechanical properties :
#
#
# Convention : Reuss Voigt Hill
#
# Bulk Modulus (GPa) = 38.54466 72.27722 55.41094
# Shear Modulus (GPa) = 29.56893 43.40948 36.48921
#
# Velocity S-wave (km/s) = 3.36971 4.08288 3.74332
# Velocity P-wave (km/s) = 5.47190 7.06980 6.32154
#
# Compressibility (1/GPa) = 0.02594393
#
# Stress axis : x y z
#
# Youngs Moduli (GPa) = 116.68049 47.95789 72.56699
#
# Poissons Ratio (x) = 0.29183 0.19670
# Poissons Ratio (y) = 0.71002 -0.01208
# Poissons Ratio (z) = 0.31627 -0.00799
#
# Static dielectric constant tensor:
#      x y z
#    x 2.059850 -0.022690 0.018170 
#    y -0.022690 2.046440 0.039690 
#    z 0.018170 0.039690 2.216180 
# 
# From -- ./inp_files/72675.got.cif
#   From: 2010.05.17/outbox.cif.g08.bks.cpg/sg2_37_cif.got.tgz:72675.got - 2010.06.03 11:33:40.
