data_PCOD9075334
_publ_section_title
;
Structure prediction by ZEFSAII (Michael W. Deem and Ramdas Pophale) SiO2 
 PCOD9075334
Probable space group: P -1
;
_chemical_formula_sum "Si O2"
_cell_formula_units_Z 16
_cell_length_a 15.000000
_cell_length_b 12.000000
_cell_length_c 18.000000
_cell_angle_alpha 130.000000
_cell_angle_beta 150.000000
_cell_angle_gamma 30.000000
_cell_volume 731.734496
_symmetry_space_group_name_H-M "P -1"
_symmetry_group_IT_number 2
_symmetry_cell_setting 'triclinic'
loop_
_space_group_symop_operation_xyz
x,y,z
-x,-y,-z
loop_
_atom_site_type_symbol
_atom_site_label
_atom_site_fract_x
_atom_site_fract_y
_atom_site_fract_z
Si Si1 0.202857 0.444410 0.942111
Si Si2 0.605562 0.645430 0.586250
Si Si3 0.952547 0.926966 0.007028
Si Si4 0.261794 0.770779 0.533875
Si Si5 0.730533 0.030997 0.663467
Si Si6 0.869685 0.627395 0.541477
Si Si7 0.343062 0.285724 0.130929
Si Si8 0.402223 0.179932 0.820817
O O1 0.366456 0.304521 0.921999
O O2 0.884182 0.568076 0.772045
O O3 0.126563 0.663227 0.997969
O O4 0.395761 0.252422 0.066901
O O5 0.346523 0.795483 0.527300
O O6 0.743989 0.395200 0.560354
O O7 0.455050 0.812924 0.477340
O O8 0.090518 0.942123 0.175578
O O9 0.000000 0.000000 0.000000
O O10 0.631586 0.088179 0.882615
O O11 0.556186 0.622496 0.728960
O O12 0.000000 0.000000 0.500000
O O13 0.487999 0.159323 0.609921
O O14 0.919266 0.760921 0.663739
O O15 0.000000 0.500000 0.500000
O O16 0.066224 0.396454 0.637829
O O17 0.505285 0.041604 0.180856
O O18 0.000000 0.500000 0.000000
#
# Coordination Sequence:
#
# PCOD9075334 Si02
#       8
#     2   2   2   2   2   2   2   2
#     4  12  25  47  74 104 146 193 238 293 365 422
#     4  11  24  43  73  99 147 182 230 299 349 415
#     4  12  27  45  74 104 150 189 237 303 357 417
#     4  11  25  42  68 107 140 181 237 287 351 424
#     4  11  26  46  70 103 141 182 236 292 354 415
#     4  11  26  44  74 103 138 186 237 288 358 423
#     4  12  24  46  75 102 146 193 234 294 368 424
#     4  12  26  45  74 107 142 188 245 292 353 438
#
# _framework density 21.865853999999999
#
# number of rings (size 3 to 8) (size 9 to 14) (size 15 to 20)
#    0.000    0.500    3.750    3.375    5.250    4.000 
#    0.000    0.000    0.000    0.000    0.000    0.000 
#    0.000    0.000    0.000    0.000    0.000    0.000 
#
# Total GULP energy -89348.528586 kJ/mol
# GULP energy per Si atom -5584.283037 kJ/mol
# Density = 2.181609 g / cm^3
# Si number density = 21.865854 Si / 1000 Ang^3
#
#
#
# Elastic Constant Matrix: (Units=GPa)
#
#
# Indices 1 2 3 4 5 6 
#
# 1 143.6007 47.6958 3.4533 -3.0772 -7.3274 -15.9498
# 2 47.6958 164.4765 25.3501 12.1888 2.9309 -4.9919
# 3 3.4533 25.3501 62.1862 20.0201 -0.8245 14.6836
# 4 -3.0772 12.1888 20.0201 33.3343 3.6614 1.5555
# 5 -7.3274 2.9309 -0.8245 3.6614 39.6407 0.7511
# 6 -15.9498 -4.9919 14.6836 1.5555 0.7511 55.9015
#
#
#
# Elastic Compliance Matrix: (Units=1/GPa)
#
#
# Indices 1 2 3 4 5 6 
#
# 1 0.008110 -0.002355 -0.000518 0.001658 0.001468 0.002174
# 2 -0.002355 0.007298 -0.002627 -0.001240 -0.000929 0.000717
# 3 -0.000518 -0.002627 0.022695 -0.012640 0.001852 -0.006017
# 4 0.001658 -0.001240 -0.012640 0.038454 -0.003467 0.002659
# 5 0.001468 -0.000929 0.001852 -0.003467 0.025933 -0.000402
# 6 0.002174 0.000717 -0.006017 0.002659 -0.000402 0.020085
#
#
# Mechanical properties :
#
#
# Convention : Reuss Voigt Hill
#
# Bulk Modulus (GPa) = 36.89536 58.14019 47.51777
# Shear Modulus (GPa) = 35.06104 45.35959 40.21031
#
# Velocity S-wave (km/s) = 4.00867 4.55955 4.29296
# Velocity P-wave (km/s) = 6.19161 7.37337 6.80818
#
# Compressibility (1/GPa) = 0.02710368
#
# Stress axis : x y z
#
# Youngs Moduli (GPa) = 123.29922 137.02692 44.06290
#
# Poissons Ratio (x) = 0.32271 0.02283
# Poissons Ratio (y) = 0.29038 0.11573
# Poissons Ratio (z) = 0.06387 0.35990
#
# Static dielectric constant tensor:
#      x y z
#    x 1.961120 -0.115950 -0.090510 
#    y -0.115950 1.863900 0.041570 
#    z -0.090510 0.041570 1.877900 
# 
# From -- ./inp_files/573629.got.cif
#   From: 2010.05.17/outbox.ucp.g08.bks.cvg/sg2_287_cif.got.tgz:573629.got - 2010.06.11 11:32:03.
