data_PCOD9075773
_publ_section_title
;
Structure prediction by ZEFSAII (Michael W. Deem and Ramdas Pophale) SiO2 
 PCOD9075773
Probable space group: P -1
;
_chemical_formula_sum "Si O2"
_cell_formula_units_Z 16
_cell_length_a 12.616574
_cell_length_b 9.778404
_cell_length_c 13.383336
_cell_angle_alpha 52.935040
_cell_angle_beta 43.987029
_cell_angle_gamma 33.278878
_cell_volume 629.198383
_symmetry_space_group_name_H-M "P -1"
_symmetry_group_IT_number 2
_symmetry_cell_setting 'triclinic'
loop_
_space_group_symop_operation_xyz
x,y,z
-x,-y,-z
loop_
_atom_site_type_symbol
_atom_site_label
_atom_site_fract_x
_atom_site_fract_y
_atom_site_fract_z
Si Si1 0.360479 0.196514 0.858364
Si Si2 0.699080 0.471704 0.859878
Si Si3 0.022850 0.187451 0.370042
Si Si4 0.409867 0.002135 0.720822
Si Si5 0.076277 0.623490 0.434180
Si Si6 0.596959 0.339537 0.627727
Si Si7 0.782688 0.636439 0.903829
Si Si8 0.448039 0.802805 0.593730
O O1 0.464468 0.285272 0.703259
O O2 0.264931 0.170802 0.840752
O O3 0.552823 0.917494 0.898078
O O4 0.226081 0.370029 0.968612
O O5 0.583994 0.730947 0.772571
O O6 0.877812 0.290216 0.730146
O O7 0.795121 0.456751 0.907088
O O8 0.500000 0.500000 0.000000
O O9 0.039002 0.365589 0.244014
O O10 0.061458 0.178621 0.468531
O O11 0.786926 0.292661 0.462133
O O12 0.225096 0.907680 0.311951
O O13 0.307391 0.988334 0.700957
O O14 0.534730 0.064829 0.559954
O O15 0.303649 0.406614 0.436217
O O16 0.000000 0.500000 0.500000
O O17 0.426229 0.623705 0.655530
#
# Coordination Sequence:
#
# PCOD9075773 Si02
#       8
#     2   2   2   2   2   2   2   2
#     4   9  18  30  50  73 107 135 176 213 267 310
#     4  10  20  31  54  84 108 134 182 223 266 315
#     4   9  17  31  48  76 109 133 171 219 270 306
#     4   9  19  36  50  77 109 145 172 219 272 323
#     4  10  18  32  55  83 103 138 176 220 266 317
#     4   9  18  30  51  77 100 135 174 223 253 313
#     4   9  17  30  47  74 107 142 163 220 272 310
#     4   9  19  33  55  75 107 143 177 218 269 317
#
# _framework density 25.429179999999999
#
# number of rings (size 3 to 8) (size 9 to 14) (size 15 to 20)
#    0.000    2.750    1.250    0.000    7.000    0.500 
#    2.250    0.000    0.000    3.750    0.000    0.000 
#    0.000    0.000    0.000    0.000    0.000    0.000 
#
# Total GULP energy -89132.947725 kJ/mol
# GULP energy per Si atom -5570.809233 kJ/mol
# Density = 2.537130 g / cm^3
# Si number density = 25.429180 Si / 1000 Ang^3
#
#
#
# Elastic Constant Matrix: (Units=GPa)
#
#
# Indices 1 2 3 4 5 6 
#
# 1 56.0468 27.5601 45.5400 2.9500 7.6971 18.3345
# 2 27.5601 95.0802 38.2268 17.1797 20.7566 23.4927
# 3 45.5400 38.2268 118.8998 27.0468 11.5984 25.1567
# 4 2.9500 17.1797 27.0468 24.0628 3.9907 5.2055
# 5 7.6971 20.7566 11.5984 3.9907 39.9975 -1.9692
# 6 18.3345 23.4927 25.1567 5.2055 -1.9692 37.7103
#
#
#
# Elastic Compliance Matrix: (Units=1/GPa)
#
#
# Indices 1 2 3 4 5 6 
#
# 1 0.032166 -0.005127 -0.012766 0.015685 -0.001697 -0.006182
# 2 -0.005127 0.016886 0.001151 -0.009778 -0.007520 -0.007837
# 3 -0.012766 0.001151 0.018201 -0.018514 -0.001778 -0.004190
# 4 0.015685 -0.009778 -0.018514 0.066939 0.000826 0.001619
# 5 -0.001697 -0.007520 -0.001778 0.000826 0.030065 0.008152
# 6 -0.006182 -0.007837 -0.004190 0.001619 0.008152 0.037403
#
#
# Mechanical properties :
#
#
# Convention : Reuss Voigt Hill
#
# Bulk Modulus (GPa) = 29.61316 54.74230 42.17773
# Shear Modulus (GPa) = 20.29208 30.93411 25.61310
#
# Velocity S-wave (km/s) = 2.82793 3.49159 3.17714
# Velocity P-wave (km/s) = 4.72583 6.15053 5.48464
#
# Compressibility (1/GPa) = 0.03376877
#
# Stress axis : x y z
#
# Youngs Moduli (GPa) = 31.08855 59.22106 54.94143
#
# Poissons Ratio (x) = 0.30365 0.70138
# Poissons Ratio (y) = 0.15940 -0.06324
# Poissons Ratio (z) = 0.39688 -0.06817
#
# Static dielectric constant tensor:
#      x y z
#    x 2.044820 -0.057000 0.005840 
#    y -0.057000 2.238190 0.134080 
#    z 0.005840 0.134080 2.055290 
# 
# From -- ./inp_files/444163.got.cif
#   From: 2010.05.17/outbox.cif.g08.bks.cpg/sg2_223_cif.got.tgz:444163.got - 2010.06.03 11:33:40.
