data_PCOD9075032
_publ_section_title
;
Structure prediction by ZEFSAII (Michael W. Deem and Ramdas Pophale) SiO2 
 PCOD9075032
Probable space group: P -1
;
_chemical_formula_sum "Si O2"
_cell_formula_units_Z 16
_cell_length_a 9.000000
_cell_length_b 9.000000
_cell_length_c 12.000000
_cell_angle_alpha 110.000000
_cell_angle_beta 60.000000
_cell_angle_gamma 120.000000
_cell_volume 723.492119
_symmetry_space_group_name_H-M "P -1"
_symmetry_group_IT_number 2
_symmetry_cell_setting 'triclinic'
loop_
_space_group_symop_operation_xyz
x,y,z
-x,-y,-z
loop_
_atom_site_type_symbol
_atom_site_label
_atom_site_fract_x
_atom_site_fract_y
_atom_site_fract_z
Si Si1 0.929607 0.702443 0.084570
Si Si2 0.044352 0.550877 0.803484
Si Si3 0.342679 0.289761 0.316971
Si Si4 0.994184 0.353126 0.548540
Si Si5 0.303092 0.976825 0.120086
Si Si6 0.421583 0.789002 0.601140
Si Si7 0.634362 0.134606 0.688166
Si Si8 0.550473 0.675697 0.291497
O O1 0.900128 0.544871 0.140691
O O2 0.766516 0.762219 0.197231
O O3 0.132848 0.848986 0.077374
O O4 0.931059 0.641195 0.939967
O O5 0.965731 0.410187 0.698297
O O6 0.218118 0.684252 0.702207
O O7 0.174976 0.319076 0.447165
O O8 0.437834 0.227806 0.363665
O O9 0.492071 0.472280 0.267679
O O10 0.284647 0.155004 0.202772
O O11 0.000000 0.500000 0.500000
O O12 0.813403 0.177974 0.553050
O O13 0.316960 0.906256 0.219251
O O14 0.500000 0.000000 0.000000
O O15 0.478396 0.725403 0.448430
O O16 0.463941 0.988652 0.649363
O O17 0.575043 0.293590 0.749117
#
# Coordination Sequence:
#
# PCOD9075032 Si02
#       8
#     2   2   2   2   2   2   2   2
#     4  11  24  41  71  97 133 177 233 268 338 408
#     4  11  22  43  68  96 131 185 222 278 331 417
#     4  11  23  39  70  98 132 179 232 276 333 405
#     4  12  23  42  66 103 138 176 225 284 344 399
#     4  11  26  48  68  96 138 181 227 278 341 414
#     4  11  22  41  67  95 141 178 228 278 342 402
#     4  11  25  41  67  97 142 176 221 287 350 390
#     4  12  23  42  65 107 131 178 228 288 336 408
#
# _framework density 22.114961000000001
#
# number of rings (size 3 to 8) (size 9 to 14) (size 15 to 20)
#    0.000    0.750    5.000    3.000    3.500    1.000 
#    2.250    2.500    0.000    0.000    0.000    0.000 
#    0.000    0.000    0.000    0.000    0.000    0.000 
#
# Total GULP energy -89159.856914 kJ/mol
# GULP energy per Si atom -5572.491057 kJ/mol
# Density = 2.206463 g / cm^3
# Si number density = 22.114961 Si / 1000 Ang^3
#
#
#
# Elastic Constant Matrix: (Units=GPa)
#
#
# Indices 1 2 3 4 5 6 
#
# 1 39.7284 13.4483 21.1706 -8.9241 -21.4457 9.0123
# 2 13.4483 64.4521 59.3926 -14.0434 -1.5096 23.2532
# 3 21.1706 59.3926 118.4324 12.2470 -22.7007 11.4797
# 4 -8.9241 -14.0434 12.2470 24.8099 16.0524 -6.7918
# 5 -21.4457 -1.5096 -22.7007 16.0524 22.3829 -10.5295
# 6 9.0123 23.2532 11.4797 -6.7918 -10.5295 30.6970
#
#
#
# Elastic Compliance Matrix: (Units=1/GPa)
#
#
# Indices 1 2 3 4 5 6 
#
# 1 0.037525 0.011227 -0.012491 0.020005 0.005714 -0.008464
# 2 0.011227 -0.001964 0.009721 -0.028376 0.042116 0.002725
# 3 -0.012491 0.009721 -0.000611 0.017395 -0.028890 -0.009529
# 4 0.020005 -0.028376 0.017395 -0.000923 0.047398 0.025170
# 5 0.005714 0.042116 -0.028890 0.047398 -0.019177 -0.018867
# 6 -0.008464 0.002725 -0.009529 0.025170 -0.018867 0.035658
#
#
# Mechanical properties :
#
#
# Convention : Reuss Voigt Hill
#
# Bulk Modulus (GPa) = 19.28151 45.62622 32.45386
# Shear Modulus (GPa) = 98.26853 24.15139 61.20996
#
# Velocity S-wave (km/s) = 6.67321 3.30825 5.26670
# Velocity P-wave (km/s) = 8.25308 5.93876 7.18966
#
# Compressibility (1/GPa) = 0.05186316
#
# Stress axis : x y z
#
# Youngs Moduli (GPa) = 26.64906 -509.08628 -1636.17481
#
# Poissons Ratio (x) = 5.71559 -20.43769
# Poissons Ratio (y) = -0.29919 15.90513
# Poissons Ratio (z) = 0.33288 4.94879
#
# Static dielectric constant tensor:
#      x y z
#    x 1.825480 0.051070 -0.070040 
#    y 0.051070 2.009090 -0.038780 
#    z -0.070040 -0.038780 1.699220 
# 
# From -- ./inp_files/209311.got.cif
#   From: 2010.05.17/outbox.ucp.g08.bks.cvg/sg2_105_cif.got.tgz:209311.got - 2010.06.11 11:32:03.
