data_PCOD9075020
_publ_section_title
;
Structure prediction by ZEFSAII (Michael W. Deem and Ramdas Pophale) SiO2 
 PCOD9075020
Probable space group: P -1
;
_chemical_formula_sum "Si O2"
_cell_formula_units_Z 16
_cell_length_a 9.000000
_cell_length_b 18.000000
_cell_length_c 6.000000
_cell_angle_alpha 50.000000
_cell_angle_beta 100.000000
_cell_angle_gamma 100.000000
_cell_volume 730.800219
_symmetry_space_group_name_H-M "P -1"
_symmetry_group_IT_number 2
_symmetry_cell_setting 'triclinic'
loop_
_space_group_symop_operation_xyz
x,y,z
-x,-y,-z
loop_
_atom_site_type_symbol
_atom_site_label
_atom_site_fract_x
_atom_site_fract_y
_atom_site_fract_z
Si Si1 0.162893 0.717148 0.430581
Si Si2 0.453504 0.953757 0.331131
Si Si3 0.107666 0.977684 0.271245
Si Si4 0.038269 0.402706 0.083474
Si Si5 0.777575 0.419552 0.655017
Si Si6 0.266404 0.366304 0.904900
Si Si7 0.043131 0.169870 0.138379
Si Si8 0.570053 0.267962 0.194341
O O1 0.201367 0.617187 0.516306
O O2 0.314195 0.742613 0.554045
O O3 0.025776 0.688771 0.616327
O O4 0.102310 0.796460 0.099101
O O5 0.272411 0.954934 0.280509
O O6 0.498406 0.844218 0.606783
O O7 0.500000 0.000000 0.500000
O O8 0.500000 0.000000 0.000000
O O9 0.028827 0.883198 0.558990
O O10 0.117811 0.078529 0.221214
O O11 0.000000 0.000000 0.000000
O O12 0.208328 0.395681 0.075481
O O13 0.000000 0.500000 0.000000
O O14 0.941421 0.407737 0.824584
O O15 0.738738 0.532691 0.434707
O O16 0.670476 0.332261 0.911558
O O17 0.156926 0.268750 0.996622
O O18 0.430998 0.333158 0.044780
#
# Coordination Sequence:
#
# PCOD9075020 Si02
#       8
#     2   2   2   2   2   2   2   2
#     4  11  23  44  69  98 142 192 228 296 371 447
#     4  12  30  52  80 111 156 201 253 317 391 455
#     4  11  27  48  76 107 144 190 252 320 380 445
#     4  11  22  40  68 102 137 185 241 293 358 430
#     4  11  23  46  68  99 147 190 235 295 372 444
#     4  12  24  45  70 104 143 186 245 300 358 449
#     4  11  25  44  76 104 143 187 251 304 375 444
#     4  11  28  45  71 105 145 191 244 301 376 444
#
# _framework density 21.893808
#
# number of rings (size 3 to 8) (size 9 to 14) (size 15 to 20)
#    0.000    0.750    2.500    3.750   12.250    0.500 
#    4.500    0.000    0.000    0.000    0.000    0.000 
#    0.000    0.000    0.000    0.000    0.000    0.000 
#
# Total GULP energy -89077.933334 kJ/mol
# GULP energy per Si atom -5567.370833 kJ/mol
# Density = 2.184398 g / cm^3
# Si number density = 21.893808 Si / 1000 Ang^3
#
#
#
# Elastic Constant Matrix: (Units=GPa)
#
#
# Indices 1 2 3 4 5 6 
#
# 1 107.6680 5.2035 41.8840 2.9610 3.6778 -21.7921
# 2 5.2035 73.3094 37.7510 -14.4473 -26.1302 -19.4328
# 3 41.8840 37.7510 169.6096 -23.9186 8.4050 3.1956
# 4 2.9610 -14.4473 -23.9186 39.1239 0.8012 10.9420
# 5 3.6778 -26.1302 8.4050 0.8012 22.3844 -14.6100
# 6 -21.7921 -19.4328 3.1956 10.9420 -14.6100 18.3375
#
#
#
# Elastic Compliance Matrix: (Units=1/GPa)
#
#
# Indices 1 2 3 4 5 6 
#
# 1 0.009133 -0.006685 -0.000274 -0.001608 -0.012555 -0.005226
# 2 -0.006685 0.001818 0.004088 0.011222 -0.015582 -0.025841
# 3 -0.000274 0.004088 0.004559 0.001266 0.009716 0.010198
# 4 -0.001608 0.011222 0.001266 0.029320 0.014150 0.003540
# 5 -0.012555 -0.015582 0.009716 0.014150 -0.005707 -0.046116
# 6 -0.005226 -0.025841 0.010198 0.003540 -0.046116 -0.019694
#
#
# Mechanical properties :
#
#
# Convention : Reuss Voigt Hill
#
# Bulk Modulus (GPa) = 102.37278 57.80708 80.08993
# Shear Modulus (GPa) = 175.90444 33.68572 104.79508
#
# Velocity S-wave (km/s) = 8.97323 3.92675 6.92597
# Velocity P-wave (km/s) = 12.41848 6.85710 10.03092
#
# Compressibility (1/GPa) = 0.00976822
#
# Stress axis : x y z
#
# Youngs Moduli (GPa) = 109.49877 550.05329 219.36783
#
# Poissons Ratio (x) = 3.67690 0.06000
# Poissons Ratio (y) = 0.73196 -0.89672
# Poissons Ratio (z) = 0.02995 -2.24847
#
# Static dielectric constant tensor:
#      x y z
#    x 1.764030 -0.032430 -0.063520 
#    y -0.032430 1.954950 -0.004720 
#    z -0.063520 -0.004720 1.770200 
# 
# From -- ./inp_files/46335.got.cif
#   From: 2010.05.17/outbox.ucp.g08.bks.cvg/sg2_24_cif.got.tgz:46335.got - 2010.06.11 11:32:03.
