data_PCOD9075363
_publ_section_title
;
Structure prediction by ZEFSAII (Michael W. Deem and Ramdas Pophale) SiO2 
 PCOD9075363
Probable space group: P -1
;
_chemical_formula_sum "Si O2"
_cell_formula_units_Z 16
_cell_length_a 21.000000
_cell_length_b 12.000000
_cell_length_c 9.000000
_cell_angle_alpha 140.000000
_cell_angle_beta 50.000000
_cell_angle_gamma 150.000000
_cell_volume 727.418465
_symmetry_space_group_name_H-M "P -1"
_symmetry_group_IT_number 2
_symmetry_cell_setting 'triclinic'
loop_
_space_group_symop_operation_xyz
x,y,z
-x,-y,-z
loop_
_atom_site_type_symbol
_atom_site_label
_atom_site_fract_x
_atom_site_fract_y
_atom_site_fract_z
Si Si1 0.221962 0.750173 0.065743
Si Si2 0.173388 0.682462 0.743067
Si Si3 0.929468 0.847856 0.294102
Si Si4 0.076297 0.722976 0.490358
Si Si5 0.529099 0.675015 0.769132
Si Si6 0.359011 0.280117 0.054334
Si Si7 0.805546 0.653543 0.734881
Si Si8 0.764052 0.706363 0.148169
O O1 0.186603 0.799251 0.314976
O O2 0.375428 0.012434 0.088990
O O3 0.165507 0.729815 0.973679
O O4 0.144608 0.449683 0.889091
O O5 0.229582 0.577817 0.536262
O O6 0.034794 0.432242 0.624960
O O7 0.267756 0.974905 0.830391
O O8 0.817224 0.780219 0.312700
O O9 0.000000 0.000000 0.500000
O O10 0.050142 0.056107 0.216922
O O11 0.000000 0.500000 0.500000
O O12 0.147655 0.996704 0.736848
O O13 0.500000 0.500000 0.500000
O O14 0.607350 0.693378 0.795595
O O15 0.386940 0.507446 0.856696
O O16 0.286607 0.340368 0.179063
O O17 0.500000 0.500000 0.000000
O O18 0.794281 0.603980 0.878705
#
# Coordination Sequence:
#
# PCOD9075363 Si02
#       8
#     2   2   2   2   2   2   2   2
#     4  11  24  45  69 101 142 186 236 285 359 425
#     4  11  25  44  71 105 138 187 237 293 355 420
#     4  12  25  44  70 104 141 180 235 296 353 414
#     4  12  24  41  73 102 140 181 235 297 353 413
#     4  11  25  45  70 100 142 188 231 290 355 430
#     4  11  25  48  72 101 142 187 240 286 358 427
#     4  12  25  47  72 106 142 182 238 299 354 419
#     4  12  25  45  69 103 143 183 231 294 356 416
#
# _framework density 21.995591999999998
#
# number of rings (size 3 to 8) (size 9 to 14) (size 15 to 20)
#    0.000    0.500    5.000    3.000    3.500    2.000 
#    0.000    0.000    0.000    0.000    0.000    0.000 
#    0.000    0.000    0.000    0.000    0.000    0.000 
#
# Total GULP energy -89195.038299 kJ/mol
# GULP energy per Si atom -5574.689894 kJ/mol
# Density = 2.194553 g / cm^3
# Si number density = 21.995592 Si / 1000 Ang^3
#
#
#
# Elastic Constant Matrix: (Units=GPa)
#
#
# Indices 1 2 3 4 5 6 
#
# 1 92.4885 19.8630 14.9776 3.7305 9.7076 14.9746
# 2 19.8630 100.3781 14.6402 10.0803 -3.8847 14.8647
# 3 14.9776 14.6402 76.5812 2.1265 17.9350 -4.6524
# 4 3.7305 10.0803 2.1265 36.8022 -3.5831 8.7046
# 5 9.7076 -3.8847 17.9350 -3.5831 33.1807 7.6085
# 6 14.9746 14.8647 -4.6524 8.7046 7.6085 33.8352
#
#
#
# Elastic Compliance Matrix: (Units=1/GPa)
#
#
# Indices 1 2 3 4 5 6 
#
# 1 0.012409 -0.001526 -0.002072 0.000270 -0.001553 -0.004827
# 2 -0.001526 0.011941 -0.003476 -0.001037 0.004964 -0.005898
# 3 -0.002072 -0.003476 0.017361 -0.002868 -0.011357 0.008123
# 4 0.000270 -0.001037 -0.002868 0.030488 0.006805 -0.009432
# 5 -0.001553 0.004964 -0.011357 0.006805 0.041278 -0.014088
# 6 -0.004827 -0.005898 0.008123 -0.009432 -0.014088 0.040994
#
#
# Mechanical properties :
#
#
# Convention : Reuss Voigt Hill
#
# Bulk Modulus (GPa) = 36.28204 40.93437 38.60821
# Shear Modulus (GPa) = 28.12042 35.42809 31.77425
#
# Velocity S-wave (km/s) = 3.57943 4.01769 3.80488
# Velocity P-wave (km/s) = 5.79776 6.33823 6.07401
#
# Compressibility (1/GPa) = 0.02756184
#
# Stress axis : x y z
#
# Youngs Moduli (GPa) = 80.58655 83.74521 57.60086
#
# Poissons Ratio (x) = 0.12777 0.11937
# Poissons Ratio (y) = 0.12295 0.20025
# Poissons Ratio (z) = 0.16700 0.29114
#
# Static dielectric constant tensor:
#      x y z
#    x 2.030920 -0.052200 0.040470 
#    y -0.052200 1.844350 -0.036220 
#    z 0.040470 -0.036220 1.987560 
# 
# From -- ./inp_files/346467.got.cif
#   From: 2010.05.17/outbox.ucp.g08.bks.cvg/sg2_174_cif.got.tgz:346467.got - 2010.06.11 11:32:03.
