data_PCOD9075917
_publ_section_title
;
Structure prediction by ZEFSAII (Michael W. Deem and Ramdas Pophale) SiO2 
 PCOD9075917
Probable space group: P -1
;
_chemical_formula_sum "Si O2"
_cell_formula_units_Z 16
_cell_length_a 14.197397
_cell_length_b 11.574888
_cell_length_c 22.806190
_cell_angle_alpha 31.950655
_cell_angle_beta 40.114000
_cell_angle_gamma 27.906741
_cell_volume 926.563857
_symmetry_space_group_name_H-M "P -1"
_symmetry_group_IT_number 2
_symmetry_cell_setting 'triclinic'
loop_
_space_group_symop_operation_xyz
x,y,z
-x,-y,-z
loop_
_atom_site_type_symbol
_atom_site_label
_atom_site_fract_x
_atom_site_fract_y
_atom_site_fract_z
Si Si1 0.433549 0.768967 0.169178
Si Si2 0.087279 0.374400 0.134904
Si Si3 0.205040 0.159733 0.551594
Si Si4 0.578233 0.518923 0.868321
Si Si5 0.855221 0.269375 0.238935
Si Si6 0.798344 0.354393 0.952136
Si Si7 0.506233 0.782725 0.665020
Si Si8 0.847382 0.921414 0.925094
O O1 0.658088 0.559943 0.175156
O O2 0.416973 0.522454 0.271063
O O3 0.288149 0.033253 0.171137
O O4 0.355997 0.950690 0.066390
O O5 0.130578 0.500798 0.110711
O O6 0.919417 0.357161 0.224433
O O7 0.997901 0.603375 0.023308
O O8 0.364178 0.143482 0.448027
O O9 0.000000 0.500000 0.500000
O O10 0.179203 0.942202 0.634083
O O11 0.286701 0.045272 0.628422
O O12 0.680678 0.521378 0.875322
O O13 0.519382 0.730090 0.750472
O O14 0.754686 0.179060 0.906082
O O15 0.375332 0.595560 0.949791
O O16 0.026130 0.101987 0.178512
O O17 0.000000 0.000000 0.000000
#
# Coordination Sequence:
#
# PCOD9075917 Si02
#       8
#     2   2   2   2   2   2   2   2
#     4   9  19  32  50  75 113 142 171 213 270 318
#     4  11  22  32  50  78 111 144 185 216 260 322
#     4  10  18  32  57  81 111 138 172 217 274 325
#     4  10  22  39  55  75 111 143 186 229 264 307
#     4  10  21  33  51  84 112 144 171 214 273 330
#     4  11  24  38  55  76 104 150 194 223 260 312
#     4   9  20  35  54  85 107 139 178 218 271 325
#     4  10  20  32  50  79 111 144 179 210 265 323
#
# _framework density 17.268103
#
# number of rings (size 3 to 8) (size 9 to 14) (size 15 to 20)
#    0.000    2.000    1.250    3.750    7.000    2.000 
#    0.000    0.000    0.000    0.750    0.000   13.125 
#    0.000    0.000    0.000    0.000    0.000    0.000 
#
# Total GULP energy -89075.689379 kJ/mol
# GULP energy per Si atom -5567.230586 kJ/mol
# Density = 1.722880 g / cm^3
# Si number density = 17.268103 Si / 1000 Ang^3
#
#
#
# Elastic Constant Matrix: (Units=GPa)
#
#
# Indices 1 2 3 4 5 6 
#
# 1 166.2157 47.9218 61.9644 -7.1469 -12.4276 -4.4126
# 2 47.9218 81.7582 31.4987 -16.2579 1.3772 -13.9936
# 3 61.9644 31.4987 99.3932 -12.4349 -3.3818 -0.2113
# 4 -7.1469 -16.2579 -12.4349 24.1902 -3.7357 6.4866
# 5 -12.4276 1.3772 -3.3818 -3.7357 34.7569 -7.0768
# 6 -4.4126 -13.9936 -0.2113 6.4866 -7.0768 31.0093
#
#
#
# Elastic Compliance Matrix: (Units=1/GPa)
#
#
# Indices 1 2 3 4 5 6 
#
# 1 0.008948 -0.003853 -0.004508 -0.001979 0.002815 0.000560
# 2 -0.003853 0.017987 -0.002269 0.008195 -0.000253 0.005781
# 3 -0.004508 -0.002269 0.014225 0.005153 -0.000129 -0.002676
# 4 -0.001979 0.008195 0.005153 0.051199 0.003665 -0.006422
# 5 0.002815 -0.000253 -0.000129 0.003665 0.031537 0.006716
# 6 0.000560 0.005781 -0.002676 -0.006422 0.006716 0.037795
#
#
# Mechanical properties :
#
#
# Convention : Reuss Voigt Hill
#
# Bulk Modulus (GPa) = 50.25182 70.01519 60.13351
# Shear Modulus (GPa) = 26.37350 31.72345 29.04847
#
# Velocity S-wave (km/s) = 3.91230 4.29080 4.10592
# Velocity P-wave (km/s) = 7.04076 8.07354 7.57477
#
# Compressibility (1/GPa) = 0.01989978
#
# Stress axis : x y z
#
# Youngs Moduli (GPa) = 111.75783 55.59499 70.29785
#
# Poissons Ratio (x) = 0.21421 0.31690
# Poissons Ratio (y) = 0.43060 0.15953
# Poissons Ratio (z) = 0.50379 0.12617
#
# Static dielectric constant tensor:
#      x y z
#    x 1.638400 -0.023430 -0.037520 
#    y -0.023430 1.605300 0.003560 
#    z -0.037520 0.003560 1.612290 
# 
# From -- ./inp_files/611855.got.cif
#   From: 2010.05.17/outbox.cif.g08.bks.cpg/sg2_306_cif.got.tgz:611855.got - 2010.06.03 11:33:40.
