data_PCOD9075499
_publ_section_title
;
Structure prediction by ZEFSAII (Michael W. Deem and Ramdas Pophale) SiO2 
 PCOD9075499
Probable space group: P -1
;
_chemical_formula_sum "Si O2"
_cell_formula_units_Z 16
_cell_length_a 5.411574
_cell_length_b 6.464769
_cell_length_c 24.360686
_cell_angle_alpha 100.629120
_cell_angle_beta 122.892965
_cell_angle_gamma 101.400664
_cell_volume 655.941952
_symmetry_space_group_name_H-M "P -1"
_symmetry_group_IT_number 2
_symmetry_cell_setting 'triclinic'
loop_
_space_group_symop_operation_xyz
x,y,z
-x,-y,-z
loop_
_atom_site_type_symbol
_atom_site_label
_atom_site_fract_x
_atom_site_fract_y
_atom_site_fract_z
Si Si1 0.093106 0.151293 0.253160
Si Si2 0.483467 0.125412 0.210559
Si Si3 0.436637 0.647071 0.582784
Si Si4 0.798233 0.360655 0.554891
Si Si5 0.826857 0.362004 0.771197
Si Si6 0.907656 0.806958 0.933977
Si Si7 0.851461 0.655914 0.300689
Si Si8 0.343894 0.562372 0.930702
O O1 0.274701 0.026215 0.233260
O O2 0.284433 0.225608 0.335979
O O3 0.110075 0.371492 0.229269
O O4 0.726042 0.020483 0.211388
O O5 0.248939 0.128227 0.134451
O O6 0.710170 0.379555 0.268727
O O7 0.556209 0.457519 0.560865
O O8 0.369337 0.770465 0.526630
O O9 0.114875 0.548233 0.574888
O O10 0.940784 0.259246 0.615878
O O11 0.452875 0.277786 0.729688
O O12 0.950602 0.276715 0.727563
O O13 0.036275 0.398976 0.853366
O O14 0.616562 0.616479 0.919952
O O15 0.203177 0.746396 0.946198
O O16 0.000000 0.000000 0.000000
O O17 0.500000 0.500000 0.000000
#
# Coordination Sequence:
#
# PCOD9075499 Si02
#       8
#     2   2   2   2   2   2   2   2
#     4  10  14  25  41  55  84 114 160 190 226 281
#     4  10  16  27  44  61  82 114 159 196 225 285
#     4  10  16  20  29  50  76 110 148 186 222 270
#     4  10  16  20  29  50  76 110 148 186 222 270
#     4  10  16  27  44  61  82 114 159 196 225 285
#     4  12  23  38  55  78 103 132 170 220 262 308
#     4  10  14  25  41  55  84 114 160 190 226 281
#     4  12  23  38  55  78 103 132 170 220 262 308
#
# _framework density 24.392399000000001
#
# number of rings (size 3 to 8) (size 9 to 14) (size 15 to 20)
#    0.000    1.500   10.000    0.750    0.000    0.000 
#    0.000    0.000    0.000    0.000    0.000    0.000 
#    0.000    0.000    0.000    0.000    0.000   42.500 
#
# Total GULP energy -89367.606498 kJ/mol
# GULP energy per Si atom -5585.475406 kJ/mol
# Density = 2.433688 g / cm^3
# Si number density = 24.392399 Si / 1000 Ang^3
#
#
#
# Elastic Constant Matrix: (Units=GPa)
#
#
# Indices 1 2 3 4 5 6 
#
# 1 186.2552 7.3423 39.9461 -26.2292 -7.9444 -4.4274
# 2 7.3423 22.5911 16.5266 -0.7671 5.3016 -5.4877
# 3 39.9461 16.5266 225.8634 -28.1206 -9.2945 3.7089
# 4 -26.2292 -0.7671 -28.1206 31.2032 -3.2016 -1.5051
# 5 -7.9444 5.3016 -9.2945 -3.2016 49.4218 -9.5387
# 6 -4.4274 -5.4877 3.7089 -1.5051 -9.5387 30.3484
#
#
#
# Elastic Compliance Matrix: (Units=1/GPa)
#
#
# Indices 1 2 3 4 5 6 
#
# 1 0.006356 -0.001735 -0.000289 0.005293 0.001780 0.001471
# 2 -0.001735 0.050927 -0.004295 -0.004262 -0.005362 0.007584
# 3 -0.000289 -0.004295 0.005456 0.004696 0.001600 -0.000750
# 4 0.005293 -0.004262 0.004696 0.041342 0.005487 0.003203
# 5 0.001780 -0.005362 0.001600 0.005487 0.023026 0.006604
# 6 0.001471 0.007584 -0.000750 0.003203 0.006604 0.036863
#
#
# Mechanical properties :
#
#
# Convention : Reuss Voigt Hill
#
# Bulk Modulus (GPa) = 19.96008 62.48219 41.22113
# Shear Modulus (GPa) = 25.86538 46.92097 36.39318
#
# Velocity S-wave (km/s) = 3.25989 4.39063 3.86682
# Velocity P-wave (km/s) = 4.72968 7.16761 6.07225
#
# Compressibility (1/GPa) = 0.05010001
#
# Stress axis : x y z
#
# Youngs Moduli (GPa) = 157.34096 19.63584 183.29466
#
# Poissons Ratio (x) = 0.03407 0.05297
# Poissons Ratio (y) = 0.27298 0.78731
# Poissons Ratio (z) = 0.04547 0.08434
#
# Static dielectric constant tensor:
#      x y z
#    x 1.946740 0.016680 -0.029540 
#    y 0.016680 2.175420 -0.055430 
#    z -0.029540 -0.055430 1.860430 
# 
# From -- ./inp_files/552685.got.cif
#   From: 2010.05.17/outbox.cif.g08.bks.cpg/sg2_277_cif.got.tgz:552685.got - 2010.06.03 11:33:40.
