data_PCOD9075308
_publ_section_title
;
Structure prediction by ZEFSAII (Michael W. Deem and Ramdas Pophale) SiO2 
 PCOD9075308
Probable space group: P -1
;
_chemical_formula_sum "Si O2"
_cell_formula_units_Z 16
_cell_length_a 9.000000
_cell_length_b 9.000000
_cell_length_c 24.000000
_cell_angle_alpha 130.000000
_cell_angle_beta 30.000000
_cell_angle_gamma 130.000000
_cell_volume 725.531033
_symmetry_space_group_name_H-M "P -1"
_symmetry_group_IT_number 2
_symmetry_cell_setting 'triclinic'
loop_
_space_group_symop_operation_xyz
x,y,z
-x,-y,-z
loop_
_atom_site_type_symbol
_atom_site_label
_atom_site_fract_x
_atom_site_fract_y
_atom_site_fract_z
Si Si1 0.359732 0.045921 0.235901
Si Si2 0.302760 0.597485 0.727840
Si Si3 0.364528 0.561517 0.896939
Si Si4 0.420153 0.302863 0.710218
Si Si5 0.405294 0.695360 0.596504
Si Si6 0.612595 0.399105 0.886092
Si Si7 0.117575 0.961009 0.513191
Si Si8 0.885353 0.898992 0.789186
O O1 0.649943 0.218553 0.200124
O O2 0.182786 0.101970 0.254030
O O3 0.442689 0.837041 0.146856
O O4 0.120330 0.025185 0.358918
O O5 0.392716 0.420531 0.690632
O O6 0.475794 0.694400 0.639471
O O7 0.968787 0.497534 0.791518
O O8 0.455108 0.457643 0.786861
O O9 0.458160 0.453952 0.894320
O O10 0.542652 0.796056 0.898939
O O11 0.000000 0.500000 0.000000
O O12 0.729194 0.225753 0.584910
O O13 0.120125 0.118050 0.775546
O O14 0.500000 0.500000 0.500000
O O15 0.591920 0.857260 0.532621
O O16 0.071738 0.737106 0.708804
O O17 0.500000 0.500000 0.000000
O O18 0.000000 0.000000 0.500000
#
# Coordination Sequence:
#
# PCOD9075308 Si02
#       8
#     2   2   2   2   2   2   2   2
#     4  12  26  46  74 104 148 188 242 294 365 428
#     4  12  24  46  71 107 144 190 239 299 358 427
#     4  12  27  49  76 103 139 191 241 296 367 424
#     4  11  26  46  71 107 149 185 245 289 358 433
#     4  11  25  41  70 104 149 195 242 289 362 422
#     4  12  28  50  74 104 143 183 240 308 362 434
#     4  11  24  42  68 105 144 190 234 292 352 430
#     4  11  26  46  70 106 146 188 239 300 353 429
#
# _framework density 22.052813
#
# number of rings (size 3 to 8) (size 9 to 14) (size 15 to 20)
#    0.000    0.500    5.000    2.250    5.250    2.500 
#    0.000    0.000    0.000    0.000    0.000    0.000 
#    0.000    0.000    0.000    0.000    0.000    0.000 
#
# Total GULP energy -89218.156594 kJ/mol
# GULP energy per Si atom -5576.134787 kJ/mol
# Density = 2.200262 g / cm^3
# Si number density = 22.052813 Si / 1000 Ang^3
#
#
#
# Elastic Constant Matrix: (Units=GPa)
#
#
# Indices 1 2 3 4 5 6 
#
# 1 160.6330 40.2135 34.3732 21.1524 -7.1738 -28.0273
# 2 40.2135 112.9805 26.5157 15.0306 -12.6049 -3.4409
# 3 34.3732 26.5157 45.1737 20.7212 -5.5155 -23.4561
# 4 21.1524 15.0306 20.7212 24.8875 8.7064 3.4481
# 5 -7.1738 -12.6049 -5.5155 8.7064 25.7275 -6.3079
# 6 -28.0273 -3.4409 -23.4561 3.4481 -6.3079 43.8795
#
#
#
# Elastic Compliance Matrix: (Units=1/GPa)
#
#
# Indices 1 2 3 4 5 6 
#
# 1 0.004192 -0.001995 -0.032166 0.035685 -0.023908 -0.020915
# 2 -0.001995 0.011282 -0.007501 0.001010 0.001994 -0.004192
# 3 -0.032166 -0.007501 -0.183045 0.272080 -0.184890 -0.166941
# 4 0.035685 0.001010 0.272080 -0.331893 0.237108 0.228480
# 5 -0.023908 0.001994 -0.184890 0.237108 -0.123558 -0.150343
# 6 -0.020915 -0.004192 -0.166941 0.228480 -0.150343 -0.119704
#
#
# Mechanical properties :
#
#
# Convention : Reuss Voigt Hill
#
# Bulk Modulus (GPa) = -3.98574 57.88799 26.95112
# Shear Modulus (GPa) = -6.72915 33.41122 13.34103
#
# Velocity S-wave (km/s) = -1.74872 3.89659 2.46226
# Velocity P-wave (km/s) = 2.42665 6.82285 4.50903
#
# Compressibility (1/GPa) = -0.25089423
#
# Stress axis : x y z
#
# Youngs Moduli (GPa) = 238.55475 88.63833 -5.46313
#
# Poissons Ratio (x) = 0.17680 -0.17573
# Poissons Ratio (y) = 0.47582 -0.04098
# Poissons Ratio (z) = 7.67340 0.66484
#
# Static dielectric constant tensor:
#      x y z
#    x 1.785980 0.063600 0.018020 
#    y 0.063600 2.002810 -0.192040 
#    z 0.018020 -0.192040 1.747380 
# 
# From -- ./inp_files/606770.got.cif
#   From: 2010.05.17/outbox.ucp.g08.bks.cvg/sg2_304_cif.got.tgz:606770.got - 2010.06.11 11:32:03.
