data_PCOD9075895
_publ_section_title
;
Structure prediction by ZEFSAII (Michael W. Deem and Ramdas Pophale) SiO2 
 PCOD9075895
Probable space group: P -1
;
_chemical_formula_sum "Si O2"
_cell_formula_units_Z 16
_cell_length_a 20.515336
_cell_length_b 8.313829
_cell_length_c 12.150145
_cell_angle_alpha 40.251306
_cell_angle_beta 53.043904
_cell_angle_gamma 27.621744
_cell_volume 601.028934
_symmetry_space_group_name_H-M "P -1"
_symmetry_group_IT_number 2
_symmetry_cell_setting 'triclinic'
loop_
_space_group_symop_operation_xyz
x,y,z
-x,-y,-z
loop_
_atom_site_type_symbol
_atom_site_label
_atom_site_fract_x
_atom_site_fract_y
_atom_site_fract_z
Si Si1 0.039364 0.678512 0.834432
Si Si2 0.208231 0.781528 0.775504
Si Si3 0.403446 0.270091 0.185549
Si Si4 0.442224 0.550886 0.650382
Si Si5 0.303907 0.309162 0.718719
Si Si6 0.867141 0.200590 0.937484
Si Si7 0.307841 0.007963 0.167072
Si Si8 0.762032 0.362312 0.629714
O O1 0.203909 0.320695 0.826504
O O2 0.992894 0.932070 0.862828
O O3 0.924201 0.033855 0.670143
O O4 0.000000 0.500000 0.000000
O O5 0.278708 0.878592 0.669518
O O6 0.213196 0.742986 0.657591
O O7 0.097362 0.022573 0.865667
O O8 0.295633 0.296894 0.962470
O O9 0.251636 0.680646 0.061190
O O10 0.343247 0.280589 0.351194
O O11 0.490085 0.898646 0.199400
O O12 0.528297 0.129383 0.184318
O O13 0.500000 0.500000 0.500000
O O14 0.530600 0.444909 0.716206
O O15 0.292701 0.418126 0.547324
O O16 0.787450 0.663133 0.802858
O O17 0.249207 0.911666 0.217840
#
# Coordination Sequence:
#
# PCOD9075895 Si02
#       8
#     2   2   2   2   2   2   2   2
#     4  11  24  45  60  85 119 164 204 248 296 357
#     4   9  19  36  59  88 115 155 200 239 298 348
#     4   9  20  38  62  92 122 156 196 248 299 357
#     4  10  18  32  56  88 125 152 191 245 297 351
#     4  11  22  37  64  88 123 159 200 246 301 354
#     4   8  20  40  65  85 121 154 200 248 295 352
#     4   9  18  35  60  85 114 158 192 244 291 351
#     4  11  22  42  61  89 125 157 200 249 303 354
#
# _framework density 26.621013999999999
#
# number of rings (size 3 to 8) (size 9 to 14) (size 15 to 20)
#    0.750    1.500    0.000    3.375    1.750    0.500 
#    4.500    4.375    0.000    0.000    0.000    0.000 
#    0.000    0.000    0.000    0.000    0.000    0.000 
#
# Total GULP energy -89128.689470 kJ/mol
# GULP energy per Si atom -5570.543092 kJ/mol
# Density = 2.656042 g / cm^3
# Si number density = 26.621014 Si / 1000 Ang^3
#
#
#
# Elastic Constant Matrix: (Units=GPa)
#
#
# Indices 1 2 3 4 5 6 
#
# 1 140.6038 30.6683 43.6666 5.9542 33.1438 -48.3250
# 2 30.6683 56.1913 13.3591 7.4930 5.7707 -18.9292
# 3 43.6666 13.3591 78.4371 14.6644 9.0917 -5.5177
# 4 5.9542 7.4930 14.6644 20.8096 0.1373 8.1034
# 5 33.1438 5.7707 9.0917 0.1373 38.4146 15.4012
# 6 -48.3250 -18.9292 -5.5177 8.1034 15.4012 44.0129
#
#
#
# Elastic Compliance Matrix: (Units=1/GPa)
#
#
# Indices 1 2 3 4 5 6 
#
# 1 -0.051934 -0.029898 0.002095 0.068462 0.094827 -0.115405
# 2 -0.029898 0.010833 0.002880 0.020351 0.041950 -0.046233
# 3 0.002095 0.002880 0.016774 -0.018450 -0.011362 0.013014
# 4 0.068462 0.020351 -0.018450 -0.012298 -0.106248 0.121053
# 5 0.094827 0.041950 -0.011362 -0.106248 -0.134076 0.187214
# 6 -0.115405 -0.046233 0.013014 0.121053 0.187214 -0.210042
#
#
# Mechanical properties :
#
#
# Convention : Reuss Voigt Hill
#
# Bulk Modulus (GPa) = -13.48196 50.06890 18.29347
# Shear Modulus (GPa) = -14.05992 33.14996 9.54502
#
# Velocity S-wave (km/s) = -2.30065 3.53265 1.89560
# Velocity P-wave (km/s) = 3.48320 5.95721 3.41728
#
# Compressibility (1/GPa) = -0.07417320
#
# Stress axis : x y z
#
# Youngs Moduli (GPa) = -19.25526 92.31173 59.61576
#
# Poissons Ratio (x) = 2.75993 -0.12489
# Poissons Ratio (y) = -0.57569 -0.17169
# Poissons Ratio (z) = 0.04034 -0.26585
#
# Static dielectric constant tensor:
#      x y z
#    x 2.237680 -0.000890 -0.021570 
#    y -0.000890 2.281150 -0.015320 
#    z -0.021570 -0.015320 2.190900 
# 
# From -- ./inp_files/469844.got.cif
#   From: 2010.05.17/outbox.cif.g08.bks.cpg/sg2_235_cif.got.tgz:469844.got - 2010.06.03 11:33:40.
