data_PCOD9075954
_publ_section_title
;
Structure prediction by ZEFSAII (Michael W. Deem and Ramdas Pophale) SiO2 
 PCOD9075954
Probable space group: P -1
;
_chemical_formula_sum "Si O2"
_cell_formula_units_Z 16
_cell_length_a 29.384972
_cell_length_b 14.289004
_cell_length_c 8.348753
_cell_angle_alpha 126.005128
_cell_angle_beta 38.793056
_cell_angle_gamma 156.225529
_cell_volume 768.514346
_symmetry_space_group_name_H-M "P -1"
_symmetry_group_IT_number 2
_symmetry_cell_setting 'triclinic'
loop_
_space_group_symop_operation_xyz
x,y,z
-x,-y,-z
loop_
_atom_site_type_symbol
_atom_site_label
_atom_site_fract_x
_atom_site_fract_y
_atom_site_fract_z
Si Si1 0.806027 0.206734 0.689622
Si Si2 0.463029 0.977589 0.764220
Si Si3 0.911502 0.948961 0.053011
Si Si4 0.251950 0.446122 0.464420
Si Si5 0.372502 0.219749 0.994741
Si Si6 0.612147 0.384822 0.368853
Si Si7 0.690600 0.710877 0.009754
Si Si8 0.285802 0.133848 0.567383
O O1 0.000000 0.500000 0.500000
O O2 0.788118 0.100618 0.475294
O O3 0.699249 0.171502 0.932538
O O4 0.709110 0.985562 0.862110
O O5 0.436221 0.813409 0.748348
O O6 0.500000 0.000000 0.500000
O O7 0.627748 0.285089 0.672265
O O8 0.760580 0.646906 0.115084
O O9 0.813008 0.924839 0.346786
O O10 0.059795 0.198624 0.779479
O O11 0.000000 0.000000 0.000000
O O12 0.329508 0.533076 0.518921
O O13 0.255805 0.339243 0.236762
O O14 0.467046 0.271681 0.660658
O O15 0.247750 0.117300 0.129180
O O16 0.500000 0.500000 0.000000
O O17 0.485888 0.414999 0.277311
O O18 0.744048 0.842388 0.161767
#
# Coordination Sequence:
#
# PCOD9075954 Si02
#       8
#     2   2   2   2   2   2   2   2
#     4  12  25  37  64  94 122 155 212 265 301 365
#     4  10  19  36  52  86 120 156 194 243 313 358
#     4  10  22  34  60  92 121 149 208 265 298 348
#     4  10  19  35  58  85 119 160 195 251 302 364
#     4  12  18  38  63  93 118 158 214 251 300 358
#     4  10  18  32  57  88 121 150 200 253 296 357
#     4  11  22  38  67  86 126 165 206 259 302 374
#     4  11  23  41  60  95 123 162 208 255 317 357
#
# _framework density 20.819392000000001
#
# number of rings (size 3 to 8) (size 9 to 14) (size 15 to 20)
#    0.000    1.250    7.500    0.000    7.000    0.500 
#    0.000    0.625    0.000    3.000    0.000    0.000 
#    0.000    0.000    0.000    0.000    0.000    0.000 
#
# Total GULP energy -89174.869539 kJ/mol
# GULP energy per Si atom -5573.429346 kJ/mol
# Density = 2.077201 g / cm^3
# Si number density = 20.819392 Si / 1000 Ang^3
#
#
#
# Elastic Constant Matrix: (Units=GPa)
#
#
# Indices 1 2 3 4 5 6 
#
# 1 26.3766 22.1738 6.3315 6.1349 -7.2409 -9.8914
# 2 22.1738 119.0643 60.1450 6.1821 -14.1275 -24.3341
# 3 6.3315 60.1450 105.0073 -5.9225 -28.7983 -6.9914
# 4 6.1349 6.1821 -5.9225 39.2017 -5.4588 1.8044
# 5 -7.2409 -14.1275 -28.7983 -5.4588 31.0513 9.7675
# 6 -9.8914 -24.3341 -6.9914 1.8044 9.7675 34.4817
#
#
#
# Elastic Compliance Matrix: (Units=1/GPa)
#
#
# Indices 1 2 3 4 5 6 
#
# 1 0.050614 -0.009226 0.004952 -0.004731 0.009281 0.006631
# 2 -0.009226 0.016934 -0.011115 -0.004554 -0.008617 0.009730
# 3 0.004952 -0.011115 0.020685 0.007124 0.019050 -0.007999
# 4 -0.004731 -0.004554 0.007124 0.029961 0.011171 -0.007859
# 5 0.009281 -0.008617 0.019050 0.011171 0.055028 -0.015728
# 6 0.006631 0.009730 -0.007999 -0.007859 -0.015728 0.041014
#
#
# Mechanical properties :
#
#
# Convention : Reuss Voigt Hill
#
# Bulk Modulus (GPa) = 17.40468 47.52766 32.46617
# Shear Modulus (GPa) = 18.92748 31.73346 25.33047
#
# Velocity S-wave (km/s) = 3.01845 3.90837 3.49187
# Velocity P-wave (km/s) = 4.53056 6.57611 5.64674
#
# Compressibility (1/GPa) = 0.05745580
#
# Stress axis : x y z
#
# Youngs Moduli (GPa) = 19.75736 59.05111 48.34446
#
# Poissons Ratio (x) = 0.54478 -0.23941
# Poissons Ratio (y) = 0.18227 0.53737
# Poissons Ratio (z) = -0.09784 0.65638
#
# Static dielectric constant tensor:
#      x y z
#    x 1.936170 0.023600 0.039290 
#    y 0.023600 1.764530 0.004770 
#    z 0.039290 0.004770 1.754820 
# 
# From -- ./inp_files/358806.got.cif
#   From: 2010.05.17/outbox.cif.g08.bks.cpg/sg2_180_cif.got.tgz:358806.got - 2010.06.03 11:33:40.
