data_PCOD9075691
_publ_section_title
;
Structure prediction by ZEFSAII (Michael W. Deem and Ramdas Pophale) SiO2 
 PCOD9075691
Probable space group: P -1
;
_chemical_formula_sum "Si O2"
_cell_formula_units_Z 16
_cell_length_a 10.339041
_cell_length_b 6.992008
_cell_length_c 14.536114
_cell_angle_alpha 56.384538
_cell_angle_beta 103.331768
_cell_angle_gamma 63.814241
_cell_volume 606.336618
_symmetry_space_group_name_H-M "P -1"
_symmetry_group_IT_number 2
_symmetry_cell_setting 'triclinic'
loop_
_space_group_symop_operation_xyz
x,y,z
-x,-y,-z
loop_
_atom_site_type_symbol
_atom_site_label
_atom_site_fract_x
_atom_site_fract_y
_atom_site_fract_z
Si Si1 0.559311 0.178221 0.131253
Si Si2 0.574889 0.203634 0.520307
Si Si3 0.099985 0.018378 0.119106
Si Si4 0.963296 0.819733 0.289281
Si Si5 0.738640 0.527290 0.138686
Si Si6 0.530260 0.612228 0.263435
Si Si7 0.941903 0.563158 0.833420
Si Si8 0.337366 0.204532 0.597085
O O1 0.779459 0.890516 0.222129
O O2 0.566536 0.139098 0.253077
O O3 0.500000 0.500000 0.000000
O O4 0.398673 0.243410 0.030502
O O5 0.500000 0.500000 0.500000
O O6 0.610356 0.281018 0.409134
O O7 0.424064 0.194421 0.520551
O O8 0.762570 0.849969 0.672119
O O9 0.073972 0.238872 0.136940
O O10 0.310036 0.814782 0.173527
O O11 0.052422 0.836043 0.209744
O O12 0.955780 0.289010 0.947545
O O13 0.119674 0.502142 0.459881
O O14 0.873741 0.146193 0.241887
O O15 0.617613 0.597163 0.187463
O O16 0.874592 0.579202 0.152082
O O17 0.594943 0.717033 0.325766
#
# Coordination Sequence:
#
# PCOD9075691 Si02
#       8
#     2   2   2   2   2   2   2   2
#     4  10  23  39  57  83 115 158 200 235 274 334
#     4  10  18  32  54  87 114 147 183 231 291 343
#     4  10  18  32  54  81 113 148 189 234 275 342
#     4  10  21  39  59  83 113 158 200 231 272 341
#     4  10  22  37  56  87 125 151 181 238 295 344
#     4  11  20  36  59  89 125 145 178 242 307 343
#     4  10  19  30  53  84 114 147 189 229 287 340
#     4  11  20  35  63  89 113 149 194 242 285 342
#
# _framework density 26.387982999999998
#
# number of rings (size 3 to 8) (size 9 to 14) (size 15 to 20)
#    0.000    1.750    3.750    3.375    5.250    4.000 
#    0.000    0.625    0.000    3.000    0.000    0.000 
#    0.000    0.000    0.000    0.000    0.000    0.000 
#
# Total GULP energy -89353.808956 kJ/mol
# GULP energy per Si atom -5584.613060 kJ/mol
# Density = 2.632792 g / cm^3
# Si number density = 26.387983 Si / 1000 Ang^3
#
#
#
# Elastic Constant Matrix: (Units=GPa)
#
#
# Indices 1 2 3 4 5 6 
#
# 1 96.3255 2.6613 13.0745 -11.4102 -0.2059 -41.6383
# 2 2.6613 80.0321 8.5771 22.1130 2.3106 -19.1659
# 3 13.0745 8.5771 137.7812 2.4367 1.3688 -19.9531
# 4 -11.4102 22.1130 2.4367 28.2705 -11.2730 -3.7454
# 5 -0.2059 2.3106 1.3688 -11.2730 52.0059 -3.1672
# 6 -41.6383 -19.1659 -19.9531 -3.7454 -3.1672 47.7756
#
#
#
# Elastic Compliance Matrix: (Units=1/GPa)
#
#
# Indices 1 2 3 4 5 6 
#
# 1 0.019815 0.000507 0.000579 0.011520 0.003687 0.018862
# 2 0.000507 0.018119 0.000036 -0.014555 -0.003572 0.006347
# 3 0.000579 0.000036 0.007744 0.000051 0.000037 0.003760
# 4 0.011520 -0.014555 0.000051 0.058234 0.013905 0.009710
# 5 0.003687 -0.003572 0.000037 0.013905 0.022682 0.004389
# 6 0.018862 0.006347 0.003760 0.009710 0.004389 0.042539
#
#
# Mechanical properties :
#
#
# Convention : Reuss Voigt Hill
#
# Bulk Modulus (GPa) = 20.86735 40.30716 30.58726
# Shear Modulus (GPa) = 27.34296 44.93213 36.13755
#
# Velocity S-wave (km/s) = 3.22248 4.13092 3.70465
# Velocity P-wave (km/s) = 4.66593 6.16933 5.46953
#
# Compressibility (1/GPa) = 0.04792174
#
# Stress axis : x y z
#
# Youngs Moduli (GPa) = 50.46748 55.19074 129.13368
#
# Poissons Ratio (x) = -0.02796 -0.07482
# Poissons Ratio (y) = -0.02557 -0.00466
# Poissons Ratio (z) = -0.02924 -0.00199
#
# Static dielectric constant tensor:
#      x y z
#    x 2.253960 0.073910 -0.021670 
#    y 0.073910 2.055840 0.154920 
#    z -0.021670 0.154920 1.940720 
# 
# From -- ./inp_files/338674.got.cif
#   From: 2010.05.17/outbox.cif.g08.bks.cpg/sg2_170_cif.got.tgz:338674.got - 2010.06.03 11:33:40.
