data_PCOD9075246
_publ_section_title
;
Structure prediction by ZEFSAII (Michael W. Deem and Ramdas Pophale) SiO2 
 PCOD9075246
Probable space group: P -1
;
_chemical_formula_sum "Si O2"
_cell_formula_units_Z 14
_cell_length_a 15.000000
_cell_length_b 12.000000
_cell_length_c 12.000000
_cell_angle_alpha 140.000000
_cell_angle_beta 130.000000
_cell_angle_gamma 30.000000
_cell_volume 692.779491
_symmetry_space_group_name_H-M "P -1"
_symmetry_group_IT_number 2
_symmetry_cell_setting 'triclinic'
loop_
_space_group_symop_operation_xyz
x,y,z
-x,-y,-z
loop_
_atom_site_type_symbol
_atom_site_label
_atom_site_fract_x
_atom_site_fract_y
_atom_site_fract_z
Si Si1 0.369506 0.622152 0.684800
Si Si2 0.235378 0.709661 0.249223
Si Si3 0.063331 0.704804 0.456315
Si Si4 0.505614 0.781893 0.319661
Si Si5 0.042015 0.244817 0.837824
Si Si6 0.107919 0.312709 0.332707
Si Si7 0.153519 0.689896 0.925806
O O1 0.563637 0.474408 0.686312
O O2 0.235868 0.635652 0.527541
O O3 0.443917 0.412275 0.687737
O O4 0.223491 0.953954 0.820540
O O5 0.129749 0.666606 0.185641
O O6 0.242738 0.656005 0.084131
O O7 0.090383 0.028677 0.389355
O O8 0.130819 0.454916 0.380932
O O9 0.962503 0.792058 0.325583
O O10 0.676749 0.547793 0.198492
O O11 0.500000 0.000000 0.500000
O O12 0.298163 0.000944 0.275246
O O13 0.000000 0.500000 0.000000
O O14 0.000000 0.500000 0.500000
O O15 0.968577 0.342749 0.182935
O O16 0.000000 0.000000 0.000000
#
# Coordination Sequence:
#
# PCOD9075246 Si02
#       7
#     2   2   2   2   2   2   2
#     4  11  23  45  69  98 140 175 231 284 344 412
#     4  11  25  43  68 100 135 183 230 282 353 408
#     4  11  24  43  71  98 136 183 227 287 347 412
#     4  12  24  42  69 108 139 183 230 282 350 414
#     4  11  26  48  69 100 134 180 235 288 346 411
#     4  12  23  43  71 103 143 182 232 288 348 420
#     4  12  25  41  66 101 144 184 231 283 347 417
#
# _framework density 20.208449999999999
#
# number of rings (size 3 to 8) (size 9 to 14) (size 15 to 20)
#    0.000    0.571    2.857    6.857    0.000    8.571 
#    0.000    0.000    0.000    0.000    0.000    0.000 
#    0.000    0.000    0.000    0.000    0.000    0.000 
#
# Total GULP energy -77969.433523 kJ/mol
# GULP energy per Si atom -5569.245252 kJ/mol
# Density = 2.016246 g / cm^3
# Si number density = 20.208450 Si / 1000 Ang^3
#
#
#
# Elastic Constant Matrix: (Units=GPa)
#
#
# Indices 1 2 3 4 5 6 
#
# 1 101.6254 45.7476 30.0529 16.9188 16.2462 -4.4285
# 2 45.7476 180.6525 37.0000 22.5307 5.5704 -14.1851
# 3 30.0529 37.0000 89.2158 14.1179 5.5410 -0.8528
# 4 16.9188 22.5307 14.1179 44.9230 -0.9655 9.1363
# 5 16.2462 5.5704 5.5410 -0.9655 39.0958 3.0422
# 6 -4.4285 -14.1851 -0.8528 9.1363 3.0422 59.3975
#
#
#
# Elastic Compliance Matrix: (Units=1/GPa)
#
#
# Indices 1 2 3 4 5 6 
#
# 1 0.012950 -0.002072 -0.002658 -0.003351 -0.004885 0.001198
# 2 -0.002072 0.006875 -0.001735 -0.002501 -0.000078 0.001851
# 3 -0.002658 -0.001735 0.013221 -0.002288 -0.000575 -0.000041
# 4 -0.003351 -0.002501 -0.002288 0.026607 0.003130 -0.005133
# 5 -0.004885 -0.000078 -0.000575 0.003130 0.027958 -0.002305
# 6 0.001198 0.001851 -0.000041 -0.005133 -0.002305 0.018274
#
#
# Mechanical properties :
#
#
# Convention : Reuss Voigt Hill
#
# Bulk Modulus (GPa) = 49.71106 66.34386 58.02746
# Shear Modulus (GPa) = 39.83421 45.92948 42.88184
#
# Velocity S-wave (km/s) = 4.44460 4.77255 4.61149
# Velocity P-wave (km/s) = 7.14086 7.95428 7.55852
#
# Compressibility (1/GPa) = 0.02011625
#
# Stress axis : x y z
#
# Youngs Moduli (GPa) = 77.21983 145.44848 75.63756
#
# Poissons Ratio (x) = 0.30143 0.20102
# Poissons Ratio (y) = 0.16003 0.13123
# Poissons Ratio (z) = 0.20522 0.25235
#
# Static dielectric constant tensor:
#      x y z
#    x 1.778050 0.013680 0.004470 
#    y 0.013680 1.696850 -0.015060 
#    z 0.004470 -0.015060 1.791590 
# 
# From -- ./inp_files/451932.got.cif
#   From: 2010.05.17/outbox.ucp.g08.bks.cvg/sg2_226_cif.got.tgz:451932.got - 2010.06.11 11:32:03.
