data_PCOD9075624
_publ_section_title
;
Structure prediction by ZEFSAII (Michael W. Deem and Ramdas Pophale) SiO2 
 PCOD9075624
Probable space group: P -1
;
_chemical_formula_sum "Si O2"
_cell_formula_units_Z 15
_cell_length_a 9.000000
_cell_length_b 9.000000
_cell_length_c 12.000000
_cell_angle_alpha 60.000000
_cell_angle_beta 120.000000
_cell_angle_gamma 130.000000
_cell_volume 621.029576
_symmetry_space_group_name_H-M "P -1"
_symmetry_group_IT_number 2
_symmetry_cell_setting 'triclinic'
loop_
_space_group_symop_operation_xyz
x,y,z
-x,-y,-z
loop_
_atom_site_type_symbol
_atom_site_label
_atom_site_fract_x
_atom_site_fract_y
_atom_site_fract_z
Si Si1 0.905264 0.623152 0.475634
Si Si2 0.839981 0.023081 0.112449
Si Si3 0.473486 0.371025 0.366383
Si Si4 0.094055 0.860783 0.254868
Si Si5 0.002109 0.590562 0.107199
Si Si6 0.959029 0.765453 0.677924
Si Si7 0.542697 0.404246 0.943324
Si Si8 0.500000 0.000000 0.500000
O O1 0.669577 0.513961 0.461461
O O2 0.021624 0.758110 0.576576
O O3 0.000000 0.500000 0.500000
O O4 0.931661 0.761160 0.330036
O O5 0.869781 0.066974 0.240540
O O6 0.637991 0.828180 0.060864
O O7 0.044886 0.031781 0.141344
O O8 0.865460 0.224835 0.994177
O O9 0.251779 0.241410 0.387048
O O10 0.456223 0.482263 0.211256
O O11 0.543692 0.220854 0.410764
O O12 0.026157 0.699893 0.192782
O O13 0.305065 0.915138 0.366430
O O14 0.087554 0.446543 0.210980
O O15 0.768932 0.456612 0.033599
O O16 0.500000 0.500000 0.000000
#
# Coordination Sequence:
#
# PCOD9075624 Si02
#       8
#     2   2   2   2   2   2   2   1
#     4  12  24  48  76 105 149 200 257 314 382 456
#     4  12  26  46  76 113 151 200 257 311 390 446
#     4  12  25  47  73 111 153 198 256 311 392 451
#     4  12  24  46  74 111 144 200 256 314 376 456
#     4  12  25  50  76 108 159 200 251 323 378 455
#     4  12  27  48  76 109 160 202 248 329 385 453
#     4  12  26  45  81 113 150 203 261 315 373 464
#     4  12  24  42  78 108 148 200 254 308 388 458
#
# _framework density 24.153438999999999
#
# number of rings (size 3 to 8) (size 9 to 14) (size 15 to 20)
#    0.000    0.000    8.000    1.200    1.867    1.067 
#    0.000    0.000    0.000    0.000    0.000    0.000 
#    0.000    0.000    0.000    0.000    0.000    0.000 
#
# Total GULP energy -83520.350389 kJ/mol
# GULP energy per Si atom -5568.023359 kJ/mol
# Density = 2.409846 g / cm^3
# Si number density = 24.153439 Si / 1000 Ang^3
#
#
#
# Elastic Constant Matrix: (Units=GPa)
#
#
# Indices 1 2 3 4 5 6 
#
# 1 58.6516 37.7030 26.6260 16.5478 -6.2543 -6.3305
# 2 37.7030 128.0156 33.5802 51.9480 -5.3713 -2.3470
# 3 26.6260 33.5802 75.2912 39.5758 4.0614 -3.3102
# 4 16.5478 51.9480 39.5758 57.1712 -7.5352 5.1036
# 5 -6.2543 -5.3713 4.0614 -7.5352 47.4483 14.8349
# 6 -6.3305 -2.3470 -3.3102 5.1036 14.8349 30.6737
#
#
#
# Elastic Compliance Matrix: (Units=1/GPa)
#
#
# Indices 1 2 3 4 5 6 
#
# 1 0.024417 -0.007117 -0.008741 0.005900 0.003881 0.000693
# 2 -0.007117 0.014932 0.004271 -0.015297 -0.003394 0.004321
# 3 -0.008741 0.004271 0.027115 -0.022257 -0.009584 0.009788
# 4 0.005900 -0.015297 -0.022257 0.048475 0.014029 -0.017205
# 5 0.003881 -0.003394 -0.009584 0.014029 0.029613 -0.017149
# 6 0.000693 0.004321 0.009788 -0.017205 -0.017149 0.045288
#
#
# Mechanical properties :
#
#
# Convention : Reuss Voigt Hill
#
# Bulk Modulus (GPa) = 23.10015 50.86410 36.98212
# Shear Modulus (GPa) = 21.98362 37.99523 29.98942
#
# Velocity S-wave (km/s) = 3.02017 3.97051 3.52749
# Velocity P-wave (km/s) = 4.66332 6.49033 5.65115
#
# Compressibility (1/GPa) = 0.04328976
#
# Stress axis : x y z
#
# Youngs Moduli (GPa) = 40.95514 66.97219 36.88060
#
# Poissons Ratio (x) = 0.47664 0.32236
# Poissons Ratio (y) = 0.29148 -0.15752
# Poissons Ratio (z) = 0.35797 -0.28604
#
# Static dielectric constant tensor:
#      x y z
#    x 1.976830 -0.030540 0.007790 
#    y -0.030540 2.009560 -0.039630 
#    z 0.007790 -0.039630 1.983900 
# 
# From -- ./inp_files/381507.got.cif
#   From: 2010.05.17/outbox.ucp.g08.bks.cvg/sg2_191_cif.got.tgz:381507.got - 2010.06.11 11:32:03.
