data_PCOD9075733
_publ_section_title
;
Structure prediction by ZEFSAII (Michael W. Deem and Ramdas Pophale) SiO2 
 PCOD9075733
Probable space group: P -1
;
_chemical_formula_sum "Si O2"
_cell_formula_units_Z 12
_cell_length_a 11.231042
_cell_length_b 7.907441
_cell_length_c 17.754992
_cell_angle_alpha 113.492870
_cell_angle_beta 139.311295
_cell_angle_gamma 38.300816
_cell_volume 556.793343
_symmetry_space_group_name_H-M "P -1"
_symmetry_group_IT_number 2
_symmetry_cell_setting 'triclinic'
loop_
_space_group_symop_operation_xyz
x,y,z
-x,-y,-z
loop_
_atom_site_type_symbol
_atom_site_label
_atom_site_fract_x
_atom_site_fract_y
_atom_site_fract_z
Si Si1 0.769411 0.244785 0.839178
Si Si2 0.878316 0.715988 0.910030
Si Si3 0.343280 0.893121 0.672759
Si Si4 0.300357 0.593731 0.804185
Si Si5 0.784966 0.452241 0.094163
Si Si6 0.173440 0.848972 0.430335
O O1 0.590543 0.527901 0.747185
O O2 0.505236 0.383189 0.792135
O O3 0.963519 0.917855 0.842630
O O4 0.008151 0.174141 0.990158
O O5 0.532508 0.928002 0.770309
O O6 0.064181 0.528212 0.887875
O O7 0.000000 0.500000 0.000000
O O8 0.217659 0.951925 0.540084
O O9 0.074869 0.093695 0.642690
O O10 0.285399 0.449688 0.835579
O O11 0.483951 0.612300 0.937234
O O12 0.982963 0.924247 0.675571
O O13 0.500000 0.500000 0.500000
#
# Coordination Sequence:
#
# PCOD9075733 Si02
#       6
#     2   2   2   2   2   2
#     4   9  17  33  56  76 100 132 163 202 252 300
#     4   9  17  31  51  77 104 127 159 209 256 290
#     4   9  19  34  53  76 101 129 167 210 246 290
#     4   9  18  30  50  77  98 128 171 203 238 295
#     4  10  18  32  55  77 101 131 163 203 253 302
#     4  10  19  34  53  71  99 138 173 201 241 297
#
# _framework density 21.551981999999999
#
# number of rings (size 3 to 8) (size 9 to 14) (size 15 to 20)
#    0.000    2.667    0.000    4.000    0.000    0.000 
#    0.000    7.500    0.000   55.000    0.000    0.000 
#    0.000    0.000    0.000    0.000    0.000    0.000 
#
# Total GULP energy -66917.337335 kJ/mol
# GULP energy per Si atom -5576.444778 kJ/mol
# Density = 2.150293 g / cm^3
# Si number density = 21.551982 Si / 1000 Ang^3
#
#
#
# Elastic Constant Matrix: (Units=GPa)
#
#
# Indices 1 2 3 4 5 6 
#
# 1 148.6376 16.4940 49.0014 10.3218 -3.8718 -11.6364
# 2 16.4940 41.9963 15.9367 -13.4712 -2.7587 -6.3629
# 3 49.0014 15.9367 117.3949 -16.4424 -9.5874 -4.7577
# 4 10.3218 -13.4712 -16.4424 30.7460 1.3601 -0.8029
# 5 -3.8718 -2.7587 -9.5874 1.3601 45.9773 -2.5729
# 6 -11.6364 -6.3629 -4.7577 -0.8029 -2.5729 24.0256
#
#
#
# Elastic Compliance Matrix: (Units=1/GPa)
#
#
# Indices 1 2 3 4 5 6 
#
# 1 0.009217 -0.003911 -0.004199 -0.006992 0.000005 0.002364
# 2 -0.003911 0.031412 -0.000104 0.015139 0.001481 0.007069
# 3 -0.004199 -0.000104 0.011508 0.007454 0.001857 0.000665
# 4 -0.006992 0.015139 0.007454 0.045555 0.000733 0.003700
# 5 0.000005 0.001481 0.001857 0.000733 0.022383 0.003184
# 6 0.002364 0.007069 0.000665 0.003700 0.003184 0.045236
#
#
# Mechanical properties :
#
#
# Convention : Reuss Voigt Hill
#
# Bulk Modulus (GPa) = 28.00491 52.32143 40.16317
# Shear Modulus (GPa) = 25.82105 35.25623 30.53864
#
# Velocity S-wave (km/s) = 3.46509 4.04898 3.76836
# Velocity P-wave (km/s) = 5.38808 6.79621 6.13270
#
# Compressibility (1/GPa) = 0.03570802
#
# Stress axis : x y z
#
# Youngs Moduli (GPa) = 108.49693 31.83542 86.89786
#
# Poissons Ratio (x) = 0.12450 0.36492
# Poissons Ratio (y) = 0.42430 0.00904
# Poissons Ratio (z) = 0.45562 0.00331
#
# Static dielectric constant tensor:
#      x y z
#    x 1.863120 -0.006010 0.007980 
#    y -0.006010 1.870320 -0.021440 
#    z 0.007980 -0.021440 1.774980 
# 
# From -- ./inp_files/246109.got.cif
#   From: 2010.05.17/outbox.cif.g08.bks.cpg/sg2_124_cif.got.tgz:246109.got - 2010.06.03 11:33:40.
