data_PCOD9075461
_publ_section_title
;
Structure prediction by ZEFSAII (Michael W. Deem and Ramdas Pophale) SiO2 
 PCOD9075461
Probable space group: P -1
;
_chemical_formula_sum "Si O2"
_cell_formula_units_Z 14
_cell_length_a 30.000000
_cell_length_b 30.000000
_cell_length_c 12.000000
_cell_angle_alpha 20.000000
_cell_angle_beta 160.000000
_cell_angle_gamma 170.000000
_cell_volume 622.618477
_symmetry_space_group_name_H-M "P -1"
_symmetry_group_IT_number 2
_symmetry_cell_setting 'triclinic'
loop_
_space_group_symop_operation_xyz
x,y,z
-x,-y,-z
loop_
_atom_site_type_symbol
_atom_site_label
_atom_site_fract_x
_atom_site_fract_y
_atom_site_fract_z
Si Si1 0.011270 0.436025 0.913198
Si Si2 0.449929 0.075209 0.119412
Si Si3 0.425878 0.347196 0.079107
Si Si4 0.829905 0.971680 0.255863
Si Si5 0.005329 0.754275 0.462969
Si Si6 0.574748 0.596688 0.304399
Si Si7 0.067013 0.333901 0.755307
O O1 0.287151 0.662547 0.955362
O O2 0.945770 0.530416 0.551510
O O3 0.778246 0.167886 0.927553
O O4 0.971417 0.337717 0.173562
O O5 0.500000 0.000000 0.500000
O O6 0.301696 0.054367 0.896004
O O7 0.691284 0.497483 0.332470
O O8 0.175614 0.031686 0.245279
O O9 0.500000 0.500000 0.000000
O O10 0.409088 0.411902 0.772061
O O11 0.111372 0.147540 0.532784
O O12 0.598232 0.663721 0.427606
O O13 0.899724 0.111542 0.979303
O O14 0.064433 0.786244 0.394910
O O15 0.368260 0.539587 0.967923
#
# Coordination Sequence:
#
# PCOD9075461 Si02
#       7
#     2   2   2   2   2   2   2
#     4  12  27  47  79 105 151 192 245 300 362 438
#     4  12  27  48  72 110 145 196 246 301 365 420
#     4  11  25  46  71 103 150 186 242 302 356 432
#     4  12  26  45  76 104 150 188 245 299 362 434
#     4  11  26  47  72 109 140 193 244 296 365 430
#     4  11  26  45  72 110 139 194 241 299 366 428
#     4  11  26  49  74 108 154 188 246 299 362 438
#
# _framework density 22.485679999999999
#
# number of rings (size 3 to 8) (size 9 to 14) (size 15 to 20)
#    0.000    0.571    1.429    5.571    8.000    5.714 
#    0.000    5.000    0.000    0.000    0.000    0.000 
#    0.000    0.000    0.000    0.000    0.000    0.000 
#
# Total GULP energy -78143.265886 kJ/mol
# GULP energy per Si atom -5581.661849 kJ/mol
# Density = 2.243450 g / cm^3
# Si number density = 22.485680 Si / 1000 Ang^3
#
#
#
# Elastic Constant Matrix: (Units=GPa)
#
#
# Indices 1 2 3 4 5 6 
#
# 1 166.8611 53.8165 74.9448 4.3806 -0.4680 10.6561
# 2 53.8165 157.8976 51.7593 5.7662 -11.1224 1.9184
# 3 74.9448 51.7593 116.0026 -7.5150 -6.3235 -0.4684
# 4 4.3806 5.7662 -7.5150 22.4951 8.7261 -6.8094
# 5 -0.4680 -11.1224 -6.3235 8.7261 40.8992 -11.0163
# 6 10.6561 1.9184 -0.4684 -6.8094 -11.0163 37.8227
#
#
#
# Elastic Compliance Matrix: (Units=1/GPa)
#
#
# Indices 1 2 3 4 5 6 
#
# 1 0.009350 -0.001150 -0.005879 -0.004145 -0.001242 -0.003757
# 2 -0.001150 0.008004 -0.002939 -0.003802 0.002500 -0.000075
# 3 -0.005879 -0.002939 0.014265 0.007461 0.000698 0.003528
# 4 -0.004145 -0.003802 0.007461 0.054960 -0.009329 0.008630
# 5 -0.001242 0.002500 0.000698 -0.009329 0.029108 0.007030
# 6 -0.003757 -0.000075 0.003528 0.008630 0.007030 0.031146
#
#
# Mechanical properties :
#
#
# Convention : Reuss Voigt Hill
#
# Bulk Modulus (GPa) = 85.58488 89.08918 87.33703
# Shear Modulus (GPa) = 29.29743 37.59278 33.44510
#
# Velocity S-wave (km/s) = 3.61354 4.09327 3.86086
# Velocity P-wave (km/s) = 7.45351 7.87694 7.66815
#
# Compressibility (1/GPa) = 0.01168431
#
# Stress axis : x y z
#
# Youngs Moduli (GPa) = 106.95713 124.93089 70.09985
#
# Poissons Ratio (x) = 0.14368 0.41209
# Poissons Ratio (y) = 0.12301 0.20601
# Poissons Ratio (z) = 0.62876 0.36715
#
# Static dielectric constant tensor:
#      x y z
#    x 1.956740 -0.086800 -0.038610 
#    y -0.086800 1.832750 0.012210 
#    z -0.038610 0.012210 1.880140 
# 
# From -- ./inp_files/477834.got.cif
#   From: 2010.05.17/outbox.ucp.g08.bks.cvg/sg2_239_cif.got.tgz:477834.got - 2010.06.11 11:32:03.
