data_PCOD9075378
_publ_section_title
;
Structure prediction by ZEFSAII (Michael W. Deem and Ramdas Pophale) SiO2 
 PCOD9075378
Probable space group: P -1
;
_chemical_formula_sum "Si O2"
_cell_formula_units_Z 16
_cell_length_a 9.000000
_cell_length_b 15.000000
_cell_length_c 9.000000
_cell_angle_alpha 100.000000
_cell_angle_beta 130.000000
_cell_angle_gamma 110.000000
_cell_volume 732.374747
_symmetry_space_group_name_H-M "P -1"
_symmetry_group_IT_number 2
_symmetry_cell_setting 'triclinic'
loop_
_space_group_symop_operation_xyz
x,y,z
-x,-y,-z
loop_
_atom_site_type_symbol
_atom_site_label
_atom_site_fract_x
_atom_site_fract_y
_atom_site_fract_z
Si Si1 0.997794 0.891414 0.964872
Si Si2 0.481113 0.952466 0.138370
Si Si3 0.738630 0.302205 0.007047
Si Si4 0.509493 0.668026 0.907595
Si Si5 0.804227 0.320066 0.506407
Si Si6 0.487934 0.680303 0.427962
Si Si7 0.922749 0.161355 0.665994
Si Si8 0.778207 0.583948 0.464161
O O1 0.736378 0.788770 0.696985
O O2 0.234517 0.927588 0.036174
O O3 0.052663 0.863196 0.154186
O O4 0.000000 0.000000 0.000000
O O5 0.416874 0.828069 0.073972
O O6 0.729920 0.044878 0.416927
O O7 0.500000 0.000000 0.000000
O O8 0.642149 0.296721 0.778303
O O9 0.657983 0.367465 0.066672
O O10 0.020950 0.365395 0.256623
O O11 0.423201 0.727160 0.764160
O O12 0.416116 0.551416 0.730053
O O13 0.788584 0.752749 0.162398
O O14 0.728447 0.375867 0.599412
O O15 0.818470 0.232024 0.584362
O O16 0.036412 0.374264 0.552704
O O17 0.604788 0.621896 0.407366
#
# Coordination Sequence:
#
# PCOD9075378 Si02
#       8
#     2   2   2   2   2   2   2   2
#     4  12  26  48  72 106 151 191 247 305 372 446
#     4  12  26  44  75 109 146 189 244 312 368 447
#     4  11  24  45  75 108 149 191 247 309 375 434
#     4  11  26  48  76 107 152 199 244 309 374 441
#     4  11  24  47  75 109 151 192 250 303 367 443
#     4  12  25  46  78 110 147 199 251 303 371 447
#     4  12  26  47  75 107 150 197 244 303 375 442
#     4  11  26  51  73 112 154 193 251 312 363 444
#
# _framework density 21.846738999999999
#
# number of rings (size 3 to 8) (size 9 to 14) (size 15 to 20)
#    0.000    0.500    2.500    6.375    3.500    4.000 
#    0.000    4.375    0.000    0.000    0.000    0.000 
#    0.000    0.000    0.000    0.000    0.000    0.000 
#
# Total GULP energy -89144.985995 kJ/mol
# GULP energy per Si atom -5571.561625 kJ/mol
# Density = 2.179701 g / cm^3
# Si number density = 21.846739 Si / 1000 Ang^3
#
#
#
# Elastic Constant Matrix: (Units=GPa)
#
#
# Indices 1 2 3 4 5 6 
#
# 1 126.0481 26.9766 2.4224 -9.7943 -0.3390 -11.8379
# 2 26.9766 87.2989 37.1539 -11.5964 -11.1933 -20.1170
# 3 2.4224 37.1539 117.9532 -23.9144 -2.4042 -7.7473
# 4 -9.7943 -11.5964 -23.9144 47.7214 5.6484 -10.1653
# 5 -0.3390 -11.1933 -2.4042 5.6484 42.3152 -4.5204
# 6 -11.8379 -20.1170 -7.7473 -10.1653 -4.5204 37.0565
#
#
#
# Elastic Compliance Matrix: (Units=1/GPa)
#
#
# Indices 1 2 3 4 5 6 
#
# 1 0.008842 -0.002476 0.001223 0.002390 -0.000586 0.002320
# 2 -0.002476 0.017018 -0.004019 0.002961 0.004820 0.009008
# 3 0.001223 -0.004019 0.010876 0.005219 -0.000940 0.001800
# 4 0.002390 0.002961 0.005219 0.027238 -0.001387 0.010765
# 5 -0.000586 0.004820 -0.000940 -0.001387 0.025565 0.004971
# 6 0.002320 0.009008 0.001800 0.010765 0.004971 0.036553
#
#
# Mechanical properties :
#
#
# Convention : Reuss Voigt Hill
#
# Bulk Modulus (GPa) = 38.17992 51.60068 44.89030
# Shear Modulus (GPa) = 34.39603 43.06843 38.73223
#
# Velocity S-wave (km/s) = 3.97221 4.44485 4.21516
# Velocity P-wave (km/s) = 6.20903 7.07198 6.65451
#
# Compressibility (1/GPa) = 0.02619178
#
# Stress axis : x y z
#
# Youngs Moduli (GPa) = 113.09831 58.76266 91.94509
#
# Poissons Ratio (x) = 0.14549 -0.11247
# Poissons Ratio (y) = 0.28001 0.36955
# Poissons Ratio (z) = -0.13834 0.23618
#
# Static dielectric constant tensor:
#      x y z
#    x 1.895170 0.001500 -0.047590 
#    y 0.001500 1.886570 0.013160 
#    z -0.047590 0.013160 1.778330 
# 
# From -- ./inp_files/208039.got.cif
#   From: 2010.05.17/outbox.ucp.g08.bks.cvg/sg2_105_cif.got.tgz:208039.got - 2010.06.11 11:32:03.
