data_PCOD9075350
_publ_section_title
;
Structure prediction by ZEFSAII (Michael W. Deem and Ramdas Pophale) SiO2 
 PCOD9075350
Probable space group: P -1
;
_chemical_formula_sum "Si O2"
_cell_formula_units_Z 16
_cell_length_a 12.000000
_cell_length_b 9.000000
_cell_length_c 15.000000
_cell_angle_alpha 30.000000
_cell_angle_beta 100.000000
_cell_angle_gamma 110.000000
_cell_volume 734.803614
_symmetry_space_group_name_H-M "P -1"
_symmetry_group_IT_number 2
_symmetry_cell_setting 'triclinic'
loop_
_space_group_symop_operation_xyz
x,y,z
-x,-y,-z
loop_
_atom_site_type_symbol
_atom_site_label
_atom_site_fract_x
_atom_site_fract_y
_atom_site_fract_z
Si Si1 0.558583 0.163271 0.333461
Si Si2 0.627051 0.812984 0.840616
Si Si3 0.756839 0.729850 0.166163
Si Si4 0.071499 0.671015 0.594860
Si Si5 0.780655 0.956706 0.419615
Si Si6 0.210404 0.691850 0.250645
Si Si7 0.869685 0.772590 0.828442
Si Si8 0.862266 0.084386 0.160416
O O1 0.433480 0.058107 0.313215
O O2 0.640296 0.525471 0.193868
O O3 0.500000 0.000000 0.500000
O O4 0.663186 0.049743 0.368891
O O5 0.739603 0.699684 0.896941
O O6 0.690195 0.092621 0.776029
O O7 0.500000 0.500000 0.000000
O O8 0.852415 0.555999 0.271670
O O9 0.758053 0.823912 0.221091
O O10 0.805958 0.074933 0.946927
O O11 0.929923 0.491209 0.641100
O O12 0.102925 0.834226 0.611876
O O13 0.125090 0.957462 0.382243
O O14 0.747539 0.586045 0.633190
O O15 0.824359 0.010109 0.296387
O O16 0.997575 0.900939 0.836666
O O17 0.867833 0.442961 0.957198
#
# Coordination Sequence:
#
# PCOD9075350 Si02
#       8
#     2   2   2   2   2   2   2   2
#     4  11  26  49  71  95 141 192 237 284 342 416
#     4  12  25  47  69 101 142 194 239 279 342 421
#     4  11  25  44  67 102 141 185 233 290 346 420
#     4  11  24  44  72 105 144 180 228 293 366 415
#     4  11  25  45  74 105 141 180 229 298 351 418
#     4  12  25  42  73 104 140 183 240 289 351 417
#     4  11  25  43  73 102 147 182 223 301 355 414
#     4  11  25  43  71 110 139 175 231 294 367 408
#
# _framework density 21.774525000000001
#
# number of rings (size 3 to 8) (size 9 to 14) (size 15 to 20)
#    0.000    0.750    2.500    4.500    8.750    1.500 
#    2.250    1.250    0.000    0.000    0.000    0.000 
#    0.000    0.000    0.000    0.000    0.000    0.000 
#
# Total GULP energy -89209.927534 kJ/mol
# GULP energy per Si atom -5575.620471 kJ/mol
# Density = 2.172497 g / cm^3
# Si number density = 21.774525 Si / 1000 Ang^3
#
#
#
# Elastic Constant Matrix: (Units=GPa)
#
#
# Indices 1 2 3 4 5 6 
#
# 1 106.9087 21.5731 19.0342 -1.1915 -1.2582 13.1705
# 2 21.5731 127.5826 31.7795 -15.8164 3.5866 18.0205
# 3 19.0342 31.7795 111.3045 -0.6088 12.6628 -7.6720
# 4 -1.1915 -15.8164 -0.6088 26.0527 5.0936 2.7430
# 5 -1.2582 3.5866 12.6628 5.0936 35.9445 1.0152
# 6 13.1705 18.0205 -7.6720 2.7430 1.0152 28.8288
#
#
#
# Elastic Compliance Matrix: (Units=1/GPa)
#
#
# Indices 1 2 3 4 5 6 
#
# 1 0.010489 -0.000496 -0.002147 0.000423 0.001258 -0.005138
# 2 -0.000496 0.010895 -0.003468 0.007514 -0.000716 -0.008197
# 3 -0.002147 -0.003468 0.011182 -0.001920 -0.003578 0.006433
# 4 0.000423 0.007514 -0.001920 0.045127 -0.006186 -0.009477
# 5 0.001258 -0.000716 -0.003578 -0.006186 0.030117 -0.001551
# 6 -0.005138 -0.008197 0.006433 -0.009477 -0.001551 0.044827
#
#
# Mechanical properties :
#
#
# Convention : Reuss Voigt Hill
#
# Bulk Modulus (GPa) = 49.15728 54.50771 51.83250
# Shear Modulus (GPa) = 29.13082 36.39247 32.76165
#
# Velocity S-wave (km/s) = 3.66162 4.09263 3.88311
# Velocity P-wave (km/s) = 6.36405 6.88621 6.63028
#
# Compressibility (1/GPa) = 0.02034287
#
# Stress axis : x y z
#
# Youngs Moduli (GPa) = 95.34203 91.78375 89.43115
#
# Poissons Ratio (x) = 0.04552 0.19201
# Poissons Ratio (y) = 0.04728 0.31018
# Poissons Ratio (z) = 0.20470 0.31834
#
# Static dielectric constant tensor:
#      x y z
#    x 1.711980 -0.095030 -0.047870 
#    y -0.095030 1.771490 -0.033340 
#    z -0.047870 -0.033340 1.880430 
# 
# From -- ./inp_files/514834.got.cif
#   From: 2010.05.17/outbox.ucp.g08.bks.cvg/sg2_258_cif.got.tgz:514834.got - 2010.06.11 11:32:03.
