data_PCOD9075885
_publ_section_title
;
Structure prediction by ZEFSAII (Michael W. Deem and Ramdas Pophale) SiO2 
 PCOD9075885
Probable space group: P -1
;
_chemical_formula_sum "Si O2"
_cell_formula_units_Z 16
_cell_length_a 11.635034
_cell_length_b 8.621913
_cell_length_c 9.378171
_cell_angle_alpha 76.085475
_cell_angle_beta 84.905393
_cell_angle_gamma 63.479766
_cell_volume 816.901933
_symmetry_space_group_name_H-M "P -1"
_symmetry_group_IT_number 2
_symmetry_cell_setting 'triclinic'
loop_
_space_group_symop_operation_xyz
x,y,z
-x,-y,-z
loop_
_atom_site_type_symbol
_atom_site_label
_atom_site_fract_x
_atom_site_fract_y
_atom_site_fract_z
Si Si1 0.592552 0.577405 0.794771
Si Si2 0.176191 0.387343 0.155737
Si Si3 0.295225 0.974029 0.242524
Si Si4 0.207310 0.982544 0.770541
Si Si5 0.092120 0.328009 0.899480
Si Si6 0.027946 0.061873 0.136449
Si Si7 0.416113 0.768860 0.016629
Si Si8 0.427304 0.874194 0.538488
O O1 0.742338 0.521875 0.802483
O O2 0.565735 0.408890 0.864020
O O3 0.523819 0.687202 0.638760
O O4 0.531507 0.714221 0.904555
O O5 0.027981 0.504642 0.187510
O O6 0.240937 0.181923 0.241665
O O7 0.180444 0.380116 0.982613
O O8 0.385347 0.920085 0.104559
O O9 0.376088 0.862345 0.390609
O O10 0.168096 0.951718 0.215006
O O11 0.085824 0.943942 0.756151
O O12 0.302507 0.958820 0.635747
O O13 0.161255 0.174357 0.810455
O O14 0.291719 0.838953 0.912115
O O15 0.032308 0.243052 0.044995
O O16 0.000000 0.000000 0.000000
O O17 0.500000 0.000000 0.500000
#
# Coordination Sequence:
#
# PCOD9075885 Si02
#       8
#     2   2   2   2   2   2   2   2
#     4  10  22  36  60  82 116 155 192 245 281 343
#     4  10  18  32  56  87 115 146 190 236 294 336
#     4  11  21  36  59  86 119 153 191 236 293 348
#     4  10  19  36  61  88 116 152 189 241 296 337
#     4   9  18  31  57  93 113 140 191 250 290 336
#     4   9  16  32  58  88 109 143 186 245 287 333
#     4  10  20  37  59  90 109 146 205 241 286 334
#     4  11  24  40  55  82 125 161 193 229 288 352
#
# _framework density 19.586192
#
# number of rings (size 3 to 8) (size 9 to 14) (size 15 to 20)
#    0.000    2.000    5.000    0.750    1.750    2.500 
#    0.000    0.625    0.000    3.000    0.000    0.000 
#    0.000    0.000    0.000    0.000    0.000    0.000 
#
# Total GULP energy -89110.000097 kJ/mol
# GULP energy per Si atom -5569.375006 kJ/mol
# Density = 1.954161 g / cm^3
# Si number density = 19.586192 Si / 1000 Ang^3
#
#
#
# Elastic Constant Matrix: (Units=GPa)
#
#
# Indices 1 2 3 4 5 6 
#
# 1 74.4617 -7.0792 29.7493 -0.4680 11.1378 -6.3048
# 2 -7.0792 43.7537 5.1201 -9.1829 7.9610 -9.7500
# 3 29.7493 5.1201 80.2429 -11.0887 17.0136 -4.5248
# 4 -0.4680 -9.1829 -11.0887 25.9480 -7.0371 -0.7160
# 5 11.1378 7.9610 17.0136 -7.0371 30.5822 -0.8351
# 6 -6.3048 -9.7500 -4.5248 -0.7160 -0.8351 20.4726
#
#
#
# Elastic Compliance Matrix: (Units=1/GPa)
#
#
# Indices 1 2 3 4 5 6 
#
# 1 0.017463 0.005552 -0.005616 -0.001238 -0.004787 0.006542
# 2 0.005552 0.030698 -0.000267 0.009327 -0.007273 0.016300
# 3 -0.005616 -0.000267 0.016647 0.005378 -0.005860 0.001772
# 4 -0.001238 0.009327 0.005378 0.045879 0.005782 0.007090
# 5 -0.004787 -0.007273 -0.005860 0.005782 0.040807 -0.004367
# 6 0.006542 0.016300 0.001772 0.007090 -0.004367 0.059085
#
#
# Mechanical properties :
#
#
# Convention : Reuss Voigt Hill
#
# Bulk Modulus (GPa) = 15.58932 28.22652 21.90792
# Shear Modulus (GPa) = 21.49404 26.77843 24.13623
#
# Velocity S-wave (km/s) = 3.31631 3.70159 3.51423
# Velocity P-wave (km/s) = 4.75820 5.71942 5.26081
#
# Compressibility (1/GPa) = 0.06414646
#
# Stress axis : x y z
#
# Youngs Moduli (GPa) = 57.26252 32.57557 60.07161
#
# Poissons Ratio (x) = -0.18085 0.33735
# Poissons Ratio (y) = -0.31791 0.01603
# Poissons Ratio (z) = 0.32157 0.00869
#
# Static dielectric constant tensor:
#      x y z
#    x 1.779420 0.005060 -0.001500 
#    y 0.005060 1.737380 0.012670 
#    z -0.001500 0.012670 1.690440 
# 
# From -- ./inp_files/238439.got.cif
#   From: 2010.05.17/outbox.cif.g08.bks.cpg/sg2_120_cif.got.tgz:238439.got - 2010.06.03 11:33:40.
