data_PCOD9075812
_publ_section_title
;
Structure prediction by ZEFSAII (Michael W. Deem and Ramdas Pophale) SiO2 
 PCOD9075812
Probable space group: P -1
;
_chemical_formula_sum "Si O2"
_cell_formula_units_Z 14
_cell_length_a 7.270333
_cell_length_b 7.403217
_cell_length_c 12.222556
_cell_angle_alpha 126.889844
_cell_angle_beta 111.676094
_cell_angle_gamma 84.506183
_cell_volume 481.873333
_symmetry_space_group_name_H-M "P -1"
_symmetry_group_IT_number 2
_symmetry_cell_setting 'triclinic'
loop_
_space_group_symop_operation_xyz
x,y,z
-x,-y,-z
loop_
_atom_site_type_symbol
_atom_site_label
_atom_site_fract_x
_atom_site_fract_y
_atom_site_fract_z
Si Si1 0.026540 0.414657 0.176740
Si Si2 0.238409 0.513838 0.550759
Si Si3 0.158560 0.090611 0.254837
Si Si4 0.330077 0.315618 0.043626
Si Si5 0.691201 0.670232 0.260498
Si Si6 0.260095 0.912212 0.438552
Si Si7 0.493359 0.962016 0.823248
O O1 0.005844 0.200000 0.180623
O O2 0.114751 0.334037 0.053411
O O3 0.189324 0.637879 0.334090
O O4 0.827142 0.524750 0.167218
O O5 0.288750 0.332929 0.409415
O O6 0.290491 0.429276 0.649495
O O7 0.352165 0.766502 0.655805
O O8 0.000000 0.500000 0.500000
O O9 0.299718 0.960448 0.166339
O O10 0.132278 0.969963 0.323564
O O11 0.459933 0.565682 0.148256
O O12 0.432171 0.172387 0.105843
O O13 0.361821 0.158043 0.890250
O O14 0.771242 0.933194 0.406376
O O15 0.500000 0.000000 0.500000
#
# Coordination Sequence:
#
# PCOD9075812 Si02
#       7
#     2   2   2   2   2   2   2
#     4  11  21  39  64  86 125 162 197 257 310 351
#     4  10  18  32  55  91 121 145 206 252 294 367
#     4  10  22  37  62  88 121 159 200 251 312 358
#     4   9  19  38  57  88 122 158 212 243 292 378
#     4  10  20  37  60  88 122 160 198 255 306 360
#     4  11  23  36  60  95 123 156 209 253 303 372
#     4   9  19  35  57  85 123 161 199 251 301 359
#
# _framework density 29.053277999999999
#
# number of rings (size 3 to 8) (size 9 to 14) (size 15 to 20)
#    0.000    2.000    2.857    0.857    4.000    0.000 
#    2.571    3.571    0.000    0.857    0.000    0.000 
#    0.000    0.000    0.000    0.000    0.000    0.000 
#
# Total GULP energy -78348.415418 kJ/mol
# GULP energy per Si atom -5596.315387 kJ/mol
# Density = 2.898715 g / cm^3
# Si number density = 29.053278 Si / 1000 Ang^3
#
#
#
# Elastic Constant Matrix: (Units=GPa)
#
#
# Indices 1 2 3 4 5 6 
#
# 1 131.3233 31.7021 35.5358 10.3733 -8.0246 -17.5670
# 2 31.7021 182.5560 5.7345 25.4404 -4.3282 -2.1409
# 3 35.5358 5.7345 104.6770 24.2846 -21.3780 -4.7131
# 4 10.3733 25.4404 24.2846 27.2696 -9.9280 -5.6810
# 5 -8.0246 -4.3282 -21.3780 -9.9280 57.3629 9.1732
# 6 -17.5670 -2.1409 -4.7131 -5.6810 9.1732 33.6996
#
#
#
# Elastic Compliance Matrix: (Units=1/GPa)
#
#
# Indices 1 2 3 4 5 6 
#
# 1 0.009426 -0.001753 -0.003442 0.001919 -0.000530 0.004789
# 2 -0.001753 0.006778 0.001925 -0.007721 -0.000116 -0.001484
# 3 -0.003442 0.001925 0.014013 -0.012365 0.003171 -0.002660
# 4 0.001919 -0.007721 -0.012365 0.057066 0.003775 0.007373
# 5 -0.000530 -0.000116 0.003171 0.003775 0.019925 -0.004627
# 6 0.004789 -0.001484 -0.002660 0.007373 -0.004627 0.034206
#
#
# Mechanical properties :
#
#
# Convention : Reuss Voigt Hill
#
# Bulk Modulus (GPa) = 42.23595 62.72234 52.47914
# Shear Modulus (GPa) = 32.08316 46.70535 39.39425
#
# Velocity S-wave (km/s) = 3.32669 4.01381 3.68629
# Velocity P-wave (km/s) = 5.41523 6.56631 6.01836
#
# Compressibility (1/GPa) = 0.02367651
#
# Stress axis : x y z
#
# Youngs Moduli (GPa) = 106.09205 147.54590 71.36446
#
# Poissons Ratio (x) = 0.25859 0.24561
# Poissons Ratio (y) = 0.18594 -0.13735
# Poissons Ratio (z) = 0.36514 -0.28396
#
# Static dielectric constant tensor:
#      x y z
#    x 2.245750 0.000680 -0.048800 
#    y 0.000680 2.289090 -0.079810 
#    z -0.048800 -0.079810 2.337890 
# 
# From -- ./inp_files/209045.got.cif
#   From: 2010.05.17/outbox.cif.g08.bks.cpg/sg2_105_cif.got.tgz:209045.got - 2010.06.03 11:33:40.
