data_PCOD9075588
_publ_section_title
;
Structure prediction by ZEFSAII (Michael W. Deem and Ramdas Pophale) SiO2 
 PCOD9075588
Probable space group: P -1
;
_chemical_formula_sum "Si O2"
_cell_formula_units_Z 16
_cell_length_a 9.000000
_cell_length_b 27.000000
_cell_length_c 27.000000
_cell_angle_alpha 10.000000
_cell_angle_beta 140.000000
_cell_angle_gamma 140.000000
_cell_volume 728.340053
_symmetry_space_group_name_H-M "P -1"
_symmetry_group_IT_number 2
_symmetry_cell_setting 'triclinic'
loop_
_space_group_symop_operation_xyz
x,y,z
-x,-y,-z
loop_
_atom_site_type_symbol
_atom_site_label
_atom_site_fract_x
_atom_site_fract_y
_atom_site_fract_z
Si Si1 0.318471 0.053682 0.614009
Si Si2 0.991451 0.507673 0.048309
Si Si3 0.702905 0.076566 0.601500
Si Si4 0.449566 0.461474 0.966611
Si Si5 0.618018 0.142184 0.702571
Si Si6 0.896819 0.587803 0.488065
Si Si7 0.122510 0.897878 0.955415
Si Si8 0.458121 0.349654 0.752592
O O1 0.137865 0.282116 0.333891
O O2 0.494562 0.061106 0.604451
O O3 0.468542 0.060601 0.695613
O O4 0.134016 0.782941 0.835032
O O5 0.000000 0.500000 0.000000
O O6 0.718867 0.497884 0.988751
O O7 0.689567 0.360727 0.284625
O O8 0.658225 0.851965 0.766894
O O9 0.922644 0.997003 0.769492
O O10 0.500000 0.500000 0.000000
O O11 0.486436 0.372505 0.472668
O O12 0.864023 0.283957 0.603789
O O13 0.648663 0.891096 0.997769
O O14 0.946992 0.330848 0.791965
O O15 0.714608 0.551445 0.431761
O O16 0.796855 0.817647 0.272873
O O17 0.323323 0.771473 0.099224
#
# Coordination Sequence:
#
# PCOD9075588 Si02
#       8
#     2   2   2   2   2   2   2   2
#     4  12  24  42  71  98 131 176 233 275 332 402
#     4  12  23  42  70  96 127 173 221 282 328 395
#     4  12  24  45  70  95 137 176 225 280 333 412
#     4  12  27  44  68 100 135 173 221 276 348 404
#     4  12  26  44  70 104 142 184 232 290 353 401
#     4  12  24  46  74 102 138 191 236 279 344 424
#     4  12  26  44  75 102 140 188 236 278 352 418
#     4  12  26  46  68 107 146 178 231 299 344 404
#
# _framework density 21.967760999999999
#
# number of rings (size 3 to 8) (size 9 to 14) (size 15 to 20)
#    0.000    0.000    3.750    6.750    1.750    3.000 
#    0.000    0.000    0.000    0.000    0.000    0.000 
#    0.000    0.000    0.000    0.000    0.000    0.000 
#
# Total GULP energy -89098.347445 kJ/mol
# GULP energy per Si atom -5568.646715 kJ/mol
# Density = 2.191776 g / cm^3
# Si number density = 21.967761 Si / 1000 Ang^3
#
#
#
# Elastic Constant Matrix: (Units=GPa)
#
#
# Indices 1 2 3 4 5 6 
#
# 1 77.4857 13.4321 6.0112 13.0404 -13.1721 -21.4892
# 2 13.4321 121.1994 11.0377 24.1788 -3.0868 -19.5840
# 3 6.0112 11.0377 108.8516 11.4118 -8.1819 -3.1518
# 4 13.0404 24.1788 11.4118 47.1314 -9.4658 7.4846
# 5 -13.1721 -3.0868 -8.1819 -9.4658 30.5861 4.7650
# 6 -21.4892 -19.5840 -3.1518 7.4846 4.7650 46.0495
#
#
#
# Elastic Compliance Matrix: (Units=1/GPa)
#
#
# Indices 1 2 3 4 5 6 
#
# 1 0.016832 0.000741 0.000154 -0.005586 0.004289 0.008644
# 2 0.000741 0.010500 -0.000347 -0.006830 -0.001775 0.006081
# 3 0.000154 -0.000347 0.009576 -0.001913 0.001892 0.000695
# 4 -0.005586 -0.006830 -0.001913 0.030018 0.007442 -0.011291
# 5 0.004289 -0.001775 0.001892 0.007442 0.037755 -0.003740
# 6 0.008644 0.006081 0.000695 -0.011291 -0.003740 0.030606
#
#
# Mechanical properties :
#
#
# Convention : Reuss Voigt Hill
#
# Bulk Modulus (GPa) = 26.31317 40.94431 33.62874
# Shear Modulus (GPa) = 34.04615 43.22378 38.63497
#
# Velocity S-wave (km/s) = 3.94105 4.44058 4.19825
# Velocity P-wave (km/s) = 5.71955 6.70600 6.23232
#
# Compressibility (1/GPa) = 0.03800378
#
# Stress axis : x y z
#
# Youngs Moduli (GPa) = 59.41155 95.23476 104.42243
#
# Poissons Ratio (x) = -0.07056 -0.01604
# Poissons Ratio (y) = -0.04402 0.03623
# Poissons Ratio (z) = -0.00913 0.03304
#
# Static dielectric constant tensor:
#      x y z
#    x 1.761150 0.004940 0.006090 
#    y 0.004940 1.743540 -0.040970 
#    z 0.006090 -0.040970 1.834430 
# 
# From -- ./inp_files/617687.got.cif
#   From: 2010.05.17/outbox.ucp.g08.bks.cvg/sg2_309_cif.got.tgz:617687.got - 2010.06.11 11:32:03.
