data_PCOD9075338
_publ_section_title
;
Structure prediction by ZEFSAII (Michael W. Deem and Ramdas Pophale) SiO2 
 PCOD9075338
Probable space group: P -1
;
_chemical_formula_sum "Si O2"
_cell_formula_units_Z 16
_cell_length_a 6.000000
_cell_length_b 18.000000
_cell_length_c 9.000000
_cell_angle_alpha 100.000000
_cell_angle_beta 130.000000
_cell_angle_gamma 80.000000
_cell_volume 730.800219
_symmetry_space_group_name_H-M "P -1"
_symmetry_group_IT_number 2
_symmetry_cell_setting 'triclinic'
loop_
_space_group_symop_operation_xyz
x,y,z
-x,-y,-z
loop_
_atom_site_type_symbol
_atom_site_label
_atom_site_fract_x
_atom_site_fract_y
_atom_site_fract_z
Si Si1 0.252872 0.456626 0.688197
Si Si2 0.760636 0.059397 0.994117
Si Si3 0.411242 0.699124 0.241023
Si Si4 0.334844 0.805991 0.530208
Si Si5 0.674205 0.808626 0.201234
Si Si6 0.753814 0.722012 0.913204
Si Si7 0.746004 0.045921 0.316073
Si Si8 0.235141 0.440862 0.002487
O O1 0.451926 0.384171 0.681637
O O2 0.468422 0.519306 0.844189
O O3 0.000000 0.500000 0.500000
O O4 0.132486 0.431211 0.786254
O O5 0.625862 0.137797 0.887933
O O6 0.469875 0.015811 0.844457
O O7 0.843295 0.075816 0.206364
O O8 0.000000 0.000000 0.000000
O O9 0.377516 0.761459 0.378777
O O10 0.634498 0.729467 0.232743
O O11 0.099841 0.704008 0.025146
O O12 0.520242 0.749087 0.699017
O O13 0.430907 0.889431 0.637629
O O14 0.985210 0.828019 0.406162
O O15 0.719691 0.790574 0.041227
O O16 0.694506 0.640964 0.924869
O O17 0.000000 0.000000 0.500000
O O18 0.000000 0.500000 0.000000
#
# Coordination Sequence:
#
# PCOD9075338 Si02
#       8
#     2   2   2   2   2   2   2   2
#     4  11  26  43  65  99 132 165 216 270 314 381
#     4  11  26  41  70  94 129 174 209 269 321 374
#     4  11  26  42  65  97 131 166 216 268 314 383
#     4  11  26  42  68  94 127 175 210 265 324 379
#     4  11  24  45  62  97 133 164 217 266 316 381
#     4  11  24  45  66  91 132 172 214 261 322 379
#     4  11  24  46  63  95 134 165 219 263 316 386
#     4  11  24  44  67  93 130 175 213 259 322 383
#
# _framework density 21.893808
#
# number of rings (size 3 to 8) (size 9 to 14) (size 15 to 20)
#    0.000    1.000    5.000    0.000    7.000    3.000 
#    0.000    0.000    0.000    0.000    0.000    0.000 
#    0.000    0.000    0.000    0.000    0.000    0.000 
#
# Total GULP energy -89081.793857 kJ/mol
# GULP energy per Si atom -5567.612116 kJ/mol
# Density = 2.184398 g / cm^3
# Si number density = 21.893808 Si / 1000 Ang^3
#
#
#
# Elastic Constant Matrix: (Units=GPa)
#
#
# Indices 1 2 3 4 5 6 
#
# 1 32.4511 13.4350 35.6763 -9.9171 -0.0082 -19.1360
# 2 13.4350 134.2184 45.4865 -25.8417 -5.5570 -20.5162
# 3 35.6763 45.4865 143.8165 -37.0665 -4.8915 -10.1428
# 4 -9.9171 -25.8417 -37.0665 44.2698 -10.4541 7.0162
# 5 -0.0082 -5.5570 -4.8915 -10.4541 15.9993 0.2436
# 6 -19.1360 -20.5162 -10.1428 7.0162 0.2436 40.0692
#
#
#
# Elastic Compliance Matrix: (Units=1/GPa)
#
#
# Indices 1 2 3 4 5 6 
#
# 1 0.061695 0.002220 -0.015198 -0.003498 -0.006547 0.027406
# 2 0.002220 0.009867 -0.001655 0.005684 0.006565 0.004658
# 3 -0.015198 -0.001655 0.013983 0.010963 0.010955 -0.006552
# 4 -0.003498 0.005684 0.010963 0.042751 0.033314 -0.003674
# 5 -0.006547 0.006565 0.010955 0.033314 0.089948 -0.003372
# 6 0.027406 0.004658 -0.006552 -0.003674 -0.003372 0.039435
#
#
# Mechanical properties :
#
#
# Convention : Reuss Voigt Hill
#
# Bulk Modulus (GPa) = 17.76867 55.52016 36.64442
# Shear Modulus (GPa) = 16.35557 34.46023 25.40790
#
# Velocity S-wave (km/s) = 2.73617 3.97163 3.41032
# Velocity P-wave (km/s) = 4.25625 6.81511 5.68161
#
# Compressibility (1/GPa) = 0.05627884
#
# Stress axis : x y z
#
# Youngs Moduli (GPa) = 16.20867 101.34444 71.51643
#
# Poissons Ratio (x) = -0.22494 1.08692
# Poissons Ratio (y) = -0.03598 0.11834
# Poissons Ratio (z) = 0.24634 0.16770
#
# Static dielectric constant tensor:
#      x y z
#    x 1.913520 0.072270 -0.001880 
#    y 0.072270 1.878960 -0.002090 
#    z -0.001880 -0.002090 1.904710 
# 
# From -- ./inp_files/13710.got.cif
#   From: 2010.05.17/outbox.ucp.g08.bks.cvg/sg2_7_cif.got.tgz:13710.got - 2010.06.11 11:32:03.
