data_PCOD9075669
_publ_section_title
;
Structure prediction by ZEFSAII (Michael W. Deem and Ramdas Pophale) SiO2 
 PCOD9075669
Probable space group: P -1
;
_chemical_formula_sum "Si O2"
_cell_formula_units_Z 14
_cell_length_a 15.000000
_cell_length_b 15.000000
_cell_length_c 27.000000
_cell_angle_alpha 20.000000
_cell_angle_beta 20.000000
_cell_angle_gamma 20.000000
_cell_volume 621.679612
_symmetry_space_group_name_H-M "P -1"
_symmetry_group_IT_number 2
_symmetry_cell_setting 'triclinic'
loop_
_space_group_symop_operation_xyz
x,y,z
-x,-y,-z
loop_
_atom_site_type_symbol
_atom_site_label
_atom_site_fract_x
_atom_site_fract_y
_atom_site_fract_z
Si Si1 0.202084 0.065273 0.322105
Si Si2 0.713382 0.218409 0.004875
Si Si3 0.717842 0.461616 0.150697
Si Si4 0.576176 0.158481 0.473360
Si Si5 0.779214 0.014328 0.918228
Si Si6 0.120750 0.541380 0.302529
Si Si7 0.686631 0.569617 0.270483
O O1 0.504615 0.073497 0.175317
O O2 0.980712 0.393893 0.243072
O O3 0.362632 0.764541 0.362236
O O4 0.000000 0.000000 0.500000
O O5 0.500000 0.500000 0.000000
O O6 0.820333 0.360324 0.832256
O O7 0.000000 0.000000 0.000000
O O8 0.627366 0.293572 0.325952
O O9 0.452711 0.790951 0.105272
O O10 0.877926 0.210695 0.156157
O O11 0.000000 0.500000 0.000000
O O12 0.702906 0.287914 0.381271
O O13 0.227620 0.306726 0.585932
O O14 0.730314 0.805503 0.582025
O O15 0.753322 0.293610 0.815145
O O16 0.695109 0.805518 0.104213
#
# Coordination Sequence:
#
# PCOD9075669 Si02
#       7
#     2   2   2   2   2   2   2
#     4  12  28  48  77 111 143 190 250 299 357 435
#     4  12  28  48  75 105 149 191 236 300 369 431
#     4  12  26  45  74 109 142 185 247 299 355 416
#     4  12  28  45  74 108 145 189 242 298 356 430
#     4  12  26  47  77  99 147 195 234 295 361 433
#     4  12  28  48  71 106 148 190 238 291 372 433
#     4  12  26  48  76 106 148 193 242 295 363 430
#
# _framework density 22.519638
#
# number of rings (size 3 to 8) (size 9 to 14) (size 15 to 20)
#    0.000    0.000    2.857    6.000   10.000    3.429 
#    0.000    0.000    0.000    0.000    0.000    0.000 
#    0.000    0.000    0.000    0.000    0.000    0.000 
#
# Total GULP energy -78145.237908 kJ/mol
# GULP energy per Si atom -5581.802708 kJ/mol
# Density = 2.246838 g / cm^3
# Si number density = 22.519638 Si / 1000 Ang^3
#
#
#
# Elastic Constant Matrix: (Units=GPa)
#
#
# Indices 1 2 3 4 5 6 
#
# 1 65.6354 62.1814 75.0881 -4.7818 13.8269 -10.0496
# 2 62.1814 200.3990 84.8879 -16.2276 15.1513 -13.0267
# 3 75.0881 84.8879 206.0380 -1.0919 16.7520 -5.1055
# 4 -4.7818 -16.2276 -1.0919 61.5557 10.9961 2.8879
# 5 13.8269 15.1513 16.7520 10.9961 29.7036 2.4475
# 6 -10.0496 -13.0267 -5.1055 2.8879 2.4475 46.7810
#
#
#
# Elastic Compliance Matrix: (Units=1/GPa)
#
#
# Indices 1 2 3 4 5 6 
#
# 1 0.033689 -0.005343 -0.009199 0.002431 -0.009086 0.005071
# 2 -0.005343 0.007340 -0.000932 0.001724 -0.001432 0.000763
# 3 -0.009199 -0.000932 0.008525 -0.000813 0.000356 -0.001274
# 4 0.002431 0.001724 -0.000813 0.018359 -0.008366 0.000218
# 5 -0.009086 -0.001432 0.000356 -0.008366 0.041851 -0.003985
# 6 0.005071 0.000763 -0.001274 0.000218 -0.003985 0.022734
#
#
# Mechanical properties :
#
#
# Convention : Reuss Voigt Hill
#
# Bulk Modulus (GPa) = 53.74767 101.82081 77.78424
# Shear Modulus (GPa) = 29.47258 44.26906 36.87082
#
# Velocity S-wave (km/s) = 3.62159 4.43854 4.05071
# Velocity P-wave (km/s) = 6.43481 8.46049 7.51620
#
# Compressibility (1/GPa) = 0.01860546
#
# Stress axis : x y z
#
# Youngs Moduli (GPa) = 29.68329 136.23184 117.29817
#
# Poissons Ratio (x) = 0.72793 1.07900
# Poissons Ratio (y) = 0.15861 0.10938
# Poissons Ratio (z) = 0.27305 0.12704
#
# Static dielectric constant tensor:
#      x y z
#    x 2.133920 0.124280 -0.082100 
#    y 0.124280 1.893750 -0.065190 
#    z -0.082100 -0.065190 1.772930 
# 
# From -- ./inp_files/313370.got.cif
#   From: 2010.05.17/outbox.ucp.g08.bks.cvg/sg2_157_cif.got.tgz:313370.got - 2010.06.11 11:32:03.
