data_PCOD9075086
_publ_section_title
;
Structure prediction by ZEFSAII (Michael W. Deem and Ramdas Pophale) SiO2 
 PCOD9075086
Probable space group: P -1
;
_chemical_formula_sum "Si O2"
_cell_formula_units_Z 16
_cell_length_a 9.000000
_cell_length_b 6.000000
_cell_length_c 21.000000
_cell_angle_alpha 120.000000
_cell_angle_beta 50.000000
_cell_angle_gamma 120.000000
_cell_volume 724.534506
_symmetry_space_group_name_H-M "P -1"
_symmetry_group_IT_number 2
_symmetry_cell_setting 'triclinic'
loop_
_space_group_symop_operation_xyz
x,y,z
-x,-y,-z
loop_
_atom_site_type_symbol
_atom_site_label
_atom_site_fract_x
_atom_site_fract_y
_atom_site_fract_z
Si Si1 0.087755 0.275676 0.473146
Si Si2 0.148565 0.550951 0.906137
Si Si3 0.619576 0.839583 0.274014
Si Si4 0.188465 0.820316 0.356259
Si Si5 0.569787 0.923068 0.038035
Si Si6 0.171211 0.484368 0.121801
Si Si7 0.508582 0.702614 0.429971
Si Si8 0.127413 0.553663 0.683789
O O1 0.307094 0.459943 0.465739
O O2 0.000000 0.500000 0.500000
O O3 0.876068 0.113736 0.545393
O O4 0.138439 0.079232 0.376733
O O5 0.253774 0.321117 0.824287
O O6 0.997146 0.554765 0.891418
O O7 0.319889 0.823215 0.913378
O O8 0.000000 0.500000 0.000000
O O9 0.417857 0.832246 0.289256
O O10 0.539785 0.712299 0.346085
O O11 0.751513 0.138289 0.296917
O O12 0.021741 0.547821 0.348818
O O13 0.366743 0.738543 0.099353
O O14 0.729753 0.758959 0.952063
O O15 0.500000 0.000000 0.000000
O O16 0.042365 0.503577 0.222347
O O17 0.706906 0.615333 0.385846
O O18 0.500000 0.000000 0.500000
#
# Coordination Sequence:
#
# PCOD9075086 Si02
#       8
#     2   2   2   2   2   2   2   2
#     4  11  22  44  68  98 136 181 240 285 351 414
#     4  12  25  47  76 102 145 187 230 295 354 415
#     4  12  27  46  69 106 141 184 239 285 350 427
#     4  11  26  42  70 100 137 185 230 295 347 407
#     4  11  25  46  74 105 139 181 238 289 353 427
#     4  11  26  46  71 106 140 187 233 287 355 423
#     4  12  25  45  71 101 144 187 236 290 351 417
#     4  12  27  45  68 104 144 181 237 287 348 421
#
# _framework density 22.083144000000001
#
# number of rings (size 3 to 8) (size 9 to 14) (size 15 to 20)
#    0.000    0.500    5.000    2.625    3.500    3.000 
#    2.250    0.000    0.000    0.000    0.000    0.000 
#    0.000    0.000    0.000    0.000    0.000    0.000 
#
# Total GULP energy -89232.061900 kJ/mol
# GULP energy per Si atom -5577.003869 kJ/mol
# Density = 2.203288 g / cm^3
# Si number density = 22.083144 Si / 1000 Ang^3
#
#
#
# Elastic Constant Matrix: (Units=GPa)
#
#
# Indices 1 2 3 4 5 6 
#
# 1 116.0875 37.5763 47.4685 17.3450 -47.4832 28.6500
# 2 37.5763 116.6379 54.8103 24.1336 -24.6800 43.1490
# 3 47.4685 54.8103 138.3975 6.9089 -31.8029 3.7338
# 4 17.3450 24.1336 6.9089 44.2662 -3.0600 2.7845
# 5 -47.4832 -24.6800 -31.8029 -3.0600 39.7365 0.9931
# 6 28.6500 43.1490 3.7338 2.7845 0.9931 37.3243
#
#
#
# Elastic Compliance Matrix: (Units=1/GPa)
#
#
# Indices 1 2 3 4 5 6 
#
# 1 1.001245 0.949228 -0.279720 -0.643247 1.558358 -1.831405
# 2 0.949228 0.928618 -0.272356 -0.621523 1.489386 -1.768173
# 3 -0.279720 -0.272356 0.088864 0.181788 -0.431250 0.518594
# 4 -0.643247 -0.621523 0.181788 0.440921 -1.004913 1.187928
# 5 1.558358 1.489386 -0.431250 -1.004913 2.461449 -2.865384
# 6 -1.831405 -1.768173 0.518594 1.187928 -2.865384 3.412415
#
#
# Mechanical properties :
#
#
# Convention : Reuss Voigt Hill
#
# Bulk Modulus (GPa) = 0.35549 72.31480 36.33515
# Shear Modulus (GPa) = 0.58984 39.68325 20.13654
#
# Velocity S-wave (km/s) = 0.51738 4.24369 3.02296
# Velocity P-wave (km/s) = 0.71988 7.53854 5.35480
#
# Compressibility (1/GPa) = 2.81303024
#
# Stress axis : x y z
#
# Youngs Moduli (GPa) = 0.99876 1.07687 11.25313
#
# Poissons Ratio (x) = -1.02219 3.14773
# Poissons Ratio (y) = -0.94805 3.06486
# Poissons Ratio (z) = 0.27937 0.29329
#
# Static dielectric constant tensor:
#      x y z
#    x 1.694950 0.312160 -0.011560 
#    y 0.312160 1.135420 0.095730 
#    z -0.011560 0.095730 1.127240 
# 
# From -- ./inp_files/112381.got.cif
#   From: 2010.05.17/outbox.ucp.g08.bks.cvg/sg2_57_cif.got.tgz:112381.got - 2010.06.11 11:32:03.
