data_PCOD9075649
_publ_section_title
;
Structure prediction by ZEFSAII (Michael W. Deem and Ramdas Pophale) SiO2 
 PCOD9075649
Probable space group: P -1
;
_chemical_formula_sum "Si O2"
_cell_formula_units_Z 16
_cell_length_a 9.000000
_cell_length_b 15.000000
_cell_length_c 12.000000
_cell_angle_alpha 150.000000
_cell_angle_beta 70.000000
_cell_angle_gamma 100.000000
_cell_volume 734.803614
_symmetry_space_group_name_H-M "P -1"
_symmetry_group_IT_number 2
_symmetry_cell_setting 'triclinic'
loop_
_space_group_symop_operation_xyz
x,y,z
-x,-y,-z
loop_
_atom_site_type_symbol
_atom_site_label
_atom_site_fract_x
_atom_site_fract_y
_atom_site_fract_z
Si Si1 0.916310 0.762841 0.131024
Si Si2 0.496799 0.398668 0.509112
Si Si3 0.129829 0.619445 0.265983
Si Si4 0.712175 0.071926 0.365193
Si Si5 0.359248 0.028776 0.414207
Si Si6 0.803706 0.067846 0.100689
Si Si7 0.244494 0.155272 0.343198
Si Si8 0.274070 0.656810 0.029063
O O1 0.799414 0.830104 0.339905
O O2 0.107304 0.724919 0.071864
O O3 0.852574 0.929631 0.243555
O O4 0.872074 0.579246 0.900752
O O5 0.500000 0.500000 0.500000
O O6 0.684535 0.277352 0.349773
O O7 0.366607 0.274224 0.398664
O O8 0.414066 0.523958 0.773082
O O9 0.239821 0.734424 0.425005
O O10 0.203436 0.589546 0.088454
O O11 0.937393 0.731038 0.445805
O O12 0.529242 0.073577 0.451519
O O13 0.727491 0.002137 0.159231
O O14 0.335096 0.043933 0.304755
O O15 0.345151 0.826607 0.231693
O O16 0.778154 0.973901 0.890897
O O17 0.000000 0.000000 0.000000
#
# Coordination Sequence:
#
# PCOD9075649 Si02
#       8
#     2   2   2   2   2   2   2   2
#     4  12  25  46  75 113 149 200 250 314 392 451
#     4  12  28  48  75 112 147 197 261 316 373 458
#     4  12  25  47  77 110 151 196 253 323 377 452
#     4  12  28  47  67 112 156 199 252 313 386 452
#     4  12  25  46  75 109 152 200 250 312 385 457
#     4  12  28  49  74 102 150 201 248 311 387 450
#     4  12  24  50  75 106 142 198 260 306 378 452
#     4  12  25  46  78 113 150 194 260 318 379 453
#
# _framework density 21.774525000000001
#
# number of rings (size 3 to 8) (size 9 to 14) (size 15 to 20)
#    0.000    0.000    6.250    3.750    3.500    1.500 
#    0.000    1.250    0.000    0.000    0.000    0.000 
#    0.000    0.000    0.000    0.000    0.000    0.000 
#
# Total GULP energy -89411.749528 kJ/mol
# GULP energy per Si atom -5588.234346 kJ/mol
# Density = 2.172497 g / cm^3
# Si number density = 21.774525 Si / 1000 Ang^3
#
#
#
# Elastic Constant Matrix: (Units=GPa)
#
#
# Indices 1 2 3 4 5 6 
#
# 1 117.5750 15.8662 48.5776 12.4584 -12.6943 10.3366
# 2 15.8662 94.7857 20.6487 -16.1096 -1.5097 -1.9933
# 3 48.5776 20.6487 131.8062 -7.6646 -14.3688 -0.2333
# 4 12.4584 -16.1096 -7.6646 31.7593 13.9875 6.9120
# 5 -12.6943 -1.5097 -14.3688 13.9875 41.3873 -7.1304
# 6 10.3366 -1.9933 -0.2333 6.9120 -7.1304 41.6108
#
#
#
# Elastic Compliance Matrix: (Units=1/GPa)
#
#
# Indices 1 2 3 4 5 6 
#
# 1 0.012129 -0.002651 -0.004023 -0.009207 0.005211 -0.000740
# 2 -0.002651 0.012669 -0.000904 0.009183 -0.003930 -0.000939
# 3 -0.004023 -0.000904 0.009506 0.002691 0.001258 0.000778
# 4 -0.009207 0.009183 0.002691 0.051497 -0.020568 -0.009336
# 5 0.005211 -0.003930 0.001258 -0.020568 0.034353 0.007828
# 6 -0.000740 -0.000939 0.000778 -0.009336 0.007828 0.027068
#
#
# Mechanical properties :
#
#
# Convention : Reuss Voigt Hill
#
# Bulk Modulus (GPa) = 52.22602 57.15018 54.68810
# Shear Modulus (GPa) = 29.62774 40.22311 34.92543
#
# Velocity S-wave (km/s) = 3.69272 4.30263 4.00929
# Velocity P-wave (km/s) = 6.49758 7.14051 6.82662
#
# Compressibility (1/GPa) = 0.01914755
#
# Stress axis : x y z
#
# Youngs Moduli (GPa) = 82.44996 78.93137 105.19355
#
# Poissons Ratio (x) = 0.20926 0.42323
# Poissons Ratio (y) = 0.21859 0.09507
# Poissons Ratio (z) = 0.33173 0.07133
#
# Static dielectric constant tensor:
#      x y z
#    x 1.764270 -0.013740 0.004990 
#    y -0.013740 1.836670 0.013160 
#    z 0.004990 0.013160 1.829960 
# 
# From -- ./inp_files/307058.got.cif
#   From: 2010.05.17/outbox.ucp.g08.bks.cvg/sg2_154_cif.got.tgz:307058.got - 2010.06.11 11:32:03.
