data_PCOD9075603
_publ_section_title
;
Structure prediction by ZEFSAII (Michael W. Deem and Ramdas Pophale) SiO2 
 PCOD9075603
Probable space group: P -1
;
_chemical_formula_sum "Si O2"
_cell_formula_units_Z 14
_cell_length_a 9.000000
_cell_length_b 9.000000
_cell_length_c 12.000000
_cell_angle_alpha 80.000000
_cell_angle_beta 40.000000
_cell_angle_gamma 80.000000
_cell_volume 614.029152
_symmetry_space_group_name_H-M "P -1"
_symmetry_group_IT_number 2
_symmetry_cell_setting 'triclinic'
loop_
_space_group_symop_operation_xyz
x,y,z
-x,-y,-z
loop_
_atom_site_type_symbol
_atom_site_label
_atom_site_fract_x
_atom_site_fract_y
_atom_site_fract_z
Si Si1 0.335750 0.710866 0.882632
Si Si2 0.918950 0.785954 0.277782
Si Si3 0.882780 0.489634 0.448379
Si Si4 0.430317 0.366756 0.802082
Si Si5 0.289086 0.303046 0.135615
Si Si6 0.425766 0.058937 0.707234
Si Si7 0.025286 0.972587 0.619376
O O1 0.330108 0.550051 0.835788
O O2 0.546122 0.688617 0.853198
O O3 0.373266 0.883398 0.791911
O O4 0.100416 0.728908 0.087013
O O5 0.799650 0.651495 0.426207
O O6 0.730087 0.898192 0.314570
O O7 0.042209 0.877959 0.290421
O O8 0.674863 0.384225 0.599990
O O9 0.000000 0.500000 0.500000
O O10 0.078434 0.426484 0.259819
O O11 0.354489 0.205790 0.811900
O O12 0.425357 0.332565 0.940817
O O13 0.153880 0.150216 0.228160
O O14 0.698501 0.064499 0.523637
O O15 0.000000 0.000000 0.500000
#
# Coordination Sequence:
#
# PCOD9075603 Si02
#       7
#     2   2   2   2   2   2   2
#     4  12  25  46  76 111 154 193 252 317 375 444
#     4  12  28  48  73 109 157 200 246 315 385 446
#     4  12  23  45  75 108 149 193 253 312 370 441
#     4  12  26  45  77 111 150 197 253 308 376 449
#     4  12  24  45  75 116 144 193 257 319 368 435
#     4  12  28  49  73 113 154 201 249 309 383 456
#     4  12  25  47  77 108 150 197 256 313 367 451
#
# _framework density 22.800219999999999
#
# number of rings (size 3 to 8) (size 9 to 14) (size 15 to 20)
#    0.000    0.000    5.714    4.714    2.000    2.286 
#    2.571    0.000    0.000    0.000    0.000    0.000 
#    0.000    0.000    0.000    0.000    0.000    0.000 
#
# Total GULP energy -78151.644105 kJ/mol
# GULP energy per Si atom -5582.260293 kJ/mol
# Density = 2.274833 g / cm^3
# Si number density = 22.800220 Si / 1000 Ang^3
#
#
#
# Elastic Constant Matrix: (Units=GPa)
#
#
# Indices 1 2 3 4 5 6 
#
# 1 55.8162 36.9250 34.6275 0.4057 15.3850 -9.9308
# 2 36.9250 155.9431 33.8413 -17.2444 19.6454 -2.1182
# 3 34.6275 33.8413 79.1709 -10.2188 -10.9457 -17.9831
# 4 0.4057 -17.2444 -10.2188 61.6194 1.7231 9.6526
# 5 15.3850 19.6454 -10.9457 1.7231 23.4635 3.7740
# 6 -9.9308 -2.1182 -17.9831 9.6526 3.7740 35.2053
#
#
#
# Elastic Compliance Matrix: (Units=1/GPa)
#
#
# Indices 1 2 3 4 5 6 
#
# 1 0.046987 -0.000638 -0.025391 -0.004451 -0.042766 0.006051
# 2 -0.000638 0.009056 -0.005007 0.002253 -0.009375 -0.001806
# 3 -0.025391 -0.005007 0.032031 0.002397 0.034884 0.004501
# 4 -0.004451 0.002253 0.002397 0.018026 0.001632 -0.005013
# 5 -0.042766 -0.009375 0.034884 0.001632 0.095549 -0.005499
# 6 0.006051 -0.001806 0.004501 -0.005013 -0.005499 0.034266
#
#
# Mechanical properties :
#
#
# Convention : Reuss Voigt Hill
#
# Bulk Modulus (GPa) = 38.45900 55.74643 47.10272
# Shear Modulus (GPa) = 16.30497 36.42672 26.36585
#
# Velocity S-wave (km/s) = 2.67708 4.00139 3.40426
# Velocity P-wave (km/s) = 5.14394 6.77135 6.01296
#
# Compressibility (1/GPa) = 0.02600172
#
# Stress axis : x y z
#
# Youngs Moduli (GPa) = 21.28249 110.42410 31.21937
#
# Poissons Ratio (x) = 0.07046 0.79269
# Poissons Ratio (y) = 0.01358 0.15633
# Poissons Ratio (z) = 0.54038 0.55293
#
# Static dielectric constant tensor:
#      x y z
#    x 1.872530 0.013760 -0.023730 
#    y 0.013760 1.952200 0.026980 
#    z -0.023730 0.026980 1.831840 
# 
# From -- ./inp_files/186573.got.cif
#   From: 2010.05.17/outbox.ucp.g08.bks.cvg/sg2_94_cif.got.tgz:186573.got - 2010.06.11 11:32:03.
