data_PCOD9075258
_publ_section_title
;
Structure prediction by ZEFSAII (Michael W. Deem and Ramdas Pophale) SiO2 
 PCOD9075258
Probable space group: P -1
;
_chemical_formula_sum "Si O2"
_cell_formula_units_Z 16
_cell_length_a 9.000000
_cell_length_b 9.000000
_cell_length_c 24.000000
_cell_angle_alpha 140.000000
_cell_angle_beta 140.000000
_cell_angle_gamma 40.000000
_cell_volume 723.717541
_symmetry_space_group_name_H-M "P -1"
_symmetry_group_IT_number 2
_symmetry_cell_setting 'triclinic'
loop_
_space_group_symop_operation_xyz
x,y,z
-x,-y,-z
loop_
_atom_site_type_symbol
_atom_site_label
_atom_site_fract_x
_atom_site_fract_y
_atom_site_fract_z
Si Si1 0.827922 0.142878 0.544451
Si Si2 0.010964 0.421214 0.255174
Si Si3 0.449862 0.407902 0.757840
Si Si4 0.368433 0.131596 0.377060
Si Si5 0.124280 0.193587 0.100446
Si Si6 0.050030 0.207901 0.418599
Si Si7 0.991307 0.375373 0.902938
Si Si8 0.675860 0.101770 0.211493
O O1 0.933446 0.332008 0.654708
O O2 0.531591 0.286094 0.482551
O O3 0.824760 0.952947 0.537283
O O4 0.000000 0.000000 0.500000
O O5 0.187538 0.243080 0.304164
O O6 0.062360 0.307631 0.176658
O O7 0.721840 0.485085 0.207093
O O8 0.377847 0.627523 0.754519
O O9 0.746383 0.320449 0.825332
O O10 0.425511 0.156835 0.659483
O O11 0.212534 0.127562 0.385528
O O12 0.429602 0.064065 0.146833
O O13 0.039238 0.415502 0.093051
O O14 0.000000 0.000000 0.000000
O O15 0.000000 0.500000 0.500000
O O16 0.823916 0.124212 0.315172
O O17 0.196108 0.109898 0.860348
O O18 0.000000 0.500000 0.000000
#
# Coordination Sequence:
#
# PCOD9075258 Si02
#       8
#     2   2   2   2   2   2   2   2
#     4  12  26  43  67 107 143 182 235 291 347 419
#     4  12  26  46  71 102 149 184 232 297 355 411
#     4  11  23  45  74 101 140 181 241 283 348 420
#     4  12  25  46  71 102 142 194 233 280 359 423
#     4  11  30  46  71 108 144 183 238 298 357 415
#     4  12  25  44  74 102 142 190 237 284 349 427
#     4  11  26  48  77 101 135 189 238 289 355 422
#     4  11  25  48  72 106 141 186 241 287 351 427
#
# _framework density 22.108073000000001
#
# number of rings (size 3 to 8) (size 9 to 14) (size 15 to 20)
#    0.000    0.500    3.750    3.000   10.500    2.500 
#    0.000    0.000    0.000    0.000    0.000    0.000 
#    0.000    0.000    0.000    0.000    0.000    0.000 
#
# Total GULP energy -89306.039907 kJ/mol
# GULP energy per Si atom -5581.627494 kJ/mol
# Density = 2.205775 g / cm^3
# Si number density = 22.108073 Si / 1000 Ang^3
#
#
#
# Elastic Constant Matrix: (Units=GPa)
#
#
# Indices 1 2 3 4 5 6 
#
# 1 160.1053 62.6104 95.1160 -18.8191 -9.6778 -0.8650
# 2 62.6104 55.9577 59.1242 11.6874 -4.2175 6.5663
# 3 95.1160 59.1242 49.5025 28.1753 -29.0636 15.1075
# 4 -18.8191 11.6874 28.1753 12.5805 6.3235 0.7449
# 5 -9.6778 -4.2175 -29.0636 6.3235 50.8092 5.1198
# 6 -0.8650 6.5663 15.1075 0.7449 5.1198 34.0285
#
#
#
# Elastic Compliance Matrix: (Units=1/GPa)
#
#
# Indices 1 2 3 4 5 6 
#
# 1 0.008951 -0.023150 0.012202 0.004466 0.006387 -0.001781
# 2 -0.023150 0.080672 -0.024820 -0.051175 -0.005216 -0.003231
# 3 0.012202 -0.024820 0.002742 0.036503 -0.003068 0.003545
# 4 0.004466 -0.051175 0.036503 0.046136 0.012661 -0.009132
# 5 0.006387 -0.005216 -0.003068 0.012661 0.017167 -0.000329
# 6 -0.001781 -0.003231 0.003545 -0.009132 -0.000329 0.028641
#
#
# Mechanical properties :
#
#
# Convention : Reuss Voigt Hill
#
# Bulk Modulus (GPa) = 48.01253 77.69632 62.85442
# Shear Modulus (GPa) = 19.02656 22.73130 20.87893
#
# Velocity S-wave (km/s) = 2.93681 3.21002 3.07645
# Velocity P-wave (km/s) = 5.76751 6.99708 6.41183
#
# Compressibility (1/GPa) = 0.02082790
#
# Stress axis : x y z
#
# Youngs Moduli (GPa) = 111.71372 12.39580 364.72108
#
# Poissons Ratio (x) = 0.28696 -4.45020
# Poissons Ratio (y) = 2.58619 9.05254
# Poissons Ratio (z) = -1.36309 0.30767
#
# Static dielectric constant tensor:
#      x y z
#    x 1.855160 0.173810 -0.541000 
#    y 0.173810 2.352060 -1.156840 
#    z -0.541000 -1.156840 4.053150 
# 
# From -- ./inp_files/89828.got.cif
#   From: 2010.05.17/outbox.ucp.g08.bks.cvg/sg2_45_cif.got.tgz:89828.got - 2010.06.11 11:32:03.
