data_PCOD9075848
_publ_section_title
;
Structure prediction by ZEFSAII (Michael W. Deem and Ramdas Pophale) SiO2 
 PCOD9075848
Probable space group: P -1
;
_chemical_formula_sum "Si O2"
_cell_formula_units_Z 15
_cell_length_a 8.712559
_cell_length_b 12.969884
_cell_length_c 10.015747
_cell_angle_alpha 57.654077
_cell_angle_beta 101.561874
_cell_angle_gamma 134.098151
_cell_volume 658.537551
_symmetry_space_group_name_H-M "P -1"
_symmetry_group_IT_number 2
_symmetry_cell_setting 'triclinic'
loop_
_space_group_symop_operation_xyz
x,y,z
-x,-y,-z
loop_
_atom_site_type_symbol
_atom_site_label
_atom_site_fract_x
_atom_site_fract_y
_atom_site_fract_z
Si Si1 0.415955 0.274223 0.314109
Si Si2 0.471299 0.151258 0.156678
Si Si3 0.633753 0.139014 0.805115
Si Si4 0.768989 0.800042 0.107134
Si Si5 0.000000 0.500000 0.000000
Si Si6 0.140392 0.282061 0.081658
Si Si7 0.273949 0.133890 0.671549
Si Si8 0.930656 0.533364 0.206678
O O1 0.369641 0.149752 0.276022
O O2 0.331437 0.349591 0.170993
O O3 0.284153 0.189316 0.486249
O O4 0.678231 0.396560 0.305764
O O5 0.374807 0.965187 0.240389
O O6 0.401708 0.201176 0.988789
O O7 0.734568 0.302591 0.100727
O O8 0.495829 0.179786 0.709188
O O9 0.883605 0.307726 0.776799
O O10 0.500000 0.000000 0.000000
O O11 0.736814 0.770018 0.280281
O O12 0.788788 0.702479 0.071397
O O13 0.000000 0.000000 0.000000
O O14 0.969255 0.525898 0.810369
O O15 0.083394 0.395087 0.990233
O O16 0.928549 0.076974 0.208091
#
# Coordination Sequence:
#
# PCOD9075848 Si02
#       8
#     2   2   2   2   1   2   2   2
#     4  10  24  36  54  87 124 142 177 241 301 319
#     4  10  19  35  54  84 109 149 188 228 272 337
#     4  12  19  35  61  84 107 148 202 227 262 341
#     4   9  17  31  56  80 106 144 193 225 264 327
#     4  10  18  32  56  82 112 136 184 232 274 320
#     4  10  19  37  60  80 108 154 196 225 266 347
#     4  11  20  35  58  86 115 148 184 239 285 327
#     4  11  21  37  59  86 111 150 190 232 274 337
#
# _framework density 22.777743000000001
#
# number of rings (size 3 to 8) (size 9 to 14) (size 15 to 20)
#    0.000    1.600    4.000    1.600    0.000    1.067 
#    0.000    0.667    0.000    3.200    0.000    0.000 
#    0.000    0.000    0.000    0.000    0.000    0.000 
#
# Total GULP energy -83540.565785 kJ/mol
# GULP energy per Si atom -5569.371052 kJ/mol
# Density = 2.272590 g / cm^3
# Si number density = 22.777743 Si / 1000 Ang^3
#
#
#
# Elastic Constant Matrix: (Units=GPa)
#
#
# Indices 1 2 3 4 5 6 
#
# 1 66.9031 19.9810 19.7316 11.1899 -11.0731 3.5780
# 2 19.9810 143.5761 18.6372 22.2330 -9.7801 11.8261
# 3 19.7316 18.6372 120.8780 20.2435 -27.9048 -9.2009
# 4 11.1899 22.2330 20.2435 20.3367 0.5558 -1.2619
# 5 -11.0731 -9.7801 -27.9048 0.5558 26.7652 5.9984
# 6 3.5780 11.8261 -9.2009 -1.2619 5.9984 29.7220
#
#
#
# Elastic Compliance Matrix: (Units=1/GPa)
#
#
# Indices 1 2 3 4 5 6 
#
# 1 0.018484 0.000185 0.000862 -0.011781 0.009872 -0.004525
# 2 0.000185 0.009615 0.001881 -0.013002 0.006993 -0.005229
# 3 0.000862 0.001881 0.014616 -0.017565 0.016748 -0.000454
# 4 -0.011781 -0.013002 -0.017565 0.088949 -0.032353 0.011460
# 5 0.009872 0.006993 0.016748 -0.032353 0.065115 -0.013301
# 6 -0.004525 -0.005229 -0.000454 0.011460 -0.013301 0.039301
#
#
# Mechanical properties :
#
#
# Convention : Reuss Voigt Hill
#
# Bulk Modulus (GPa) = 20.58838 49.78408 35.18623
# Shear Modulus (GPa) = 20.29103 33.56528 26.92815
#
# Velocity S-wave (km/s) = 2.98791 3.84291 3.44206
# Velocity P-wave (km/s) = 4.57842 6.44938 5.59269
#
# Compressibility (1/GPa) = 0.04857109
#
# Stress axis : x y z
#
# Youngs Moduli (GPa) = 54.10122 103.99912 68.42033
#
# Poissons Ratio (x) = -0.01927 -0.05896
# Poissons Ratio (y) = -0.01002 -0.12870
# Poissons Ratio (z) = -0.04662 -0.19563
#
# Static dielectric constant tensor:
#      x y z
#    x 2.514930 -0.212100 -0.183200 
#    y -0.212100 1.833220 0.037150 
#    z -0.183200 0.037150 1.905200 
# 
# From -- ./inp_files/172138.got.cif
#   From: 2010.05.17/outbox.cif.g08.bks.cpg/sg2_87_cif.got.tgz:172138.got - 2010.06.03 11:33:40.
