data_PCOD9075400
_publ_section_title
;
Structure prediction by ZEFSAII (Michael W. Deem and Ramdas Pophale) SiO2 
 PCOD9075400
Probable space group: P -1
;
_chemical_formula_sum "Si O2"
_cell_formula_units_Z 15
_cell_length_a 21.000000
_cell_length_b 9.000000
_cell_length_c 12.000000
_cell_angle_alpha 40.000000
_cell_angle_beta 30.000000
_cell_angle_gamma 50.000000
_cell_volume 727.418465
_symmetry_space_group_name_H-M "P -1"
_symmetry_group_IT_number 2
_symmetry_cell_setting 'triclinic'
loop_
_space_group_symop_operation_xyz
x,y,z
-x,-y,-z
loop_
_atom_site_type_symbol
_atom_site_label
_atom_site_fract_x
_atom_site_fract_y
_atom_site_fract_z
Si Si1 0.725902 0.166173 0.818951
Si Si2 0.849191 0.365304 0.899995
Si Si3 0.643005 0.631645 0.930335
Si Si4 0.463589 0.237363 0.750753
Si Si5 0.500000 0.500000 0.000000
Si Si6 0.972011 0.194859 0.592871
Si Si7 0.748281 0.079051 0.420596
Si Si8 0.897385 0.280008 0.291209
O O1 0.614199 0.322656 0.935843
O O2 0.844472 0.170905 0.723842
O O3 0.789323 0.291517 0.542259
O O4 0.651413 0.914039 0.051253
O O5 0.724575 0.441378 0.977664
O O6 0.935471 0.257457 0.737998
O O7 0.923310 0.591548 0.715540
O O8 0.812074 0.169293 0.158576
O O9 0.533349 0.567962 0.043636
O O10 0.746200 0.808081 0.610045
O O11 0.582134 0.755079 0.056941
O O12 0.500000 0.500000 0.500000
O O13 0.598317 0.120839 0.611047
O O14 0.032846 0.948659 0.645142
O O15 0.821995 0.222821 0.323809
O O16 0.000000 0.500000 0.000000
#
# Coordination Sequence:
#
# PCOD9075400 Si02
#       8
#     2   2   2   2   1   2   2   2
#     4  12  25  48  73 106 149 187 242 303 362 429
#     4  11  24  46  74 103 144 189 238 303 366 423
#     4  12  23  49  68 106 147 183 243 295 359 438
#     4  12  25  44  75 103 143 197 236 297 363 433
#     4  12  26  44  76 104 144 192 230 306 364 424
#     4  11  25  47  71 105 149 189 240 308 357 423
#     4  12  24  44  72 104 141 195 241 289 369 430
#     4  12  27  44  72 107 143 194 247 296 355 438
#
# _framework density 20.620868000000002
#
# number of rings (size 3 to 8) (size 9 to 14) (size 15 to 20)
#    0.000    0.267    6.667    2.400    1.867    1.600 
#    2.400    2.000    0.000    0.000    0.000    0.000 
#    0.000    0.000    0.000    0.000    0.000    0.000 
#
# Total GULP energy -83545.069809 kJ/mol
# GULP energy per Si atom -5569.671321 kJ/mol
# Density = 2.057393 g / cm^3
# Si number density = 20.620868 Si / 1000 Ang^3
#
#
#
# Elastic Constant Matrix: (Units=GPa)
#
#
# Indices 1 2 3 4 5 6 
#
# 1 131.6097 -3.2695 19.3767 -1.4744 -13.5610 -1.7286
# 2 -3.2695 47.2815 -2.9692 8.2042 6.6104 1.7150
# 3 19.3767 -2.9692 99.3517 -9.1786 12.3951 3.6083
# 4 -1.4744 8.2042 -9.1786 20.9839 -4.9045 1.3764
# 5 -13.5610 6.6104 12.3951 -4.9045 49.8068 0.4731
# 6 -1.7286 1.7150 3.6083 1.3764 0.4731 22.1034
#
#
#
# Elastic Compliance Matrix: (Units=1/GPa)
#
#
# Indices 1 2 3 4 5 6 
#
# 1 0.008180 -0.000026 -0.001940 0.000318 0.002737 0.000880
# 2 -0.000026 0.023524 0.000354 -0.009945 -0.004185 -0.001176
# 3 -0.001940 0.000354 0.011284 0.004115 -0.002957 -0.002214
# 4 0.000318 -0.009945 0.004115 0.054952 0.005826 -0.003422
# 5 0.002737 -0.004185 -0.002957 0.005826 0.022686 0.000173
# 6 0.000880 -0.001176 -0.002214 -0.003422 0.000173 0.045973
#
#
# Mechanical properties :
#
#
# Convention : Reuss Voigt Hill
#
# Bulk Modulus (GPa) = 25.14828 33.83543 29.49186
# Shear Modulus (GPa) = 27.31081 36.25249 31.78165
#
# Velocity S-wave (km/s) = 3.64321 4.19746 3.93012
# Velocity P-wave (km/s) = 5.46986 6.31945 5.90994
#
# Compressibility (1/GPa) = 0.03976415
#
# Stress axis : x y z
#
# Youngs Moduli (GPa) = 122.24451 42.51001 88.62307
#
# Poissons Ratio (x) = 0.00110 0.17194
# Poissons Ratio (y) = 0.00317 -0.03139
# Poissons Ratio (z) = 0.23718 -0.01506
#
# Static dielectric constant tensor:
#      x y z
#    x 1.727870 0.009080 -0.004360 
#    y 0.009080 1.797300 0.002110 
#    z -0.004360 0.002110 1.747260 
# 
# From -- ./inp_files/389237.got.cif
#   From: 2010.05.17/outbox.ucp.g08.bks.cvg/sg2_195_cif.got.tgz:389237.got - 2010.06.11 11:32:03.
