data_PCOD9075779
_publ_section_title
;
Structure prediction by ZEFSAII (Michael W. Deem and Ramdas Pophale) SiO2 
 PCOD9075779
Probable space group: P -1
;
_chemical_formula_sum "Si O2"
_cell_formula_units_Z 16
_cell_length_a 9.457603
_cell_length_b 24.441603
_cell_length_c 7.646559
_cell_angle_alpha 40.451391
_cell_angle_beta 48.756318
_cell_angle_gamma 35.676057
_cell_volume 664.858090
_symmetry_space_group_name_H-M "P -1"
_symmetry_group_IT_number 2
_symmetry_cell_setting 'triclinic'
loop_
_space_group_symop_operation_xyz
x,y,z
-x,-y,-z
loop_
_atom_site_type_symbol
_atom_site_label
_atom_site_fract_x
_atom_site_fract_y
_atom_site_fract_z
Si Si1 0.703765 0.083480 0.054408
Si Si2 0.197856 0.048179 0.389225
Si Si3 0.759404 0.649993 0.642552
Si Si4 0.451823 0.315844 0.625498
Si Si5 0.917940 0.284539 0.155596
Si Si6 0.609209 0.490522 0.734975
Si Si7 0.328353 0.894487 0.367238
Si Si8 0.119904 0.581361 0.821176
O O1 0.572671 0.209449 0.902111
O O2 0.613864 0.094326 0.904969
O O3 0.659397 0.030809 0.370699
O O4 0.000000 0.000000 0.000000
O O5 0.126433 0.162829 0.218574
O O6 0.935542 0.075017 0.511470
O O7 0.330740 0.976795 0.283006
O O8 0.731331 0.665975 0.416530
O O9 0.507625 0.771467 0.597284
O O10 0.952710 0.631677 0.665976
O O11 0.803438 0.536637 0.906364
O O12 0.694032 0.289345 0.400754
O O13 0.313528 0.435104 0.529775
O O14 0.981002 0.334357 0.136725
O O15 0.817247 0.362543 0.878157
O O16 0.382886 0.546348 0.657736
O O17 0.500000 0.500000 0.000000
#
# Coordination Sequence:
#
# PCOD9075779 Si02
#       8
#     2   2   2   2   2   2   2   2
#     4   9  15  26  44  70  89 118 156 190 218 269
#     4  10  17  28  47  70  91 125 152 183 235 264
#     4  10  14  26  39  67  95 110 153 198 217 272
#     4   9  13  24  42  61  92 109 150 192 219 258
#     4  10  14  26  41  69  92 116 154 188 222 283
#     4   8  13  23  37  66  90 111 149 192 219 273
#     4   9  18  28  44  70  94 117 154 195 220 264
#     4   9  16  21  42  66  91 119 149 188 235 264
#
# _framework density 24.065283999999998
#
# number of rings (size 3 to 8) (size 9 to 14) (size 15 to 20)
#    0.000    3.000    7.500    0.000    0.000    0.000 
#    0.000    0.625    0.000    3.000    3.250   18.375 
#    0.000    0.000    0.000    0.000    0.000    0.000 
#
# Total GULP energy -89145.403405 kJ/mol
# GULP energy per Si atom -5571.587713 kJ/mol
# Density = 2.401051 g / cm^3
# Si number density = 24.065284 Si / 1000 Ang^3
#
#
#
# Elastic Constant Matrix: (Units=GPa)
#
#
# Indices 1 2 3 4 5 6 
#
# 1 124.6901 37.4737 41.6009 -5.6363 23.9490 13.4888
# 2 37.4737 94.7193 68.5069 -20.6995 -9.7845 31.2066
# 3 41.6009 68.5069 141.9770 -53.2868 30.1595 11.2709
# 4 -5.6363 -20.6995 -53.2868 43.5464 2.7489 -6.1820
# 5 23.9490 -9.7845 30.1595 2.7489 27.3718 -1.5298
# 6 13.4888 31.2066 11.2709 -6.1820 -1.5298 39.4847
#
#
#
# Elastic Compliance Matrix: (Units=1/GPa)
#
#
# Indices 1 2 3 4 5 6 
#
# 1 0.005563 0.016279 -0.023840 -0.024054 0.029043 -0.010602
# 2 0.016279 -0.055983 0.079005 0.083720 -0.128357 0.024267
# 3 -0.023840 0.079005 -0.082664 -0.081278 0.146236 -0.037760
# 4 -0.024054 0.083720 -0.081278 -0.054241 0.143870 -0.037668
# 5 0.029043 -0.128357 0.146236 0.143870 -0.206746 0.064297
# 6 -0.010602 0.024267 -0.037760 -0.037668 0.064297 0.017140
#
#
# Mechanical properties :
#
#
# Convention : Reuss Voigt Hill
#
# Bulk Modulus (GPa) = 102.02672 72.94993 87.48832
# Shear Modulus (GPa) = -9.67963 36.33425 13.32731
#
# Velocity S-wave (km/s) = -2.00773 3.88986 2.35584
# Velocity P-wave (km/s) = 6.09206 7.11012 6.62069
#
# Compressibility (1/GPa) = 0.00980135
#
# Stress axis : x y z
#
# Youngs Moduli (GPa) = 179.76286 -17.86271 -12.09712
#
# Poissons Ratio (x) = 0.29078 -0.28840
# Poissons Ratio (y) = -2.92627 0.95573
# Poissons Ratio (z) = 4.28562 1.41124
#
# Static dielectric constant tensor:
#      x y z
#    x 1.973340 -0.019480 -0.054700 
#    y -0.019480 2.051870 0.015750 
#    z -0.054700 0.015750 1.847610 
# 
# From -- ./inp_files/221835.got.cif
#   From: 2010.05.17/outbox.cif.g08.bks.cpg/sg2_111_cif.got.tgz:221835.got - 2010.06.03 11:33:40.
