data_PCOD9075725
_publ_section_title
;
Structure prediction by ZEFSAII (Michael W. Deem and Ramdas Pophale) SiO2 
 PCOD9075725
Probable space group: P -1
;
_chemical_formula_sum "Si O2"
_cell_formula_units_Z 16
_cell_length_a 12.585495
_cell_length_b 6.229926
_cell_length_c 10.610202
_cell_angle_alpha 107.992456
_cell_angle_beta 68.972574
_cell_angle_gamma 130.714837
_cell_volume 585.267845
_symmetry_space_group_name_H-M "P -1"
_symmetry_group_IT_number 2
_symmetry_cell_setting 'triclinic'
loop_
_space_group_symop_operation_xyz
x,y,z
-x,-y,-z
loop_
_atom_site_type_symbol
_atom_site_label
_atom_site_fract_x
_atom_site_fract_y
_atom_site_fract_z
Si Si1 0.211149 0.849045 0.286952
Si Si2 0.135416 0.970595 0.807315
Si Si3 0.841140 0.103325 0.946710
Si Si4 0.623148 0.561439 0.548858
Si Si5 0.323106 0.636780 0.866751
Si Si6 0.431318 0.070358 0.710979
Si Si7 0.630429 0.422770 0.900244
Si Si8 0.917545 0.045760 0.439288
O O1 0.111280 0.793887 0.198999
O O2 0.328150 0.192657 0.322265
O O3 0.125439 0.773436 0.440028
O O4 0.286430 0.701722 0.206193
O O5 0.205839 0.301559 0.846155
O O6 0.275402 0.979738 0.722816
O O7 0.034618 0.854338 0.706201
O O8 0.072686 0.833652 0.947263
O O9 0.739300 0.762124 0.917000
O O10 0.755145 0.225673 0.039070
O O11 0.500000 0.500000 0.500000
O O12 0.555787 0.263055 0.591424
O O13 0.769102 0.723777 0.438146
O O14 0.407963 0.798340 0.732962
O O15 0.417074 0.684709 0.956151
O O16 0.495846 0.288336 0.841724
O O17 0.000000 0.000000 0.500000
#
# Coordination Sequence:
#
# PCOD9075725 Si02
#       8
#     2   2   2   2   2   2   2   2
#     4   9  20  37  60  86 121 158 207 246 306 361
#     4  10  21  37  58  90 126 157 203 250 305 362
#     4   9  18  37  57  87 122 161 201 253 303 357
#     4  10  20  38  59  87 124 157 203 249 298 358
#     4   9  21  30  54  89 129 161 195 244 311 367
#     4  11  19  32  56  87 125 160 197 248 303 356
#     4  10  18  32  54  88 125 163 195 246 306 370
#     4  10  22  42  66  86 121 165 203 252 307 363
#
# _framework density 27.337910999999998
#
# number of rings (size 3 to 8) (size 9 to 14) (size 15 to 20)
#    0.750    1.500    2.500    0.375    1.750    4.500 
#    0.000   11.250    0.000   18.750    0.000    0.000 
#    0.000    3.000    0.000    0.000    0.000    0.000 
#
# Total GULP energy -89463.971836 kJ/mol
# GULP energy per Si atom -5591.498240 kJ/mol
# Density = 2.727569 g / cm^3
# Si number density = 27.337911 Si / 1000 Ang^3
#
#
#
# Elastic Constant Matrix: (Units=GPa)
#
#
# Indices 1 2 3 4 5 6 
#
# 1 98.4986 5.1865 35.9222 -3.3588 26.4166 -2.7427
# 2 5.1865 90.0254 28.1158 10.0416 4.5814 1.7892
# 3 35.9222 28.1158 140.4834 -6.6137 39.3163 -7.7582
# 4 -3.3588 10.0416 -6.6137 61.1122 -12.5011 -2.2739
# 5 26.4166 4.5814 39.3163 -12.5011 55.0587 -0.7131
# 6 -2.7427 1.7892 -7.7582 -2.2739 -0.7131 39.4886
#
#
#
# Elastic Compliance Matrix: (Units=1/GPa)
#
#
# Indices 1 2 3 4 5 6 
#
# 1 0.012035 0.000158 -0.001828 -0.000488 -0.004588 0.000359
# 2 0.000158 0.012220 -0.002756 -0.002272 0.000344 -0.001209
# 3 -0.001828 -0.002756 0.009896 0.000292 -0.005870 0.001853
# 4 -0.000488 -0.002272 0.000292 0.017654 0.004239 0.001219
# 5 -0.004588 0.000344 -0.005870 0.004239 0.025479 -0.000783
# 6 0.000359 -0.001209 0.001853 0.001219 -0.000783 0.025824
#
#
# Mechanical properties :
#
#
# Convention : Reuss Voigt Hill
#
# Bulk Modulus (GPa) = 39.52762 51.93960 45.73361
# Shear Modulus (GPa) = 41.53123 48.45074 44.99098
#
# Velocity S-wave (km/s) = 3.90190 4.21443 4.06117
# Velocity P-wave (km/s) = 5.89831 6.53622 6.22544
#
# Compressibility (1/GPa) = 0.02529876
#
# Stress axis : x y z
#
# Youngs Moduli (GPa) = 83.09368 81.83617 101.04908
#
# Poissons Ratio (x) = -0.01296 0.18473
# Poissons Ratio (y) = -0.01316 0.27849
# Poissons Ratio (z) = 0.15191 0.22554
#
# Static dielectric constant tensor:
#      x y z
#    x 2.176760 -0.016450 0.104940 
#    y -0.016450 2.124010 -0.035130 
#    z 0.104940 -0.035130 2.299920 
# 
# From -- ./inp_files/442163.got.cif
#   From: 2010.05.17/outbox.cif.g08.bks.cpg/sg2_222_cif.got.tgz:442163.got - 2010.06.03 11:33:40.
