data_PCOD9075116
_publ_section_title
;
Structure prediction by ZEFSAII (Michael W. Deem and Ramdas Pophale) SiO2 
 PCOD9075116
Probable space group: P -1
;
_chemical_formula_sum "Si O2"
_cell_formula_units_Z 14
_cell_length_a 9.000000
_cell_length_b 18.000000
_cell_length_c 9.000000
_cell_angle_alpha 120.000000
_cell_angle_beta 50.000000
_cell_angle_gamma 80.000000
_cell_volume 643.920384
_symmetry_space_group_name_H-M "P -1"
_symmetry_group_IT_number 2
_symmetry_cell_setting 'triclinic'
loop_
_space_group_symop_operation_xyz
x,y,z
-x,-y,-z
loop_
_atom_site_type_symbol
_atom_site_label
_atom_site_fract_x
_atom_site_fract_y
_atom_site_fract_z
Si Si1 0.201007 0.100712 0.876217
Si Si2 0.529330 0.444059 0.080899
Si Si3 0.218663 0.499164 0.794160
Si Si4 0.948206 0.654990 0.817396
Si Si5 0.363107 0.784996 0.698559
Si Si6 0.673206 0.015265 0.997618
Si Si7 0.678600 0.213833 0.638458
O O1 0.500000 0.000000 0.500000
O O2 0.057240 0.241548 0.102965
O O3 0.271836 0.046703 0.941012
O O4 0.980104 0.108744 0.948865
O O5 0.680884 0.458142 0.116247
O O6 0.202196 0.531631 0.431275
O O7 0.500000 0.500000 0.000000
O O8 0.686093 0.304848 0.799269
O O9 0.491309 0.344305 0.441516
O O10 0.059313 0.593890 0.850375
O O11 0.000000 0.500000 0.000000
O O12 0.622581 0.731714 0.067056
O O13 0.365424 0.771779 0.501578
O O14 0.473718 0.842311 0.736666
O O15 0.009141 0.924206 0.646121
O O16 0.500000 0.000000 0.000000
#
# Coordination Sequence:
#
# PCOD9075116 Si02
#       7
#     2   2   2   2   2   2   2
#     4  11  23  43  74  97 137 185 229 287 344 410
#     4  12  23  43  68 104 142 180 231 281 347 407
#     4  12  25  43  73 103 141 186 227 284 345 419
#     4  12  24  45  67 108 142 182 233 280 353 413
#     4  11  22  47  70  98 140 182 227 278 355 405
#     4  11  26  48  72 100 133 184 239 288 343 414
#     4  11  23  43  70 100 137 185 224 288 342 410
#
# _framework density 21.741817999999999
#
# number of rings (size 3 to 8) (size 9 to 14) (size 15 to 20)
#    0.000    0.571    4.286    5.143    2.000    0.000 
#    5.143    1.429    0.000    0.000    0.000    0.000 
#    0.000    0.000    0.000    0.000    0.000    0.000 
#
# Total GULP energy -78098.599547 kJ/mol
# GULP energy per Si atom -5578.471396 kJ/mol
# Density = 2.169233 g / cm^3
# Si number density = 21.741818 Si / 1000 Ang^3
#
#
#
# Elastic Constant Matrix: (Units=GPa)
#
#
# Indices 1 2 3 4 5 6 
#
# 1 148.7674 33.8701 35.4940 17.0804 -7.5934 28.1607
# 2 33.8701 68.9925 -5.8616 19.5277 12.4736 17.3311
# 3 35.4940 -5.8616 83.3395 4.4702 -6.9249 12.6789
# 4 17.0804 19.5277 4.4702 38.8776 17.2177 5.4083
# 5 -7.5934 12.4736 -6.9249 17.2177 40.7340 11.8989
# 6 28.1607 17.3311 12.6789 5.4083 11.8989 38.0987
#
#
#
# Elastic Compliance Matrix: (Units=1/GPa)
#
#
# Indices 1 2 3 4 5 6 
#
# 1 0.010216 -0.003618 -0.002925 -0.004168 0.006101 -0.006246
# 2 -0.003618 0.020788 0.004394 -0.008002 -0.000918 -0.006822
# 3 -0.002925 0.004394 0.014881 -0.003522 0.003720 -0.005451
# 4 -0.004168 -0.008002 -0.003522 0.038661 -0.017573 0.007893
# 5 0.006101 -0.000918 0.003720 -0.017573 0.038356 -0.014815
# 6 -0.006246 -0.006822 -0.005451 0.007893 -0.014815 0.039288
#
#
# Mechanical properties :
#
#
# Convention : Reuss Voigt Hill
#
# Bulk Modulus (GPa) = 24.04580 47.56716 35.80648
# Shear Modulus (GPa) = 27.72384 39.38186 33.55285
#
# Velocity S-wave (km/s) = 3.57478 4.26060 3.93267
# Velocity P-wave (km/s) = 5.30306 6.79186 6.09310
#
# Compressibility (1/GPa) = 0.04158731
#
# Stress axis : x y z
#
# Youngs Moduli (GPa) = 97.88988 48.10396 67.19918
#
# Poissons Ratio (x) = 0.17404 0.19653
# Poissons Ratio (y) = 0.35417 -0.29526
# Poissons Ratio (z) = 0.28629 -0.21136
#
# Static dielectric constant tensor:
#      x y z
#    x 1.786240 0.031490 0.022170 
#    y 0.031490 1.818450 0.123960 
#    z 0.022170 0.123960 2.116360 
# 
# From -- ./inp_files/218166.got.cif
#   From: 2010.05.17/outbox.ucp.g08.bks.cvg/sg2_110_cif.got.tgz:218166.got - 2010.06.11 11:32:03.
