data_PCOD9075711
_publ_section_title
;
Structure prediction by ZEFSAII (Michael W. Deem and Ramdas Pophale) SiO2 
 PCOD9075711
Probable space group: P -1
;
_chemical_formula_sum "Si O2"
_cell_formula_units_Z 16
_cell_length_a 10.115103
_cell_length_b 10.253508
_cell_length_c 12.382128
_cell_angle_alpha 54.417095
_cell_angle_beta 78.265710
_cell_angle_gamma 45.879867
_cell_volume 703.599880
_symmetry_space_group_name_H-M "P -1"
_symmetry_group_IT_number 2
_symmetry_cell_setting 'triclinic'
loop_
_space_group_symop_operation_xyz
x,y,z
-x,-y,-z
loop_
_atom_site_type_symbol
_atom_site_label
_atom_site_fract_x
_atom_site_fract_y
_atom_site_fract_z
Si Si1 0.800249 0.647462 0.396974
Si Si2 0.279428 0.100225 0.098898
Si Si3 0.750769 0.048012 0.213535
Si Si4 0.801352 0.052205 0.628246
Si Si5 0.768355 0.359137 0.648235
Si Si6 0.219230 0.859358 0.064027
Si Si7 0.287365 0.356948 0.813626
Si Si8 0.735618 0.262137 0.317879
O O1 0.694970 0.909339 0.294527
O O2 0.697005 0.587490 0.501579
O O3 0.850006 0.548399 0.313816
O O4 0.000000 0.500000 0.500000
O O5 0.226715 0.089374 0.233571
O O6 0.204578 0.024365 0.066984
O O7 0.513704 0.892925 0.145494
O O8 0.217242 0.321798 0.948211
O O9 0.991742 0.842123 0.282999
O O10 0.677271 0.222218 0.238026
O O11 0.684905 0.171348 0.049066
O O12 0.718102 0.262702 0.618852
O O13 0.718423 0.157022 0.472838
O O14 0.032223 0.892653 0.658140
O O15 0.696848 0.362228 0.775215
O O16 0.000000 0.000000 0.000000
O O17 0.341462 0.492982 0.763509
#
# Coordination Sequence:
#
# PCOD9075711 Si02
#       8
#     2   2   2   2   2   2   2   2
#     4  10  18  32  54  85 107 150 194 239 273 338
#     4  10  22  38  59  86 116 159 194 238 283 346
#     4   9  17  30  52  78 111 145 180 234 286 329
#     4   9  18  35  56  82 117 146 192 238 287 342
#     4   8  15  28  50  81 103 136 189 236 273 322
#     4   9  16  32  55  81 110 144 194 240 273 330
#     4  11  22  38  59  87 119 152 198 235 290 348
#     4  10  20  35  57  87 116 153 188 240 297 342
#
# _framework density 22.740196000000001
#
# number of rings (size 3 to 8) (size 9 to 14) (size 15 to 20)
#    0.000    2.500    2.500    0.750    1.750    1.000 
#    0.000    1.875    0.000    0.750    0.000    0.000 
#    0.000    0.000    0.000    0.000    0.000    0.000 
#
# Total GULP energy -89311.194330 kJ/mol
# GULP energy per Si atom -5581.949646 kJ/mol
# Density = 2.268844 g / cm^3
# Si number density = 22.740196 Si / 1000 Ang^3
#
#
#
# Elastic Constant Matrix: (Units=GPa)
#
#
# Indices 1 2 3 4 5 6 
#
# 1 57.4287 11.0038 25.7495 0.2709 -11.1335 7.1367
# 2 11.0038 65.5448 52.8375 5.7397 -8.6598 15.5695
# 3 25.7495 52.8375 205.2700 25.6758 -40.4535 8.9638
# 4 0.2709 5.7397 25.6758 26.5977 0.5270 -2.2519
# 5 -11.1335 -8.6598 -40.4535 0.5270 37.2550 3.9754
# 6 7.1367 15.5695 8.9638 -2.2519 3.9754 30.0688
#
#
#
# Elastic Compliance Matrix: (Units=1/GPa)
#
#
# Indices 1 2 3 4 5 6 
#
# 1 0.019585 -0.000642 -0.001213 0.000628 0.004863 -0.004551
# 2 -0.000642 0.021778 -0.004862 -0.000844 0.000651 -0.009824
# 3 -0.001213 -0.004862 0.009041 -0.007974 0.008610 -0.001625
# 4 0.000628 -0.000844 -0.007974 0.046303 -0.010119 0.007470
# 5 0.004863 0.000651 0.008610 -0.010119 0.039003 -0.009972
# 6 -0.004551 -0.009824 -0.001625 0.007470 -0.009972 0.041786
#
#
# Mechanical properties :
#
#
# Convention : Reuss Voigt Hill
#
# Bulk Modulus (GPa) = 27.04968 56.38055 41.71511
# Shear Modulus (GPa) = 24.59983 34.69448 29.64716
#
# Velocity S-wave (km/s) = 3.29261 3.91025 3.61464
# Velocity P-wave (km/s) = 5.13575 6.72561 5.98372
#
# Compressibility (1/GPa) = 0.03696902
#
# Stress axis : x y z
#
# Youngs Moduli (GPa) = 51.05914 45.91881 110.61205
#
# Poissons Ratio (x) = 0.02946 0.13419
# Poissons Ratio (y) = 0.03276 0.53784
# Poissons Ratio (z) = 0.06194 0.22328
#
# Static dielectric constant tensor:
#      x y z
#    x 1.877560 -0.048130 0.016480 
#    y -0.048130 1.853130 -0.025490 
#    z 0.016480 -0.025490 1.934840 
# 
# From -- ./inp_files/388393.got.cif
#   From: 2010.05.17/outbox.cif.g08.bks.cpg/sg2_195_cif.got.tgz:388393.got - 2010.06.03 11:33:40.
