data_PCOD9075221
_publ_section_title
;
Structure prediction by ZEFSAII (Michael W. Deem and Ramdas Pophale) SiO2 
 PCOD9075221
Probable space group: P -1
;
_chemical_formula_sum "Si O2"
_cell_formula_units_Z 14
_cell_length_a 21.000000
_cell_length_b 9.000000
_cell_length_c 30.000000
_cell_angle_alpha 40.000000
_cell_angle_beta 170.000000
_cell_angle_gamma 140.000000
_cell_volume 629.429676
_symmetry_space_group_name_H-M "P -1"
_symmetry_group_IT_number 2
_symmetry_cell_setting 'triclinic'
loop_
_space_group_symop_operation_xyz
x,y,z
-x,-y,-z
loop_
_atom_site_type_symbol
_atom_site_label
_atom_site_fract_x
_atom_site_fract_y
_atom_site_fract_z
Si Si1 0.466166 0.915533 0.174320
Si Si2 0.225454 0.705935 0.767446
Si Si3 0.537780 0.264716 0.983269
Si Si4 0.724071 0.221549 0.458172
Si Si5 0.624069 0.266788 0.658634
Si Si6 0.085061 0.455856 0.015553
Si Si7 0.317635 0.251760 0.078836
O O1 0.139647 0.725768 0.977569
O O2 0.812975 0.760617 0.454566
O O3 0.543480 0.089422 0.147058
O O4 0.388181 0.069051 0.129614
O O5 0.500000 0.500000 0.000000
O O6 0.176454 0.729468 0.780968
O O7 0.649809 0.483762 0.978190
O O8 0.149910 0.314145 0.727628
O O9 0.500000 0.000000 0.000000
O O10 0.451566 0.334739 0.279344
O O11 0.597472 0.252047 0.312900
O O12 0.685290 0.947703 0.503639
O O13 0.500000 0.500000 0.500000
O O14 0.780553 0.319218 0.804747
O O15 0.934706 0.195059 0.854658
O O16 0.000000 0.500000 0.000000
#
# Coordination Sequence:
#
# PCOD9075221 Si02
#       7
#     2   2   2   2   2   2   2
#     4  11  24  42  71  96 140 179 226 282 349 403
#     4  11  24  44  64 101 142 179 220 283 343 413
#     4  12  25  40  69 103 139 176 234 281 345 414
#     4  11  24  43  69  97 138 180 229 280 346 415
#     4  11  25  46  69  99 138 180 236 288 341 415
#     4  11  24  44  71  96 130 182 233 279 345 413
#     4  11  23  44  68  99 139 184 227 286 347 412
#
# _framework density 22.242357999999999
#
# number of rings (size 3 to 8) (size 9 to 14) (size 15 to 20)
#    0.000    0.857    1.429    6.429    8.000    1.143 
#    2.571    1.429    0.000    0.000    0.000    0.000 
#    0.000    0.000    0.000    0.000    0.000    0.000 
#
# Total GULP energy -77998.955030 kJ/mol
# GULP energy per Si atom -5571.353931 kJ/mol
# Density = 2.219173 g / cm^3
# Si number density = 22.242358 Si / 1000 Ang^3
#
#
#
# Elastic Constant Matrix: (Units=GPa)
#
#
# Indices 1 2 3 4 5 6 
#
# 1 90.3070 42.9830 -11.0556 -3.2773 12.3079 12.7239
# 2 42.9830 123.6375 2.5765 -11.2183 -19.7548 -1.7873
# 3 -11.0556 2.5765 24.0284 -13.9919 4.7272 15.0343
# 4 -3.2773 -11.2183 -13.9919 37.5587 7.0381 10.5737
# 5 12.3079 -19.7548 4.7272 7.0381 26.3785 -23.1689
# 6 12.7239 -1.7873 15.0343 10.5737 -23.1689 37.5174
#
#
#
# Elastic Compliance Matrix: (Units=1/GPa)
#
#
# Indices 1 2 3 4 5 6 
#
# 1 0.006736 -0.001060 -0.011537 -0.009292 0.010751 0.011546
# 2 -0.001060 0.008361 0.008864 0.008456 -0.003575 -0.007385
# 3 -0.011537 0.008864 0.008579 -0.008383 0.034055 0.024291
# 4 -0.009292 0.008456 -0.008383 0.017235 0.020494 0.014712
# 5 0.010751 -0.003575 0.034055 0.020494 -0.003860 -0.025623
# 6 0.011546 -0.007385 0.024291 0.014712 -0.025623 -0.007317
#
#
# Mechanical properties :
#
#
# Convention : Reuss Voigt Hill
#
# Bulk Modulus (GPa) = 61.68598 34.10896 47.89747
# Shear Modulus (GPa) = 117.36401 33.85553 75.60977
#
# Velocity S-wave (km/s) = 7.27190 3.90567 5.83673
# Velocity P-wave (km/s) = 9.91469 5.97557 8.18561
#
# Compressibility (1/GPa) = 0.01621114
#
# Stress axis : x y z
#
# Youngs Moduli (GPa) = 148.45081 119.60001 116.56182
#
# Poissons Ratio (x) = 0.12676 1.34474
# Poissons Ratio (y) = 0.15734 -1.03319
# Poissons Ratio (z) = 1.71263 -1.06012
#
# Static dielectric constant tensor:
#      x y z
#    x 1.823200 -0.023240 -0.009600 
#    y -0.023240 1.840430 0.065090 
#    z -0.009600 0.065090 1.922480 
# 
# From -- ./inp_files/624008.got.cif
#   From: 2010.05.17/outbox.ucp.g08.bks.cvg/sg2_313_cif.got.tgz:624008.got - 2010.06.11 11:32:03.
