data_PCOD9075787
_publ_section_title
;
Structure prediction by ZEFSAII (Michael W. Deem and Ramdas Pophale) SiO2 
 PCOD9075787
Probable space group: P -1
;
_chemical_formula_sum "Si O2"
_cell_formula_units_Z 16
_cell_length_a 11.693425
_cell_length_b 13.122386
_cell_length_c 11.693426
_cell_angle_alpha 105.972996
_cell_angle_beta 137.848161
_cell_angle_gamma 42.598124
_cell_volume 654.687946
_symmetry_space_group_name_H-M "P -1"
_symmetry_group_IT_number 2
_symmetry_cell_setting 'triclinic'
loop_
_space_group_symop_operation_xyz
x,y,z
-x,-y,-z
loop_
_atom_site_type_symbol
_atom_site_label
_atom_site_fract_x
_atom_site_fract_y
_atom_site_fract_z
Si Si1 0.520519 0.217836 0.665919
Si Si2 0.240804 0.236657 0.657305
Si Si3 0.147811 0.888925 0.454170
Si Si4 0.957798 0.460025 0.750742
Si Si5 0.329208 0.460025 0.122153
Si Si6 0.232021 0.111075 0.925661
Si Si7 0.101590 0.782164 0.956190
Si Si8 0.869382 0.236657 0.285883
O O1 0.271707 0.296023 0.589737
O O2 0.370068 0.342017 0.478920
O O3 0.685614 0.229247 0.855892
O O4 0.765964 1.000000 0.765964
O O5 0.144705 0.344660 0.735404
O O6 0.004410 0.264541 0.466507
O O7 0.571024 0.016682 0.856918
O O8 0.471263 0.676336 0.663150
O O9 0.951352 0.897797 0.253053
O O10 0.000000 0.000000 0.500000
O O11 0.109718 0.016682 0.395612
O O12 0.015822 0.323664 0.823935
O O13 0.099361 0.485280 0.930079
O O14 0.575277 0.344659 0.165976
O O15 0.162955 0.657982 0.054103
O O16 0.500000 0.000000 0.000000
O O17 0.181784 0.703977 0.863754
#
# Coordination Sequence:
#
# PCOD9075787 Si02
#       8
#     2   2   2   2   2   2   2   2
#     4  11  24  41  58  79 111 149 188 231 280 331
#     4  11  21  36  59  86 115 146 185 229 276 329
#     4  10  18  32  55  84 115 144 181 227 277 327
#     4  11  21  36  59  86 115 146 185 229 276 329
#     4  11  21  36  59  86 115 146 185 229 276 329
#     4  10  18  32  55  84 115 144 181 227 277 327
#     4  11  24  41  58  79 111 149 188 231 280 331
#     4  11  21  36  59  86 115 146 185 229 276 329
#
# _framework density 24.439124
#
# number of rings (size 3 to 8) (size 9 to 14) (size 15 to 20)
#    0.000    1.250    0.000   11.250    0.000    2.000 
#    0.000    1.250    0.000    7.500    0.000    0.000 
#    0.000    0.000    0.000    0.000    0.000    0.000 
#
# Total GULP energy -89611.753090 kJ/mol
# GULP energy per Si atom -5600.734568 kJ/mol
# Density = 2.438350 g / cm^3
# Si number density = 24.439124 Si / 1000 Ang^3
#
#
#
# Elastic Constant Matrix: (Units=GPa)
#
#
# Indices 1 2 3 4 5 6 
#
# 1 52.4494 12.1009 4.6774 -7.8284 -20.2836 10.8813
# 2 12.1009 107.8088 15.6358 -33.9181 4.3193 17.6815
# 3 4.6774 15.6358 102.6648 -23.1420 -10.5948 4.3031
# 4 -7.8284 -33.9181 -23.1420 60.3081 16.5526 -1.1423
# 5 -20.2836 4.3193 -10.5948 16.5526 30.5672 -17.2520
# 6 10.8813 17.6815 4.3031 -1.1423 -17.2520 36.0441
#
#
#
# Elastic Compliance Matrix: (Units=1/GPa)
#
#
# Indices 1 2 3 4 5 6 
#
# 1 0.030710 -0.010325 0.000818 -0.010814 0.034738 0.011981
# 2 -0.010325 0.021788 -0.001003 0.019351 -0.033727 -0.022981
# 3 0.000818 -0.001003 0.010798 0.002806 0.003246 0.000599
# 4 -0.010814 0.019351 0.002806 0.039074 -0.045354 -0.027032
# 5 0.034738 -0.033727 0.003246 -0.045354 0.121401 0.062340
# 6 0.011981 -0.022981 0.000599 -0.027032 0.062340 0.064311
#
#
# Mechanical properties :
#
#
# Convention : Reuss Voigt Hill
#
# Bulk Modulus (GPa) = 23.65324 36.41679 30.03502
# Shear Modulus (GPa) = 15.47060 40.75114 28.11087
#
# Velocity S-wave (km/s) = 2.51873 4.08788 3.39520
# Velocity P-wave (km/s) = 4.26123 6.10036 5.26177
#
# Compressibility (1/GPa) = 0.04227750
#
# Stress axis : x y z
#
# Youngs Moduli (GPa) = 32.56289 45.89599 92.60662
#
# Poissons Ratio (x) = 0.47386 -0.07580
# Poissons Ratio (y) = 0.33620 0.09292
# Poissons Ratio (z) = -0.02665 0.04605
#
# Static dielectric constant tensor:
#      x y z
#    x 1.781360 -0.015790 0.019220 
#    y -0.015790 1.944370 -0.102540 
#    z 0.019220 -0.102540 1.874910 
# 
# From -- ./inp_files/532563.got.cif
#   From: 2010.05.17/outbox.cif.g08.bks.cpg/sg2_267_cif.got.tgz:532563.got - 2010.06.03 11:33:40.
