data_PCOD9075164
_publ_section_title
;
Structure prediction by ZEFSAII (Michael W. Deem and Ramdas Pophale) SiO2 
 PCOD9075164
Probable space group: P -1
;
_chemical_formula_sum "Si O2"
_cell_formula_units_Z 16
_cell_length_a 10.721146
_cell_length_b 8.313739
_cell_length_c 22.666126
_cell_angle_alpha 48.844464
_cell_angle_beta 147.427639
_cell_angle_gamma 128.846855
_cell_volume 805.664062
_symmetry_space_group_name_H-M "P -1"
_symmetry_group_IT_number 2
_symmetry_cell_setting 'triclinic'
loop_
_space_group_symop_operation_xyz
x,y,z
-x,-y,-z
loop_
_atom_site_type_symbol
_atom_site_label
_atom_site_fract_x
_atom_site_fract_y
_atom_site_fract_z
Si Si1 0.321284 0.226080 0.323137
Si Si2 0.350602 0.735487 0.454784
Si Si3 0.581945 0.254857 0.301423
Si Si4 0.084413 0.305012 0.451907
Si Si5 0.799212 0.174910 0.132507
Si Si6 0.406584 0.782066 0.327428
Si Si7 0.635272 0.685876 0.141398
Si Si8 0.954200 0.451969 0.240142
O O1 0.436345 0.314270 0.408958
O O2 0.507912 0.285971 0.331269
O O3 0.064866 0.262037 0.194637
O O4 0.295272 0.970196 0.386264
O O5 0.124182 0.559990 0.421834
O O6 0.411774 0.728857 0.412287
O O7 0.578125 0.474312 0.211335
O O8 0.845541 0.198985 0.414199
O O9 0.407191 0.039650 0.260272
O O10 0.333675 0.245250 0.583986
O O11 0.042313 0.310873 0.362917
O O12 0.817370 0.279426 0.180507
O O13 0.743341 0.912077 0.163702
O O14 0.600712 0.266231 0.995216
O O15 0.165061 0.623791 0.251771
O O16 0.799816 0.607654 0.174814
#
# Coordination Sequence:
#
# PCOD9075164 Si02
#       8
#     2   2   2   2   2   2   2   2
#     4  10  19  33  53  81 112 149 190 226 275 341
#     4   9  18  32  53  79 111 150 189 227 269 329
#     4  10  21  35  51  79 122 153 179 237 293 323
#     4  10  18  32  53  81 114 150 186 225 278 338
#     4  11  21  39  65  83 105 151 201 232 277 341
#     4  10  18  33  57  81 112 152 187 226 280 339
#     4  10  23  40  59  85 113 144 190 247 287 325
#     4  10  20  38  62  84 111 146 193 238 276 332
#
# _framework density 19.859393000000001
#
# number of rings (size 3 to 8) (size 9 to 14) (size 15 to 20)
#    0.000    2.000    0.000    6.750    0.000    1.000 
#    0.000    8.125    0.000    0.000    0.000    0.000 
#    0.000    0.000    0.000    0.000    0.000    0.000 
#
# Total GULP energy -89071.564265 kJ/mol
# GULP energy per Si atom -5566.972767 kJ/mol
# Density = 1.981419 g / cm^3
# Si number density = 19.859393 Si / 1000 Ang^3
#
#
#
# Elastic Constant Matrix: (Units=GPa)
#
#
# Indices 1 2 3 4 5 6 
#
# 1 53.5180 48.4129 20.0986 7.1720 10.5312 3.9809
# 2 48.4129 135.2879 40.3710 3.5946 -6.1109 -4.7804
# 3 20.0986 40.3710 87.6538 11.1572 10.6177 -0.6600
# 4 7.1720 3.5946 11.1572 26.8508 -2.0474 -0.0818
# 5 10.5312 -6.1109 10.6177 -2.0474 23.8045 3.2889
# 6 3.9809 -4.7804 -0.6600 -0.0818 3.2889 31.9655
#
#
#
# Elastic Compliance Matrix: (Units=1/GPa)
#
#
# Indices 1 2 3 4 5 6 
#
# 1 0.037312 -0.014872 0.002217 -0.010556 -0.021581 -0.004631
# 2 -0.014872 0.014964 -0.005727 0.005353 0.013071 0.002641
# 3 0.002217 -0.005727 0.015664 -0.007102 -0.010077 0.000210
# 4 -0.010556 0.005353 -0.007102 0.043277 0.012829 0.000759
# 5 -0.021581 0.013071 -0.010077 0.012829 0.060757 -0.001784
# 6 -0.004631 0.002641 0.000210 0.000759 -0.001784 0.032445
#
#
# Mechanical properties :
#
#
# Convention : Reuss Voigt Hill
#
# Bulk Modulus (GPa) = 32.07499 54.91384 43.49441
# Shear Modulus (GPa) = 19.87489 27.69599 23.78544
#
# Velocity S-wave (km/s) = 3.16694 3.73849 3.46452
# Velocity P-wave (km/s) = 5.43680 6.80782 6.16057
#
# Compressibility (1/GPa) = 0.03117694
#
# Stress axis : x y z
#
# Youngs Moduli (GPa) = 26.80132 66.82783 63.84055
#
# Poissons Ratio (x) = 0.99384 -0.14154
# Poissons Ratio (y) = 0.39858 0.36560
# Poissons Ratio (z) = -0.05942 0.38271
#
# Static dielectric constant tensor:
#      x y z
#    x 1.736120 -0.032190 0.037770 
#    y -0.032190 1.786610 0.019140 
#    z 0.037770 0.019140 1.715900 
# 
# From -- ./inp_files/609552.got.cif
#   From: 2010.05.17/outbox.cif.g08.bks.cpg/sg2_305_cif.got.tgz:609552.got - 2010.06.03 11:33:40.
