data_PCOD9075002
_publ_section_title
;
Structure prediction by ZEFSAII (Michael W. Deem and Ramdas Pophale) SiO2 
 PCOD9075002
Probable space group: P -1
;
_chemical_formula_sum "Si O2"
_cell_formula_units_Z 16
_cell_length_a 18.000000
_cell_length_b 12.000000
_cell_length_c 21.000000
_cell_angle_alpha 150.000000
_cell_angle_beta 20.000000
_cell_angle_gamma 150.000000
_cell_volume 738.640068
_symmetry_space_group_name_H-M "P -1"
_symmetry_group_IT_number 2
_symmetry_cell_setting 'triclinic'
loop_
_space_group_symop_operation_xyz
x,y,z
-x,-y,-z
loop_
_atom_site_type_symbol
_atom_site_label
_atom_site_fract_x
_atom_site_fract_y
_atom_site_fract_z
Si Si1 0.766145 0.622672 0.347206
Si Si2 0.890987 0.600538 0.050409
Si Si3 0.920450 0.212113 0.140122
Si Si4 0.878736 0.709327 0.446631
Si Si5 0.557445 0.742967 0.995908
Si Si6 0.514440 0.122759 0.117213
Si Si7 0.901206 0.023284 0.338603
Si Si8 0.502621 0.204292 0.778951
O O1 0.500000 0.500000 0.500000
O O2 0.844877 0.672000 0.380444
O O3 0.848257 0.872349 0.370987
O O4 0.863613 0.424123 0.140400
O O5 0.748675 0.329186 0.039365
O O6 0.833869 0.807434 0.235855
O O7 0.910552 0.675638 0.998365
O O8 0.921225 0.450057 0.298146
O O9 0.679044 0.044430 0.221107
O O10 0.000000 0.000000 0.000000
O O11 0.650711 0.714258 0.667367
O O12 0.000000 0.000000 0.500000
O O13 0.496269 0.786276 0.139795
O O14 0.474430 0.914216 0.099051
O O15 0.470537 0.459335 0.912436
O O16 0.833712 0.833171 0.812310
O O17 0.500000 0.000000 0.000000
O O18 0.740600 0.188643 0.550976
#
# Coordination Sequence:
#
# PCOD9075002 Si02
#       8
#     2   2   2   2   2   2   2   2
#     4  11  22  38  70 102 140 180 232 297 359 417
#     4  11  23  41  67 103 134 177 237 296 356 422
#     4  11  25  48  71  99 143 193 235 288 361 432
#     4  11  26  45  68 104 140 187 238 288 364 432
#     4  11  26  45  71 103 142 192 234 297 356 427
#     4  12  25  44  67 103 142 180 240 300 356 420
#     4  12  22  42  70 105 135 177 241 291 354 423
#     4  11  25  47  70 101 145 190 236 291 361 429
#
# _framework density 21.661429999999999
#
# number of rings (size 3 to 8) (size 9 to 14) (size 15 to 20)
#    0.000    0.750    2.500    6.000    5.250    0.000 
#    2.250    1.250    0.000    0.000    0.000    0.000 
#    0.000    0.000    0.000    0.000    0.000    0.000 
#
# Total GULP energy -89097.494305 kJ/mol
# GULP energy per Si atom -5568.593394 kJ/mol
# Density = 2.161213 g / cm^3
# Si number density = 21.661430 Si / 1000 Ang^3
#
#
#
# Elastic Constant Matrix: (Units=GPa)
#
#
# Indices 1 2 3 4 5 6 
#
# 1 61.6896 21.2309 27.0084 17.3730 8.2846 -5.6600
# 2 21.2309 140.0906 28.8645 33.8760 -0.3791 -3.0975
# 3 27.0084 28.8645 138.4597 36.4983 7.0412 5.7971
# 4 17.3730 33.8760 36.4983 47.7617 -1.6179 -2.4488
# 5 8.2846 -0.3791 7.0412 -1.6179 25.4714 8.4272
# 6 -5.6600 -3.0975 5.7971 -2.4488 8.4272 39.0713
#
#
#
# Elastic Compliance Matrix: (Units=1/GPa)
#
#
# Indices 1 2 3 4 5 6 
#
# 1 0.020502 -0.001410 -0.002236 -0.004781 -0.007895 0.004593
# 2 -0.001410 0.008726 -0.000083 -0.005600 0.000223 0.000101
# 3 -0.002236 -0.000083 0.009579 -0.006599 -0.001750 -0.001788
# 4 -0.004781 -0.005600 -0.006599 0.031901 0.005075 0.000747
# 5 -0.007895 0.000223 -0.001750 0.005075 0.046108 -0.010493
# 6 0.004593 0.000101 -0.001788 0.000747 -0.010493 0.028843
#
#
# Mechanical properties :
#
#
# Convention : Reuss Voigt Hill
#
# Bulk Modulus (GPa) = 31.89967 54.93860 43.41914
# Shear Modulus (GPa) = 30.56827 40.00328 35.28578
#
# Velocity S-wave (km/s) = 3.76065 4.30205 4.04043
# Velocity P-wave (km/s) = 5.79785 7.07773 6.46952
#
# Compressibility (1/GPa) = 0.03134829
#
# Stress axis : x y z
#
# Youngs Moduli (GPa) = 48.77482 114.59885 104.39406
#
# Poissons Ratio (x) = 0.16161 0.23342
# Poissons Ratio (y) = 0.06878 0.00871
# Poissons Ratio (z) = 0.10906 0.00957
#
# Static dielectric constant tensor:
#      x y z
#    x 1.895060 0.060440 -0.074920 
#    y 0.060440 1.933430 -0.165780 
#    z -0.074920 -0.165780 2.048900 
# 
# From -- ./inp_files/600125.got.cif
#   From: 2010.05.17/outbox.ucp.g08.bks.cvg/sg2_301_cif.got.tgz:600125.got - 2010.06.11 11:32:03.
