data_PCOD9075298
_publ_section_title
;
Structure prediction by ZEFSAII (Michael W. Deem and Ramdas Pophale) SiO2 
 PCOD9075298
Probable space group: P -1
;
_chemical_formula_sum "Si O2"
_cell_formula_units_Z 14
_cell_length_a 30.000000
_cell_length_b 12.000000
_cell_length_c 15.000000
_cell_angle_alpha 30.000000
_cell_angle_beta 20.000000
_cell_angle_gamma 20.000000
_cell_volume 624.976433
_symmetry_space_group_name_H-M "P -1"
_symmetry_group_IT_number 2
_symmetry_cell_setting 'triclinic'
loop_
_space_group_symop_operation_xyz
x,y,z
-x,-y,-z
loop_
_atom_site_type_symbol
_atom_site_label
_atom_site_fract_x
_atom_site_fract_y
_atom_site_fract_z
Si Si1 0.063533 0.681761 0.023334
Si Si2 0.201327 0.329199 0.201207
Si Si3 0.556061 0.691178 0.647385
Si Si4 0.735955 0.266704 0.126385
Si Si5 0.630815 0.327647 0.582147
Si Si6 0.149615 0.132484 0.154144
Si Si7 0.985067 0.092052 0.320994
O O1 0.147050 0.457358 0.111119
O O2 0.111324 0.440458 0.025240
O O3 0.176078 0.775622 0.735965
O O4 0.838459 0.012363 0.193852
O O5 0.278149 0.460664 0.006427
O O6 0.000000 0.500000 0.500000
O O7 0.335900 0.962487 0.240820
O O8 0.562042 0.534568 0.657126
O O9 0.764246 0.436570 0.478105
O O10 0.500000 0.000000 0.500000
O O11 0.379434 0.823666 0.946681
O O12 0.531079 0.448696 0.345404
O O13 0.887830 0.067151 0.896674
O O14 0.080885 0.128522 0.190334
O O15 0.035062 0.129141 0.444268
#
# Coordination Sequence:
#
# PCOD9075298 Si02
#       7
#     2   2   2   2   2   2   2
#     4  12  26  47  73 106 137 185 233 287 351 413
#     4  12  26  51  75  97 145 185 230 293 348 410
#     4  12  22  41  66  97 140 179 225 284 342 405
#     4  12  25  47  72 103 142 181 237 290 344 413
#     4  12  26  46  72 106 138 186 232 286 352 413
#     4  11  24  41  69 103 140 181 232 280 345 418
#     4  11  24  43  68 103 139 186 226 282 351 411
#
# _framework density 22.400845
#
# number of rings (size 3 to 8) (size 9 to 14) (size 15 to 20)
#    0.000    0.286    5.714    3.000    2.000    1.714 
#    5.143    0.000    0.000    0.000    0.000    0.000 
#    0.000    0.000    0.000    0.000    0.000    0.000 
#
# Total GULP energy -78227.938442 kJ/mol
# GULP energy per Si atom -5587.709889 kJ/mol
# Density = 2.234986 g / cm^3
# Si number density = 22.400845 Si / 1000 Ang^3
#
#
#
# Elastic Constant Matrix: (Units=GPa)
#
#
# Indices 1 2 3 4 5 6 
#
# 1 25.4000 50.8293 14.9541 -4.5324 20.3290 -35.8397
# 2 50.8293 115.6244 12.9660 0.6658 -20.7326 -24.6728
# 3 14.9541 12.9660 63.3524 9.3173 -2.2720 -19.5978
# 4 -4.5324 0.6658 9.3173 32.0527 -11.8791 -0.3890
# 5 20.3290 -20.7326 -2.2720 -11.8791 22.0518 16.9549
# 6 -35.8397 -24.6728 -19.5978 -0.3890 16.9549 33.2125
#
#
#
# Elastic Compliance Matrix: (Units=1/GPa)
#
#
# Indices 1 2 3 4 5 6 
#
# 1 -0.003552 0.002707 -0.005483 0.009469 0.023308 -0.016846
# 2 0.002707 0.009235 0.001668 -0.001926 -0.004836 0.013212
# 3 -0.005483 0.001668 0.019977 -0.006747 -0.000591 0.007333
# 4 0.009469 -0.001926 -0.006747 0.037590 0.008199 0.001061
# 5 0.023308 -0.004836 -0.000591 0.008199 0.011998 0.015181
# 6 -0.016846 0.013212 0.007333 0.001061 0.015181 0.018335
#
#
# Mechanical properties :
#
#
# Convention : Reuss Voigt Hill
#
# Bulk Modulus (GPa) = 42.65865 40.20841 41.43353
# Shear Modulus (GPa) = 48.25594 25.83856 37.04725
#
# Velocity S-wave (km/s) = 4.64637 3.39995 4.07115
# Velocity P-wave (km/s) = 6.91879 5.77939 6.37460
#
# Compressibility (1/GPa) = 0.02344190
#
# Stress axis : x y z
#
# Youngs Moduli (GPa) = -281.50146 108.28482 50.05720
#
# Poissons Ratio (x) = -0.29308 0.27448
# Poissons Ratio (y) = 0.76191 -0.08349
# Poissons Ratio (z) = -1.54357 -0.18060
#
# Static dielectric constant tensor:
#      x y z
#    x 1.819930 -0.000740 0.048750 
#    y -0.000740 1.464460 0.160660 
#    z 0.048750 0.160660 1.773700 
# 
# From -- ./inp_files/432195.got.cif
#   From: 2010.05.17/outbox.ucp.g08.bks.cvg/sg2_217_cif.got.tgz:432195.got - 2010.06.11 11:32:03.
