data_PCOD9075097
_publ_section_title
;
Structure prediction by ZEFSAII (Michael W. Deem and Ramdas Pophale) SiO2 
 PCOD9075097
Probable space group: P -1
;
_chemical_formula_sum "Si O2"
_cell_formula_units_Z 16
_cell_length_a 11.568191
_cell_length_b 14.617122
_cell_length_c 13.063152
_cell_angle_alpha 160.546410
_cell_angle_beta 102.551478
_cell_angle_gamma 77.061178
_cell_volume 716.848946
_symmetry_space_group_name_H-M "P -1"
_symmetry_group_IT_number 2
_symmetry_cell_setting 'triclinic'
loop_
_space_group_symop_operation_xyz
x,y,z
-x,-y,-z
loop_
_atom_site_type_symbol
_atom_site_label
_atom_site_fract_x
_atom_site_fract_y
_atom_site_fract_z
Si Si1 0.445388 0.709718 0.791548
Si Si2 0.173054 0.663182 0.679939
Si Si3 0.290287 0.981358 0.681683
Si Si4 0.126460 0.070377 0.550523
Si Si5 0.464560 0.234970 0.446114
Si Si6 0.913304 0.454717 0.109265
Si Si7 0.169866 0.513800 0.292985
Si Si8 0.810914 0.808462 0.650462
O O1 0.500000 0.500000 0.500000
O O2 0.307568 0.743048 0.773233
O O3 0.458629 0.543233 0.726517
O O4 0.493523 0.009361 0.124333
O O5 0.130372 0.607431 0.498474
O O6 0.175159 0.383368 0.448892
O O7 0.129088 0.911048 0.008911
O O8 0.227127 0.039256 0.622291
O O9 0.422837 0.844575 0.545581
O O10 0.218775 0.765133 0.505037
O O11 0.271409 0.266009 0.043305
O O12 0.115650 0.367724 0.810555
O O13 0.145070 0.835498 0.218967
O O14 0.000000 0.000000 0.500000
O O15 0.330612 0.164770 0.375963
O O16 0.868839 0.641417 0.391944
O O17 0.054053 0.410858 0.106176
#
# Coordination Sequence:
#
# PCOD9075097 Si02
#       8
#     2   2   2   2   2   2   2   2
#     4  10  18  32  53  80 117 154 195 231 283 339
#     4  10  21  36  57  87 121 162 194 233 280 348
#     4  12  23  38  62  91 120 146 196 256 297 345
#     4  12  23  43  64  90 115 148 197 247 312 344
#     4  10  21  36  55  82 117 155 187 237 289 340
#     4  12  24  42  64  87 117 158 195 245 293 352
#     4  12  23  37  61  92 120 152 199 243 296 341
#     4  10  23  41  59  84 124 162 197 228 283 353
#
# _framework density 22.319904000000001
#
# number of rings (size 3 to 8) (size 9 to 14) (size 15 to 20)
#    0.000    1.000    2.500    5.250    0.000    3.000 
#    0.000    1.250    0.000    0.000    0.000    0.000 
#    0.000    0.000    0.000    0.000    0.000    0.000 
#
# Total GULP energy -89402.187401 kJ/mol
# GULP energy per Si atom -5587.636713 kJ/mol
# Density = 2.226910 g / cm^3
# Si number density = 22.319904 Si / 1000 Ang^3
#
#
#
# Elastic Constant Matrix: (Units=GPa)
#
#
# Indices 1 2 3 4 5 6 
#
# 1 53.9908 23.5160 3.0224 -4.4819 -3.4123 -21.3230
# 2 23.5160 81.8467 6.1970 -3.7457 5.0482 -24.5444
# 3 3.0224 6.1970 98.4875 2.9136 -9.4160 -9.4426
# 4 -4.4819 -3.7457 2.9136 32.1471 -0.6686 3.8608
# 5 -3.4123 5.0482 -9.4160 -0.6686 26.7195 -1.8528
# 6 -21.3230 -24.5444 -9.4426 3.8608 -1.8528 24.6463
#
#
#
# Elastic Compliance Matrix: (Units=1/GPa)
#
#
# Indices 1 2 3 4 5 6 
#
# 1 0.029505 -0.001418 0.002218 0.000843 0.006595 0.025327
# 2 -0.001418 0.017620 0.000283 -0.000174 -0.002286 0.016284
# 3 0.002218 0.000283 0.011232 -0.001429 0.004643 0.007076
# 4 0.000843 -0.000174 -0.001429 0.031935 0.000090 -0.004987
# 5 0.006595 -0.002286 0.004643 0.000090 0.040912 0.008270
# 6 0.025327 0.016284 0.007076 -0.004987 0.008270 0.082818
#
#
# Mechanical properties :
#
#
# Convention : Reuss Voigt Hill
#
# Bulk Modulus (GPa) = 16.52288 33.31065 24.91677
# Shear Modulus (GPa) = 21.54884 30.14188 25.84536
#
# Velocity S-wave (km/s) = 3.11055 3.67883 3.40656
# Velocity P-wave (km/s) = 4.50771 5.74471 5.16339
#
# Compressibility (1/GPa) = 0.06052214
#
# Stress axis : x y z
#
# Youngs Moduli (GPa) = 33.89290 56.75218 89.02834
#
# Poissons Ratio (x) = 0.08048 -0.19743
# Poissons Ratio (y) = 0.04806 -0.02517
# Poissons Ratio (z) = -0.07516 -0.01604
#
# Static dielectric constant tensor:
#      x y z
#    x 1.850920 -0.025180 -0.041910 
#    y -0.025180 1.817200 -0.025240 
#    z -0.041910 -0.025240 1.940010 
# 
# From -- ./inp_files/67323.got.cif
#   From: 2010.05.17/outbox.cif.g08.bks.cpg/sg2_34_cif.got.tgz:67323.got - 2010.06.03 11:33:40.
