data_PCOD9075868
_publ_section_title
;
Structure prediction by ZEFSAII (Michael W. Deem and Ramdas Pophale) SiO2 
 PCOD9075868
Probable space group: P -1
;
_chemical_formula_sum "Si O2"
_cell_formula_units_Z 16
_cell_length_a 13.878536
_cell_length_b 10.355703
_cell_length_c 6.979876
_cell_angle_alpha 105.723300
_cell_angle_beta 124.305441
_cell_angle_gamma 58.629958
_cell_volume 707.169137
_symmetry_space_group_name_H-M "P -1"
_symmetry_group_IT_number 2
_symmetry_cell_setting 'triclinic'
loop_
_space_group_symop_operation_xyz
x,y,z
-x,-y,-z
loop_
_atom_site_type_symbol
_atom_site_label
_atom_site_fract_x
_atom_site_fract_y
_atom_site_fract_z
Si Si1 0.106577 0.692035 0.193771
Si Si2 0.649940 0.928587 0.712173
Si Si3 0.628067 0.299519 0.482361
Si Si4 0.772806 0.609466 0.570868
Si Si5 0.113935 0.200689 0.333926
Si Si6 0.697423 0.144969 0.114721
Si Si7 0.492492 0.388564 0.729827
Si Si8 0.985405 0.023367 0.227097
O O1 0.250891 0.673244 0.292142
O O2 0.130440 0.549383 0.291811
O O3 0.045411 0.852322 0.298748
O O4 0.006232 0.714992 0.918247
O O5 0.714696 0.745017 0.720032
O O6 0.757826 0.930202 0.682191
O O7 0.500000 0.000000 0.500000
O O8 0.657642 0.019369 0.941579
O O9 0.682514 0.168422 0.333952
O O10 0.550421 0.280112 0.565083
O O11 0.532995 0.451781 0.321458
O O12 0.837398 0.675239 0.515151
O O13 0.645753 0.597643 0.351890
O O14 0.061005 0.121322 0.391937
O O15 0.838639 0.105068 0.170372
O O16 0.599479 0.306184 0.976151
O O17 0.000000 0.000000 0.000000
#
# Coordination Sequence:
#
# PCOD9075868 Si02
#       8
#     2   2   2   2   2   2   2   2
#     4  10  18  34  52  83 121 149 199 248 298 348
#     4  10  19  33  58  86 114 158 204 240 299 365
#     4  10  24  34  59  93 115 157 203 254 303 366
#     4   9  19  32  59  82 113 166 197 239 306 366
#     4   9  18  32  55  85 113 157 204 234 304 360
#     4  12  20  37  61  86 120 157 207 250 302 360
#     4  10  20  41  58  83 124 156 198 251 313 356
#     4  10  18  32  56  85 115 156 201 243 296 352
#
# _framework density 22.625423000000001
#
# number of rings (size 3 to 8) (size 9 to 14) (size 15 to 20)
#    0.750    1.250    3.750    2.250    0.000    0.500 
#    0.000    0.625    0.000    6.000    0.000    0.000 
#    0.000    2.500    0.000    0.000    0.000    0.000 
#
# Total GULP energy -89210.046692 kJ/mol
# GULP energy per Si atom -5575.627918 kJ/mol
# Density = 2.257393 g / cm^3
# Si number density = 22.625423 Si / 1000 Ang^3
#
#
#
# Elastic Constant Matrix: (Units=GPa)
#
#
# Indices 1 2 3 4 5 6 
#
# 1 93.4028 36.8941 40.8185 6.6319 8.4352 -1.4920
# 2 36.8941 112.0229 29.7705 -26.5777 6.1761 4.5539
# 3 40.8185 29.7705 60.6755 1.2195 -1.3013 -10.8969
# 4 6.6319 -26.5777 1.2195 30.4455 -3.7783 11.7472
# 5 8.4352 6.1761 -1.3013 -3.7783 30.2712 2.6607
# 6 -1.4920 4.5539 -10.8969 11.7472 2.6607 30.5516
#
#
#
# Elastic Compliance Matrix: (Units=1/GPa)
#
#
# Indices 1 2 3 4 5 6 
#
# 1 0.018265 -0.006253 -0.008467 -0.011234 -0.005900 0.003638
# 2 -0.006253 0.020195 -0.009201 0.026084 0.001959 -0.016797
# 3 -0.008467 -0.009201 0.030004 -0.013519 0.002375 0.016651
# 4 -0.011234 0.026084 -0.013519 0.074858 0.009991 -0.038912
# 5 -0.005900 0.001959 0.002375 0.009991 0.036220 -0.006729
# 6 0.003638 -0.016797 0.016651 -0.038912 -0.006729 0.056900
#
#
# Mechanical properties :
#
#
# Convention : Reuss Voigt Hill
#
# Bulk Modulus (GPa) = 48.49036 53.45193 50.97114
# Shear Modulus (GPa) = 17.17284 28.82818 23.00051
#
# Velocity S-wave (km/s) = 2.75800 3.57340 3.19184
# Velocity P-wave (km/s) = 5.62320 6.37978 6.01340
#
# Compressibility (1/GPa) = 0.02062266
#
# Stress axis : x y z
#
# Youngs Moduli (GPa) = 54.74924 49.51804 33.32846
#
# Poissons Ratio (x) = 0.30965 0.28219
# Poissons Ratio (y) = 0.34237 0.30664
# Poissons Ratio (z) = 0.46355 0.45559
#
# Static dielectric constant tensor:
#      x y z
#    x 1.831420 0.007700 0.009070 
#    y 0.007700 1.902690 0.019630 
#    z 0.009070 0.019630 1.887030 
# 
# From -- ./inp_files/305805.got.cif
#   From: 2010.05.17/outbox.cif.g08.bks.cpg/sg2_153_cif.got.tgz:305805.got - 2010.06.03 11:33:40.
