data_PCOD9075611
_publ_section_title
;
Structure prediction by ZEFSAII (Michael W. Deem and Ramdas Pophale) SiO2 
 PCOD9075611
Probable space group: P -1
;
_chemical_formula_sum "Si O2"
_cell_formula_units_Z 16
_cell_length_a 9.000000
_cell_length_b 27.000000
_cell_length_c 9.000000
_cell_angle_alpha 140.000000
_cell_angle_beta 70.000000
_cell_angle_gamma 140.000000
_cell_volume 727.930595
_symmetry_space_group_name_H-M "P -1"
_symmetry_group_IT_number 2
_symmetry_cell_setting 'triclinic'
loop_
_space_group_symop_operation_xyz
x,y,z
-x,-y,-z
loop_
_atom_site_type_symbol
_atom_site_label
_atom_site_fract_x
_atom_site_fract_y
_atom_site_fract_z
Si Si1 0.985831 0.989091 0.657583
Si Si2 0.133516 0.209297 0.639850
Si Si3 0.363184 0.782071 0.377898
Si Si4 0.399776 0.238350 0.324146
Si Si5 0.074535 0.457993 0.270295
Si Si6 0.792129 0.636174 0.793958
Si Si7 0.589253 0.048361 0.406511
Si Si8 0.710317 0.204829 0.235070
O O1 0.077626 0.941422 0.566859
O O2 0.644254 0.849033 0.484241
O O3 0.000000 0.000000 0.500000
O O4 0.164721 0.119515 0.003724
O O5 0.274802 0.224681 0.486484
O O6 0.931717 0.194569 0.614093
O O7 0.261243 0.306344 0.961988
O O8 0.510511 0.911468 0.532712
O O9 0.232244 0.759429 0.526784
O O10 0.151234 0.649309 0.034457
O O11 0.615845 0.391486 0.547847
O O12 0.587698 0.237152 0.291066
O O13 0.107676 0.393322 0.202989
O O14 0.000000 0.500000 0.500000
O O15 0.500000 0.500000 0.500000
O O16 0.029061 0.726940 0.790864
O O17 0.500000 0.000000 0.500000
O O18 0.521974 0.953836 0.094259
#
# Coordination Sequence:
#
# PCOD9075611 Si02
#       8
#     2   2   2   2   2   2   2   2
#     4  12  26  44  76 113 145 187 250 297 363 433
#     4  12  25  48  73 107 146 187 243 304 359 427
#     4  12  27  45  74 112 144 195 243 299 361 438
#     4  12  27  46  78 106 149 195 238 308 360 434
#     4  12  27  50  73 104 149 196 242 290 375 440
#     4  12  30  48  75 105 147 194 243 300 365 440
#     4  12  23  46  75 105 149 190 236 301 369 419
#     4  12  25  48  75 107 146 192 242 299 372 426
#
# _framework density 21.980118000000001
#
# number of rings (size 3 to 8) (size 9 to 14) (size 15 to 20)
#    0.000    0.000    6.250    3.000    5.250    2.000 
#    0.000    0.000    0.000    0.000    0.000    0.000 
#    0.000    0.000    0.000    0.000    0.000    0.000 
#
# Total GULP energy -89152.658187 kJ/mol
# GULP energy per Si atom -5572.041137 kJ/mol
# Density = 2.193009 g / cm^3
# Si number density = 21.980118 Si / 1000 Ang^3
#
#
#
# Elastic Constant Matrix: (Units=GPa)
#
#
# Indices 1 2 3 4 5 6 
#
# 1 39.8048 19.1820 11.0850 -14.2298 2.1408 2.2038
# 2 19.1820 135.6543 57.2490 -38.8487 -1.1710 -6.1738
# 3 11.0850 57.2490 186.1770 -39.0394 8.3059 3.8119
# 4 -14.2298 -38.8487 -39.0394 41.5542 3.9717 -1.1554
# 5 2.1408 -1.1710 8.3059 3.9717 44.0584 -4.6711
# 6 2.2038 -6.1738 3.8119 -1.1554 -4.6711 32.0032
#
#
#
# Elastic Compliance Matrix: (Units=1/GPa)
#
#
# Indices 1 2 3 4 5 6 
#
# 1 0.029458 -0.002074 0.001011 0.009292 -0.002793 -0.002621
# 2 -0.002074 0.010714 -0.001590 0.007863 0.000265 0.002722
# 3 0.001011 -0.001590 0.007117 0.005709 -0.002088 -0.001323
# 4 0.009292 0.007863 0.005709 0.040453 -0.004865 0.000947
# 5 -0.002793 0.000265 -0.002088 -0.004865 0.024078 0.003831
# 6 -0.002621 0.002722 -0.001323 0.000947 0.003831 0.032703
#
#
# Mechanical properties :
#
#
# Convention : Reuss Voigt Hill
#
# Bulk Modulus (GPa) = 23.81992 59.62979 41.72485
# Shear Modulus (GPa) = 30.52057 41.79784 36.15920
#
# Velocity S-wave (km/s) = 3.73037 4.36549 4.06037
# Velocity P-wave (km/s) = 5.42354 7.25244 6.40362
#
# Compressibility (1/GPa) = 0.04198167
#
# Stress axis : x y z
#
# Youngs Moduli (GPa) = 33.94688 93.33763 140.50277
#
# Poissons Ratio (x) = 0.19362 -0.14199
# Poissons Ratio (y) = 0.07042 0.22337
# Poissons Ratio (z) = -0.03431 0.14839
#
# Static dielectric constant tensor:
#      x y z
#    x 1.742130 -0.184660 -0.182900 
#    y -0.184660 1.046910 -0.833040 
#    z -0.182900 -0.833040 1.007120 
# 
# From -- ./inp_files/189895.got.cif
#   From: 2010.05.17/outbox.ucp.g08.bks.cvg/sg2_95_cif.got.tgz:189895.got - 2010.06.11 11:32:03.
