data_PCOD9075617
_publ_section_title
;
Structure prediction by ZEFSAII (Michael W. Deem and Ramdas Pophale) SiO2 
 PCOD9075617
Probable space group: P -1
;
_chemical_formula_sum "Si O2"
_cell_formula_units_Z 15
_cell_length_a 6.000000
_cell_length_b 9.000000
_cell_length_c 21.000000
_cell_angle_alpha 140.000000
_cell_angle_beta 70.000000
_cell_angle_gamma 120.000000
_cell_volume 629.549538
_symmetry_space_group_name_H-M "P -1"
_symmetry_group_IT_number 2
_symmetry_cell_setting 'triclinic'
loop_
_space_group_symop_operation_xyz
x,y,z
-x,-y,-z
loop_
_atom_site_type_symbol
_atom_site_label
_atom_site_fract_x
_atom_site_fract_y
_atom_site_fract_z
Si Si1 0.428917 0.863482 0.690317
Si Si2 0.000000 0.000000 0.000000
Si Si3 0.473794 0.349810 0.019390
Si Si4 0.970898 0.068832 0.641144
Si Si5 0.447297 0.499889 0.678259
Si Si6 0.145996 0.204188 0.815297
Si Si7 0.696157 0.953002 0.879637
Si Si8 0.919468 0.410732 0.550751
O O1 0.501484 0.727476 0.697179
O O2 0.141130 0.649362 0.639165
O O3 0.368329 0.108824 0.783843
O O4 0.656732 0.944645 0.640991
O O5 0.200966 0.290754 0.058986
O O6 0.166070 0.005776 0.052308
O O7 0.719978 0.501123 0.088323
O O8 0.500000 0.500000 0.000000
O O9 0.479221 0.069295 0.925381
O O10 0.151576 0.311994 0.661209
O O11 0.067847 0.129646 0.725345
O O12 0.038258 0.845274 0.531976
O O13 0.565592 0.654566 0.781324
O O14 0.636172 0.373208 0.590593
O O15 0.913882 0.085366 0.848364
O O16 0.000000 0.500000 0.500000
#
# Coordination Sequence:
#
# PCOD9075617 Si02
#       8
#     2   1   2   2   2   2   2   2
#     4  12  24  46  74 103 148 192 237 304 364 430
#     4  12  28  44  74 104 146 192 240 308 366 434
#     4  12  27  46  76 104 144 191 249 301 367 436
#     4  12  27  45  75 107 145 190 245 299 363 443
#     4  12  27  46  75 107 148 189 247 303 362 439
#     4  12  25  48  73 103 147 193 239 302 366 437
#     4  12  25  51  72 107 149 195 242 308 369 435
#     4  12  23  49  73 105 150 191 236 302 367 433
#
# _framework density 23.826560000000001
#
# number of rings (size 3 to 8) (size 9 to 14) (size 15 to 20)
#    0.000    0.000    6.667    3.200    0.000    2.667 
#    0.000    0.000    0.000    0.000    0.000    0.000 
#    0.000    0.000    0.000    0.000    0.000    0.000 
#
# Total GULP energy -83516.156902 kJ/mol
# GULP energy per Si atom -5567.743793 kJ/mol
# Density = 2.377233 g / cm^3
# Si number density = 23.826560 Si / 1000 Ang^3
#
#
#
# Elastic Constant Matrix: (Units=GPa)
#
#
# Indices 1 2 3 4 5 6 
#
# 1 4.3540 -14.5716 -29.8719 -15.0036 2.8414 -5.4062
# 2 -14.5716 133.8579 -9.7527 -2.2272 13.5465 23.5135
# 3 -29.8719 -9.7527 35.8997 -2.2818 -9.1220 -6.4889
# 4 -15.0036 -2.2272 -2.2818 32.5362 8.3002 5.6502
# 5 2.8414 13.5465 -9.1220 8.3002 21.2612 1.5465
# 6 -5.4062 23.5135 -6.4889 5.6502 1.5465 42.5042
#
#
#
# Elastic Compliance Matrix: (Units=1/GPa)
#
#
# Indices 1 2 3 4 5 6 
#
# 1 -0.029164 -0.005060 -0.026663 -0.015662 0.002012 -0.002972
# 2 -0.005060 0.008244 -0.004583 0.000522 -0.006329 -0.005743
# 3 -0.026663 -0.004583 0.007830 -0.016518 0.016150 0.001948
# 4 -0.015662 0.000522 -0.016518 0.027740 -0.015579 -0.007923
# 5 0.002012 -0.006329 0.016150 -0.015579 0.063373 0.005988
# 6 -0.002972 -0.005743 0.001948 -0.007923 0.005988 0.027459
#
#
# Mechanical properties :
#
#
# Convention : Reuss Voigt Hill
#
# Bulk Modulus (GPa) = -11.66819 7.30213 -2.18303
# Shear Modulus (GPa) = 33.43891 34.48082 33.95987
#
# Velocity S-wave (km/s) = 3.75030 3.80828 3.77940
# Velocity P-wave (km/s) = 3.72092 4.73378 4.25758
#
# Compressibility (1/GPa) = -0.08570307
#
# Stress axis : x y z
#
# Youngs Moduli (GPa) = -34.28873 121.30267 127.71969
#
# Poissons Ratio (x) = 0.61373 3.40542
# Poissons Ratio (y) = -0.17348 0.58539
# Poissons Ratio (z) = -0.91425 0.55598
#
# Static dielectric constant tensor:
#      x y z
#    x 2.295280 -0.081090 0.093170 
#    y -0.081090 1.986990 0.019630 
#    z 0.093170 0.019630 2.207360 
# 
# From -- ./inp_files/323814.got.cif
#   From: 2010.05.17/outbox.ucp.g08.bks.cvg/sg2_162_cif.got.tgz:323814.got - 2010.06.11 11:32:03.
