data_PCOD9075289
_publ_section_title
;
Structure prediction by ZEFSAII (Michael W. Deem and Ramdas Pophale) SiO2 
 PCOD9075289
Probable space group: P -1
;
_chemical_formula_sum "Si O2"
_cell_formula_units_Z 12
_cell_length_a 9.000000
_cell_length_b 12.000000
_cell_length_c 15.000000
_cell_angle_alpha 150.000000
_cell_angle_beta 50.000000
_cell_angle_gamma 110.000000
_cell_volume 513.903451
_symmetry_space_group_name_H-M "P -1"
_symmetry_group_IT_number 2
_symmetry_cell_setting 'triclinic'
loop_
_space_group_symop_operation_xyz
x,y,z
-x,-y,-z
loop_
_atom_site_type_symbol
_atom_site_label
_atom_site_fract_x
_atom_site_fract_y
_atom_site_fract_z
Si Si1 0.512191 0.130279 0.365930
Si Si2 0.434848 0.239474 0.758145
Si Si3 0.048320 0.950076 0.801316
Si Si4 0.634403 0.896842 0.971102
Si Si5 0.009865 0.500340 0.815170
Si Si6 0.195766 0.643838 0.362770
O O1 0.263730 0.332362 0.642305
O O2 0.576665 0.860606 0.206744
O O3 0.687667 0.218569 0.380006
O O4 0.496019 0.099226 0.246011
O O5 0.601272 0.340093 0.749560
O O6 0.500000 0.000000 0.500000
O O7 0.161983 0.466370 0.016503
O O8 0.055476 0.901100 0.659405
O O9 0.991790 0.244304 0.043802
O O10 0.873624 0.885057 0.863913
O O11 0.702425 0.609529 0.784079
O O12 0.500000 0.000000 0.000000
O O13 0.966023 0.363248 0.654314
#
# Coordination Sequence:
#
# PCOD9075289 Si02
#       6
#     2   2   2   2   2   2
#     4  11  25  47  74 110 141 194 236 293 367 422
#     4  11  23  49  74 105 147 186 238 302 360 422
#     4  11  25  48  72 104 150 189 236 297 353 426
#     4  12  27  47  75 108 146 193 245 292 358 432
#     4  11  25  45  75 108 145 186 238 297 360 430
#     4  12  24  49  74 104 147 189 239 302 356 423
#
# _framework density 23.35069
#
# number of rings (size 3 to 8) (size 9 to 14) (size 15 to 20)
#    0.000    0.667    6.667    2.500    2.333    2.000 
#    3.000    0.000    0.000    0.000    0.000    0.000 
#    0.000    0.000    0.000    0.000    0.000    0.000 
#
# Total GULP energy -66948.743911 kJ/mol
# GULP energy per Si atom -5579.061993 kJ/mol
# Density = 2.329754 g / cm^3
# Si number density = 23.350690 Si / 1000 Ang^3
#
#
#
# Elastic Constant Matrix: (Units=GPa)
#
#
# Indices 1 2 3 4 5 6 
#
# 1 124.8294 63.9572 51.2448 -5.6417 12.5237 39.6108
# 2 63.9572 144.7176 17.1673 -20.5602 -6.7838 36.6623
# 3 51.2448 17.1673 33.1626 -32.6253 -0.9012 20.0139
# 4 -5.6417 -20.5602 -32.6253 30.9709 4.8781 1.2809
# 5 12.5237 -6.7838 -0.9012 4.8781 36.0113 -15.5199
# 6 39.6108 36.6623 20.0139 1.2809 -15.5199 43.5043
#
#
#
# Elastic Compliance Matrix: (Units=1/GPa)
#
#
# Indices 1 2 3 4 5 6 
#
# 1 0.013644 0.000703 0.010757 0.018053 -0.017442 -0.024718
# 2 0.000703 0.007215 -0.011152 -0.007014 0.001405 -0.000883
# 3 0.010757 -0.011152 -0.032836 -0.041891 0.006951 0.018423
# 4 0.018053 -0.007014 -0.041891 -0.012983 -0.003493 0.007881
# 5 -0.017442 0.001405 0.006951 -0.003493 0.046968 0.028357
# 6 -0.024718 -0.000883 0.018423 0.007881 0.028357 0.047645
#
#
# Mechanical properties :
#
#
# Convention : Reuss Voigt Hill
#
# Bulk Modulus (GPa) = -88.03124 63.04981 -12.49072
# Shear Modulus (GPa) = 76.63126 33.45330 55.04228
#
# Velocity S-wave (km/s) = 5.73488 3.78914 4.86037
# Velocity P-wave (km/s) = 2.46379 6.79730 5.11241
#
# Compressibility (1/GPa) = -0.01135960
#
# Stress axis : x y z
#
# Youngs Moduli (GPa) = 73.29292 138.60014 -30.45401
#
# Poissons Ratio (x) = -0.09749 0.32760
# Poissons Ratio (y) = -0.05155 -0.33961
# Poissons Ratio (z) = -0.78842 1.54560
#
# Static dielectric constant tensor:
#      x y z
#    x 1.982540 -0.106750 -0.236670 
#    y -0.106750 1.869970 0.104600 
#    z -0.236670 0.104600 2.317520 
# 
# From -- ./inp_files/213727.got.cif
#   From: 2010.05.17/outbox.ucp.g08.bks.cvg/sg2_107_cif.got.tgz:213727.got - 2010.06.11 11:32:03.
