data_PCOD9075045
_publ_section_title
;
Structure prediction by ZEFSAII (Michael W. Deem and Ramdas Pophale) SiO2 
 PCOD9075045
Probable space group: P -1
;
_chemical_formula_sum "Si O2"
_cell_formula_units_Z 16
_cell_length_a 24.000000
_cell_length_b 30.000000
_cell_length_c 12.000000
_cell_angle_alpha 30.000000
_cell_angle_beta 150.000000
_cell_angle_gamma 170.000000
_cell_volume 741.497220
_symmetry_space_group_name_H-M "P -1"
_symmetry_group_IT_number 2
_symmetry_cell_setting 'triclinic'
loop_
_space_group_symop_operation_xyz
x,y,z
-x,-y,-z
loop_
_atom_site_type_symbol
_atom_site_label
_atom_site_fract_x
_atom_site_fract_y
_atom_site_fract_z
Si Si1 0.261090 0.640835 0.004274
Si Si2 0.248666 0.985977 0.170973
Si Si3 0.266354 0.268759 0.250927
Si Si4 0.765029 0.091158 0.053590
Si Si5 0.774475 0.414657 0.326688
Si Si6 0.800854 0.542266 0.505196
Si Si7 0.595006 0.229510 0.671279
Si Si8 0.783220 0.739818 0.558558
O O1 0.192487 0.501840 0.265098
O O2 0.925408 0.423091 0.845033
O O3 0.524116 0.841455 0.922087
O O4 0.415912 0.824386 0.966008
O O5 0.126187 0.809687 0.417280
O O6 0.473922 0.204120 0.178737
O O7 0.911359 0.777342 0.002548
O O8 0.588120 0.471001 0.314083
O O9 0.338069 0.339748 0.352160
O O10 0.984895 0.982420 0.364281
O O11 0.980685 0.321881 0.855453
O O12 0.950182 0.137557 0.252383
O O13 0.688451 0.038079 0.170301
O O14 0.623615 0.281040 0.478532
O O15 0.000000 0.500000 0.500000
O O16 0.614342 0.334412 0.550209
O O17 0.500000 0.500000 0.500000
#
# Coordination Sequence:
#
# PCOD9075045 Si02
#       8
#     2   2   2   2   2   2   2   2
#     4  11  22  43  72  96 128 186 231 284 348 417
#     4  12  25  43  68 100 138 182 228 287 351 415
#     4  11  22  46  69 104 144 185 240 285 353 423
#     4  11  23  45  68  97 140 178 232 291 350 419
#     4  12  28  43  64 104 141 183 229 292 356 417
#     4  11  24  44  72 101 135 181 239 285 348 422
#     4  11  25  43  71 100 133 183 240 282 350 424
#     4  11  22  41  74 105 141 189 233 291 353 417
#
# _framework density 21.577964000000001
#
# number of rings (size 3 to 8) (size 9 to 14) (size 15 to 20)
#    0.000    0.750    5.000    4.125    3.500    3.500 
#    0.000    0.625    0.000    0.000    0.000    0.000 
#    0.000    0.000    0.000    0.000    0.000    0.000 
#
# Total GULP energy -89164.860664 kJ/mol
# GULP energy per Si atom -5572.803791 kJ/mol
# Density = 2.152885 g / cm^3
# Si number density = 21.577964 Si / 1000 Ang^3
#
#
#
# Elastic Constant Matrix: (Units=GPa)
#
#
# Indices 1 2 3 4 5 6 
#
# 1 147.0373 21.9222 41.5977 -3.1817 -39.1213 25.3025
# 2 21.9222 39.1045 17.9710 -9.5606 -14.1861 -0.4297
# 3 41.5977 17.9710 86.1066 -20.7211 -30.7090 12.4479
# 4 -3.1817 -9.5606 -20.7211 38.2964 11.6972 -8.6028
# 5 -39.1213 -14.1861 -30.7090 11.6972 50.2211 -2.8949
# 6 25.3025 -0.4297 12.4479 -8.6028 -2.8949 53.1434
#
#
#
# Elastic Compliance Matrix: (Units=1/GPa)
#
#
# Indices 1 2 3 4 5 6 
#
# 1 0.010438 -0.003550 -0.002363 -0.004335 0.006416 -0.004797
# 2 -0.003550 0.031524 -0.002826 0.005892 0.003254 0.003738
# 3 -0.002363 -0.002826 0.017360 0.006159 0.006449 -0.001616
# 4 -0.004335 0.005892 0.006159 0.033513 -0.005418 0.005799
# 5 0.006416 0.003254 0.006449 -0.005418 0.030819 -0.003737
# 6 -0.004797 0.003738 -0.001616 0.005799 -0.003737 0.022245
#
#
# Mechanical properties :
#
#
# Convention : Reuss Voigt Hill
#
# Bulk Modulus (GPa) = 23.89892 48.35890 36.12891
# Shear Modulus (GPa) = 28.19686 41.04933 34.62309
#
# Velocity S-wave (km/s) = 3.61881 4.36635 4.01004
# Velocity P-wave (km/s) = 5.34422 6.91953 6.18226
#
# Compressibility (1/GPa) = 0.04184289
#
# Stress axis : x y z
#
# Youngs Moduli (GPa) = 95.80762 31.72219 57.60223
#
# Poissons Ratio (x) = 0.11263 0.13610
# Poissons Ratio (y) = 0.34016 0.16279
# Poissons Ratio (z) = 0.22638 0.08965
#
# Static dielectric constant tensor:
#      x y z
#    x 1.804390 -0.008210 -0.000310 
#    y -0.008210 1.845240 -0.058060 
#    z -0.000310 -0.058060 1.866900 
# 
# From -- ./inp_files/475781.got.cif
#   From: 2010.05.17/outbox.ucp.g08.bks.cvg/sg2_238_cif.got.tgz:475781.got - 2010.06.11 11:32:03.
