data_PCOD9075699
_publ_section_title
;
Structure prediction by ZEFSAII (Michael W. Deem and Ramdas Pophale) SiO2 
 PCOD9075699
Probable space group: P -1
;
_chemical_formula_sum "Si O2"
_cell_formula_units_Z 16
_cell_length_a 24.860161
_cell_length_b 9.160114
_cell_length_c 25.063731
_cell_angle_alpha 152.406811
_cell_angle_beta 160.843380
_cell_angle_gamma 29.375221
_cell_volume 845.227207
_symmetry_space_group_name_H-M "P -1"
_symmetry_group_IT_number 2
_symmetry_cell_setting 'triclinic'
loop_
_space_group_symop_operation_xyz
x,y,z
-x,-y,-z
loop_
_atom_site_type_symbol
_atom_site_label
_atom_site_fract_x
_atom_site_fract_y
_atom_site_fract_z
Si Si1 0.577850 0.871532 0.131332
Si Si2 0.762433 0.705035 0.032330
Si Si3 0.640610 0.237724 0.418582
Si Si4 0.128421 0.424942 0.323632
Si Si5 0.363051 0.787346 0.315259
Si Si6 0.188744 0.791821 0.603608
Si Si7 0.188340 0.713117 0.793901
Si Si8 0.827168 0.617222 0.443557
O O1 0.648497 0.494262 0.089573
O O2 0.609242 0.046087 0.273230
O O3 0.689687 0.977168 0.224317
O O4 0.384478 0.035240 0.991981
O O5 0.930352 0.565961 0.177550
O O6 0.806736 0.916401 0.092221
O O7 0.689670 0.404131 0.846398
O O8 0.783050 0.423490 0.593086
O O9 0.470683 0.496672 0.357552
O O10 0.711166 0.971826 0.442191
O O11 0.190876 0.556109 0.478901
O O12 0.198259 0.039611 0.262669
O O13 0.500000 0.000000 0.500000
O O14 0.229656 0.580792 0.626351
O O15 0.000000 0.000000 0.500000
O O16 0.177799 0.566611 0.676982
O O17 0.019144 0.654596 0.643811
#
# Coordination Sequence:
#
# PCOD9075699 Si02
#       8
#     2   2   2   2   2   2   2   2
#     4   9  19  32  51  80 112 139 173 216 264 316
#     4  11  19  32  57  83 108 137 180 226 266 308
#     4   8  16  33  55  79 102 135 184 220 255 311
#     4  10  19  33  54  81 106 139 180 221 265 314
#     4   9  19  35  56  81 103 135 181 233 268 307
#     4  11  20  34  55  79 111 150 174 210 267 324
#     4  10  18  32  54  82 109 140 181 219 256 317
#     4  10  18  32  56  81 108 145 180 211 262 320
#
# _framework density 18.929821
#
# number of rings (size 3 to 8) (size 9 to 14) (size 15 to 20)
#    0.000    2.250    2.500    2.250    0.000    0.000 
#    0.000    3.125    5.500    0.750    0.000    0.000 
#    0.000    0.000    0.000    0.000    0.000    0.000 
#
# Total GULP energy -89182.912406 kJ/mol
# GULP energy per Si atom -5573.932025 kJ/mol
# Density = 1.888674 g / cm^3
# Si number density = 18.929821 Si / 1000 Ang^3
#
#
#
# Elastic Constant Matrix: (Units=GPa)
#
#
# Indices 1 2 3 4 5 6 
#
# 1 63.7760 32.5884 9.9021 -6.5648 9.6983 20.3278
# 2 32.5884 130.9472 19.8270 -22.6631 -1.4522 11.0016
# 3 9.9021 19.8270 62.9875 -5.3003 8.6309 1.5833
# 4 -6.5648 -22.6631 -5.3003 38.0426 -4.1307 3.7658
# 5 9.6983 -1.4522 8.6309 -4.1307 20.7177 -1.7158
# 6 20.3278 11.0016 1.5833 3.7658 -1.7158 21.5876
#
#
#
# Elastic Compliance Matrix: (Units=1/GPa)
#
#
# Indices 1 2 3 4 5 6 
#
# 1 0.029447 -0.004639 -0.000060 0.003298 -0.015678 -0.027182
# 2 -0.004639 0.010346 -0.002710 0.005661 0.005047 -0.001292
# 3 -0.000060 -0.002710 0.017799 0.000078 -0.007602 -0.000485
# 4 0.003298 0.005661 0.000078 0.031808 0.004234 -0.011208
# 5 -0.015678 0.005047 -0.007602 0.004234 0.061371 0.016888
# 6 -0.027182 -0.001292 -0.000485 -0.011208 0.016888 0.075910
#
#
# Mechanical properties :
#
#
# Convention : Reuss Voigt Hill
#
# Bulk Modulus (GPa) = 23.37871 42.48286 32.93079
# Shear Modulus (GPa) = 19.54988 29.09578 24.32283
#
# Velocity S-wave (km/s) = 3.21714 3.92476 3.58843
# Velocity P-wave (km/s) = 5.11634 6.55967 5.88244
#
# Compressibility (1/GPa) = 0.04277395
#
# Stress axis : x y z
#
# Youngs Moduli (GPa) = 33.95936 96.65809 56.18283
#
# Poissons Ratio (x) = 0.44837 0.00337
# Poissons Ratio (y) = 0.15753 0.15226
# Poissons Ratio (z) = 0.00204 0.26196
#
# Static dielectric constant tensor:
#      x y z
#    x 1.633330 -0.007210 0.019060 
#    y -0.007210 1.695590 -0.010870 
#    z 0.019060 -0.010870 1.718840 
# 
# From -- ./inp_files/197487.got.cif
#   From: 2010.05.17/outbox.cif.g08.bks.cpg/sg2_99_cif.got.tgz:197487.got - 2010.06.03 11:33:40.
