data_PCOD9075829
_publ_section_title
;
Structure prediction by ZEFSAII (Michael W. Deem and Ramdas Pophale) SiO2 
 PCOD9075829
Probable space group: P -1
;
_chemical_formula_sum "Si O2"
_cell_formula_units_Z 15
_cell_length_a 20.266278
_cell_length_b 10.714874
_cell_length_c 8.936349
_cell_angle_alpha 99.515445
_cell_angle_beta 84.696555
_cell_angle_gamma 162.453663
_cell_volume 562.937413
_symmetry_space_group_name_H-M "P -1"
_symmetry_group_IT_number 2
_symmetry_cell_setting 'triclinic'
loop_
_space_group_symop_operation_xyz
x,y,z
-x,-y,-z
loop_
_atom_site_type_symbol
_atom_site_label
_atom_site_fract_x
_atom_site_fract_y
_atom_site_fract_z
Si Si1 0.155480 0.911113 0.349689
Si Si2 0.722929 0.617245 0.695160
Si Si3 0.154775 0.288722 0.827747
Si Si4 0.613970 0.519567 0.018403
Si Si5 0.639454 0.705323 0.330516
Si Si6 0.000000 0.500000 0.000000
Si Si7 0.497388 0.165967 0.361501
Si Si8 0.818708 0.405178 0.937598
O O1 0.109977 0.975156 0.338171
O O2 0.421276 0.387997 0.350270
O O3 0.157019 0.885973 0.522101
O O4 0.042361 0.612566 0.194155
O O5 0.617732 0.489387 0.838166
O O6 0.535373 0.228653 0.541566
O O7 0.896694 0.824028 0.742067
O O8 0.331240 0.613026 0.718562
O O9 0.195175 0.485388 0.960247
O O10 0.216348 0.275457 0.905010
O O11 0.360457 0.016646 0.026972
O O12 0.641901 0.696170 0.149607
O O13 0.583501 0.462056 0.352827
O O14 0.965048 0.282696 0.006265
O O15 0.258029 0.723089 0.242823
#
# Coordination Sequence:
#
# PCOD9075829 Si02
#       8
#     2   2   2   2   2   1   2   2
#     4  10  18  32  56  80 100 137 182 221 250 319
#     4  11  21  32  57  85 106 137 177 224 270 305
#     4  10  19  36  57  78 105 143 185 212 257 317
#     4  10  20  36  55  79 114 137 171 223 275 313
#     4   8  17  34  52  76 103 140 176 213 263 310
#     4  12  18  34  60  80 102 132 194 216 250 310
#     4   9  18  34  55  79 108 139 179 218 256 320
#     4  10  20  37  57  78 104 147 177 216 261 318
#
# _framework density 26.645945999999999
#
# number of rings (size 3 to 8) (size 9 to 14) (size 15 to 20)
#    0.000    2.400    4.000    2.400    0.000    0.533 
#    0.000    2.667    2.933    1.600    0.000    0.000 
#    0.000    0.000    0.000    0.000    0.000    0.000 
#
# Total GULP energy -83551.722978 kJ/mol
# GULP energy per Si atom -5570.114865 kJ/mol
# Density = 2.658530 g / cm^3
# Si number density = 26.645946 Si / 1000 Ang^3
#
#
#
# Elastic Constant Matrix: (Units=GPa)
#
#
# Indices 1 2 3 4 5 6 
#
# 1 52.9757 -41.8542 24.0896 -9.5199 -25.0250 -7.0646
# 2 -41.8542 4.8993 19.6351 -30.2556 0.6873 -15.0951
# 3 24.0896 19.6351 258.8748 7.1233 -6.8407 8.8499
# 4 -9.5199 -30.2556 7.1233 26.5989 3.4764 -17.5036
# 5 -25.0250 0.6873 -6.8407 3.4764 36.3816 0.0186
# 6 -7.0646 -15.0951 8.8499 -17.5036 0.0186 13.2518
#
#
#
# Elastic Compliance Matrix: (Units=1/GPa)
#
#
# Indices 1 2 3 4 5 6 
#
# 1 0.015274 -0.005738 0.000259 -0.013457 0.011958 -0.016358
# 2 -0.005738 0.001569 0.001430 -0.013789 -0.002380 -0.020437
# 3 0.000259 0.001430 0.003658 0.001567 0.000689 0.001393
# 4 -0.013457 -0.013789 0.001567 0.017538 -0.010377 -0.000749
# 5 0.011958 -0.002380 0.000689 -0.010377 0.036883 -0.010554
# 6 -0.016358 -0.020437 0.001393 -0.000749 -0.010554 0.041556
#
#
# Mechanical properties :
#
#
# Convention : Reuss Voigt Hill
#
# Bulk Modulus (GPa) = 80.61948 35.61009 58.11479
# Shear Modulus (GPa) = 38.84711 36.23842 37.54277
#
# Velocity S-wave (km/s) = 3.82239 3.69182 3.75767
# Velocity P-wave (km/s) = 7.05708 5.61835 6.37841
#
# Compressibility (1/GPa) = 0.01240395
#
# Stress axis : x y z
#
# Youngs Moduli (GPa) = 65.47046 637.27204 273.39536
#
# Poissons Ratio (x) = 3.65669 -0.07091
# Poissons Ratio (y) = 0.37567 -0.39100
# Poissons Ratio (z) = -0.01698 -0.91139
#
# Static dielectric constant tensor:
#      x y z
#    x 2.099970 -0.103540 0.079420 
#    y -0.103540 2.161840 0.008800 
#    z 0.079420 0.008800 2.130710 
# 
# From -- ./inp_files/196980.got.cif
#   From: 2010.05.17/outbox.cif.g08.bks.cpg/sg2_99_cif.got.tgz:196980.got - 2010.06.03 11:33:40.
