data_PCOD9075374
_publ_section_title
;
Structure prediction by ZEFSAII (Michael W. Deem and Ramdas Pophale) SiO2 
 PCOD9075374
Probable space group: P -1
;
_chemical_formula_sum "Si O2"
_cell_formula_units_Z 12
_cell_length_a 9.000000
_cell_length_b 12.000000
_cell_length_c 15.000000
_cell_angle_alpha 150.000000
_cell_angle_beta 140.000000
_cell_angle_gamma 50.000000
_cell_volume 519.584618
_symmetry_space_group_name_H-M "P -1"
_symmetry_group_IT_number 2
_symmetry_cell_setting 'triclinic'
loop_
_space_group_symop_operation_xyz
x,y,z
-x,-y,-z
loop_
_atom_site_type_symbol
_atom_site_label
_atom_site_fract_x
_atom_site_fract_y
_atom_site_fract_z
Si Si1 0.398972 0.615740 0.358784
Si Si2 0.754397 0.911721 0.063636
Si Si3 0.951524 0.737687 0.686702
Si Si4 0.200556 0.578241 0.859576
Si Si5 0.414896 0.738612 0.256569
Si Si6 0.885954 0.140342 0.468011
O O1 0.671862 0.699779 0.534643
O O2 0.299351 0.665926 0.248220
O O3 0.327627 0.762992 0.511719
O O4 0.301708 0.358198 0.156360
O O5 0.839827 0.988403 0.254737
O O6 0.925123 0.057747 0.173920
O O7 0.500000 0.000000 0.000000
O O8 0.000000 0.500000 0.500000
O O9 0.069600 0.728905 0.833124
O O10 0.401416 0.453078 0.811357
O O11 0.040531 0.361686 0.665283
O O12 0.281735 0.711150 0.080075
O O13 0.500000 0.000000 0.500000
O O14 0.000000 0.000000 0.500000
#
# Coordination Sequence:
#
# PCOD9075374 Si02
#       6
#     2   2   2   2   2   2
#     4  12  27  48  75 111 147 194 250 301 373 438
#     4  12  25  48  78 107 153 194 239 310 366 435
#     4  12  23  50  77 107 152 196 243 305 368 441
#     4  11  24  46  71 104 149 191 243 304 365 434
#     4  11  24  45  74 106 145 194 247 301 364 438
#     4  12  27  47  73 108 147 192 250 307 366 439
#
# _framework density 23.095372000000001
#
# number of rings (size 3 to 8) (size 9 to 14) (size 15 to 20)
#    0.000    0.333    5.000    2.000    0.000   12.000 
#    0.000    7.500    0.000    0.000    0.000    0.000 
#    0.000    0.000    0.000    0.000    0.000    0.000 
#
# Total GULP energy -67057.779131 kJ/mol
# GULP energy per Si atom -5588.148261 kJ/mol
# Density = 2.304281 g / cm^3
# Si number density = 23.095372 Si / 1000 Ang^3
#
#
#
# Elastic Constant Matrix: (Units=GPa)
#
#
# Indices 1 2 3 4 5 6 
#
# 1 120.2140 59.8542 43.9252 -1.8744 19.6293 17.3723
# 2 59.8542 129.2805 77.5254 0.2161 -6.6315 34.9712
# 3 43.9252 77.5254 153.4667 -10.6016 11.5405 13.1178
# 4 -1.8744 0.2161 -10.6016 56.3540 23.5652 -8.3739
# 5 19.6293 -6.6315 11.5405 23.5652 41.4062 2.5462
# 6 17.3723 34.9712 13.1178 -8.3739 2.5462 53.5131
#
#
#
# Elastic Compliance Matrix: (Units=1/GPa)
#
#
# Indices 1 2 3 4 5 6 
#
# 1 0.013681 -0.008417 0.001451 0.006023 -0.011802 0.002207
# 2 -0.008417 0.021174 -0.009337 -0.010846 0.016852 -0.011315
# 3 0.001451 -0.009337 0.011655 0.006957 -0.009656 0.004322
# 4 0.006023 -0.010846 0.006957 0.031072 -0.024798 0.009469
# 5 -0.011802 0.016852 -0.009656 -0.024798 0.049930 -0.011071
# 6 0.002207 -0.011315 0.004322 0.009469 -0.011071 0.026314
#
#
# Mechanical properties :
#
#
# Convention : Reuss Voigt Hill
#
# Bulk Modulus (GPa) = 71.91648 85.06343 78.48996
# Shear Modulus (GPa) = 26.16895 45.03174 35.60035
#
# Velocity S-wave (km/s) = 3.36978 4.42046 3.93039
# Velocity P-wave (km/s) = 6.80787 7.93507 7.39298
#
# Compressibility (1/GPa) = 0.01390502
#
# Stress axis : x y z
#
# Youngs Moduli (GPa) = 73.09412 47.22722 85.80275
#
# Poissons Ratio (x) = 0.39750 -0.12449
# Poissons Ratio (y) = 0.61521 0.80111
# Poissons Ratio (z) = -0.10605 0.44094
#
# Static dielectric constant tensor:
#      x y z
#    x 1.918150 -0.072980 0.004450 
#    y -0.072980 1.915760 -0.050680 
#    z 0.004450 -0.050680 1.843680 
# 
# From -- ./inp_files/501322.got.cif
#   From: 2010.05.17/outbox.ucp.g08.bks.cvg/sg2_251_cif.got.tgz:501322.got - 2010.06.11 11:32:03.
