data_PCOD9075018
_publ_section_title
;
Structure prediction by ZEFSAII (Michael W. Deem and Ramdas Pophale) SiO2 
 PCOD9075018
Probable space group: P -1
;
_chemical_formula_sum "Si O2"
_cell_formula_units_Z 16
_cell_length_a 24.000000
_cell_length_b 18.000000
_cell_length_c 15.000000
_cell_angle_alpha 30.000000
_cell_angle_beta 20.000000
_cell_angle_gamma 20.000000
_cell_volume 749.971719
_symmetry_space_group_name_H-M "P -1"
_symmetry_group_IT_number 2
_symmetry_cell_setting 'triclinic'
loop_
_space_group_symop_operation_xyz
x,y,z
-x,-y,-z
loop_
_atom_site_type_symbol
_atom_site_label
_atom_site_fract_x
_atom_site_fract_y
_atom_site_fract_z
Si Si1 0.327257 0.220929 0.089499
Si Si2 0.027658 0.386014 0.211778
Si Si3 0.891525 0.998819 0.753328
Si Si4 0.317431 0.684253 0.822437
Si Si5 0.171391 0.111823 0.591745
Si Si6 0.624698 0.430432 0.790837
Si Si7 0.592572 0.343879 0.605411
Si Si8 0.676117 0.842098 0.169835
O O1 0.190286 0.214834 0.375463
O O2 0.130204 0.404988 0.121964
O O3 0.478037 0.256706 0.864210
O O4 0.500000 0.000000 0.000000
O O5 0.884679 0.334682 0.507887
O O6 0.823362 0.611615 0.232493
O O7 0.242342 0.213328 0.998682
O O8 0.120475 0.843894 0.634068
O O9 0.680488 0.234619 0.868154
O O10 0.783941 0.915203 0.975057
O O11 0.000000 0.000000 0.500000
O O12 0.447155 0.624092 0.784534
O O13 0.502604 0.484746 0.684011
O O14 0.235538 0.900078 0.684946
O O15 0.086418 0.734368 0.134152
O O16 0.391343 0.014960 0.424761
O O17 0.500000 0.500000 0.000000
O O18 0.500000 0.500000 0.500000
#
# Coordination Sequence:
#
# PCOD9075018 Si02
#       8
#     2   2   2   2   2   2   2   2
#     4  12  23  39  65 102 134 173 227 282 334 410
#     4  11  22  40  67  98 133 174 229 280 340 399
#     4  12  23  44  71  99 134 175 231 281 332 400
#     4  11  25  47  68  97 139 184 228 282 352 411
#     4  11  24  43  68  95 136 181 223 278 350 406
#     4  12  25  45  71 102 138 182 227 281 347 408
#     4  12  26  44  71 104 137 179 230 285 342 408
#     4  11  22  41  70  96 129 181 225 284 337 401
#
# _framework density 21.334137999999999
#
# number of rings (size 3 to 8) (size 9 to 14) (size 15 to 20)
#    0.000    0.500    5.000    3.750    1.750    2.500 
#    2.250    0.625    0.000    0.000    0.000    0.000 
#    0.000    0.000    0.000    0.000    0.000    0.000 
#
# Total GULP energy -89430.378172 kJ/mol
# GULP energy per Si atom -5589.398636 kJ/mol
# Density = 2.128558 g / cm^3
# Si number density = 21.334138 Si / 1000 Ang^3
#
#
#
# Elastic Constant Matrix: (Units=GPa)
#
#
# Indices 1 2 3 4 5 6 
#
# 1 80.2538 19.1161 19.2523 -9.3760 1.8932 -13.4619
# 2 19.1161 52.9460 20.0144 -4.3069 12.5224 -5.1422
# 3 19.2523 20.0144 107.7877 -6.6431 -15.7694 -0.5815
# 4 -9.3760 -4.3069 -6.6431 31.1882 -1.9975 -9.3978
# 5 1.8932 12.5224 -15.7694 -1.9975 37.4486 6.6733
# 6 -13.4619 -5.1422 -0.5815 -9.3978 6.6733 34.5871
#
#
#
# Elastic Compliance Matrix: (Units=1/GPa)
#
#
# Indices 1 2 3 4 5 6 
#
# 1 0.015738 -0.003339 -0.002006 0.006012 -0.001545 0.007527
# 2 -0.003339 0.025698 -0.005719 0.002166 -0.011655 0.005262
# 3 -0.002006 -0.005719 0.011832 0.000806 0.007514 -0.002663
# 4 0.006012 0.002166 0.000806 0.038276 -0.001012 0.013271
# 5 -0.001545 -0.011655 0.007514 -0.001012 0.035450 -0.009322
# 6 0.007527 0.005262 -0.002663 0.013271 -0.009322 0.037984
#
#
# Mechanical properties :
#
#
# Convention : Reuss Voigt Hill
#
# Bulk Modulus (GPa) = 32.11061 39.75036 35.93048
# Shear Modulus (GPa) = 25.31827 32.81843 29.06835
#
# Velocity S-wave (km/s) = 3.44866 3.92638 3.69525
# Velocity P-wave (km/s) = 5.56252 6.26323 5.92324
#
# Compressibility (1/GPa) = 0.03114235
#
# Stress axis : x y z
#
# Youngs Moduli (GPa) = 63.53886 38.91345 84.51501
#
# Poissons Ratio (x) = 0.12992 0.16954
# Poissons Ratio (y) = 0.21213 0.48331
# Poissons Ratio (z) = 0.12746 0.22253
#
# Static dielectric constant tensor:
#      x y z
#    x 1.793680 -0.107370 0.003470 
#    y -0.107370 1.946170 -0.058360 
#    z 0.003470 -0.058360 1.738440 
# 
# From -- ./inp_files/271181.got.cif
#   From: 2010.05.17/outbox.ucp.g08.bks.cvg/sg2_136_cif.got.tgz:271181.got - 2010.06.11 11:32:03.
