data_PCOD9075181
_publ_section_title
;
Structure prediction by ZEFSAII (Michael W. Deem and Ramdas Pophale) SiO2 
 PCOD9075181
Probable space group: P -1
;
_chemical_formula_sum "Si O2"
_cell_formula_units_Z 14
_cell_length_a 27.000000
_cell_length_b 15.000000
_cell_length_c 15.000000
_cell_angle_alpha 160.000000
_cell_angle_beta 20.000000
_cell_angle_gamma 160.000000
_cell_volume 621.679612
_symmetry_space_group_name_H-M "P -1"
_symmetry_group_IT_number 2
_symmetry_cell_setting 'triclinic'
loop_
_space_group_symop_operation_xyz
x,y,z
-x,-y,-z
loop_
_atom_site_type_symbol
_atom_site_label
_atom_site_fract_x
_atom_site_fract_y
_atom_site_fract_z
Si Si1 0.896069 0.859819 0.688192
Si Si2 0.129384 0.711830 0.728436
Si Si3 0.405658 0.069504 0.013478
Si Si4 0.860849 0.176989 0.896981
Si Si5 0.317491 0.394107 0.751805
Si Si6 0.605669 0.761271 0.343955
Si Si7 0.187950 0.828012 0.328721
O O1 0.818923 0.514097 0.521381
O O2 0.051908 0.919279 0.418147
O O3 0.792192 0.940049 0.869985
O O4 0.941211 0.116108 0.927310
O O5 0.987770 0.456629 0.666628
O O6 0.277259 0.991391 0.692090
O O7 0.529563 0.938110 0.694027
O O8 0.486133 0.424413 0.192252
O O9 0.297231 0.851446 0.911774
O O10 0.287518 0.991624 0.225073
O O11 0.000000 0.500000 0.000000
O O12 0.500000 0.500000 0.500000
O O13 0.300318 0.314002 0.809145
O O14 0.192028 0.090118 0.627487
O O15 0.285622 0.671226 0.057016
#
# Coordination Sequence:
#
# PCOD9075181 Si02
#       7
#     2   2   2   2   2   2   2
#     4  11  23  42  71  97 137 168 216 285 324 384
#     4  12  26  46  65 102 140 179 218 273 340 397
#     4  12  24  43  70 101 126 183 222 273 340 396
#     4  11  24  42  76 106 127 167 234 284 316 395
#     4  12  23  42  67 101 133 171 229 285 322 379
#     4  12  28  44  66  97 146 175 218 279 340 398
#     4  12  23  40  74  95 129 180 230 274 324 392
#
# _framework density 22.519638
#
# number of rings (size 3 to 8) (size 9 to 14) (size 15 to 20)
#    0.000    0.286    5.714    3.000    6.000    1.143 
#    0.000    4.286    0.000    0.000    0.000    0.000 
#    0.000    0.000    0.000    0.000    0.000    0.000 
#
# Total GULP energy -78093.756332 kJ/mol
# GULP energy per Si atom -5578.125452 kJ/mol
# Density = 2.246838 g / cm^3
# Si number density = 22.519638 Si / 1000 Ang^3
#
#
#
# Elastic Constant Matrix: (Units=GPa)
#
#
# Indices 1 2 3 4 5 6 
#
# 1 100.5779 49.4580 21.7571 20.9843 -6.3141 -8.3931
# 2 49.4580 139.7721 10.4432 59.9193 -15.5620 -5.6857
# 3 21.7571 10.4432 53.5782 48.7133 -1.3502 11.8418
# 4 20.9843 59.9193 48.7133 29.1257 11.7727 -5.3468
# 5 -6.3141 -15.5620 -1.3502 11.7727 17.0421 31.4383
# 6 -8.3931 -5.6857 11.8418 -5.3468 31.4383 31.4878
#
#
#
# Elastic Compliance Matrix: (Units=1/GPa)
#
#
# Indices 1 2 3 4 5 6 
#
# 1 0.012615 -0.003642 -0.003752 0.000521 0.008393 -0.004175
# 2 -0.003642 0.011511 0.004656 -0.012868 -0.028079 0.025206
# 3 -0.003752 0.004656 0.030106 -0.024495 -0.060607 0.044871
# 4 0.000521 -0.012868 -0.024495 0.050448 0.091600 -0.075863
# 5 0.008393 -0.028079 -0.060607 0.091600 0.115753 -0.080058
# 6 -0.004175 0.025206 0.044871 -0.075863 -0.080058 0.085372
#
#
# Mechanical properties :
#
#
# Convention : Reuss Voigt Hill
#
# Bulk Modulus (GPa) = 20.51020 50.80497 35.65759
# Shear Modulus (GPa) = 15.26563 29.68246 22.47405
#
# Velocity S-wave (km/s) = 2.60644 3.63446 3.16250
# Velocity P-wave (km/s) = 4.26445 6.34206 5.40404
#
# Compressibility (1/GPa) = 0.04875622
#
# Stress axis : x y z
#
# Youngs Moduli (GPa) = 79.27077 86.87399 33.21569
#
# Poissons Ratio (x) = 0.31641 0.12463
# Poissons Ratio (y) = 0.28872 -0.15466
# Poissons Ratio (z) = 0.29744 -0.40452
#
# Static dielectric constant tensor:
#      x y z
#    x 1.990150 0.035720 -0.068930 
#    y 0.035720 1.803600 -0.044670 
#    z -0.068930 -0.044670 1.877740 
# 
# From -- ./inp_files/218129.got.cif
#   From: 2010.05.17/outbox.ucp.g08.bks.cvg/sg2_110_cif.got.tgz:218129.got - 2010.06.11 11:32:03.
