data_PCOD9075778
_publ_section_title
;
Structure prediction by ZEFSAII (Michael W. Deem and Ramdas Pophale) SiO2 
 PCOD9075778
Probable space group: P -1
;
_chemical_formula_sum "Si O2"
_cell_formula_units_Z 16
_cell_length_a 10.080205
_cell_length_b 9.057648
_cell_length_c 12.196705
_cell_angle_alpha 58.901177
_cell_angle_beta 95.722383
_cell_angle_gamma 61.776458
_cell_volume 747.779087
_symmetry_space_group_name_H-M "P -1"
_symmetry_group_IT_number 2
_symmetry_cell_setting 'triclinic'
loop_
_space_group_symop_operation_xyz
x,y,z
-x,-y,-z
loop_
_atom_site_type_symbol
_atom_site_label
_atom_site_fract_x
_atom_site_fract_y
_atom_site_fract_z
Si Si1 0.458447 0.585348 0.277959
Si Si2 0.543305 0.726259 0.437949
Si Si3 0.787710 0.309250 0.284887
Si Si4 0.025106 0.128427 0.182442
Si Si5 0.073850 0.688791 0.362428
Si Si6 0.864803 0.330987 0.867642
Si Si7 0.723507 0.811118 0.700382
Si Si8 0.111581 0.164710 0.501937
O O1 0.461145 0.728034 0.316872
O O2 0.502636 0.374976 0.430980
O O3 0.601781 0.508059 0.230297
O O4 0.277745 0.693967 0.167569
O O5 0.744112 0.541314 0.513041
O O6 0.462456 0.972138 0.369956
O O7 0.851078 0.292823 0.173422
O O8 0.927591 0.287321 0.382609
O O9 0.807121 0.089104 0.389026
O O10 0.152882 0.169647 0.222260
O O11 0.985901 0.174915 0.033867
O O12 0.088568 0.884555 0.309250
O O13 0.039737 0.697039 0.226989
O O14 0.930504 0.742175 0.414271
O O15 0.762766 0.580022 0.805727
O O16 0.777719 0.811654 0.580190
#
# Coordination Sequence:
#
# PCOD9075778 Si02
#       8
#     2   2   2   2   2   2   2   2
#     4  10  18  32  55  83 109 138 181 231 270 314
#     4  10  19  33  57  88 107 136 180 227 287 314
#     4   9  16  31  58  80 105 137 185 234 262 311
#     4  10  21  38  57  78 107 151 192 218 257 324
#     4  10  20  36  61  84 106 137 185 241 264 313
#     4  11  24  34  52  83 116 151 178 213 273 330
#     4  11  21  36  57  81 115 145 175 225 274 338
#     4   9  17  32  56  85 106 137 181 225 284 312
#
# _framework density 21.396694
#
# number of rings (size 3 to 8) (size 9 to 14) (size 15 to 20)
#    0.000    2.000    2.500    3.750    0.000    3.000 
#    0.000    0.000    0.000    0.750    0.000    0.000 
#    0.000    0.000    0.000    0.000    0.000    0.000 
#
# Total GULP energy -89429.205858 kJ/mol
# GULP energy per Si atom -5589.325366 kJ/mol
# Density = 2.134799 g / cm^3
# Si number density = 21.396694 Si / 1000 Ang^3
#
#
#
# Elastic Constant Matrix: (Units=GPa)
#
#
# Indices 1 2 3 4 5 6 
#
# 1 59.7424 39.1920 39.0858 5.3781 15.5745 -8.8621
# 2 39.1920 124.3455 41.3030 2.1786 6.3867 -20.0213
# 3 39.0858 41.3030 89.1553 19.9864 16.0337 -3.6873
# 4 5.3781 2.1786 19.9864 32.2509 6.8226 -2.1799
# 5 15.5745 6.3867 16.0337 6.8226 15.2705 4.5874
# 6 -8.8621 -20.0213 -3.6873 -2.1799 4.5874 38.4588
#
#
#
# Elastic Compliance Matrix: (Units=1/GPa)
#
#
# Indices 1 2 3 4 5 6 
#
# 1 0.033713 -0.005197 -0.008319 0.006526 -0.028817 0.008073
# 2 -0.005197 0.011464 -0.003746 0.002249 0.002147 0.004283
# 3 -0.008319 -0.003746 0.019696 -0.009448 -0.005863 -0.001815
# 4 0.006526 0.002249 -0.009448 0.039677 -0.017228 0.006073
# 5 -0.028817 0.002147 -0.005863 -0.017228 0.114038 -0.020664
# 6 0.008073 0.004283 -0.001815 0.006073 -0.020664 0.032727
#
#
# Mechanical properties :
#
#
# Convention : Reuss Voigt Hill
#
# Bulk Modulus (GPa) = 32.94942 56.93387 44.94164
# Shear Modulus (GPa) = 16.89448 27.44019 22.16734
#
# Velocity S-wave (km/s) = 2.81300 3.58502 3.22221
# Velocity P-wave (km/s) = 5.09739 6.61838 5.90704
#
# Compressibility (1/GPa) = 0.03034955
#
# Stress axis : x y z
#
# Youngs Moduli (GPa) = 29.66245 87.22755 50.77157
#
# Poissons Ratio (x) = 0.45332 0.42236
# Poissons Ratio (y) = 0.15416 0.19018
# Poissons Ratio (z) = 0.24676 0.32674
#
# Static dielectric constant tensor:
#      x y z
#    x 1.775710 0.011260 0.002400 
#    y 0.011260 1.809820 0.018970 
#    z 0.002400 0.018970 1.752740 
# 
# From -- ./inp_files/404689.got.cif
#   From: 2010.05.17/outbox.cif.g08.bks.cpg/sg2_203_cif.got.tgz:404689.got - 2010.06.03 11:33:40.
