data_PCOD9075520
_publ_section_title
;
Structure prediction by ZEFSAII (Michael W. Deem and Ramdas Pophale) SiO2 
 PCOD9075520
Probable space group: P -1
;
_chemical_formula_sum "Si O2"
_cell_formula_units_Z 14
_cell_length_a 9.000000
_cell_length_b 9.000000
_cell_length_c 12.000000
_cell_angle_alpha 110.000000
_cell_angle_beta 70.000000
_cell_angle_gamma 60.000000
_cell_volume 614.029152
_symmetry_space_group_name_H-M "P -1"
_symmetry_group_IT_number 2
_symmetry_cell_setting 'triclinic'
loop_
_space_group_symop_operation_xyz
x,y,z
-x,-y,-z
loop_
_atom_site_type_symbol
_atom_site_label
_atom_site_fract_x
_atom_site_fract_y
_atom_site_fract_z
Si Si1 0.941253 0.437491 0.172662
Si Si2 0.912881 0.197491 0.492670
Si Si3 0.595796 0.276050 0.977125
Si Si4 0.533038 0.668104 0.731952
Si Si5 0.080088 0.888448 0.791232
Si Si6 0.632056 0.774875 0.150636
Si Si7 0.254149 0.241858 0.471021
O O1 0.951660 0.255803 0.174946
O O2 0.766047 0.573804 0.151856
O O3 0.843270 0.614446 0.349341
O O4 0.177900 0.306488 0.012385
O O5 0.659193 0.413601 0.642645
O O6 0.896895 0.159898 0.358410
O O7 0.075174 0.233306 0.481975
O O8 0.000000 0.000000 0.500000
O O9 0.489668 0.275770 0.117199
O O10 0.500000 0.500000 0.000000
O O11 0.556877 0.174087 0.863951
O O12 0.844851 0.140759 0.918381
O O13 0.295056 0.821533 0.772010
O O14 0.698018 0.656271 0.608787
O O15 0.496583 0.987205 0.324608
#
# Coordination Sequence:
#
# PCOD9075520 Si02
#       7
#     2   2   2   2   2   2   2
#     4  11  26  47  76 111 157 199 256 317 389 454
#     4  12  27  46  74 108 151 196 250 316 385 447
#     4  12  26  47  75 107 157 199 256 316 388 454
#     4  12  27  46  78 110 150 201 258 310 386 456
#     4  12  26  47  74 108 153 195 255 317 380 454
#     4  11  26  47  74 113 152 203 253 320 381 458
#     4  12  26  48  80 112 151 203 261 312 386 460
#
# _framework density 22.800219999999999
#
# number of rings (size 3 to 8) (size 9 to 14) (size 15 to 20)
#    0.000    0.286    2.857    5.143    4.000    4.571 
#    0.000    0.000    0.000    0.000    0.000    0.000 
#    0.000    0.000    0.000    0.000    0.000    0.000 
#
# Total GULP energy -78125.983032 kJ/mol
# GULP energy per Si atom -5580.427359 kJ/mol
# Density = 2.274833 g / cm^3
# Si number density = 22.800220 Si / 1000 Ang^3
#
#
#
# Elastic Constant Matrix: (Units=GPa)
#
#
# Indices 1 2 3 4 5 6 
#
# 1 101.4835 59.9463 34.7314 -13.7921 -7.4125 -9.4469
# 2 59.9463 176.1306 41.9351 -2.7548 -7.4671 -22.8686
# 3 34.7314 41.9351 138.6188 -8.6259 1.2936 -8.6390
# 4 -13.7921 -2.7548 -8.6259 52.5499 -14.7823 -2.2034
# 5 -7.4125 -7.4671 1.2936 -14.7823 41.2244 0.2855
# 6 -9.4469 -22.8686 -8.6390 -2.2034 0.2855 31.0340
#
#
#
# Elastic Compliance Matrix: (Units=1/GPa)
#
#
# Indices 1 2 3 4 5 6 
#
# 1 0.013689 -0.003852 -0.001980 0.004027 0.003262 0.001033
# 2 -0.003852 0.007836 -0.001175 -0.000455 0.000571 0.004237
# 3 -0.001980 -0.001175 0.008163 0.000624 -0.000607 0.000854
# 4 0.004027 -0.000455 0.000624 0.022737 0.008757 0.002598
# 5 0.003262 0.000571 -0.000607 0.008757 0.028096 0.001608
# 6 0.001033 0.004237 0.000854 0.002598 0.001608 0.036067
#
#
# Mechanical properties :
#
#
# Convention : Reuss Voigt Hill
#
# Bulk Modulus (GPa) = 63.80116 76.60652 70.20384
# Shear Modulus (GPa) = 36.81203 43.60299 40.20751
#
# Velocity S-wave (km/s) = 4.02250 4.37784 4.20393
# Velocity P-wave (km/s) = 7.04397 7.69584 7.37711
#
# Compressibility (1/GPa) = 0.01567370
#
# Stress axis : x y z
#
# Youngs Moduli (GPa) = 73.05364 127.62269 122.50094
#
# Poissons Ratio (x) = 0.49162 0.24253
# Poissons Ratio (y) = 0.28141 0.14392
# Poissons Ratio (z) = 0.14464 0.14994
#
# Static dielectric constant tensor:
#      x y z
#    x 1.830190 0.037600 -0.004890 
#    y 0.037600 1.885720 0.064880 
#    z -0.004890 0.064880 1.979890 
# 
# From -- ./inp_files/185720.got.cif
#   From: 2010.05.17/outbox.ucp.g08.bks.cvg/sg2_93_cif.got.tgz:185720.got - 2010.06.11 11:32:03.
