data_PCOD9075193
_publ_section_title
;
Structure prediction by ZEFSAII (Michael W. Deem and Ramdas Pophale) SiO2 
 PCOD9075193
Probable space group: P -1
;
_chemical_formula_sum "Si O2"
_cell_formula_units_Z 16
_cell_length_a 9.000000
_cell_length_b 24.000000
_cell_length_c 9.000000
_cell_angle_alpha 50.000000
_cell_angle_beta 30.000000
_cell_angle_gamma 50.000000
_cell_volume 725.531033
_symmetry_space_group_name_H-M "P -1"
_symmetry_group_IT_number 2
_symmetry_cell_setting 'triclinic'
loop_
_space_group_symop_operation_xyz
x,y,z
-x,-y,-z
loop_
_atom_site_type_symbol
_atom_site_label
_atom_site_fract_x
_atom_site_fract_y
_atom_site_fract_z
Si Si1 0.552836 0.452529 0.189733
Si Si2 0.053358 0.794814 0.275014
Si Si3 0.193652 0.200954 0.853009
Si Si4 0.626420 0.941461 0.857285
Si Si5 0.005641 0.943139 0.234443
Si Si6 0.827864 0.549541 0.200825
Si Si7 0.734414 0.282613 0.309266
Si Si8 0.250008 0.284652 0.117057
O O1 0.392289 0.481386 0.439491
O O2 0.525536 0.366064 0.353128
O O3 0.500000 0.500000 0.000000
O O4 0.906309 0.443298 0.929877
O O5 0.930003 0.868789 0.355673
O O6 0.912212 0.813946 0.198023
O O7 0.924028 0.724919 0.564142
O O8 0.416864 0.770124 0.043799
O O9 0.512607 0.224743 0.575963
O O10 0.189973 0.130917 0.086706
O O11 0.936944 0.271506 0.005896
O O12 0.805368 0.968592 0.515276
O O13 0.341112 0.923089 0.048844
O O14 0.500000 0.000000 0.000000
O O15 0.000000 0.000000 0.000000
O O16 0.695990 0.633592 0.109181
O O17 0.000000 0.500000 0.000000
O O18 0.996978 0.269551 0.237033
#
# Coordination Sequence:
#
# PCOD9075193 Si02
#       8
#     2   2   2   2   2   2   2   2
#     4  11  24  42  66  95 131 173 220 273 331 396
#     4  12  25  42  67 101 133 171 222 277 330 391
#     4  12  25  42  67 101 133 171 222 277 330 391
#     4  12  26  45  70  98 135 178 220 271 329 394
#     4  12  26  45  70  98 135 178 220 271 329 394
#     4  11  24  42  66  95 131 173 220 273 331 396
#     4  11  23  43  67  94 131 176 221 271 333 397
#     4  11  23  43  67  94 131 176 221 271 333 397
#
# _framework density 22.052813
#
# number of rings (size 3 to 8) (size 9 to 14) (size 15 to 20)
#    0.000    0.500    0.000   10.500    0.000    5.000 
#    0.000    0.000    0.000    0.000    0.000    0.000 
#    0.000    0.000    0.000    0.000    0.000    0.000 
#
# Total GULP energy -89153.548691 kJ/mol
# GULP energy per Si atom -5572.096793 kJ/mol
# Density = 2.200262 g / cm^3
# Si number density = 22.052813 Si / 1000 Ang^3
#
#
#
# Elastic Constant Matrix: (Units=GPa)
#
#
# Indices 1 2 3 4 5 6 
#
# 1 153.3120 49.0931 38.0016 -5.0231 30.2867 -12.3421
# 2 49.0931 91.6150 21.7131 2.2372 18.2441 -4.5372
# 3 38.0016 21.7131 125.5426 7.2372 17.0070 -8.2227
# 4 -5.0231 2.2372 7.2372 35.4933 -2.2830 9.3220
# 5 30.2867 18.2441 17.0070 -2.2830 53.3463 -2.5198
# 6 -12.3421 -4.5372 -8.2227 9.3220 -2.5198 40.2125
#
#
#
# Elastic Compliance Matrix: (Units=1/GPa)
#
#
# Indices 1 2 3 4 5 6 
#
# 1 0.008890 -0.003715 -0.001594 0.001220 -0.003145 0.001503
# 2 -0.003715 0.013618 -0.000801 -0.001484 -0.002336 0.000430
# 3 -0.001594 -0.000801 0.009090 -0.002607 -0.001747 0.001774
# 4 0.001220 -0.001484 -0.002607 0.031024 0.001623 -0.007416
# 5 -0.003145 -0.002336 -0.001747 0.001623 0.021929 -0.000588
# 6 0.001503 0.000430 0.001774 -0.007416 -0.000588 0.027423
#
#
# Mechanical properties :
#
#
# Convention : Reuss Voigt Hill
#
# Bulk Modulus (GPa) = 51.60425 65.34281 58.47353
# Shear Modulus (GPa) = 38.26952 43.25455 40.76204
#
# Velocity S-wave (km/s) = 4.17028 4.43358 4.30395
# Velocity P-wave (km/s) = 6.82931 7.47685 7.16040
#
# Compressibility (1/GPa) = 0.01937825
#
# Stress axis : x y z
#
# Youngs Moduli (GPa) = 112.49000 73.42970 110.01663
#
# Poissons Ratio (x) = 0.27278 0.17539
# Poissons Ratio (y) = 0.41788 0.08808
# Poissons Ratio (z) = 0.17933 0.05879
#
# Static dielectric constant tensor:
#      x y z
#    x 1.796580 0.031650 -0.017400 
#    y 0.031650 1.869310 -0.009700 
#    z -0.017400 -0.009700 1.938530 
# 
# From -- ./inp_files/226046.got.cif
#   From: 2010.05.17/outbox.ucp.g08.bks.cvg/sg2_114_cif.got.tgz:226046.got - 2010.06.11 11:32:03.
