data_PCOD9075464
_publ_section_title
;
Structure prediction by ZEFSAII (Michael W. Deem and Ramdas Pophale) SiO2 
 PCOD9075464
Probable space group: P -1
;
_chemical_formula_sum "Si O2"
_cell_formula_units_Z 14
_cell_length_a 15.000000
_cell_length_b 15.000000
_cell_length_c 9.000000
_cell_angle_alpha 140.000000
_cell_angle_beta 140.000000
_cell_angle_gamma 30.000000
_cell_volume 616.747849
_symmetry_space_group_name_H-M "P -1"
_symmetry_group_IT_number 2
_symmetry_cell_setting 'triclinic'
loop_
_space_group_symop_operation_xyz
x,y,z
-x,-y,-z
loop_
_atom_site_type_symbol
_atom_site_label
_atom_site_fract_x
_atom_site_fract_y
_atom_site_fract_z
Si Si1 0.998087 0.049157 0.391036
Si Si2 0.975436 0.741438 0.927263
Si Si3 0.411838 0.162158 0.480287
Si Si4 0.337993 0.046594 0.741116
Si Si5 0.636445 0.466077 0.367023
Si Si6 0.176057 0.445435 0.066203
Si Si7 0.312559 0.517105 0.894105
O O1 0.172988 0.043738 0.575595
O O2 0.981256 0.904819 0.115462
O O3 0.000000 0.000000 0.500000
O O4 0.799631 0.255447 0.366383
O O5 0.101548 0.614467 0.787083
O O6 0.783708 0.782275 0.744914
O O7 0.096747 0.611128 0.059681
O O8 0.416080 0.302114 0.753560
O O9 0.500000 0.000000 0.500000
O O10 0.543876 0.098015 0.425686
O O11 0.251469 0.253193 0.841635
O O12 0.500000 0.000000 0.000000
O O13 0.676896 0.575536 0.660751
O O14 0.682258 0.445447 0.223884
O O15 0.423203 0.547328 0.186141
O O16 0.000000 0.500000 0.000000
#
# Coordination Sequence:
#
# PCOD9075464 Si02
#       7
#     2   2   2   2   2   2   2
#     4  12  25  46  72 112 146 187 244 311 366 433
#     4  12  27  46  76 107 145 190 254 305 366 433
#     4  12  27  49  72 107 153 193 248 299 369 446
#     4  12  27  44  78 107 148 195 242 302 372 434
#     4  11  25  46  72 104 150 183 247 302 372 436
#     4  12  23  47  75 107 144 195 243 305 361 437
#     4  11  27  46  73 106 144 197 242 301 368 445
#
# _framework density 22.699714
#
# number of rings (size 3 to 8) (size 9 to 14) (size 15 to 20)
#    0.000    0.286    2.857    5.571    8.000    2.286 
#    0.000    0.000    0.000    0.000    0.000    0.000 
#    0.000    0.000    0.000    0.000    0.000    0.000 
#
# Total GULP energy -77998.963937 kJ/mol
# GULP energy per Si atom -5571.354567 kJ/mol
# Density = 2.264805 g / cm^3
# Si number density = 22.699714 Si / 1000 Ang^3
#
#
#
# Elastic Constant Matrix: (Units=GPa)
#
#
# Indices 1 2 3 4 5 6 
#
# 1 104.8494 22.8814 12.5821 -7.0926 30.7459 -5.3098
# 2 22.8814 67.6988 2.4047 -7.7617 14.4960 21.8161
# 3 12.5821 2.4047 114.8068 -8.8763 36.7871 -0.7931
# 4 -7.0926 -7.7617 -8.8763 46.4237 1.7475 4.7243
# 5 30.7459 14.4960 36.7871 1.7475 34.2919 -1.3546
# 6 -5.3098 21.8161 -0.7931 4.7243 -1.3546 48.8009
#
#
#
# Elastic Compliance Matrix: (Units=1/GPa)
#
#
# Indices 1 2 3 4 5 6 
#
# 1 0.014688 -0.001604 0.004147 0.003248 -0.017041 0.001595
# 2 -0.001604 0.022257 0.004393 0.005941 -0.013420 -0.011001
# 3 0.004147 0.004393 0.015974 0.005539 -0.023089 -0.002430
# 4 0.003248 0.005941 0.005539 0.025081 -0.012840 -0.004997
# 5 -0.017041 -0.013420 -0.023089 -0.012840 0.075818 0.007118
# 6 0.001595 -0.011001 -0.002430 -0.004997 0.007118 0.026225
#
#
# Mechanical properties :
#
#
# Convention : Reuss Voigt Hill
#
# Bulk Modulus (GPa) = 14.97241 40.34347 27.65794
# Shear Modulus (GPa) = 26.53444 42.53577 34.53511
#
# Velocity S-wave (km/s) = 3.42268 4.33349 3.90473
# Velocity P-wave (km/s) = 4.71485 6.54600 5.70438
#
# Compressibility (1/GPa) = 0.06678954
#
# Stress axis : x y z
#
# Youngs Moduli (GPa) = 68.08424 44.92923 62.60339
#
# Poissons Ratio (x) = 0.07208 -0.25959
# Poissons Ratio (y) = 0.10922 -0.27503
# Poissons Ratio (z) = -0.28232 -0.19738
#
# Static dielectric constant tensor:
#      x y z
#    x 1.943990 0.000360 0.088960 
#    y 0.000360 1.988270 0.140640 
#    z 0.088960 0.140640 2.102560 
# 
# From -- ./inp_files/157466.got.cif
#   From: 2010.05.17/outbox.ucp.g08.bks.cvg/sg2_79_cif.got.tgz:157466.got - 2010.06.11 11:32:03.
