data_PCOD9075405
_publ_section_title
;
Structure prediction by ZEFSAII (Michael W. Deem and Ramdas Pophale) SiO2 
 PCOD9075405
Probable space group: P -1
;
_chemical_formula_sum "Si O2"
_cell_formula_units_Z 16
_cell_length_a 9.000000
_cell_length_b 18.000000
_cell_length_c 12.000000
_cell_angle_alpha 150.000000
_cell_angle_beta 120.000000
_cell_angle_gamma 50.000000
_cell_volume 736.400153
_symmetry_space_group_name_H-M "P -1"
_symmetry_group_IT_number 2
_symmetry_cell_setting 'triclinic'
loop_
_space_group_symop_operation_xyz
x,y,z
-x,-y,-z
loop_
_atom_site_type_symbol
_atom_site_label
_atom_site_fract_x
_atom_site_fract_y
_atom_site_fract_z
Si Si1 0.904197 0.527453 0.193376
Si Si2 0.809814 0.145983 0.817443
Si Si3 0.334559 0.000903 0.017946
Si Si4 0.459504 0.819867 0.432054
Si Si5 0.238877 0.835245 0.583017
Si Si6 0.787711 0.483203 0.843721
Si Si7 0.509975 0.128179 0.840349
Si Si8 0.993779 0.653554 0.767452
O O1 0.685313 0.672778 0.330404
O O2 0.014193 0.397982 0.169815
O O3 0.044332 0.599502 0.295439
O O4 0.873729 0.461686 0.974544
O O5 0.675777 0.221041 0.754323
O O6 0.697953 0.090104 0.789481
O O7 0.839749 0.291808 0.078886
O O8 0.018593 0.979876 0.654502
O O9 0.159230 0.187941 0.161511
O O10 0.417477 0.927390 0.076266
O O11 0.500000 0.000000 0.000000
O O12 0.268959 0.876403 0.773020
O O13 0.375244 0.857922 0.573561
O O14 0.437151 0.996036 0.606619
O O15 0.306702 0.637597 0.344830
O O16 0.649387 0.677940 0.003775
O O17 0.000000 0.500000 0.500000
#
# Coordination Sequence:
#
# PCOD9075405 Si02
#       8
#     2   2   2   2   2   2   2   2
#     4  11  25  44  71 101 143 178 234 282 358 405
#     4  11  26  43  70 108 137 183 239 283 352 416
#     4  11  24  47  68  99 137 188 233 274 350 422
#     4  12  24  45  73 100 145 189 226 288 352 419
#     4  11  26  43  70  99 145 184 232 291 341 414
#     4  11  26  43  69 110 138 176 235 298 344 405
#     4  12  25  44  76 101 144 185 230 289 348 417
#     4  11  26  45  71 101 141 183 231 290 345 414
#
# _framework density 21.727318
#
# number of rings (size 3 to 8) (size 9 to 14) (size 15 to 20)
#    0.000    0.750    2.500    3.750    7.000    4.500 
#    0.000    0.000    0.000    0.000    0.000    0.000 
#    0.000    0.000    0.000    0.000    0.000    0.000 
#
# Total GULP energy -89122.747001 kJ/mol
# GULP energy per Si atom -5570.171688 kJ/mol
# Density = 2.167787 g / cm^3
# Si number density = 21.727318 Si / 1000 Ang^3
#
#
#
# Elastic Constant Matrix: (Units=GPa)
#
#
# Indices 1 2 3 4 5 6 
#
# 1 91.6067 10.2522 9.2827 1.2479 -12.0345 7.9196
# 2 10.2522 130.3663 24.7502 -23.7787 -4.5582 20.5404
# 3 9.2827 24.7502 84.2412 -13.0375 24.7635 0.1694
# 4 1.2479 -23.7787 -13.0375 34.2045 5.8362 -5.9196
# 5 -12.0345 -4.5582 24.7635 5.8362 35.6922 4.2073
# 6 7.9196 20.5404 0.1694 -5.9196 4.2073 38.4929
#
#
#
# Elastic Compliance Matrix: (Units=1/GPa)
#
#
# Indices 1 2 3 4 5 6 
#
# 1 0.013012 0.000057 -0.004782 -0.004544 0.008970 -0.004366
# 2 0.000057 0.009980 -0.003305 0.004204 0.003496 -0.005058
# 3 -0.004782 -0.003305 0.020305 0.009837 -0.018460 0.006189
# 4 -0.004544 0.004204 0.009837 0.039756 -0.015076 0.006410
# 5 0.008970 0.003496 -0.018460 -0.015076 0.048082 -0.011204
# 6 -0.004366 -0.005058 0.006189 0.006410 -0.011204 0.031759
#
#
# Mechanical properties :
#
#
# Convention : Reuss Voigt Hill
#
# Bulk Modulus (GPa) = 36.71403 43.86494 40.28949
# Shear Modulus (GPa) = 26.59110 39.13985 32.86548
#
# Velocity S-wave (km/s) = 3.50216 4.24891 3.89348
# Velocity P-wave (km/s) = 5.76956 6.65610 6.22862
#
# Compressibility (1/GPa) = 0.02723754
#
# Stress axis : x y z
#
# Youngs Moduli (GPa) = 76.85151 100.20361 49.24821
#
# Poissons Ratio (x) = -0.00574 0.23550
# Poissons Ratio (y) = -0.00440 0.16278
# Poissons Ratio (z) = 0.36750 0.33119
#
# Static dielectric constant tensor:
#      x y z
#    x 1.802270 -0.004060 0.034970 
#    y -0.004060 1.752970 -0.017890 
#    z 0.034970 -0.017890 1.849320 
# 
# From -- ./inp_files/185335.got.cif
#   From: 2010.05.17/outbox.ucp.g08.bks.cvg/sg2_93_cif.got.tgz:185335.got - 2010.06.11 11:32:03.
