data_PCOD9075320
_publ_section_title
;
Structure prediction by ZEFSAII (Michael W. Deem and Ramdas Pophale) SiO2 
 PCOD9075320
Probable space group: P -1
;
_chemical_formula_sum "Si O2"
_cell_formula_units_Z 12
_cell_length_a 9.000000
_cell_length_b 12.000000
_cell_length_c 9.000000
_cell_angle_alpha 60.000000
_cell_angle_beta 140.000000
_cell_angle_gamma 120.000000
_cell_volume 529.002133
_symmetry_space_group_name_H-M "P -1"
_symmetry_group_IT_number 2
_symmetry_cell_setting 'triclinic'
loop_
_space_group_symop_operation_xyz
x,y,z
-x,-y,-z
loop_
_atom_site_type_symbol
_atom_site_label
_atom_site_fract_x
_atom_site_fract_y
_atom_site_fract_z
Si Si1 0.882839 0.836317 0.674451
Si Si2 0.175051 0.617335 0.975604
Si Si3 0.325202 0.998964 0.006117
Si Si4 0.332913 0.246379 0.743393
Si Si5 0.437173 0.854506 0.476926
Si Si6 0.100292 0.636681 0.565122
O O1 0.763864 0.834758 0.424447
O O2 0.673688 0.801752 0.655449
O O3 0.065249 0.741753 0.853544
O O4 0.050931 0.970065 0.767933
O O5 0.193326 0.606108 0.819472
O O6 0.444621 0.646432 0.213679
O O7 0.000000 0.500000 0.000000
O O8 0.396371 0.154817 0.986477
O O9 0.341704 0.896307 0.216626
O O10 0.500000 0.000000 0.000000
O O11 0.126912 0.307126 0.606066
O O12 0.267391 0.744802 0.517542
O O13 0.500000 0.000000 0.500000
O O14 0.000000 0.500000 0.500000
#
# Coordination Sequence:
#
# PCOD9075320 Si02
#       6
#     2   2   2   2   2   2
#     4  11  24  42  74 101 139 178 236 283 342 409
#     4  11  26  46  73  99 133 190 238 274 342 420
#     4  12  23  42  74 104 135 181 233 274 348 416
#     4  11  24  46  72 102 139 181 234 286 336 418
#     4  12  27  45  69 107 146 178 227 292 352 403
#     4  11  29  46  69 104 146 179 228 293 353 402
#
# _framework density 22.684218999999999
#
# number of rings (size 3 to 8) (size 9 to 14) (size 15 to 20)
#    0.000    0.667    3.333    2.500    9.333    6.000 
#    0.000    0.000    0.000    0.000    0.000    0.000 
#    0.000    0.000    0.000    0.000    0.000    0.000 
#
# Total GULP energy -66887.268950 kJ/mol
# GULP energy per Si atom -5573.939079 kJ/mol
# Density = 2.263259 g / cm^3
# Si number density = 22.684219 Si / 1000 Ang^3
#
#
#
# Elastic Constant Matrix: (Units=GPa)
#
#
# Indices 1 2 3 4 5 6 
#
# 1 153.7286 59.6569 55.8783 18.8458 2.1519 41.7181
# 2 59.6569 100.8827 28.4684 21.9454 -22.7586 36.9633
# 3 55.8783 28.4684 59.3660 23.0905 -11.2659 20.2808
# 4 18.8458 21.9454 23.0905 19.8255 7.5107 0.7516
# 5 2.1519 -22.7586 -11.2659 7.5107 35.2826 -0.0210
# 6 41.7181 36.9633 20.2808 0.7516 -0.0210 61.9498
#
#
#
# Elastic Compliance Matrix: (Units=1/GPa)
#
#
# Indices 1 2 3 4 5 6 
#
# 1 0.006196 0.010465 0.012301 -0.038255 0.018435 -0.013974
# 2 0.010465 -0.019531 -0.051177 0.088876 -0.048485 0.020265
# 3 0.012301 -0.051177 -0.044110 0.123038 -0.074017 0.035175
# 4 -0.038255 0.088876 0.123038 -0.206539 0.142876 -0.064993
# 5 0.018435 -0.048485 -0.074017 0.142876 -0.058082 0.038992
# 6 -0.013974 0.020265 0.035175 -0.064993 0.038992 0.002747
#
#
# Mechanical properties :
#
#
# Convention : Reuss Voigt Hill
#
# Bulk Modulus (GPa) = -8.75144 66.88719 29.06787
# Shear Modulus (GPa) = -16.63424 34.74315 9.05445
#
# Velocity S-wave (km/s) = -2.71088 3.91781 2.00005
# Velocity P-wave (km/s) = 3.69660 7.07219 4.26328
#
# Compressibility (1/GPa) = -0.11426688
#
# Stress axis : x y z
#
# Youngs Moduli (GPa) = 161.38454 -51.20062 -22.67051
#
# Poissons Ratio (x) = 0.53583 0.27886
# Poissons Ratio (y) = -1.68893 -1.16021
# Poissons Ratio (z) = -1.98515 -2.62030
#
# Static dielectric constant tensor:
#      x y z
#    x 2.388440 -0.344230 0.223180 
#    y -0.344230 2.175480 -0.063870 
#    z 0.223180 -0.063870 2.138660 
# 
# From -- ./inp_files/21553.got.cif
#   From: 2010.05.17/outbox.ucp.g08.bks.cvg/sg2_11_cif.got.tgz:21553.got - 2010.06.11 11:32:03.
