data_PCOD9075729
_publ_section_title
;
Structure prediction by ZEFSAII (Michael W. Deem and Ramdas Pophale) SiO2 
 PCOD9075729
Probable space group: P -1
;
_chemical_formula_sum "Si O2"
_cell_formula_units_Z 16
_cell_length_a 14.065769
_cell_length_b 9.252211
_cell_length_c 17.904405
_cell_angle_alpha 95.711267
_cell_angle_beta 161.166561
_cell_angle_gamma 83.903808
_cell_volume 747.931482
_symmetry_space_group_name_H-M "P -1"
_symmetry_group_IT_number 2
_symmetry_cell_setting 'triclinic'
loop_
_space_group_symop_operation_xyz
x,y,z
-x,-y,-z
loop_
_atom_site_type_symbol
_atom_site_label
_atom_site_fract_x
_atom_site_fract_y
_atom_site_fract_z
Si Si1 0.325582 0.283072 0.060428
Si Si2 0.862970 0.480847 0.643400
Si Si3 0.758758 0.043968 0.047952
Si Si4 0.299432 0.449168 0.633770
Si Si5 0.854499 0.991568 0.273109
Si Si6 0.071143 0.725100 0.922297
Si Si7 0.215888 0.359583 0.150580
Si Si8 0.861634 0.788015 0.389963
O O1 0.097314 0.355552 0.835685
O O2 0.367040 0.113611 0.068181
O O3 0.598688 0.388960 0.263352
O O4 0.207001 0.297777 0.057439
O O5 0.894766 0.536895 0.584879
O O6 0.906342 0.614150 0.739226
O O7 0.543819 0.413691 0.410044
O O8 0.913100 0.119703 0.097776
O O9 0.962464 0.024060 0.271720
O O10 0.479261 0.152411 0.860021
O O11 0.162227 0.367706 0.597583
O O12 0.600712 0.354141 0.830451
O O13 0.950489 0.838468 0.375224
O O14 0.960520 0.114676 0.414371
O O15 0.500000 0.000000 0.000000
O O16 0.902342 0.737226 0.875569
O O17 0.000000 0.500000 0.000000
#
# Coordination Sequence:
#
# PCOD9075729 Si02
#       8
#     2   2   2   2   2   2   2   2
#     4  10  22  34  50  77 110 141 167 217 264 306
#     4  10  18  32  55  73 101 139 178 219 256 295
#     4  10  21  36  52  79 111 134 170 210 267 315
#     4   9  18  33  53  80 100 134 182 211 253 305
#     4   9  18  34  57  83 105 132 168 211 260 307
#     4  10  19  32  54  77  98 137 181 221 248 306
#     4  11  19  34  53  75 102 138 185 217 256 297
#     4   9  18  35  61  79 102 135 172 215 250 308
#
# _framework density 21.392333000000001
#
# number of rings (size 3 to 8) (size 9 to 14) (size 15 to 20)
#    0.000    2.250    3.750    1.125    0.000    3.500 
#    0.000    1.250    0.000    7.500    0.000    0.000 
#    0.000    0.000    0.000    0.000    0.000    0.000 
#
# Total GULP energy -89309.389481 kJ/mol
# GULP energy per Si atom -5581.836843 kJ/mol
# Density = 2.134364 g / cm^3
# Si number density = 21.392333 Si / 1000 Ang^3
#
#
#
# Elastic Constant Matrix: (Units=GPa)
#
#
# Indices 1 2 3 4 5 6 
#
# 1 102.9405 69.6303 34.8073 -14.3419 -27.0653 45.4174
# 2 69.6303 131.8531 14.1899 -15.8391 -16.2743 42.2169
# 3 34.8073 14.1899 71.2734 -16.9220 -21.4568 18.3383
# 4 -14.3419 -15.8391 -16.9220 18.1409 3.2307 -6.6014
# 5 -27.0653 -16.2743 -21.4568 3.2307 32.6736 -6.8042
# 6 45.4174 42.2169 18.3383 -6.6014 -6.8042 45.5964
#
#
#
# Elastic Compliance Matrix: (Units=1/GPa)
#
#
# Indices 1 2 3 4 5 6 
#
# 1 0.026059 -0.005835 -0.001949 0.005112 0.013346 -0.017038
# 2 -0.005835 0.013929 0.004999 0.009009 0.002966 -0.007348
# 3 -0.001949 0.004999 0.025054 0.020964 0.013654 -0.007691
# 4 0.005112 0.009009 0.020964 0.081339 0.012741 -0.008188
# 5 0.013346 0.002966 0.013654 0.012741 0.048244 -0.012487
# 6 -0.017038 -0.007348 -0.007691 -0.008188 -0.012487 0.045751
#
#
# Mechanical properties :
#
#
# Convention : Reuss Voigt Hill
#
# Bulk Modulus (GPa) = 16.81489 60.36911 38.59200
# Shear Modulus (GPa) = 18.81342 31.77814 25.29578
#
# Velocity S-wave (km/s) = 2.96876 3.85839 3.44244
# Velocity P-wave (km/s) = 4.43043 6.93764 5.82063
#
# Compressibility (1/GPa) = 0.05947110
#
# Stress axis : x y z
#
# Youngs Moduli (GPa) = 38.37495 71.79508 39.91442
#
# Poissons Ratio (x) = 0.41891 0.07779
# Poissons Ratio (y) = 0.22391 -0.19953
# Poissons Ratio (z) = 0.07479 -0.35891
#
# Static dielectric constant tensor:
#      x y z
#    x 1.858970 0.022970 -0.016530 
#    y 0.022970 1.793490 -0.023580 
#    z -0.016530 -0.023580 1.822240 
# 
# From -- ./inp_files/37583.got.cif
#   From: 2010.05.17/outbox.cif.g08.bks.cpg/sg2_19_cif.got.tgz:37583.got - 2010.06.03 11:33:40.
