data_PCOD9075100
_publ_section_title
;
Structure prediction by ZEFSAII (Michael W. Deem and Ramdas Pophale) SiO2 
 PCOD9075100
Probable space group: P -1
;
_chemical_formula_sum "Si O2"
_cell_formula_units_Z 12
_cell_length_a 9.000000
_cell_length_b 18.000000
_cell_length_c 15.000000
_cell_angle_alpha 160.000000
_cell_angle_beta 140.000000
_cell_angle_gamma 50.000000
_cell_volume 500.334326
_symmetry_space_group_name_H-M "P -1"
_symmetry_group_IT_number 2
_symmetry_cell_setting 'triclinic'
loop_
_space_group_symop_operation_xyz
x,y,z
-x,-y,-z
loop_
_atom_site_type_symbol
_atom_site_label
_atom_site_fract_x
_atom_site_fract_y
_atom_site_fract_z
Si Si1 0.461114 0.802121 0.326445
Si Si2 0.791205 0.375043 0.333123
Si Si3 0.261544 0.965538 0.584326
Si Si4 0.342645 0.275260 0.227214
Si Si5 0.885519 0.672695 0.422828
Si Si6 0.778878 0.192853 0.432407
O O1 0.727338 0.836104 0.528615
O O2 0.500000 0.000000 0.500000
O O3 0.294797 0.842689 0.372275
O O4 0.333703 0.573145 0.950874
O O5 0.805597 0.613734 0.656243
O O6 0.000000 0.500000 0.500000
O O7 0.908231 0.253628 0.324064
O O8 0.515021 0.196668 0.978086
O O9 0.226784 0.774785 0.430310
O O10 0.000000 0.000000 0.500000
O O11 0.500000 0.500000 0.500000
O O12 0.522609 0.195791 0.281318
O O13 0.209658 0.064679 0.864558
O O14 0.015326 0.660914 0.375509
#
# Coordination Sequence:
#
# PCOD9075100 Si02
#       6
#     2   2   2   2   2   2
#     4  11  27  50  72 105 153 194 234 307 372 437
#     4  12  27  45  77 111 144 194 249 300 361 440
#     4  12  28  47  73 110 148 191 246 305 365 430
#     4  11  22  45  71 104 146 184 240 301 361 427
#     4  11  26  47  75 106 144 197 244 292 378 432
#     4  11  24  43  73 105 138 193 242 297 362 430
#
# _framework density 23.983962999999999
#
# number of rings (size 3 to 8) (size 9 to 14) (size 15 to 20)
#    0.000    0.667    3.333    3.000   11.667    2.667 
#    0.000    0.000    0.000    0.000    0.000    0.000 
#    0.000    0.000    0.000    0.000    0.000    0.000 
#
# Total GULP energy -66822.074039 kJ/mol
# GULP energy per Si atom -5568.506170 kJ/mol
# Density = 2.392937 g / cm^3
# Si number density = 23.983963 Si / 1000 Ang^3
#
#
#
# Elastic Constant Matrix: (Units=GPa)
#
#
# Indices 1 2 3 4 5 6 
#
# 1 100.3043 52.0389 -54.8591 -33.8375 4.4221 48.3838
# 2 52.0389 129.9209 34.1477 -16.9694 6.1237 -7.2559
# 3 -54.8591 34.1477 30.6796 -41.7064 19.4509 47.8362
# 4 -33.8375 -16.9694 -41.7064 5.4241 -5.2184 36.3459
# 5 4.4221 6.1237 19.4509 -5.2184 30.5222 3.1690
# 6 48.3838 -7.2559 47.8362 36.3459 3.1690 2.9203
#
#
#
# Elastic Compliance Matrix: (Units=1/GPa)
#
#
# Indices 1 2 3 4 5 6 
#
# 1 0.006338 -0.002914 -0.001256 -0.007582 -0.001250 0.004051
# 2 -0.002914 0.010563 -0.002529 0.009315 0.001697 -0.001829
# 3 -0.001256 -0.002529 0.009337 -0.011130 -0.008084 0.008865
# 4 -0.007582 0.009315 -0.011130 0.024988 0.009590 0.009680
# 5 -0.001250 0.001697 -0.008084 0.009590 0.039950 -0.005344
# 6 0.004051 -0.001829 0.008865 0.009680 -0.005344 0.010878
#
#
# Mechanical properties :
#
#
# Convention : Reuss Voigt Hill
#
# Bulk Modulus (GPa) = 77.86948 35.95108 56.91028
# Shear Modulus (GPa) = 41.76031 23.07846 32.41939
#
# Velocity S-wave (km/s) = 4.17727 3.10537 3.68055
# Velocity P-wave (km/s) = 7.47020 5.28015 6.46853
#
# Compressibility (1/GPa) = 0.01284200
#
# Stress axis : x y z
#
# Youngs Moduli (GPa) = 157.78653 94.66850 107.09744
#
# Poissons Ratio (x) = 0.27583 0.13448
# Poissons Ratio (y) = 0.45973 0.27083
# Poissons Ratio (z) = 0.19812 0.23940
#
# Static dielectric constant tensor:
#      x y z
#    x 0.779500 0.246760 -0.043360 
#    y 0.246760 1.895720 0.060590 
#    z -0.043360 0.060590 1.887450 
# 
# From -- ./inp_files/22466.got.cif
#   From: 2010.05.17/outbox.ucp.g08.bks.cvg/sg2_12_cif.got.tgz:22466.got - 2010.06.11 11:32:03.
