data_PCOD9075774
_publ_section_title
;
Structure prediction by ZEFSAII (Michael W. Deem and Ramdas Pophale) SiO2 
 PCOD9075774
Probable space group: P -1
;
_chemical_formula_sum "Si O2"
_cell_formula_units_Z 16
_cell_length_a 8.398772
_cell_length_b 23.723766
_cell_length_c 25.235755
_cell_angle_alpha 15.890148
_cell_angle_beta 30.095953
_cell_angle_gamma 32.005766
_cell_volume 685.719462
_symmetry_space_group_name_H-M "P -1"
_symmetry_group_IT_number 2
_symmetry_cell_setting 'triclinic'
loop_
_space_group_symop_operation_xyz
x,y,z
-x,-y,-z
loop_
_atom_site_type_symbol
_atom_site_label
_atom_site_fract_x
_atom_site_fract_y
_atom_site_fract_z
Si Si1 0.771145 0.041272 0.843678
Si Si2 0.079055 0.214097 0.128541
Si Si3 0.861730 0.361797 0.944098
Si Si4 0.530539 0.569015 0.691767
Si Si5 0.279475 0.637837 0.809720
Si Si6 0.809426 0.482129 0.464041
Si Si7 0.622376 0.042320 0.063401
Si Si8 0.498202 0.520574 0.629222
O O1 0.925290 0.235833 0.645978
O O2 0.556990 0.086125 0.811821
O O3 0.500000 0.000000 0.000000
O O4 0.015460 0.838651 0.945432
O O5 0.379402 0.046361 0.179309
O O6 0.868456 0.185131 0.266969
O O7 0.254869 0.418119 0.903600
O O8 0.872469 0.270229 0.083839
O O9 0.537391 0.484533 0.906540
O O10 0.127777 0.524146 0.716738
O O11 0.439294 0.701768 0.650795
O O12 0.545578 0.641291 0.560736
O O13 0.873969 0.428965 0.727916
O O14 0.000000 0.500000 0.000000
O O15 0.500000 0.500000 0.500000
O O16 0.718031 0.548374 0.490227
O O17 0.575408 0.276773 0.842222
O O18 0.000000 0.000000 0.000000
#
# Coordination Sequence:
#
# PCOD9075774 Si02
#       8
#     2   2   2   2   2   2   2   2
#     4  10  20  34  52  79 113 144 183 216 278 331
#     4   8  18  33  52  82 103 144 185 225 264 321
#     4   9  17  33  55  76 110 140 184 228 274 317
#     4   9  20  32  50  75 114 136 184 223 274 315
#     4  10  18  32  55  83 104 139 187 234 266 324
#     4  12  22  33  53  80 115 150 179 228 275 331
#     4   9  18  32  57  80 114 141 176 222 272 324
#     4   9  19  36  49  80 110 148 178 224 274 334
#
# _framework density 23.333157
#
# number of rings (size 3 to 8) (size 9 to 14) (size 15 to 20)
#    0.000    3.000    2.500    1.500    3.500    1.000 
#    0.000    0.000    0.000    6.000    0.000    0.000 
#    0.000    0.000    0.000    0.000    0.000    0.000 
#
# Total GULP energy -89180.126925 kJ/mol
# GULP energy per Si atom -5573.757933 kJ/mol
# Density = 2.328005 g / cm^3
# Si number density = 23.333157 Si / 1000 Ang^3
#
#
#
# Elastic Constant Matrix: (Units=GPa)
#
#
# Indices 1 2 3 4 5 6 
#
# 1 118.5246 91.5619 25.1956 9.0435 -13.4183 8.4349
# 2 91.5619 168.5728 9.1960 29.9133 6.2782 33.0045
# 3 25.1956 9.1960 30.7346 1.3506 3.1235 3.7938
# 4 9.0435 29.9133 1.3506 21.9309 3.2806 2.2918
# 5 -13.4183 6.2782 3.1235 3.2806 25.1815 13.0085
# 6 8.4349 33.0045 3.7938 2.2918 13.0085 69.9152
#
#
#
# Elastic Compliance Matrix: (Units=1/GPa)
#
#
# Indices 1 2 3 4 5 6 
#
# 1 0.025521 -0.015372 -0.018712 0.008768 0.017786 0.001596
# 2 -0.015372 0.018099 0.009471 -0.017053 -0.009099 -0.004951
# 3 -0.018712 0.009471 0.047163 -0.005453 -0.016704 -0.001486
# 4 0.008768 -0.017053 -0.005453 0.065265 -0.001728 0.005470
# 5 0.017786 -0.009099 -0.016704 -0.001728 0.057692 -0.007622
# 6 0.001596 -0.004951 -0.001486 0.005470 -0.007622 0.017767
#
#
# Mechanical properties :
#
#
# Convention : Reuss Voigt Hill
#
# Bulk Modulus (GPa) = 24.06259 63.30431 43.68345
# Shear Modulus (GPa) = 16.97308 36.19742 26.58525
#
# Velocity S-wave (km/s) = 2.70000 3.94297 3.37913
# Velocity P-wave (km/s) = 4.47828 6.92234 5.82983
#
# Compressibility (1/GPa) = 0.04155829
#
# Stress axis : x y z
#
# Youngs Moduli (GPa) = 39.18398 55.25110 21.20305
#
# Poissons Ratio (x) = 0.84931 0.39675
# Poissons Ratio (y) = 0.60233 -0.20082
# Poissons Ratio (z) = 0.73320 -0.52330
#
# Static dielectric constant tensor:
#      x y z
#    x 2.182370 -0.024960 -0.090370 
#    y -0.024960 2.030500 0.050320 
#    z -0.090370 0.050320 2.017330 
# 
# From -- ./inp_files/617595.got.cif
#   From: 2010.05.17/outbox.cif.g08.bks.cpg/sg2_309_cif.got.tgz:617595.got - 2010.06.03 11:33:40.
