data_PCOD9075613
_publ_section_title
;
Structure prediction by ZEFSAII (Michael W. Deem and Ramdas Pophale) SiO2 
 PCOD9075613
Probable space group: P -1
;
_chemical_formula_sum "Si O2"
_cell_formula_units_Z 16
_cell_length_a 15.000000
_cell_length_b 15.000000
_cell_length_c 15.000000
_cell_angle_alpha 140.000000
_cell_angle_beta 40.000000
_cell_angle_gamma 160.000000
_cell_volume 725.414092
_symmetry_space_group_name_H-M "P -1"
_symmetry_group_IT_number 2
_symmetry_cell_setting 'triclinic'
loop_
_space_group_symop_operation_xyz
x,y,z
-x,-y,-z
loop_
_atom_site_type_symbol
_atom_site_label
_atom_site_fract_x
_atom_site_fract_y
_atom_site_fract_z
Si Si1 0.626413 0.567756 0.783858
Si Si2 0.378111 0.665148 0.537376
Si Si3 0.283686 0.199106 0.398890
Si Si4 0.938359 0.535394 0.984966
Si Si5 0.355938 0.148530 0.118015
Si Si6 0.149054 0.019161 0.835375
Si Si7 0.769241 0.231342 0.411488
Si Si8 0.139550 0.812364 0.322746
O O1 0.565733 0.419705 0.631930
O O2 0.610941 0.719410 0.890599
O O3 0.417836 0.326358 0.830993
O O4 0.933461 0.809209 0.761311
O O5 0.252013 0.682136 0.589157
O O6 0.166417 0.431891 0.595894
O O7 0.655275 0.969369 0.590269
O O8 0.500000 0.500000 0.500000
O O9 0.261262 0.165731 0.284498
O O10 0.272828 0.026671 0.308689
O O11 0.000000 0.000000 0.500000
O O12 0.874574 0.360541 0.827702
O O13 0.654629 0.365360 0.084474
O O14 0.000000 0.500000 0.000000
O O15 0.163384 0.846466 0.028309
O O16 0.192852 0.898691 0.744305
O O17 0.000000 0.000000 0.000000
O O18 0.000000 0.500000 0.500000
O O19 0.500000 0.000000 0.500000
#
# Coordination Sequence:
#
# PCOD9075613 Si02
#       8
#     2   2   2   2   2   2   2   2
#     4  12  25  47  72 107 146 183 239 298 365 423
#     4  12  25  44  74 107 141 182 240 306 345 424
#     4  12  25  43  67 101 140 182 234 289 352 420
#     4  12  26  47  70  96 145 197 237 287 356 427
#     4  12  26  44  74 100 140 196 232 288 366 426
#     4  12  26  46  76 108 150 189 237 301 365 445
#     4  12  23  47  74 104 141 197 237 284 373 439
#     4  12  26  43  69 104 140 179 241 295 342 416
#
# _framework density 22.056367999999999
#
# number of rings (size 3 to 8) (size 9 to 14) (size 15 to 20)
#    0.000    0.000    3.750    6.750    1.750    3.000 
#    0.000    0.000    0.000    0.000    0.000    0.000 
#    0.000    0.000    0.000    0.000    0.000    0.000 
#
# Total GULP energy -89324.882016 kJ/mol
# GULP energy per Si atom -5582.805126 kJ/mol
# Density = 2.200617 g / cm^3
# Si number density = 22.056368 Si / 1000 Ang^3
#
#
#
# Elastic Constant Matrix: (Units=GPa)
#
#
# Indices 1 2 3 4 5 6 
#
# 1 76.3069 19.4206 -10.3709 20.1905 -31.1411 -20.7444
# 2 19.4206 186.0961 20.9064 35.8126 -10.7461 -16.2242
# 3 -10.3709 20.9064 101.6974 25.7546 -10.5484 -10.0033
# 4 20.1905 35.8126 25.7546 58.7811 -5.0612 -6.0657
# 5 -31.1411 -10.7461 -10.5484 -5.0612 34.5966 12.1151
# 6 -20.7444 -16.2242 -10.0033 -6.0657 12.1151 50.8670
#
#
#
# Elastic Compliance Matrix: (Units=1/GPa)
#
#
# Indices 1 2 3 4 5 6 
#
# 1 0.029412 0.000110 0.009106 -0.011311 0.025380 0.006427
# 2 0.000110 0.006236 -0.000134 -0.003553 0.001005 0.001345
# 3 0.009106 -0.000134 0.014195 -0.008068 0.010230 0.003064
# 4 -0.011311 -0.003553 -0.008068 0.025585 -0.009276 -0.002073
# 5 0.025380 0.001005 0.010230 -0.009276 0.054298 -0.001356
# 6 0.006427 0.001345 0.003064 -0.002073 -0.001356 0.023387
#
#
# Mechanical properties :
#
#
# Convention : Reuss Voigt Hill
#
# Bulk Modulus (GPa) = 14.70441 47.11250 30.90846
# Shear Modulus (GPa) = 31.72197 51.12523 41.42360
#
# Velocity S-wave (km/s) = 3.79651 4.81972 4.33838
# Velocity P-wave (km/s) = 5.08912 7.23736 6.25614
#
# Compressibility (1/GPa) = 0.06800680
#
# Stress axis : x y z
#
# Youngs Moduli (GPa) = 33.99944 160.35479 70.44713
#
# Poissons Ratio (x) = -0.01767 -0.64149
# Poissons Ratio (y) = -0.00375 0.00947
# Poissons Ratio (z) = -0.30960 0.02157
#
# Static dielectric constant tensor:
#      x y z
#    x 1.983680 0.037320 0.004640 
#    y 0.037320 1.754940 -0.026710 
#    z 0.004640 -0.026710 1.869380 
# 
# From -- ./inp_files/534427.got.cif
#   From: 2010.05.17/outbox.ucp.g08.bks.cvg/sg2_268_cif.got.tgz:534427.got - 2010.06.11 11:32:03.
