data_PCOD9075284
_publ_section_title
;
Structure prediction by ZEFSAII (Michael W. Deem and Ramdas Pophale) SiO2 
 PCOD9075284
Probable space group: P -1
;
_chemical_formula_sum "Si O2"
_cell_formula_units_Z 15
_cell_length_a 12.000000
_cell_length_b 12.000000
_cell_length_c 9.000000
_cell_angle_alpha 60.000000
_cell_angle_beta 40.000000
_cell_angle_gamma 50.000000
_cell_volume 638.079485
_symmetry_space_group_name_H-M "P -1"
_symmetry_group_IT_number 2
_symmetry_cell_setting 'triclinic'
loop_
_space_group_symop_operation_xyz
x,y,z
-x,-y,-z
loop_
_atom_site_type_symbol
_atom_site_label
_atom_site_fract_x
_atom_site_fract_y
_atom_site_fract_z
Si Si1 0.727741 0.921059 0.321445
Si Si2 0.750158 0.407611 0.110197
Si Si3 0.000000 0.500000 0.000000
Si Si4 0.011031 0.262403 0.350829
Si Si5 0.010758 0.347639 0.620109
Si Si6 0.403414 0.734686 0.253584
Si Si7 0.811714 0.989628 0.868951
Si Si8 0.237856 0.883605 0.591983
O O1 0.807139 0.755572 0.396866
O O2 0.500000 0.000000 0.500000
O O3 0.780323 0.010712 0.327549
O O4 0.802509 0.930964 0.077887
O O5 0.574339 0.571678 0.186811
O O6 0.717533 0.272655 0.282009
O O7 0.910516 0.406655 0.061392
O O8 0.823559 0.374070 0.889398
O O9 0.975363 0.597627 0.813485
O O10 0.030941 0.263557 0.504866
O O11 0.178033 0.122373 0.192499
O O12 0.796611 0.279027 0.524594
O O13 0.000000 0.500000 0.500000
O O14 0.407532 0.827336 0.331366
O O15 0.359366 0.847515 0.088904
O O16 0.031959 0.970556 0.657105
#
# Coordination Sequence:
#
# PCOD9075284 Si02
#       8
#     2   2   1   2   2   2   2   2
#     4  12  28  46  71 105 138 180 236 293 344 409
#     4  12  26  45  71 106 140 186 229 287 346 414
#     4  12  22  44  68 100 138 182 224 280 348 410
#     4  11  24  44  74  98 139 184 234 280 350 414
#     4  12  26  46  70 102 144 182 227 288 357 411
#     4  11  25  43  71 107 136 180 238 286 340 413
#     4  11  23  47  73  99 136 187 232 284 351 412
#     4  11  23  48  72  98 141 185 231 283 350 412
#
# _framework density 23.508043000000001
#
# number of rings (size 3 to 8) (size 9 to 14) (size 15 to 20)
#    0.000    0.533    5.333    4.000    3.733    3.733 
#    0.000    2.000    0.000    0.000    0.000    0.000 
#    0.000    0.000    0.000    0.000    0.000    0.000 
#
# Total GULP energy -83512.840461 kJ/mol
# GULP energy per Si atom -5567.522697 kJ/mol
# Density = 2.345454 g / cm^3
# Si number density = 23.508043 Si / 1000 Ang^3
#
#
#
# Elastic Constant Matrix: (Units=GPa)
#
#
# Indices 1 2 3 4 5 6 
#
# 1 52.4699 67.7722 55.3911 -17.9760 31.0071 5.9611
# 2 67.7722 145.6225 51.6931 21.3816 33.2017 -24.7587
# 3 55.3911 51.6931 38.1546 -6.7051 16.6011 -23.4162
# 4 -17.9760 21.3816 -6.7051 14.5431 -10.8096 1.9211
# 5 31.0071 33.2017 16.6011 -10.8096 25.0309 -9.1627
# 6 5.9611 -24.7587 -23.4162 1.9211 -9.1627 20.8744
#
#
#
# Elastic Compliance Matrix: (Units=1/GPa)
#
#
# Indices 1 2 3 4 5 6 
#
# 1 -0.004682 0.004100 0.015224 -0.013373 -0.007792 0.021088
# 2 0.004100 -0.015756 0.015045 0.059512 0.033891 0.006417
# 3 0.015224 0.015045 -0.012979 -0.051491 -0.060878 -0.023047
# 4 -0.013373 0.059512 -0.051491 -0.119611 -0.083107 -0.008827
# 5 -0.007792 0.033891 -0.060878 -0.083107 0.002937 -0.016931
# 6 0.021088 0.006417 -0.023047 -0.008827 -0.016931 0.017022
#
#
# Mechanical properties :
#
#
# Convention : Reuss Voigt Hill
#
# Bulk Modulus (GPa) = 28.31252 65.10666 46.70959
# Shear Modulus (GPa) = -26.31135 16.18240 -5.06448
#
# Velocity S-wave (km/s) = -3.34915 2.62654 -1.46937
# Velocity P-wave (km/s) = 1.69877 6.07897 4.12723
#
# Compressibility (1/GPa) = 0.03532006
#
# Stress axis : x y z
#
# Youngs Moduli (GPa) = -213.60247 -63.46838 -77.04466
#
# Poissons Ratio (x) = 0.26024 1.17290
# Poissons Ratio (y) = 0.87582 1.15910
# Poissons Ratio (z) = 3.25182 0.95486
#
# Static dielectric constant tensor:
#      x y z
#    x 1.877080 -0.043670 0.013570 
#    y -0.043670 1.897150 -0.054930 
#    z 0.013570 -0.054930 1.900440 
# 
# From -- ./inp_files/174181.got.cif
#   From: 2010.05.17/outbox.ucp.g08.bks.cvg/sg2_88_cif.got.tgz:174181.got - 2010.06.11 11:32:03.
