data_PCOD9075641
_publ_section_title
;
Structure prediction by ZEFSAII (Michael W. Deem and Ramdas Pophale) SiO2 
 PCOD9075641
Probable space group: P -1
;
_chemical_formula_sum "Si O2"
_cell_formula_units_Z 16
_cell_length_a 9.235224
_cell_length_b 16.740167
_cell_length_c 8.574047
_cell_angle_alpha 44.032112
_cell_angle_beta 112.459137
_cell_angle_gamma 125.860840
_cell_volume 744.880996
_symmetry_space_group_name_H-M "P -1"
_symmetry_group_IT_number 2
_symmetry_cell_setting 'triclinic'
loop_
_space_group_symop_operation_xyz
x,y,z
-x,-y,-z
loop_
_atom_site_type_symbol
_atom_site_label
_atom_site_fract_x
_atom_site_fract_y
_atom_site_fract_z
Si Si1 0.064339 0.893050 0.167963
Si Si2 0.025391 0.158456 0.437607
Si Si3 0.966339 0.359633 0.230428
Si Si4 0.553410 0.217778 0.195066
Si Si5 0.532280 0.339108 0.704598
Si Si6 0.291989 0.067488 0.573443
Si Si7 0.474970 0.060318 0.080565
Si Si8 0.798953 0.626347 0.408418
O O1 0.931414 0.767086 0.185645
O O2 0.048333 0.858215 0.393447
O O3 0.268256 0.959693 0.109279
O O4 0.000000 0.000000 0.000000
O O5 0.056075 0.304278 0.219196
O O6 0.194110 0.133933 0.534836
O O7 0.871474 0.055973 0.406562
O O8 0.752344 0.268240 0.267332
O O9 0.064477 0.382968 0.402939
O O10 0.000000 0.500000 0.000000
O O11 0.416502 0.169987 0.348652
O O12 0.495295 0.095421 0.225297
O O13 0.554043 0.325848 0.921207
O O14 0.681937 0.478844 0.502482
O O15 0.345423 0.341006 0.612129
O O16 0.530167 0.206318 0.830334
O O17 0.405309 0.010579 0.791342
#
# Coordination Sequence:
#
# PCOD9075641 Si02
#       8
#     2   2   2   2   2   2   2   2
#     4  11  19  34  55  80 104 139 187 231 263 325
#     4  10  21  32  53  81 112 136 178 224 284 319
#     4  11  19  34  55  80 104 139 187 231 263 325
#     4  10  18  32  54  80 104 140 188 216 273 321
#     4   9  18  31  50  78 104 139 178 219 270 324
#     4  11  19  33  52  82 112 141 169 236 272 328
#     4  10  18  32  54  80 104 140 188 216 273 321
#     4  10  19  30  49  78 108 130 172 237 269 307
#
# _framework density 21.479941
#
# number of rings (size 3 to 8) (size 9 to 14) (size 15 to 20)
#    0.750    1.000    5.000    1.875    0.000    0.000 
#    0.000    1.250    0.000    0.000    0.000    1.750 
#    0.000    0.000    0.000    0.000    0.000    0.000 
#
# Total GULP energy -89102.803494 kJ/mol
# GULP energy per Si atom -5568.925218 kJ/mol
# Density = 2.143105 g / cm^3
# Si number density = 21.479941 Si / 1000 Ang^3
#
#
#
# Elastic Constant Matrix: (Units=GPa)
#
#
# Indices 1 2 3 4 5 6 
#
# 1 108.1456 37.8885 36.2803 -10.1390 12.8248 12.8359
# 2 37.8885 85.7669 18.9622 -31.7677 -0.0880 24.2731
# 3 36.2803 18.9622 78.5019 -24.0102 24.2822 4.0722
# 4 -10.1390 -31.7677 -24.0102 38.5169 -1.8333 5.2586
# 5 12.8248 -0.0880 24.2822 -1.8333 32.3816 4.3423
# 6 12.8359 24.2731 4.0722 5.2586 4.3423 37.4583
#
#
#
# Elastic Compliance Matrix: (Units=1/GPa)
#
#
# Indices 1 2 3 4 5 6 
#
# 1 0.013256 -0.007833 -0.006115 -0.007173 -0.001409 0.002368
# 2 -0.007833 0.032210 0.005356 0.031266 0.004113 -0.023636
# 3 -0.006115 0.005356 0.024437 0.018037 -0.014208 -0.004917
# 4 -0.007173 0.031266 0.018037 0.064849 -0.003105 -0.028507
# 5 -0.001409 0.004113 -0.014208 -0.003105 0.042619 -0.005142
# 6 0.002368 -0.023636 -0.004917 -0.028507 -0.005142 0.046334
#
#
# Mechanical properties :
#
#
# Convention : Reuss Voigt Hill
#
# Bulk Modulus (GPa) = 18.96805 50.96404 34.96605
# Shear Modulus (GPa) = 19.34523 33.62357 26.48440
#
# Velocity S-wave (km/s) = 3.00429 3.96074 3.51519
# Velocity P-wave (km/s) = 4.56991 6.68539 5.72619
#
# Compressibility (1/GPa) = 0.05272023
#
# Stress axis : x y z
#
# Youngs Moduli (GPa) = 75.43774 31.04657 40.92073
#
# Poissons Ratio (x) = 0.24317 0.25024
# Poissons Ratio (y) = 0.59087 -0.21919
# Poissons Ratio (z) = 0.46132 -0.16630
#
# Static dielectric constant tensor:
#      x y z
#    x 1.771180 -0.017370 0.048690 
#    y -0.017370 1.838490 -0.074580 
#    z 0.048690 -0.074580 2.209010 
# 
# From -- ./inp_files/404158.got.cif
#   From: 2010.05.17/outbox.cif.g08.bks.cpg/sg2_203_cif.got.tgz:404158.got - 2010.06.03 11:33:40.
