data_PCOD9075577
_publ_section_title
;
Structure prediction by ZEFSAII (Michael W. Deem and Ramdas Pophale) SiO2 
 PCOD9075577
Probable space group: P -1
;
_chemical_formula_sum "Si O2"
_cell_formula_units_Z 14
_cell_length_a 27.000000
_cell_length_b 15.000000
_cell_length_c 15.000000
_cell_angle_alpha 160.000000
_cell_angle_beta 160.000000
_cell_angle_gamma 20.000000
_cell_volume 621.679612
_symmetry_space_group_name_H-M "P -1"
_symmetry_group_IT_number 2
_symmetry_cell_setting 'triclinic'
loop_
_space_group_symop_operation_xyz
x,y,z
-x,-y,-z
loop_
_atom_site_type_symbol
_atom_site_label
_atom_site_fract_x
_atom_site_fract_y
_atom_site_fract_z
Si Si1 0.726631 0.036994 0.679481
Si Si2 0.932106 0.083117 0.790371
Si Si3 0.191086 0.600993 0.506345
Si Si4 0.091362 0.327171 0.782455
Si Si5 0.405369 0.846547 0.638110
Si Si6 0.644888 0.557235 0.171998
Si Si7 0.274786 0.069130 0.014457
O O1 0.626135 0.109499 0.482741
O O2 0.735535 0.733772 0.448116
O O3 0.654128 0.296931 0.877429
O O4 0.914570 0.992418 0.954328
O O5 0.780701 0.055837 0.551546
O O6 0.967663 0.857729 0.555318
O O7 0.892140 0.407451 0.988154
O O8 0.299281 0.535791 0.718871
O O9 0.253488 0.358415 0.304261
O O10 0.037549 0.568719 0.255889
O O11 0.168272 0.915806 0.727470
O O12 0.254633 0.120186 0.921330
O O13 0.500000 0.500000 0.500000
O O14 0.500000 0.000000 0.000000
O O15 0.457817 0.810899 0.098375
#
# Coordination Sequence:
#
# PCOD9075577 Si02
#       7
#     2   2   2   2   2   2   2
#     4  12  25  49  73 104 143 188 233 282 351 432
#     4  12  25  49  73 104 143 188 233 282 351 432
#     4  12  22  46  64 103 142 189 242 288 348 410
#     4  12  25  43  73 102 142 188 240 286 350 415
#     4  12  29  48  77 112 142 175 227 298 357 423
#     4  12  25  43  73 102 142 188 240 286 350 415
#     4  12  26  40  68 103 146 185 236 302 346 398
#
# _framework density 22.519638
#
# number of rings (size 3 to 8) (size 9 to 14) (size 15 to 20)
#    0.000    0.000    2.857    7.286    6.000    0.000 
#    0.000    4.286    0.000    0.000    0.000    0.000 
#    0.000    0.000    0.000    0.000    0.000    0.000 
#
# Total GULP energy -78185.384465 kJ/mol
# GULP energy per Si atom -5584.670319 kJ/mol
# Density = 2.246838 g / cm^3
# Si number density = 22.519638 Si / 1000 Ang^3
#
#
#
# Elastic Constant Matrix: (Units=GPa)
#
#
# Indices 1 2 3 4 5 6 
#
# 1 67.9028 21.7137 56.0732 0.2932 -18.3223 27.5383
# 2 21.7137 49.7551 34.5766 -0.9448 -19.5215 24.6173
# 3 56.0732 34.5766 189.6083 9.4506 -22.7364 19.7132
# 4 0.2932 -0.9448 9.4506 58.3464 -4.2277 5.2497
# 5 -18.3223 -19.5215 -22.7364 -4.2277 50.6554 -11.7860
# 6 27.5383 24.6173 19.7132 5.2497 -11.7860 49.5077
#
#
#
# Elastic Compliance Matrix: (Units=1/GPa)
#
#
# Indices 1 2 3 4 5 6 
#
# 1 0.025107 0.000266 -0.005942 0.002128 0.004142 -0.010971
# 2 0.000266 0.032303 -0.003788 0.002896 0.008040 -0.013095
# 3 -0.005942 -0.003788 0.007574 -0.001456 0.000223 0.002381
# 4 0.002128 0.002896 -0.001456 0.017863 0.001913 -0.003483
# 5 0.004142 0.008040 0.000223 0.001913 0.024416 -0.000780
# 6 -0.010971 -0.013095 0.002381 -0.003483 -0.000780 0.032049
#
#
# Mechanical properties :
#
#
# Convention : Reuss Voigt Hill
#
# Bulk Modulus (GPa) = 21.71293 59.11035 40.41164
# Shear Modulus (GPa) = 28.80324 44.69544 36.74934
#
# Velocity S-wave (km/s) = 3.58023 4.45987 4.04404
# Velocity P-wave (km/s) = 5.17237 7.26814 6.30790
#
# Compressibility (1/GPa) = 0.04605552
#
# Stress axis : x y z
#
# Youngs Moduli (GPa) = 39.83025 30.95641 132.03230
#
# Poissons Ratio (x) = -0.00824 0.78455
# Poissons Ratio (y) = -0.01060 0.50018
# Poissons Ratio (z) = 0.23668 0.11727
#
# Static dielectric constant tensor:
#      x y z
#    x 1.869740 -0.081390 0.046700 
#    y -0.081390 1.953640 -0.096150 
#    z 0.046700 -0.096150 1.837580 
# 
# From -- ./inp_files/293736.got.cif
#   From: 2010.05.17/outbox.ucp.g08.bks.cvg/sg2_147_cif.got.tgz:293736.got - 2010.06.11 11:32:03.
