data_PCOD9075511
_publ_section_title
;
Structure prediction by ZEFSAII (Michael W. Deem and Ramdas Pophale) SiO2 
 PCOD9075511
Probable space group: P -1
;
_chemical_formula_sum "Si O2"
_cell_formula_units_Z 16
_cell_length_a 12.000000
_cell_length_b 15.000000
_cell_length_c 15.000000
_cell_angle_alpha 150.000000
_cell_angle_beta 120.000000
_cell_angle_gamma 40.000000
_cell_volume 747.221570
_symmetry_space_group_name_H-M "P -1"
_symmetry_group_IT_number 2
_symmetry_cell_setting 'triclinic'
loop_
_space_group_symop_operation_xyz
x,y,z
-x,-y,-z
loop_
_atom_site_type_symbol
_atom_site_label
_atom_site_fract_x
_atom_site_fract_y
_atom_site_fract_z
Si Si1 0.516745 0.182994 0.702074
Si Si2 0.855550 0.793263 0.147188
Si Si3 0.180146 0.685674 0.131483
Si Si4 0.295622 0.641324 0.855815
Si Si5 0.329504 0.653777 0.356620
Si Si6 0.978665 0.770413 0.532388
Si Si7 0.682302 0.714893 0.878373
Si Si8 0.017386 0.699891 0.677970
O O1 0.432754 0.412284 0.791952
O O2 0.500000 0.000000 0.500000
O O3 0.754072 0.937330 0.604103
O O4 0.381043 0.389599 0.910834
O O5 0.008161 0.723377 0.079485
O O6 0.770414 0.055231 0.394854
O O7 0.700440 0.826678 0.067213
O O8 0.000000 0.500000 0.000000
O O9 0.220394 0.693718 0.258113
O O10 0.081455 0.968657 0.297557
O O11 0.448467 0.528446 0.741433
O O12 0.151180 0.637817 0.757973
O O13 0.172408 0.955812 0.098958
O O14 0.343575 0.466712 0.264307
O O15 0.102101 0.643450 0.563684
O O16 0.108062 0.519367 0.296218
O O17 0.500000 0.000000 0.000000
O O18 0.000000 0.500000 0.500000
#
# Coordination Sequence:
#
# PCOD9075511 Si02
#       8
#     2   2   2   2   2   2   2   2
#     4  12  25  43  73 110 141 185 240 302 359 422
#     4  12  26  46  76 104 140 192 240 292 364 427
#     4  12  23  45  76 106 145 183 242 305 358 421
#     4  11  26  45  71 107 142 187 242 289 361 430
#     4  12  26  46  74 104 146 189 238 301 355 424
#     4  12  24  48  71 101 145 186 238 300 355 420
#     4  12  30  49  71 107 146 192 244 295 360 436
#     4  11  26  47  71 101 148 192 232 293 361 427
#
# _framework density 21.412658
#
# number of rings (size 3 to 8) (size 9 to 14) (size 15 to 20)
#    0.000    0.250    5.000    3.750    5.250    1.500 
#    0.000    0.000    0.000    0.000    0.000    0.000 
#    0.000    0.000    0.000    0.000    0.000    0.000 
#
# Total GULP energy -89242.406088 kJ/mol
# GULP energy per Si atom -5577.650380 kJ/mol
# Density = 2.136392 g / cm^3
# Si number density = 21.412658 Si / 1000 Ang^3
#
#
#
# Elastic Constant Matrix: (Units=GPa)
#
#
# Indices 1 2 3 4 5 6 
#
# 1 50.9268 3.1823 53.9047 -0.3048 12.3798 -4.8672
# 2 3.1823 80.3640 34.8004 -0.6844 14.9419 8.4525
# 3 53.9047 34.8004 206.7748 -1.2290 18.9924 0.5813
# 4 -0.3048 -0.6844 -1.2290 31.1089 -0.7345 6.0449
# 5 12.3798 14.9419 18.9924 -0.7345 48.3557 1.3944
# 6 -4.8672 8.4525 0.5813 6.0449 1.3944 28.6210
#
#
#
# Elastic Compliance Matrix: (Units=1/GPa)
#
#
# Indices 1 2 3 4 5 6 
#
# 1 0.029305 0.002632 -0.007598 -0.001026 -0.005487 0.004845
# 2 0.002632 0.014695 -0.002776 0.000889 -0.004000 -0.003829
# 3 -0.007598 -0.002776 0.007291 0.000284 -0.000037 -0.000679
# 4 -0.001026 0.000889 0.000284 0.033653 0.000606 -0.007580
# 5 -0.005487 -0.004000 -0.000037 0.000606 0.023374 -0.001018
# 6 0.004845 -0.003829 -0.000679 -0.007580 -0.001018 0.038558
#
#
# Mechanical properties :
#
#
# Convention : Reuss Voigt Hill
#
# Bulk Modulus (GPa) = 27.92796 57.98229 42.95512
# Shear Modulus (GPa) = 28.68676 38.02900 33.35788
#
# Velocity S-wave (km/s) = 3.66418 4.21884 3.95125
# Velocity P-wave (km/s) = 5.56531 7.13224 6.39693
#
# Compressibility (1/GPa) = 0.03580641
#
# Stress axis : x y z
#
# Youngs Moduli (GPa) = 34.12427 68.04914 137.15308
#
# Poissons Ratio (x) = -0.17908 1.04212
# Poissons Ratio (y) = -0.08980 0.38071
# Poissons Ratio (z) = 0.25928 0.18889
#
# Static dielectric constant tensor:
#      x y z
#    x 1.799750 0.045330 -0.066480 
#    y 0.045330 1.820450 -0.008480 
#    z -0.066480 -0.008480 1.727140 
# 
# From -- ./inp_files/522660.got.cif
#   From: 2010.05.17/outbox.ucp.g08.bks.cvg/sg2_262_cif.got.tgz:522660.got - 2010.06.11 11:32:03.
