data_PCOD9075945
_publ_section_title
;
Structure prediction by ZEFSAII (Michael W. Deem and Ramdas Pophale) SiO2 
 PCOD9075945
Probable space group: P -1
;
_chemical_formula_sum "Si O2"
_cell_formula_units_Z 16
_cell_length_a 9.731979
_cell_length_b 11.389102
_cell_length_c 12.394930
_cell_angle_alpha 41.353407
_cell_angle_beta 114.196179
_cell_angle_gamma 107.426974
_cell_volume 827.875885
_symmetry_space_group_name_H-M "P -1"
_symmetry_group_IT_number 2
_symmetry_cell_setting 'triclinic'
loop_
_space_group_symop_operation_xyz
x,y,z
-x,-y,-z
loop_
_atom_site_type_symbol
_atom_site_label
_atom_site_fract_x
_atom_site_fract_y
_atom_site_fract_z
Si Si1 0.485251 0.771615 0.734247
Si Si2 0.285478 0.681015 0.397009
Si Si3 0.350772 0.775854 0.903798
Si Si4 0.779802 0.659634 0.499959
Si Si5 0.504828 0.892915 0.185573
Si Si6 0.582246 0.551194 0.708261
Si Si7 0.743738 0.031513 0.632191
Si Si8 0.955813 0.012396 0.352612
O O1 0.406824 0.686153 0.872178
O O2 0.553995 0.659317 0.734851
O O3 0.349216 0.885062 0.556578
O O4 0.625113 0.890398 0.734982
O O5 0.184614 0.525278 0.422286
O O6 0.353870 0.798976 0.240751
O O7 0.432093 0.589111 0.564129
O O8 0.223441 0.815763 0.374629
O O9 0.441888 0.959069 0.814308
O O10 0.178232 0.843063 0.802805
O O11 0.388507 0.648292 0.103995
O O12 0.637974 0.747754 0.330858
O O13 0.717217 0.616273 0.629965
O O14 0.900087 0.815348 0.436926
O O15 0.500000 0.000000 0.000000
O O16 0.897701 0.945836 0.698888
O O17 0.000000 0.000000 0.500000
#
# Coordination Sequence:
#
# PCOD9075945 Si02
#       8
#     2   2   2   2   2   2   2   2
#     4  10  19  35  59  85 111 144 192 234 283 325
#     4  10  19  35  57  84 115 148 187 231 285 324
#     4  11  20  34  58  88 112 148 189 231 283 335
#     4  10  21  35  55  84 113 152 185 227 286 338
#     4  10  18  32  57  87 113 143 190 233 275 333
#     4  10  20  34  58  87 119 141 186 242 277 327
#     4  10  20  36  59  82 114 150 187 236 276 334
#     4  11  22  38  58  80 115 152 191 225 283 341
#
# _framework density 19.326567000000001
#
# number of rings (size 3 to 8) (size 9 to 14) (size 15 to 20)
#    0.000    1.750    2.500    4.125    3.500    0.500 
#    0.000    2.500    0.000    6.750    0.000    0.000 
#    0.000    0.000    0.000    0.000    0.000    0.000 
#
# Total GULP energy -89203.137194 kJ/mol
# GULP energy per Si atom -5575.196075 kJ/mol
# Density = 1.928258 g / cm^3
# Si number density = 19.326567 Si / 1000 Ang^3
#
#
#
# Elastic Constant Matrix: (Units=GPa)
#
#
# Indices 1 2 3 4 5 6 
#
# 1 87.8792 33.9392 29.8963 7.1106 -9.9956 -17.5038
# 2 33.9392 79.5252 10.0924 0.9119 5.1683 -17.6460
# 3 29.8963 10.0924 89.7454 0.3921 -11.8062 -14.4986
# 4 7.1106 0.9119 0.3921 22.0597 -7.1583 -4.4241
# 5 -9.9956 5.1683 -11.8062 -7.1583 15.5983 -1.2235
# 6 -17.5038 -17.6460 -14.4986 -4.4241 -1.2235 15.2627
#
#
#
# Elastic Compliance Matrix: (Units=1/GPa)
#
#
# Indices 1 2 3 4 5 6 
#
# 1 0.018469 -0.005179 -0.000955 0.002476 0.015237 0.016224
# 2 -0.005179 0.018852 0.001719 0.002581 -0.005686 0.017781
# 3 -0.000955 0.001719 0.017070 0.010102 0.018060 0.021483
# 4 0.002476 0.002581 0.010102 0.065173 0.041237 0.037617
# 5 0.015237 -0.005686 0.018060 0.041237 0.112195 0.049004
# 6 0.016224 0.017781 0.021483 0.037617 0.049004 0.139923
#
#
# Mechanical properties :
#
#
# Convention : Reuss Voigt Hill
#
# Bulk Modulus (GPa) = 21.94941 45.00062 33.47502
# Shear Modulus (GPa) = 12.63583 22.79892 17.71738
#
# Velocity S-wave (km/s) = 2.55974 3.43835 3.03105
# Velocity P-wave (km/s) = 4.48532 6.25283 5.44133
#
# Compressibility (1/GPa) = 0.04555932
#
# Stress axis : x y z
#
# Youngs Moduli (GPa) = 54.14536 53.04365 58.58287
#
# Poissons Ratio (x) = 0.27473 0.05596
# Poissons Ratio (y) = 0.28044 -0.10069
# Poissons Ratio (z) = 0.05172 -0.09117
#
# Static dielectric constant tensor:
#      x y z
#    x 1.635280 -0.013590 -0.005960 
#    y -0.013590 1.764410 -0.016410 
#    z -0.005960 -0.016410 1.661250 
# 
# From -- ./inp_files/217336.got.cif
#   From: 2010.05.17/outbox.cif.g08.bks.cpg/sg2_109_cif.got.tgz:217336.got - 2010.06.03 11:33:40.
