data_PCOD9075608
_publ_section_title
;
Structure prediction by ZEFSAII (Michael W. Deem and Ramdas Pophale) SiO2 
 PCOD9075608
Probable space group: P -1
;
_chemical_formula_sum "Si O2"
_cell_formula_units_Z 16
_cell_length_a 18.000000
_cell_length_b 12.000000
_cell_length_c 9.000000
_cell_angle_alpha 120.000000
_cell_angle_beta 150.000000
_cell_angle_gamma 50.000000
_cell_volume 736.400153
_symmetry_space_group_name_H-M "P -1"
_symmetry_group_IT_number 2
_symmetry_cell_setting 'triclinic'
loop_
_space_group_symop_operation_xyz
x,y,z
-x,-y,-z
loop_
_atom_site_type_symbol
_atom_site_label
_atom_site_fract_x
_atom_site_fract_y
_atom_site_fract_z
Si Si1 0.066279 0.514139 0.786511
Si Si2 0.546777 0.360168 0.884202
Si Si3 0.577635 0.970527 0.279152
Si Si4 0.328452 0.626651 0.221798
Si Si5 0.816670 0.072879 0.666505
Si Si6 0.177168 0.940108 0.681093
Si Si7 0.727247 0.808902 0.929431
Si Si8 0.254725 0.302146 0.426465
O O1 0.000000 0.500000 0.500000
O O2 0.914508 0.595258 0.701870
O O3 0.177490 0.594332 0.993173
O O4 0.183092 0.349112 0.941556
O O5 0.632679 0.369763 0.884324
O O6 0.362444 0.366222 0.567519
O O7 0.500000 0.500000 0.000000
O O8 0.682364 0.205321 0.089147
O O9 0.614935 0.816527 0.310277
O O10 0.753666 0.961641 0.538990
O O11 0.469197 0.099418 0.296003
O O12 0.500000 0.000000 0.000000
O O13 0.500000 0.500000 0.500000
O O14 0.295535 0.775299 0.343195
O O15 0.819975 0.095939 0.512029
O O16 0.000000 0.000000 0.000000
O O17 0.000000 0.000000 0.500000
O O18 0.212355 0.077667 0.834513
O O19 0.770198 0.785159 0.812511
#
# Coordination Sequence:
#
# PCOD9075608 Si02
#       8
#     2   2   2   2   2   2   2   2
#     4  12  28  48  75 105 146 195 245 299 360 432
#     4  12  26  49  75 107 149 190 240 300 369 434
#     4  12  23  46  73 104 144 188 240 292 360 430
#     4  12  27  48  74 106 146 191 242 294 364 433
#     4  12  26  45  73 107 145 186 240 300 361 431
#     4  12  29  45  73 108 148 193 236 301 368 429
#     4  12  27  47  73 106 146 190 246 295 358 436
#     4  12  26  45  76 108 142 192 244 300 363 430
#
# _framework density 21.727318
#
# number of rings (size 3 to 8) (size 9 to 14) (size 15 to 20)
#    0.000    0.000    2.500    6.750   10.500    0.000 
#    0.000    0.000    0.000    0.000    0.000    0.000 
#    0.000    0.000    0.000    0.000    0.000    0.000 
#
# Total GULP energy -89377.581446 kJ/mol
# GULP energy per Si atom -5586.098840 kJ/mol
# Density = 2.167787 g / cm^3
# Si number density = 21.727318 Si / 1000 Ang^3
#
#
#
# Elastic Constant Matrix: (Units=GPa)
#
#
# Indices 1 2 3 4 5 6 
#
# 1 191.1731 40.8059 42.4658 -5.1829 4.6241 -16.0182
# 2 40.8059 87.5330 11.7592 -8.7572 -0.9837 -6.2435
# 3 42.4658 11.7592 71.3044 0.1801 11.6107 0.4608
# 4 -5.1829 -8.7572 0.1801 33.0160 -2.0379 -0.3491
# 5 4.6241 -0.9837 11.6107 -2.0379 52.4096 0.5425
# 6 -16.0182 -6.2435 0.4608 -0.3491 0.5425 53.9163
#
#
#
# Elastic Compliance Matrix: (Units=1/GPa)
#
#
# Indices 1 2 3 4 5 6 
#
# 1 0.006720 -0.002474 -0.003633 0.000447 0.000165 0.001742
# 2 -0.002474 0.013067 -0.000818 0.003137 0.000759 0.000798
# 3 -0.003633 -0.000818 0.016899 -0.001107 -0.003468 -0.001291
# 4 0.000447 0.003137 -0.001107 0.031295 0.001474 0.000693
# 5 0.000165 0.000759 -0.003468 0.001474 0.019906 -0.000024
# 6 0.001742 0.000798 -0.001291 0.000693 -0.000024 0.019173
#
#
# Mechanical properties :
#
#
# Convention : Reuss Voigt Hill
#
# Bulk Modulus (GPa) = 43.79245 60.00802 51.90024
# Shear Modulus (GPa) = 38.90358 44.86701 41.88530
#
# Velocity S-wave (km/s) = 4.23606 4.54916 4.39540
# Velocity P-wave (km/s) = 6.64266 7.43450 7.04971
#
# Compressibility (1/GPa) = 0.02283499
#
# Stress axis : x y z
#
# Youngs Moduli (GPa) = 148.80662 76.53043 59.17456
#
# Poissons Ratio (x) = 0.18932 0.21501
# Poissons Ratio (y) = 0.36811 0.04842
# Poissons Ratio (z) = 0.54069 0.06262
#
# Static dielectric constant tensor:
#      x y z
#    x 1.983850 0.031770 0.025260 
#    y 0.031770 1.806700 0.061550 
#    z 0.025260 0.061550 1.879880 
# 
# From -- ./inp_files/333653.got.cif
#   From: 2010.05.17/outbox.ucp.g08.bks.cvg/sg2_167_cif.got.tgz:333653.got - 2010.06.11 11:32:03.
