data_PCOD9075702
_publ_section_title
;
Structure prediction by ZEFSAII (Michael W. Deem and Ramdas Pophale) SiO2 
 PCOD9075702
Probable space group: P -1
;
_chemical_formula_sum "Si O2"
_cell_formula_units_Z 16
_cell_length_a 14.175075
_cell_length_b 9.368227
_cell_length_c 14.785291
_cell_angle_alpha 98.304630
_cell_angle_beta 153.088339
_cell_angle_gamma 85.909899
_cell_volume 872.086547
_symmetry_space_group_name_H-M "P -1"
_symmetry_group_IT_number 2
_symmetry_cell_setting 'triclinic'
loop_
_space_group_symop_operation_xyz
x,y,z
-x,-y,-z
loop_
_atom_site_type_symbol
_atom_site_label
_atom_site_fract_x
_atom_site_fract_y
_atom_site_fract_z
Si Si1 0.278290 0.113008 0.491077
Si Si2 0.249370 0.974050 0.780980
Si Si3 0.050823 0.302841 0.449060
Si Si4 0.729750 0.137739 0.397668
Si Si5 0.666815 0.077947 0.721610
Si Si6 0.965174 0.915200 0.085030
Si Si7 0.908960 0.606106 0.305600
Si Si8 0.275125 0.219934 0.965564
O O1 0.202944 0.230195 0.505321
O O2 0.489291 0.836834 0.345222
O O3 0.098028 0.059299 0.257810
O O4 0.293840 0.961754 0.543608
O O5 0.202031 0.968213 0.633407
O O6 0.149824 0.818413 0.718239
O O7 0.186884 0.096042 0.805657
O O8 0.500000 0.000000 0.000000
O O9 0.971941 0.446178 0.353867
O O10 0.142181 0.343350 0.631475
O O11 0.890315 0.284490 0.547495
O O12 0.506361 0.187693 0.185828
O O13 0.865291 0.150776 0.839543
O O14 0.500000 0.000000 0.500000
O O15 0.778269 0.968451 0.870844
O O16 0.867039 0.808033 0.069688
O O17 0.733733 0.632206 0.084238
#
# Coordination Sequence:
#
# PCOD9075702 Si02
#       8
#     2   2   2   2   2   2   2   2
#     4  11  18  32  56  81 106 136 181 224 267 313
#     4   9  18  31  50  79 106 136 182 224 258 308
#     4  10  20  35  53  75 114 154 179 220 261 309
#     4  10  19  31  51  80 106 140 181 219 264 312
#     4   9  20  33  51  85 110 129 164 230 283 326
#     4  10  18  32  54  83 108 132 172 224 281 318
#     4  10  21  36  49  75 117 152 183 213 256 313
#     4  11  18  32  55  78 104 143 181 222 267 316
#
# _framework density 18.346802
#
# number of rings (size 3 to 8) (size 9 to 14) (size 15 to 20)
#    0.000    2.000    3.750    0.750    0.000    2.000 
#    0.000   13.750    0.000    0.750    0.000    5.250 
#    0.000    0.000    0.000    0.000    0.000    0.000 
#
# Total GULP energy -89144.468167 kJ/mol
# GULP energy per Si atom -5571.529260 kJ/mol
# Density = 1.830504 g / cm^3
# Si number density = 18.346802 Si / 1000 Ang^3
#
#
#
# Elastic Constant Matrix: (Units=GPa)
#
#
# Indices 1 2 3 4 5 6 
#
# 1 131.9748 36.1866 34.0958 -14.1907 19.4704 0.2958
# 2 36.1866 69.2445 22.8182 -19.4484 1.4328 -0.9863
# 3 34.0958 22.8182 104.6741 -23.6984 1.3750 -1.1104
# 4 -14.1907 -19.4484 -23.6984 22.5107 6.9668 -3.5270
# 5 19.4704 1.4328 1.3750 6.9668 27.5414 -7.1154
# 6 0.2958 -0.9863 -1.1104 -3.5270 -7.1154 16.0115
#
#
#
# Elastic Compliance Matrix: (Units=1/GPa)
#
#
# Indices 1 2 3 4 5 6 
#
# 1 0.010920 -0.003858 -0.001711 0.004072 -0.009462 -0.003866
# 2 -0.003858 0.021410 0.000778 0.018175 -0.001825 0.004637
# 3 -0.001711 0.000778 0.013394 0.014956 -0.002453 0.003213
# 4 0.004072 0.018175 0.014956 0.087528 -0.023942 0.010723
# 5 -0.009462 -0.001825 -0.002453 -0.023942 0.054092 0.018657
# 6 -0.003866 0.004637 0.003213 0.010723 0.018657 0.073688
#
#
# Mechanical properties :
#
#
# Convention : Reuss Voigt Hill
#
# Bulk Modulus (GPa) = 27.66950 54.67717 41.17334
# Shear Modulus (GPa) = 17.68902 27.39892 22.54397
#
# Velocity S-wave (km/s) = 3.10844 3.86863 3.50918
# Velocity P-wave (km/s) = 5.29125 7.05846 6.23775
#
# Compressibility (1/GPa) = 0.03614087
#
# Stress axis : x y z
#
# Youngs Moduli (GPa) = 91.57852 46.70645 74.66260
#
# Poissons Ratio (x) = 0.18021 0.12771
# Poissons Ratio (y) = 0.35334 -0.05806
# Poissons Ratio (z) = 0.15665 -0.03632
#
# Static dielectric constant tensor:
#      x y z
#    x 1.695590 0.000640 0.001100 
#    y 0.000640 1.601450 -0.018070 
#    z 0.001100 -0.018070 1.704450 
# 
# From -- ./inp_files/407266.got.cif
#   From: 2010.05.17/outbox.cif.g08.bks.cpg/sg2_204_cif.got.tgz:407266.got - 2010.06.03 11:33:40.
