data_PCOD9075535
_publ_section_title
;
Structure prediction by ZEFSAII (Michael W. Deem and Ramdas Pophale) SiO2 
 PCOD9075535
Probable space group: P -1
;
_chemical_formula_sum "Si O2"
_cell_formula_units_Z 16
_cell_length_a 9.383112
_cell_length_b 11.543014
_cell_length_c 13.648142
_cell_angle_alpha 74.059154
_cell_angle_beta 143.364521
_cell_angle_gamma 123.558267
_cell_volume 691.344601
_symmetry_space_group_name_H-M "P -1"
_symmetry_group_IT_number 2
_symmetry_cell_setting 'triclinic'
loop_
_space_group_symop_operation_xyz
x,y,z
-x,-y,-z
loop_
_atom_site_type_symbol
_atom_site_label
_atom_site_fract_x
_atom_site_fract_y
_atom_site_fract_z
Si Si1 0.142447 0.506430 0.976720
Si Si2 0.753046 0.857112 0.087360
Si Si3 0.160649 0.338854 0.455500
Si Si4 0.758471 0.823244 0.739540
Si Si5 0.686681 0.578981 0.183972
Si Si6 0.689456 0.325161 0.295437
Si Si7 0.367114 0.646490 0.390287
Si Si8 0.762545 0.189838 0.094341
O O1 0.920430 0.378151 0.808139
O O2 0.215454 0.657677 0.936455
O O3 0.000000 0.500000 0.000000
O O4 0.439506 0.520923 0.144781
O O5 0.821894 0.749972 0.202721
O O6 0.529351 0.768787 0.894570
O O7 0.591515 0.912465 0.055495
O O8 0.050815 0.002064 0.179511
O O9 0.275077 0.497927 0.433073
O O10 0.443603 0.337940 0.604244
O O11 0.958912 0.309685 0.443691
O O12 0.935450 0.211659 0.284259
O O13 0.521305 0.733814 0.714080
O O14 0.569229 0.776833 0.546249
O O15 0.016494 0.797285 0.870665
O O16 0.837302 0.497760 0.311694
O O17 0.500000 0.500000 0.000000
#
# Coordination Sequence:
#
# PCOD9075535 Si02
#       8
#     2   2   2   2   2   2   2   2
#     4  10  18  32  54  78 100 131 178 221 252 299
#     4   9  18  32  49  74 109 143 174 207 255 313
#     4   8  16  32  50  72 104 133 166 216 258 300
#     4  11  19  29  50  80 109 135 167 218 266 305
#     4   9  18  33  54  75 102 139 176 212 251 304
#     4  10  19  32  53  80 105 135 178 218 252 297
#     4   9  18  32  50  76 106 135 170 214 266 307
#     4   8  16  30  49  72  99 137 177 208 250 305
#
# _framework density 23.143307
#
# number of rings (size 3 to 8) (size 9 to 14) (size 15 to 20)
#    0.000    2.750    0.000    4.500    0.000    0.500 
#    0.000    1.250    0.000    9.750    0.000    7.000 
#    0.000    1.000    0.000    0.000    0.000    0.000 
#
# Total GULP energy -89131.863086 kJ/mol
# GULP energy per Si atom -5570.741443 kJ/mol
# Density = 2.309063 g / cm^3
# Si number density = 23.143307 Si / 1000 Ang^3
#
#
#
# Elastic Constant Matrix: (Units=GPa)
#
#
# Indices 1 2 3 4 5 6 
#
# 1 160.0317 33.0377 22.9436 0.8964 24.9115 4.5298
# 2 33.0377 28.4890 12.4246 0.8520 19.3215 11.2617
# 3 22.9436 12.4246 70.4388 10.8736 13.0316 4.4341
# 4 0.8964 0.8520 10.8736 23.2079 -4.2265 6.6771
# 5 24.9115 19.3215 13.0316 -4.2265 39.8782 3.1230
# 6 4.5298 11.2617 4.4341 6.6771 3.1230 20.0119
#
#
#
# Elastic Compliance Matrix: (Units=1/GPa)
#
#
# Indices 1 2 3 4 5 6 
#
# 1 0.008638 -0.011622 -0.000952 -0.000918 0.000050 0.005094
# 2 -0.011622 0.087430 -0.004420 0.006310 -0.029615 -0.043075
# 3 -0.000952 -0.004420 0.017343 -0.009445 -0.004141 0.002658
# 4 -0.000918 0.006310 -0.009445 0.054758 0.008033 -0.020774
# 5 0.000050 -0.029615 -0.004141 0.008033 0.040932 0.008504
# 6 0.005094 -0.043075 0.002658 -0.020774 0.008504 0.078073
#
#
# Mechanical properties :
#
#
# Convention : Reuss Voigt Hill
#
# Bulk Modulus (GPa) = 12.59066 43.97459 28.28262
# Shear Modulus (GPa) = 14.38286 29.32317 21.85302
#
# Velocity S-wave (km/s) = 2.49563 3.56339 3.07620
# Velocity P-wave (km/s) = 3.70896 5.99772 4.98643
#
# Compressibility (1/GPa) = 0.07942395
#
# Stress axis : x y z
#
# Youngs Moduli (GPa) = 115.77191 11.43771 57.65947
#
# Poissons Ratio (x) = 0.13293 0.05488
# Poissons Ratio (y) = 1.34549 0.25484
# Poissons Ratio (z) = 0.11019 0.05055
#
# Static dielectric constant tensor:
#      x y z
#    x 1.979880 -0.006630 0.036230 
#    y -0.006630 1.970920 0.050010 
#    z 0.036230 0.050010 1.917620 
# 
# From -- ./inp_files/404785.got.cif
#   From: 2010.05.17/outbox.cif.g08.bks.cpg/sg2_203_cif.got.tgz:404785.got - 2010.06.03 11:33:40.
