data_PCOD9075307
_publ_section_title
;
Structure prediction by ZEFSAII (Michael W. Deem and Ramdas Pophale) SiO2 
 PCOD9075307
Probable space group: P -1
;
_chemical_formula_sum "Si O2"
_cell_formula_units_Z 16
_cell_length_a 18.000000
_cell_length_b 12.000000
_cell_length_c 9.000000
_cell_angle_alpha 100.000000
_cell_angle_beta 140.000000
_cell_angle_gamma 50.000000
_cell_volume 729.599496
_symmetry_space_group_name_H-M "P -1"
_symmetry_group_IT_number 2
_symmetry_cell_setting 'triclinic'
loop_
_space_group_symop_operation_xyz
x,y,z
-x,-y,-z
loop_
_atom_site_type_symbol
_atom_site_label
_atom_site_fract_x
_atom_site_fract_y
_atom_site_fract_z
Si Si1 0.720392 0.031669 0.229174
Si Si2 0.032509 0.995243 0.222831
Si Si3 0.178053 0.304402 0.133911
Si Si4 0.402286 0.344807 0.019899
Si Si5 0.967763 0.643872 0.400448
Si Si6 0.598414 0.420299 0.293620
Si Si7 0.319076 0.804084 0.094910
Si Si8 0.537608 0.116910 0.462344
O O1 0.796561 0.848416 0.264734
O O2 0.846709 0.987767 0.544935
O O3 0.498469 0.218699 0.987838
O O4 0.748719 0.084159 0.136362
O O5 0.174000 0.778263 0.430348
O O6 0.000000 0.000000 0.000000
O O7 0.843307 0.148408 0.071978
O O8 0.355721 0.239689 0.324395
O O9 0.307159 0.106994 0.368407
O O10 0.000000 0.500000 0.000000
O O11 0.084414 0.329185 0.845321
O O12 0.513305 0.374341 0.228360
O O13 0.448563 0.222463 0.194250
O O14 0.173702 0.545487 0.703498
O O15 0.000000 0.500000 0.500000
O O16 0.520761 0.583655 0.310678
O O17 0.500000 0.500000 0.000000
O O18 0.346936 0.873725 0.280892
#
# Coordination Sequence:
#
# PCOD9075307 Si02
#       8
#     2   2   2   2   2   2   2   2
#     4  11  25  43  70 102 136 180 224 280 343 402
#     4  11  25  44  67 104 139 177 224 278 340 405
#     4  11  27  48  69  97 138 179 233 286 346 405
#     4  11  25  43  70 101 140 173 229 282 342 405
#     4  12  26  46  71 105 130 180 234 284 340 407
#     4  11  24  42  68 103 135 177 227 275 338 409
#     4  12  23  42  72  95 138 180 225 281 336 406
#     4  11  26  46  67 101 136 180 228 285 346 404
#
# _framework density 21.929839999999999
#
# number of rings (size 3 to 8) (size 9 to 14) (size 15 to 20)
#    0.000    0.750    5.000    2.625    5.250    4.500 
#    0.000    0.000    0.000    0.000    0.000    0.000 
#    0.000    0.000    0.000    0.000    0.000    0.000 
#
# Total GULP energy -89382.213048 kJ/mol
# GULP energy per Si atom -5586.388315 kJ/mol
# Density = 2.187993 g / cm^3
# Si number density = 21.929840 Si / 1000 Ang^3
#
#
#
# Elastic Constant Matrix: (Units=GPa)
#
#
# Indices 1 2 3 4 5 6 
#
# 1 42.2333 14.6582 -0.6572 -11.2981 -8.3025 -3.3275
# 2 14.6582 105.0797 -1.8007 -21.4862 -2.1073 -10.3242
# 3 -0.6572 -1.8007 62.7586 -3.3599 -14.7798 -0.9585
# 4 -11.2981 -21.4862 -3.3599 30.7739 -3.8569 4.1011
# 5 -8.3025 -2.1073 -14.7798 -3.8569 39.9755 -3.4038
# 6 -3.3275 -10.3242 -0.9585 4.1011 -3.4038 30.0627
#
#
#
# Elastic Compliance Matrix: (Units=1/GPa)
#
#
# Indices 1 2 3 4 5 6 
#
# 1 0.028839 -0.001416 0.002787 0.010624 0.008164 0.002270
# 2 -0.001416 0.011606 0.001177 0.007525 0.001737 0.003037
# 3 0.002787 0.001177 0.018133 0.004610 0.007923 0.001559
# 4 0.010624 0.007525 0.004610 0.043346 0.008400 -0.001055
# 5 0.008164 0.001737 0.007923 0.008400 0.030892 0.004105
# 6 0.002270 0.003037 0.001559 -0.001055 0.004105 0.035216
#
#
# Mechanical properties :
#
#
# Convention : Reuss Voigt Hill
#
# Bulk Modulus (GPa) = 15.70499 26.05246 20.87872
# Shear Modulus (GPa) = 27.15017 33.35385 30.25201
#
# Velocity S-wave (km/s) = 3.52241 3.90415 3.71818
# Velocity P-wave (km/s) = 4.87033 5.67705 5.28909
#
# Compressibility (1/GPa) = 0.06367404
#
# Stress axis : x y z
#
# Youngs Moduli (GPa) = 34.67573 86.16113 55.14668
#
# Poissons Ratio (x) = 0.12201 -0.15371
# Poissons Ratio (y) = 0.04910 -0.06488
# Poissons Ratio (z) = -0.09665 -0.10138
#
# Static dielectric constant tensor:
#      x y z
#    x 1.855530 0.057090 0.062420 
#    y 0.057090 1.799190 0.010550 
#    z 0.062420 0.010550 1.910930 
# 
# From -- ./inp_files/187249.got.cif
#   From: 2010.05.17/outbox.ucp.g08.bks.cvg/sg2_94_cif.got.tgz:187249.got - 2010.06.11 11:32:03.
