data_PCOD9075341
_publ_section_title
;
Structure prediction by ZEFSAII (Michael W. Deem and Ramdas Pophale) SiO2 
 PCOD9075341
Probable space group: P -1
;
_chemical_formula_sum "Si O2"
_cell_formula_units_Z 14
_cell_length_a 13.662558
_cell_length_b 20.031073
_cell_length_c 5.572121
_cell_angle_alpha 46.362877
_cell_angle_beta 118.711283
_cell_angle_gamma 148.922186
_cell_volume 544.146679
_symmetry_space_group_name_H-M "P -1"
_symmetry_group_IT_number 2
_symmetry_cell_setting 'triclinic'
loop_
_space_group_symop_operation_xyz
x,y,z
-x,-y,-z
loop_
_atom_site_type_symbol
_atom_site_label
_atom_site_fract_x
_atom_site_fract_y
_atom_site_fract_z
Si Si1 0.953027 0.069671 0.163719
Si Si2 0.999081 0.387604 0.282115
Si Si3 0.488009 0.184119 0.743295
Si Si4 0.278404 0.334098 0.232460
Si Si5 0.285104 0.146899 0.962624
Si Si6 0.151015 0.692605 0.196257
Si Si7 0.631408 0.433952 0.954756
O O1 0.123718 0.244523 0.057812
O O2 0.737534 0.961409 0.264506
O O3 0.925278 0.041866 0.907816
O O4 0.000000 0.000000 0.500000
O O5 0.895027 0.289155 0.651972
O O6 0.223262 0.507016 0.221721
O O7 0.894001 0.287011 0.157821
O O8 0.000000 0.500000 0.000000
O O9 0.436262 0.170484 0.993106
O O10 0.622431 0.188048 0.844606
O O11 0.620446 0.356980 0.357931
O O12 0.281177 0.230309 0.572169
O O13 0.270932 0.403485 0.261833
O O14 0.500000 0.500000 0.000000
O O15 0.400056 0.274429 0.998689
O O16 0.000000 0.500000 0.500000
#
# Coordination Sequence:
#
# PCOD9075341 Si02
#       7
#     2   2   2   2   2   2   2
#     4   8  18  37  55  76 116 151 185 230 288 356
#     4  10  20  31  54  85 120 141 200 246 291 334
#     4  10  19  33  60  79 115 148 190 237 289 341
#     4  11  20  37  56  81 118 147 186 242 294 345
#     4   9  20  35  54  82 109 149 188 227 280 358
#     4  10  18  32  53  88 112 150 194 252 280 342
#     4  12  20  32  59  86 108 150 191 245 289 337
#
# _framework density 25.728356000000002
#
# number of rings (size 3 to 8) (size 9 to 14) (size 15 to 20)
#    0.857    1.143    4.286    2.143    0.000    0.000 
#    0.000    7.857    0.000    1.714    0.000    0.000 
#    0.000    0.000    0.000    0.000    0.000    0.000 
#
# Total GULP energy -77977.517312 kJ/mol
# GULP energy per Si atom -5569.822665 kJ/mol
# Density = 2.566980 g / cm^3
# Si number density = 25.728356 Si / 1000 Ang^3
#
#
#
# Elastic Constant Matrix: (Units=GPa)
#
#
# Indices 1 2 3 4 5 6 
#
# 1 107.9116 54.0309 18.8607 -0.0290 -25.7418 18.8246
# 2 54.0309 200.9230 25.8311 13.8630 -9.1814 13.2095
# 3 18.8607 25.8311 41.1090 7.9668 -17.0909 -4.1169
# 4 -0.0290 13.8630 7.9668 37.5014 -4.8560 -6.5473
# 5 -25.7418 -9.1814 -17.0909 -4.8560 33.3296 -0.7732
# 6 18.8246 13.2095 -4.1169 -6.5473 -0.7732 42.0384
#
#
#
# Elastic Compliance Matrix: (Units=1/GPa)
#
#
# Indices 1 2 3 4 5 6 
#
# 1 0.014177 -0.002965 -0.001559 0.001771 0.009472 -0.005119
# 2 -0.002965 0.006339 -0.003442 -0.002202 -0.002662 -0.001393
# 3 -0.001559 -0.003442 0.034679 -0.003254 0.015271 0.004950
# 4 0.001771 -0.002202 -0.003254 0.029358 0.003467 0.004216
# 5 0.009472 -0.002662 0.015271 0.003467 0.044909 -0.000544
# 6 -0.005119 -0.001393 0.004950 0.004216 -0.000544 0.027649
#
#
# Mechanical properties :
#
#
# Convention : Reuss Voigt Hill
#
# Bulk Modulus (GPa) = 25.46955 60.82099 43.14527
# Shear Modulus (GPa) = 26.86282 39.32194 33.09238
#
# Velocity S-wave (km/s) = 3.23475 3.91365 3.59028
# Velocity P-wave (km/s) = 4.88594 6.64178 5.83033
#
# Compressibility (1/GPa) = 0.03926257
#
# Stress axis : x y z
#
# Youngs Moduli (GPa) = 70.53734 157.76093 28.83576
#
# Poissons Ratio (x) = 0.46771 0.04496
# Poissons Ratio (y) = 0.20912 0.09926
# Poissons Ratio (z) = 0.10999 0.54304
#
# Static dielectric constant tensor:
#      x y z
#    x 2.200000 -0.175790 -0.078360 
#    y -0.175790 2.230930 0.117920 
#    z -0.078360 0.117920 2.029940 
# 
# From -- ./inp_files/100167.got.cif
#   From: 2010.05.17/outbox.cif.g08.bks.cpg/sg2_51_cif.got.tgz:100167.got - 2010.06.03 11:33:40.
