data_PCOD9075949
_publ_section_title
;
Structure prediction by ZEFSAII (Michael W. Deem and Ramdas Pophale) SiO2 
 PCOD9075949
Probable space group: P -1
;
_chemical_formula_sum "Si O2"
_cell_formula_units_Z 16
_cell_length_a 7.763627
_cell_length_b 11.316793
_cell_length_c 7.157241
_cell_angle_alpha 100.841070
_cell_angle_beta 76.089500
_cell_angle_gamma 84.791293
_cell_volume 593.363324
_symmetry_space_group_name_H-M "P -1"
_symmetry_group_IT_number 2
_symmetry_cell_setting 'triclinic'
loop_
_space_group_symop_operation_xyz
x,y,z
-x,-y,-z
loop_
_atom_site_type_symbol
_atom_site_label
_atom_site_fract_x
_atom_site_fract_y
_atom_site_fract_z
Si Si1 0.135313 0.094802 0.290025
Si Si2 0.946601 0.883297 0.240351
Si Si3 0.436078 0.795875 0.187367
Si Si4 0.816540 0.655015 0.111505
Si Si5 0.249065 0.762246 0.596010
Si Si6 0.819764 0.505273 0.422700
Si Si7 0.357889 0.303685 0.204936
Si Si8 0.421734 0.978082 0.720145
O O1 0.951014 0.173744 0.290724
O O2 0.118211 0.100376 0.522336
O O3 0.289170 0.174025 0.220897
O O4 0.109996 0.958570 0.196206
O O5 0.963300 0.743944 0.137210
O O6 0.780020 0.952119 0.187500
O O7 0.621782 0.737675 0.228649
O O8 0.283340 0.781532 0.370635
O O9 0.459905 0.935200 0.175363
O O10 0.458607 0.717531 0.969141
O O11 0.847058 0.546281 0.215905
O O12 0.783733 0.631568 0.896602
O O13 0.254226 0.621837 0.590125
O O14 0.388656 0.838260 0.683527
O O15 0.675567 0.609927 0.584769
O O16 0.000000 0.500000 0.500000
O O17 0.500000 0.000000 0.500000
#
# Coordination Sequence:
#
# PCOD9075949 Si02
#       8
#     2   2   2   2   2   2   2   2
#     4  10  18  32  57  88 108 149 187 233 290 332
#     4   9  16  31  57  83 111 145 186 234 280 341
#     4   8  19  37  58  85 108 147 191 238 278 339
#     4   9  20  37  55  84 111 152 188 234 284 329
#     4  10  19  34  59  81 115 154 185 230 289 334
#     4  12  22  37  58  83 119 153 189 233 282 340
#     4  10  21  37  56  87 112 148 193 231 283 335
#     4   8  15  32  57  82 108 145 185 229 285 333
#
# _framework density 26.964929000000001
#
# number of rings (size 3 to 8) (size 9 to 14) (size 15 to 20)
#    0.750    1.750    2.500    0.000    0.000    2.000 
#    0.000    0.000    0.000   13.500    0.000    0.000 
#    0.000    0.000    0.000    0.000    0.000    0.000 
#
# Total GULP energy -89478.683977 kJ/mol
# GULP energy per Si atom -5592.417749 kJ/mol
# Density = 2.690356 g / cm^3
# Si number density = 26.964929 Si / 1000 Ang^3
#
#
#
# Elastic Constant Matrix: (Units=GPa)
#
#
# Indices 1 2 3 4 5 6 
#
# 1 110.4157 22.8161 4.3507 -10.5958 -11.8960 25.8495
# 2 22.8161 199.6834 42.5597 -21.2104 -3.3955 13.6633
# 3 4.3507 42.5597 108.4307 -17.6674 3.4794 9.1658
# 4 -10.5958 -21.2104 -17.6674 45.1564 -8.5550 5.1074
# 5 -11.8960 -3.3955 3.4794 -8.5550 33.0309 -6.7383
# 6 25.8495 13.6633 9.1658 5.1074 -6.7383 29.8202
#
#
#
# Elastic Compliance Matrix: (Units=1/GPa)
#
#
# Indices 1 2 3 4 5 6 
#
# 1 0.012587 -0.000333 0.001324 0.005239 0.003413 -0.011292
# 2 -0.000333 0.005824 -0.001740 0.002372 0.000856 -0.002057
# 3 0.001324 -0.001740 0.010940 0.004158 -0.000713 -0.004587
# 4 0.005239 0.002372 0.004158 0.028600 0.007015 -0.010219
# 5 0.003413 0.000856 -0.000713 0.007015 0.034175 0.003389
# 6 -0.011292 -0.002057 -0.004587 -0.010219 0.003389 0.048191
#
#
# Mechanical properties :
#
#
# Convention : Reuss Voigt Hill
#
# Bulk Modulus (GPa) = 35.90120 61.99807 48.94963
# Shear Modulus (GPa) = 33.09059 44.85507 38.97283
#
# Velocity S-wave (km/s) = 3.50690 4.08298 3.80585
# Velocity P-wave (km/s) = 5.45351 6.72827 6.12415
#
# Compressibility (1/GPa) = 0.02785422
#
# Stress axis : x y z
#
# Youngs Moduli (GPa) = 79.44500 171.70070 91.40560
#
# Poissons Ratio (x) = 0.05724 -0.12106
# Poissons Ratio (y) = 0.02649 0.15902
# Poissons Ratio (z) = -0.10522 0.29871
#
# Static dielectric constant tensor:
#      x y z
#    x 2.226660 -0.108890 0.045180 
#    y -0.108890 2.071440 -0.004490 
#    z 0.045180 -0.004490 2.119290 
# 
# From -- ./inp_files/254005.got.cif
#   From: 2010.05.17/outbox.cif.g08.bks.cpg/sg2_128_cif.got.tgz:254005.got - 2010.06.03 11:33:40.
