data_PCOD9075759
_publ_section_title
;
Structure prediction by ZEFSAII (Michael W. Deem and Ramdas Pophale) SiO2 
 PCOD9075759
Probable space group: P -1
;
_chemical_formula_sum "Si O2"
_cell_formula_units_Z 16
_cell_length_a 10.876911
_cell_length_b 8.288317
_cell_length_c 12.930890
_cell_angle_alpha 64.214181
_cell_angle_beta 60.260435
_cell_angle_gamma 57.760931
_cell_volume 832.786921
_symmetry_space_group_name_H-M "P -1"
_symmetry_group_IT_number 2
_symmetry_cell_setting 'triclinic'
loop_
_space_group_symop_operation_xyz
x,y,z
-x,-y,-z
loop_
_atom_site_type_symbol
_atom_site_label
_atom_site_fract_x
_atom_site_fract_y
_atom_site_fract_z
Si Si1 0.124357 0.565762 0.486457
Si Si2 0.699250 0.542954 0.866953
Si Si3 0.683811 0.872285 0.455005
Si Si4 0.839489 0.088136 0.932300
Si Si5 0.432739 0.482285 0.863545
Si Si6 0.200560 0.910575 0.822615
Si Si7 0.830887 0.832236 0.629602
Si Si8 0.711899 0.181244 0.742529
O O1 0.261569 0.361780 0.520098
O O2 0.194091 0.681439 0.350980
O O3 0.000000 0.500000 0.500000
O O4 0.017201 0.720950 0.572066
O O5 0.816799 0.315109 0.888859
O O6 0.557297 0.543166 0.856243
O O7 0.771896 0.677080 0.746690
O O8 0.638299 0.603753 0.991932
O O9 0.757377 0.888665 0.530408
O O10 0.500000 0.000000 0.500000
O O11 0.756573 0.956054 0.311418
O O12 0.750776 0.082670 0.866861
O O13 0.773925 0.048191 0.078963
O O14 0.019644 0.955254 0.880950
O O15 0.304380 0.683438 0.819342
O O16 0.530917 0.324597 0.782299
O O17 0.768979 0.020752 0.675149
#
# Coordination Sequence:
#
# PCOD9075759 Si02
#       8
#     2   2   2   2   2   2   2   2
#     4  10  20  36  57  77 104 143 184 218 250 312
#     4   9  17  34  55  79 100 138 185 216 255 304
#     4  11  21  35  56  79 106 139 178 217 258 318
#     4   9  18  33  58  78 101 134 177 225 256 310
#     4   9  18  33  56  76 106 138 175 222 256 315
#     4  10  18  32  55  81 101 133 180 218 259 303
#     4  11  22  35  56  80 109 140 176 222 265 314
#     4  11  21  36  54  81 109 138 177 221 273 307
#
# _framework density 19.212598
#
# number of rings (size 3 to 8) (size 9 to 14) (size 15 to 20)
#    0.000    2.000    0.000    7.875    0.000    0.500 
#    0.000    3.750    0.000   12.000    0.000    0.000 
#    0.000    0.000    0.000    0.000    0.000    0.000 
#
# Total GULP energy -89263.712952 kJ/mol
# GULP energy per Si atom -5578.982060 kJ/mol
# Density = 1.916887 g / cm^3
# Si number density = 19.212598 Si / 1000 Ang^3
#
#
#
# Elastic Constant Matrix: (Units=GPa)
#
#
# Indices 1 2 3 4 5 6 
#
# 1 21.8138 28.5878 13.1918 2.8256 5.5279 -12.3188
# 2 28.5878 133.3143 28.4218 33.1907 13.4977 -22.1926
# 3 13.1918 28.4218 118.6968 8.9823 1.8582 13.2908
# 4 2.8256 33.1907 8.9823 36.1459 -3.3488 -4.1636
# 5 5.5279 13.4977 1.8582 -3.3488 17.4315 4.6695
# 6 -12.3188 -22.1926 13.2908 -4.1636 4.6695 29.5228
#
#
#
# Elastic Compliance Matrix: (Units=1/GPa)
#
#
# Indices 1 2 3 4 5 6 
#
# 1 0.102193 -0.008067 -0.014843 0.005433 -0.036892 0.049861
# 2 -0.008067 0.016973 -0.003094 -0.014371 -0.016041 0.011296
# 3 -0.014843 -0.003094 0.012412 0.000036 0.009987 -0.015681
# 4 0.005433 -0.014371 0.000036 0.041524 0.018901 -0.005685
# 5 -0.036892 -0.016041 0.009987 0.018901 0.095964 -0.044461
# 6 0.049861 0.011296 -0.015681 -0.005685 -0.044461 0.076458
#
#
# Mechanical properties :
#
#
# Convention : Reuss Voigt Hill
#
# Bulk Modulus (GPa) = 12.56729 46.02530 29.29630
# Shear Modulus (GPa) = 11.79091 30.19495 20.99293
#
# Velocity S-wave (km/s) = 2.48000 3.96867 3.30913
# Velocity P-wave (km/s) = 3.84134 6.70882 5.46645
#
# Compressibility (1/GPa) = 0.07957163
#
# Stress axis : x y z
#
# Youngs Moduli (GPa) = 9.78537 58.91742 80.56694
#
# Poissons Ratio (x) = 0.47528 1.19582
# Poissons Ratio (y) = 0.07894 0.24926
# Poissons Ratio (z) = 0.14524 0.18228
#
# Static dielectric constant tensor:
#      x y z
#    x 1.672000 -0.014380 0.003980 
#    y -0.014380 1.712690 0.024100 
#    z 0.003980 0.024100 1.691420 
# 
# From -- ./inp_files/251601.got.cif
#   From: 2010.05.17/outbox.cif.g08.bks.cpg/sg2_126_cif.got.tgz:251601.got - 2010.06.03 11:33:40.
