data_PCOD9075003
_publ_section_title
;
Structure prediction by ZEFSAII (Michael W. Deem and Ramdas Pophale) SiO2 
 PCOD9075003
Probable space group: P -1
;
_chemical_formula_sum "Si O2"
_cell_formula_units_Z 16
_cell_length_a 9.000000
_cell_length_b 15.000000
_cell_length_c 9.000000
_cell_angle_alpha 70.000000
_cell_angle_beta 50.000000
_cell_angle_gamma 100.000000
_cell_volume 732.374747
_symmetry_space_group_name_H-M "P -1"
_symmetry_group_IT_number 2
_symmetry_cell_setting 'triclinic'
loop_
_space_group_symop_operation_xyz
x,y,z
-x,-y,-z
loop_
_atom_site_type_symbol
_atom_site_label
_atom_site_fract_x
_atom_site_fract_y
_atom_site_fract_z
Si Si1 0.706337 0.628716 0.291770
Si Si2 0.248657 0.210445 0.023219
Si Si3 0.273159 0.962824 0.501043
Si Si4 0.731440 0.004193 0.846166
Si Si5 0.040898 0.618682 0.855274
Si Si6 0.484118 0.154235 0.494963
Si Si7 0.280435 0.371681 0.172652
Si Si8 0.880400 0.787421 0.346865
O O1 0.500000 0.500000 0.500000
O O2 0.865088 0.699522 0.287096
O O3 0.609185 0.700523 0.248426
O O4 0.873658 0.633249 0.059005
O O5 0.312223 0.118229 0.039437
O O6 0.309074 0.293246 0.078504
O O7 0.969321 0.131764 0.210181
O O8 0.449382 0.921487 0.410784
O O9 0.178310 0.960488 0.400468
O O10 0.411988 0.085382 0.421601
O O11 0.893139 0.098851 0.806835
O O12 0.500000 0.000000 0.000000
O O13 0.294404 0.720419 0.685391
O O14 0.934199 0.621301 0.760446
O O15 0.000000 0.500000 0.000000
O O16 0.268580 0.165150 0.648258
O O17 0.222847 0.295134 0.398198
O O18 0.500000 0.500000 0.000000
#
# Coordination Sequence:
#
# PCOD9075003 Si02
#       8
#     2   2   2   2   2   2   2   2
#     4  11  25  44  66 100 140 175 226 286 348 399
#     4  11  22  47  70  94 139 186 228 277 344 418
#     4  11  22  43  68  98 133 175 232 275 334 416
#     4  12  27  42  66 103 143 177 224 285 353 413
#     4  11  23  44  69  99 130 178 239 281 329 414
#     4  11  22  38  71  97 127 177 228 278 331 406
#     4  11  22  43  71  96 131 182 234 278 337 406
#     4  12  24  42  69  98 139 174 225 286 351 396
#
# _framework density 21.846738999999999
#
# number of rings (size 3 to 8) (size 9 to 14) (size 15 to 20)
#    0.000    0.750    5.000    4.125    3.500    0.500 
#    2.250    0.625    0.000    0.000    0.000    0.000 
#    0.000    0.000    0.000    0.000    0.000    0.000 
#
# Total GULP energy -89075.702493 kJ/mol
# GULP energy per Si atom -5567.231406 kJ/mol
# Density = 2.179701 g / cm^3
# Si number density = 21.846739 Si / 1000 Ang^3
#
#
#
# Elastic Constant Matrix: (Units=GPa)
#
#
# Indices 1 2 3 4 5 6 
#
# 1 88.9334 51.9909 19.3693 -7.8820 -17.9228 -1.4076
# 2 51.9909 159.2585 42.9709 -39.9021 7.7424 8.4656
# 3 19.3693 42.9709 49.7691 -19.0714 -5.4038 0.8471
# 4 -7.8820 -39.9021 -19.0714 38.2146 11.7359 -4.1912
# 5 -17.9228 7.7424 -5.4038 11.7359 39.3526 -6.4878
# 6 -1.4076 8.4656 0.8471 -4.1912 -6.4878 49.4477
#
#
#
# Elastic Compliance Matrix: (Units=1/GPa)
#
#
# Indices 1 2 3 4 5 6 
#
# 1 0.018877 -0.009047 -0.002117 -0.010489 0.013715 0.003033
# 2 -0.009047 0.015174 -0.005177 0.014979 -0.012808 -0.003178
# 3 -0.002117 -0.005177 0.028640 0.008036 0.001797 0.001252
# 4 -0.010489 0.014979 0.008036 0.050191 -0.021855 -0.001614
# 5 0.013715 -0.012808 0.001797 -0.021855 0.041965 0.006206
# 6 0.003033 -0.003178 0.001252 -0.001614 0.006206 0.021510
#
#
# Mechanical properties :
#
#
# Convention : Reuss Voigt Hill
#
# Bulk Modulus (GPa) = 33.32390 58.51369 45.91880
# Shear Modulus (GPa) = 22.82677 37.64496 30.23586
#
# Velocity S-wave (km/s) = 3.23593 4.15557 3.72425
# Velocity P-wave (km/s) = 5.40817 7.06165 6.28948
#
# Compressibility (1/GPa) = 0.03000849
#
# Stress axis : x y z
#
# Youngs Moduli (GPa) = 52.97510 65.90183 34.91659
#
# Poissons Ratio (x) = 0.59623 0.07392
# Poissons Ratio (y) = 0.47928 0.18076
# Poissons Ratio (z) = 0.11215 0.34116
#
# Static dielectric constant tensor:
#      x y z
#    x 1.957860 0.030140 0.101590 
#    y 0.030140 1.801240 0.021010 
#    z 0.101590 0.021010 1.943420 
# 
# From -- ./inp_files/206222.got.cif
#   From: 2010.05.17/outbox.ucp.g08.bks.cvg/sg2_104_cif.got.tgz:206222.got - 2010.06.11 11:32:03.
