data_PCOD9075692
_publ_section_title
;
Structure prediction by ZEFSAII (Michael W. Deem and Ramdas Pophale) SiO2 
 PCOD9075692
Probable space group: P -1
;
_chemical_formula_sum "Si O2"
_cell_formula_units_Z 14
_cell_length_a 9.257984
_cell_length_b 7.216831
_cell_length_c 11.087476
_cell_angle_alpha 98.519886
_cell_angle_beta 45.941210
_cell_angle_gamma 111.612392
_cell_volume 488.419256
_symmetry_space_group_name_H-M "P -1"
_symmetry_group_IT_number 2
_symmetry_cell_setting 'triclinic'
loop_
_space_group_symop_operation_xyz
x,y,z
-x,-y,-z
loop_
_atom_site_type_symbol
_atom_site_label
_atom_site_fract_x
_atom_site_fract_y
_atom_site_fract_z
Si Si1 0.306108 0.286600 0.223138
Si Si2 0.155560 0.156684 0.047597
Si Si3 0.681855 0.200996 0.083206
Si Si4 0.973133 0.364773 0.696849
Si Si5 0.826396 0.222790 0.519918
Si Si6 0.629768 0.556319 0.240385
Si Si7 0.739297 0.869710 0.396915
O O1 0.288398 0.303728 0.092080
O O2 0.056631 0.192579 0.394369
O O3 0.432476 0.476946 0.252525
O O4 0.444632 0.149894 0.156786
O O5 0.265687 0.994843 0.942929
O O6 0.170216 0.286995 0.934203
O O7 0.917501 0.031771 0.223716
O O8 0.846271 0.329055 0.893911
O O9 0.685661 0.356533 0.204271
O O10 0.111053 0.590905 0.592309
O O11 0.805382 0.283509 0.675028
O O12 0.132193 0.243339 0.612368
O O13 0.661989 0.014308 0.539413
O O14 0.589776 0.686035 0.383655
#
# Coordination Sequence:
#
# PCOD9075692 Si02
#       7
#     2   2   2   2   2   2   2
#     4   9  20  36  55  85 112 140 181 228 273 318
#     4  10  18  32  54  81 114 142 181 221 270 323
#     4   9  20  33  56  86 109 135 184 227 271 315
#     4  10  21  36  60  82 106 144 189 230 260 321
#     4  10  21  39  59  80 106 147 189 223 268 321
#     4  10  21  33  54  86 117 141 171 231 281 320
#     4  10  21  36  54  83 114 144 181 223 275 327
#
# _framework density 28.663898
#
# number of rings (size 3 to 8) (size 9 to 14) (size 15 to 20)
#    0.857    1.429    0.000    3.429    2.000    3.429 
#    0.000    0.714    0.000    3.429    0.000    0.000 
#    0.000    0.000    0.000    0.000    0.000    0.000 
#
# Total GULP energy -78374.288560 kJ/mol
# GULP energy per Si atom -5598.163469 kJ/mol
# Density = 2.859866 g / cm^3
# Si number density = 28.663898 Si / 1000 Ang^3
#
#
#
# Elastic Constant Matrix: (Units=GPa)
#
#
# Indices 1 2 3 4 5 6 
#
# 1 63.3519 42.0664 13.7487 8.5482 2.8442 11.3368
# 2 42.0664 201.5078 57.7834 13.5128 30.1151 15.3727
# 3 13.7487 57.7834 90.6818 7.4778 15.5063 11.6232
# 4 8.5482 13.5128 7.4778 66.7356 6.9704 15.1989
# 5 2.8442 30.1151 15.5063 6.9704 39.1634 17.1813
# 6 11.3368 15.3727 11.6232 15.1989 17.1813 56.6499
#
#
#
# Elastic Compliance Matrix: (Units=1/GPa)
#
#
# Indices 1 2 3 4 5 6 
#
# 1 0.019201 -0.004100 -0.000381 -0.001183 0.003626 -0.003434
# 2 -0.004100 0.007414 -0.003444 -0.000346 -0.004390 0.000939
# 3 -0.000381 -0.003444 0.013831 -0.000327 -0.002283 -0.001047
# 4 -0.001183 -0.000346 -0.000327 0.016167 -0.000770 -0.003706
# 5 0.003626 -0.004390 -0.002283 -0.000770 0.033667 -0.009070
# 6 -0.003434 0.000939 -0.001047 -0.003706 -0.009070 0.022045
#
#
# Mechanical properties :
#
#
# Convention : Reuss Voigt Hill
#
# Bulk Modulus (GPa) = 40.65525 64.74873 52.70199
# Shear Modulus (GPa) = 36.66429 48.63930 42.65180
#
# Velocity S-wave (km/s) = 3.58035 4.12379 3.86164
# Velocity P-wave (km/s) = 5.59518 6.73144 6.18944
#
# Compressibility (1/GPa) = 0.02459707
#
# Stress axis : x y z
#
# Youngs Moduli (GPa) = 52.07998 134.88880 72.30028
#
# Poissons Ratio (x) = 0.55301 0.02756
# Poissons Ratio (y) = 0.21351 0.24897
# Poissons Ratio (z) = 0.01985 0.46450
#
# Static dielectric constant tensor:
#      x y z
#    x 2.204470 0.061230 0.019820 
#    y 0.061230 2.229320 0.060050 
#    z 0.019820 0.060050 2.320590 
# 
# From -- ./inp_files/330826.got.cif
#   From: 2010.05.17/outbox.cif.g08.bks.cpg/sg2_166_cif.got.tgz:330826.got - 2010.06.03 11:33:40.
