data_PCOD9075410
_publ_section_title
;
Structure prediction by ZEFSAII (Michael W. Deem and Ramdas Pophale) SiO2 
 PCOD9075410
Probable space group: P -1
;
_chemical_formula_sum "Si O2"
_cell_formula_units_Z 16
_cell_length_a 9.000000
_cell_length_b 15.000000
_cell_length_c 24.000000
_cell_angle_alpha 150.000000
_cell_angle_beta 150.000000
_cell_angle_gamma 50.000000
_cell_volume 731.734496
_symmetry_space_group_name_H-M "P -1"
_symmetry_group_IT_number 2
_symmetry_cell_setting 'triclinic'
loop_
_space_group_symop_operation_xyz
x,y,z
-x,-y,-z
loop_
_atom_site_type_symbol
_atom_site_label
_atom_site_fract_x
_atom_site_fract_y
_atom_site_fract_z
Si Si1 0.842062 0.481021 0.171719
Si Si2 0.137280 0.458300 0.910135
Si Si3 0.084449 0.349812 0.598412
Si Si4 0.048462 0.169564 0.063853
Si Si5 0.165765 0.321623 0.989214
Si Si6 0.120213 0.943496 0.356757
Si Si7 0.877087 0.023794 0.130483
Si Si8 0.790527 0.511612 0.492241
O O1 0.963690 0.478443 0.146552
O O2 0.024764 0.626276 0.360946
O O3 0.795188 0.259810 0.051067
O O4 0.520112 0.518712 0.077553
O O5 0.990693 0.222914 0.722521
O O6 0.020226 0.560201 0.977003
O O7 0.907994 0.429293 0.539325
O O8 0.059135 0.134516 0.455241
O O9 0.464584 0.510462 0.805468
O O10 0.406589 0.359453 0.281519
O O11 0.025398 0.053479 0.936151
O O12 0.000000 0.000000 0.000000
O O13 0.057203 0.205586 0.832693
O O14 0.116907 0.136331 0.911050
O O15 0.500000 0.000000 0.500000
O O16 0.115606 0.255141 0.343901
O O17 0.500000 0.000000 0.000000
O O18 0.000000 0.500000 0.500000
#
# Coordination Sequence:
#
# PCOD9075410 Si02
#       8
#     2   2   2   2   2   2   2   2
#     4  11  26  47  69 100 149 193 233 294 371 432
#     4  11  24  47  72  99 144 194 242 294 358 437
#     4  12  25  43  73 107 144 189 243 305 361 439
#     4  12  28  48  73 108 151 190 241 307 372 438
#     4  12  23  46  74 105 145 185 248 307 354 424
#     4  12  25  40  73 106 133 186 246 298 356 418
#     4  12  24  44  76 105 138 196 239 300 368 425
#     4  12  26  46  75 109 143 190 253 297 366 447
#
# _framework density 21.865853999999999
#
# number of rings (size 3 to 8) (size 9 to 14) (size 15 to 20)
#    0.000    0.250    6.250    2.625    1.750    3.500 
#    0.000    0.000    0.000    0.000    0.000    0.000 
#    0.000    0.000    0.000    0.000    0.000    0.000 
#
# Total GULP energy -89192.174278 kJ/mol
# GULP energy per Si atom -5574.510892 kJ/mol
# Density = 2.181609 g / cm^3
# Si number density = 21.865854 Si / 1000 Ang^3
#
#
#
# Elastic Constant Matrix: (Units=GPa)
#
#
# Indices 1 2 3 4 5 6 
#
# 1 92.7820 26.6770 29.4510 0.8943 -33.8896 -19.9427
# 2 26.6770 129.2538 41.4308 30.0345 -22.7310 -9.9873
# 3 29.4510 41.4308 130.8303 30.1261 -19.6353 -7.6202
# 4 0.8943 30.0345 30.1261 51.4032 -10.3293 -8.0681
# 5 -33.8896 -22.7310 -19.6353 -10.3293 43.8241 11.6742
# 6 -19.9427 -9.9873 -7.6202 -8.0681 11.6742 36.5986
#
#
#
# Elastic Compliance Matrix: (Units=1/GPa)
#
#
# Indices 1 2 3 4 5 6 
#
# 1 0.017372 -0.001563 -0.002626 0.005338 0.011070 0.006139
# 2 -0.001563 0.009958 -0.001426 -0.004519 0.002295 -0.000159
# 3 -0.002626 -0.001426 0.009874 -0.004923 0.000787 -0.001100
# 4 0.005338 -0.004519 -0.004923 0.026587 0.004492 0.005079
# 5 0.011070 0.002295 0.000787 0.004492 0.034861 -0.003308
# 6 0.006139 -0.000159 -0.001100 0.005079 -0.003308 0.032571
#
#
# Mechanical properties :
#
#
# Convention : Reuss Voigt Hill
#
# Bulk Modulus (GPa) = 38.49989 60.88707 49.69348
# Shear Modulus (GPa) = 33.08860 43.38566 38.23713
#
# Velocity S-wave (km/s) = 3.89428 4.45924 4.18630
# Velocity P-wave (km/s) = 6.15354 7.37694 6.79284
#
# Compressibility (1/GPa) = 0.02597410
#
# Stress axis : x y z
#
# Youngs Moduli (GPa) = 57.56307 100.42465 101.28059
#
# Poissons Ratio (x) = 0.15697 0.26595
# Poissons Ratio (y) = 0.08998 0.14440
# Poissons Ratio (z) = 0.15115 0.14318
#
# Static dielectric constant tensor:
#      x y z
#    x 2.464270 0.754700 0.223310 
#    y 0.754700 2.927650 0.217980 
#    z 0.223310 0.217980 1.847670 
# 
# From -- ./inp_files/307359.got.cif
#   From: 2010.05.17/outbox.ucp.g08.bks.cvg/sg2_154_cif.got.tgz:307359.got - 2010.06.11 11:32:03.
