data_PCOD9075276
_publ_section_title
;
Structure prediction by ZEFSAII (Michael W. Deem and Ramdas Pophale) SiO2 
 PCOD9075276
Probable space group: P -1
;
_chemical_formula_sum "Si O2"
_cell_formula_units_Z 14
_cell_length_a 12.000000
_cell_length_b 9.000000
_cell_length_c 9.000000
_cell_angle_alpha 50.000000
_cell_angle_beta 110.000000
_cell_angle_gamma 110.000000
_cell_volume 689.539475
_symmetry_space_group_name_H-M "P -1"
_symmetry_group_IT_number 2
_symmetry_cell_setting 'triclinic'
loop_
_space_group_symop_operation_xyz
x,y,z
-x,-y,-z
loop_
_atom_site_type_symbol
_atom_site_label
_atom_site_fract_x
_atom_site_fract_y
_atom_site_fract_z
Si Si1 0.193567 0.645497 0.106256
Si Si2 0.103750 0.408304 0.515564
Si Si3 0.353439 0.015234 0.132264
Si Si4 0.552350 0.767110 0.483481
Si Si5 0.239515 0.243948 0.206943
Si Si6 0.027142 0.947986 0.715689
Si Si7 0.375766 0.389417 0.699929
O O1 0.120406 0.507440 0.292748
O O2 0.240868 0.479726 0.120406
O O3 0.282142 0.818957 0.134006
O O4 0.115974 0.787696 0.888745
O O5 0.241262 0.442238 0.619837
O O6 0.000000 0.500000 0.500000
O O7 0.071740 0.168879 0.657477
O O8 0.284788 0.139077 0.143057
O O9 0.467170 0.928496 0.308346
O O10 0.393045 0.194458 0.921553
O O11 0.674010 0.838361 0.582704
O O12 0.471112 0.585904 0.650836
O O13 0.598551 0.671377 0.417826
O O14 0.099997 0.152337 0.210189
O O15 0.000000 0.000000 0.500000
#
# Coordination Sequence:
#
# PCOD9075276 Si02
#       7
#     2   2   2   2   2   2   2
#     4  12  25  49  73 105 152 192 237 304 366 432
#     4  12  25  44  76 109 143 188 244 302 361 433
#     4  12  26  45  76 108 139 194 246 299 360 430
#     4  11  23  49  71 102 151 190 242 299 358 432
#     4  12  27  47  71 110 149 187 246 302 359 437
#     4  12  26  46  71 105 145 195 238 294 373 430
#     4  11  23  46  74 108 142 192 246 293 369 430
#
# _framework density 20.303405999999999
#
# number of rings (size 3 to 8) (size 9 to 14) (size 15 to 20)
#    0.000    0.286    5.714    3.000    2.000    1.714 
#    0.000    0.000    0.000    0.000    0.000    0.000 
#    0.000    0.000    0.000    0.000    0.000    0.000 
#
# Total GULP energy -77946.779314 kJ/mol
# GULP energy per Si atom -5567.627094 kJ/mol
# Density = 2.025719 g / cm^3
# Si number density = 20.303406 Si / 1000 Ang^3
#
#
#
# Elastic Constant Matrix: (Units=GPa)
#
#
# Indices 1 2 3 4 5 6 
#
# 1 102.3185 18.0571 23.6644 -7.4460 29.5331 -15.6545
# 2 18.0571 79.9902 20.8400 -15.6028 5.7839 -17.9708
# 3 23.6644 20.8400 105.6631 -27.1727 23.7675 12.5291
# 4 -7.4460 -15.6028 -27.1727 40.9900 -5.0485 4.6438
# 5 29.5331 5.7839 23.7675 -5.0485 43.2925 -0.7406
# 6 -15.6545 -17.9708 12.5291 4.6438 -0.7406 35.4842
#
#
#
# Elastic Compliance Matrix: (Units=1/GPa)
#
#
# Indices 1 2 3 4 5 6 
#
# 1 0.013602 -0.000698 -0.002076 -0.000878 -0.008040 0.006327
# 2 -0.000698 0.016002 -0.003480 0.002763 0.000720 0.008679
# 3 -0.002076 -0.003480 0.015240 0.008764 -0.005623 -0.009324
# 4 -0.000878 0.002763 0.008764 0.031684 -0.000994 -0.006250
# 5 -0.008040 0.000720 -0.005623 -0.000994 0.031451 -0.000411
# 6 0.006327 0.008679 -0.009324 -0.006250 -0.000411 0.039470
#
#
# Mechanical properties :
#
#
# Convention : Reuss Voigt Hill
#
# Bulk Modulus (GPa) = 30.92665 45.89945 38.41305
# Shear Modulus (GPa) = 29.28501 38.98070 34.13285
#
# Velocity S-wave (km/s) = 3.80197 4.38643 4.10462
# Velocity P-wave (km/s) = 5.87696 6.95056 6.43618
#
# Compressibility (1/GPa) = 0.03233457
#
# Stress axis : x y z
#
# Youngs Moduli (GPa) = 73.52127 62.49029 65.61811
#
# Poissons Ratio (x) = 0.04362 0.13624
# Poissons Ratio (y) = 0.05132 0.22837
# Poissons Ratio (z) = 0.15265 0.21749
#
# Static dielectric constant tensor:
#      x y z
#    x 1.749700 0.007960 -0.025950 
#    y 0.007960 1.795330 0.038530 
#    z -0.025950 0.038530 1.744230 
# 
# From -- ./inp_files/236891.got.cif
#   From: 2010.05.17/outbox.ucp.g08.bks.cvg/sg2_119_cif.got.tgz:236891.got - 2010.06.11 11:32:03.
