data_PCOD9075674
_publ_section_title
;
Structure prediction by ZEFSAII (Michael W. Deem and Ramdas Pophale) SiO2 
 PCOD9075674
Probable space group: P -1
;
_chemical_formula_sum "Si O2"
_cell_formula_units_Z 16
_cell_length_a 12.000000
_cell_length_b 18.000000
_cell_length_c 15.000000
_cell_angle_alpha 150.000000
_cell_angle_beta 50.000000
_cell_angle_gamma 150.000000
_cell_volume 731.734496
_symmetry_space_group_name_H-M "P -1"
_symmetry_group_IT_number 2
_symmetry_cell_setting 'triclinic'
loop_
_space_group_symop_operation_xyz
x,y,z
-x,-y,-z
loop_
_atom_site_type_symbol
_atom_site_label
_atom_site_fract_x
_atom_site_fract_y
_atom_site_fract_z
Si Si1 0.529724 0.115487 0.836890
Si Si2 0.043047 0.880208 0.803770
Si Si3 0.329323 0.672046 0.814372
Si Si4 0.380672 0.652433 0.451461
Si Si5 0.280451 0.053487 0.250510
Si Si6 0.069388 0.171531 0.398579
Si Si7 0.128545 0.525248 0.127812
Si Si8 0.484655 0.319537 0.783379
O O1 0.752177 0.312950 0.856205
O O2 0.417917 0.857667 0.626503
O O3 0.594887 0.205423 0.999928
O O4 0.326007 0.064764 0.856133
O O5 0.884109 0.619359 0.660702
O O6 0.954881 0.827111 0.692953
O O7 0.000000 0.000000 0.000000
O O8 0.525252 0.858797 0.828350
O O9 0.276702 0.453796 0.621244
O O10 0.057036 0.512779 0.768357
O O11 0.569800 0.770506 0.556975
O O12 0.433253 0.613510 0.291580
O O13 0.152777 0.077600 0.285795
O O14 0.061243 0.765548 0.096097
O O15 0.795779 0.969399 0.367956
O O16 0.338721 0.639134 0.204690
O O17 0.500000 0.500000 0.000000
#
# Coordination Sequence:
#
# PCOD9075674 Si02
#       8
#     2   2   2   2   2   2   2   2
#     4  12  28  49  74 112 150 197 249 308 369 445
#     4  12  27  48  76 109 152 196 248 308 368 443
#     4  12  27  46  76 109 150 196 247 306 375 437
#     4  12  29  47  76 110 150 196 250 305 374 440
#     4  12  27  48  74 111 150 197 249 308 368 444
#     4  12  26  48  74 108 147 198 250 301 376 441
#     4  12  27  48  77 104 154 195 249 307 370 442
#     4  12  27  49  75 109 148 199 249 310 375 441
#
# _framework density 21.865853999999999
#
# number of rings (size 3 to 8) (size 9 to 14) (size 15 to 20)
#    0.000    0.000    5.000    3.750    7.000    1.500 
#    0.000    0.000    0.000    0.000    0.000    0.000 
#    0.000    0.000    0.000    0.000    0.000    0.000 
#
# Total GULP energy -89598.523641 kJ/mol
# GULP energy per Si atom -5599.907728 kJ/mol
# Density = 2.181609 g / cm^3
# Si number density = 21.865854 Si / 1000 Ang^3
#
#
#
# Elastic Constant Matrix: (Units=GPa)
#
#
# Indices 1 2 3 4 5 6 
#
# 1 110.0854 46.3126 23.0468 -18.7781 1.2956 1.2463
# 2 46.3126 104.9375 6.2677 3.3990 14.4828 -5.8556
# 3 23.0468 6.2677 63.4011 -1.2418 -1.1276 -3.6155
# 4 -18.7781 3.3990 -1.2418 40.6439 -11.8888 4.4153
# 5 1.2956 14.4828 -1.1276 -11.8888 35.0961 -1.3927
# 6 1.2463 -5.8556 -3.6155 4.4153 -1.3927 39.8902
#
#
#
# Elastic Compliance Matrix: (Units=1/GPa)
#
#
# Indices 1 2 3 4 5 6 
#
# 1 0.014652 -0.007386 -0.004480 0.009113 0.005340 -0.002770
# 2 -0.007386 0.014202 0.001168 -0.007185 -0.007868 0.002942
# 3 -0.004480 0.001168 0.017360 -0.001964 -0.000341 0.002090
# 4 0.009113 -0.007185 -0.001964 0.033933 0.013870 -0.004789
# 5 0.005340 -0.007868 -0.000341 0.013870 0.036166 -0.001625
# 6 -0.002770 0.002942 0.002090 -0.004789 -0.001625 0.026250
#
#
# Mechanical properties :
#
#
# Convention : Reuss Voigt Hill
#
# Bulk Modulus (GPa) = 40.29331 47.74201 44.01766
# Shear Modulus (GPa) = 29.03062 36.64586 32.83824
#
# Velocity S-wave (km/s) = 3.64767 4.09827 3.87952
# Velocity P-wave (km/s) = 6.01732 6.65401 6.34366
#
# Compressibility (1/GPa) = 0.02481802
#
# Stress axis : x y z
#
# Youngs Moduli (GPa) = 68.25026 70.41264 57.60206
#
# Poissons Ratio (x) = 0.52004 0.25809
# Poissons Ratio (y) = 0.50407 -0.06727
# Poissons Ratio (z) = 0.30579 -0.08223
#
# Static dielectric constant tensor:
#      x y z
#    x 1.782180 0.017430 -0.040010 
#    y 0.017430 1.784220 0.013600 
#    z -0.040010 0.013600 1.817410 
# 
# From -- ./inp_files/332860.got.cif
#   From: 2010.05.17/outbox.ucp.g08.bks.cvg/sg2_167_cif.got.tgz:332860.got - 2010.06.11 11:32:03.
