data_PCOD9075404
_publ_section_title
;
Structure prediction by ZEFSAII (Michael W. Deem and Ramdas Pophale) SiO2 
 PCOD9075404
Probable space group: P -1
;
_chemical_formula_sum "Si O2"
_cell_formula_units_Z 16
_cell_length_a 12.000000
_cell_length_b 18.000000
_cell_length_c 21.000000
_cell_angle_alpha 20.000000
_cell_angle_beta 140.000000
_cell_angle_gamma 150.000000
_cell_volume 744.844803
_symmetry_space_group_name_H-M "P -1"
_symmetry_group_IT_number 2
_symmetry_cell_setting 'triclinic'
loop_
_space_group_symop_operation_xyz
x,y,z
-x,-y,-z
loop_
_atom_site_type_symbol
_atom_site_label
_atom_site_fract_x
_atom_site_fract_y
_atom_site_fract_z
Si Si1 0.298526 0.370522 0.147208
Si Si2 0.769354 0.015133 0.689729
Si Si3 0.248335 0.685863 0.774892
Si Si4 0.496468 0.499442 0.575756
Si Si5 0.024333 0.950524 0.477753
Si Si6 0.801402 0.915001 0.932003
Si Si7 0.728099 0.092455 0.985446
Si Si8 0.216062 0.687332 0.312825
O O1 0.232805 0.155672 0.232802
O O2 0.129347 0.202798 0.268295
O O3 0.280289 0.594571 0.929537
O O4 0.573084 0.575982 0.115742
O O5 0.960139 0.357584 0.475796
O O6 0.493039 0.849694 0.712110
O O7 0.837975 0.970106 0.826338
O O8 0.201416 0.899502 0.589350
O O9 0.994117 0.383353 0.884480
O O10 0.500000 0.500000 0.500000
O O11 0.410998 0.666376 0.422214
O O12 0.761893 0.667275 0.573255
O O13 0.318756 0.193312 0.782026
O O14 0.000000 0.000000 0.500000
O O15 0.757948 0.118610 0.776095
O O16 0.000000 0.000000 0.000000
O O17 0.730890 0.155860 0.859836
O O18 0.500000 0.000000 0.000000
#
# Coordination Sequence:
#
# PCOD9075404 Si02
#       8
#     2   2   2   2   2   2   2   2
#     4  11  27  49  76 105 147 198 242 306 368 445
#     4  11  26  52  77 107 147 195 249 302 377 444
#     4  11  24  46  77 103 146 189 247 299 364 439
#     4  12  25  48  72 105 148 193 248 291 359 443
#     4  12  29  44  71 107 149 194 240 299 361 441
#     4  11  28  47  73 112 147 188 244 311 379 433
#     4  12  24  43  73 110 142 193 245 296 357 436
#     4  12  28  44  78 108 150 191 242 317 368 428
#
# _framework density 21.480985
#
# number of rings (size 3 to 8) (size 9 to 14) (size 15 to 20)
#    0.000    0.500    2.500    4.875   12.250    1.500 
#    0.000    0.000    0.000    0.000    0.000    0.000 
#    0.000    0.000    0.000    0.000    0.000    0.000 
#
# Total GULP energy -89294.761991 kJ/mol
# GULP energy per Si atom -5580.922624 kJ/mol
# Density = 2.143209 g / cm^3
# Si number density = 21.480985 Si / 1000 Ang^3
#
#
#
# Elastic Constant Matrix: (Units=GPa)
#
#
# Indices 1 2 3 4 5 6 
#
# 1 108.2238 40.1249 31.5283 -1.0920 -24.5533 4.2025
# 2 40.1249 117.1234 16.6132 -9.1282 -7.3280 -6.6521
# 3 31.5283 16.6132 102.4772 -7.3805 -27.5083 -2.8540
# 4 -1.0920 -9.1282 -7.3805 40.9086 11.3743 -1.2742
# 5 -24.5533 -7.3280 -27.5083 11.3743 58.2925 0.9331
# 6 4.2025 -6.6521 -2.8540 -1.2742 0.9331 40.0406
#
#
#
# Elastic Compliance Matrix: (Units=1/GPa)
#
#
# Indices 1 2 3 4 5 6 
#
# 1 0.012368 -0.003956 -0.002285 -0.002174 0.004095 -0.002283
# 2 -0.003956 0.010210 -0.000505 0.002466 -0.001137 0.002180
# 3 -0.002285 -0.000505 0.011799 0.000766 0.004378 0.000919
# 4 -0.002174 0.002466 0.000766 0.026648 -0.005471 0.001668
# 5 0.004095 -0.001137 0.004378 -0.005471 0.021886 -0.000991
# 6 -0.002283 0.002180 0.000919 0.001668 -0.000991 0.025718
#
#
# Mechanical properties :
#
#
# Convention : Reuss Voigt Hill
#
# Bulk Modulus (GPa) = 47.88067 56.03970 51.96019
# Shear Modulus (GPa) = 38.73484 43.81887 41.27685
#
# Velocity S-wave (km/s) = 4.25103 4.52142 4.38831
# Velocity P-wave (km/s) = 6.81419 7.30769 7.06525
#
# Compressibility (1/GPa) = 0.02088526
#
# Stress axis : x y z
#
# Youngs Moduli (GPa) = 80.85256 97.94560 84.75245
#
# Poissons Ratio (x) = 0.38747 0.19365
# Poissons Ratio (y) = 0.31985 0.04280
# Poissons Ratio (z) = 0.18474 0.04946
#
# Static dielectric constant tensor:
#      x y z
#    x 1.756130 0.025190 0.065390 
#    y 0.025190 1.850310 0.030200 
#    z 0.065390 0.030200 1.838700 
# 
# From -- ./inp_files/595949.got.cif
#   From: 2010.05.17/outbox.ucp.g08.bks.cvg/sg2_298_cif.got.tgz:595949.got - 2010.06.11 11:32:03.
