data_PCOD9075277
_publ_section_title
;
Structure prediction by ZEFSAII (Michael W. Deem and Ramdas Pophale) SiO2 
 PCOD9075277
Probable space group: P -1
;
_chemical_formula_sum "Si O2"
_cell_formula_units_Z 16
_cell_length_a 21.000000
_cell_length_b 18.000000
_cell_length_c 9.000000
_cell_angle_alpha 40.000000
_cell_angle_beta 40.000000
_cell_angle_gamma 20.000000
_cell_volume 731.217405
_symmetry_space_group_name_H-M "P -1"
_symmetry_group_IT_number 2
_symmetry_cell_setting 'triclinic'
loop_
_space_group_symop_operation_xyz
x,y,z
-x,-y,-z
loop_
_atom_site_type_symbol
_atom_site_label
_atom_site_fract_x
_atom_site_fract_y
_atom_site_fract_z
Si Si1 0.194857 0.802850 0.358638
Si Si2 0.054622 0.542898 0.049471
Si Si3 0.510034 0.149664 0.511195
Si Si4 0.301372 0.969591 0.924330
Si Si5 0.910796 0.435378 0.395576
Si Si6 0.456431 0.718222 0.469713
Si Si7 0.956627 0.951309 0.277980
Si Si8 0.547196 0.839116 0.925899
O O1 0.361437 0.543545 0.495936
O O2 0.106679 0.840360 0.305548
O O3 0.282201 0.847735 0.140207
O O4 0.000000 0.000000 0.500000
O O5 0.232840 0.390870 0.069514
O O6 0.002590 0.458210 0.268681
O O7 0.099185 0.531045 0.816648
O O8 0.880701 0.794340 0.030284
O O9 0.680492 0.003073 0.317695
O O10 0.304247 0.367985 0.469073
O O11 0.520783 0.242118 0.471427
O O12 0.505775 0.016064 0.764293
O O13 0.478223 0.859398 0.859453
O O14 0.013000 0.211733 0.576206
O O15 0.267845 0.828109 0.617998
O O16 0.438036 0.853336 0.199022
O O17 0.000000 0.000000 0.000000
#
# Coordination Sequence:
#
# PCOD9075277 Si02
#       8
#     2   2   2   2   2   2   2   2
#     4  12  27  50  71 100 146 188 235 291 346 415
#     4  11  24  45  75 104 140 185 232 292 343 425
#     4  12  25  46  73 105 145 180 224 303 354 410
#     4  12  28  45  68 105 148 182 229 294 358 400
#     4  11  23  46  75 103 143 183 233 290 353 409
#     4  12  26  47  75 103 136 190 242 286 343 427
#     4  12  27  46  73 104 138 185 240 288 348 418
#     4  12  24  45  75 105 137 186 238 277 355 427
#
# _framework density 21.881316999999999
#
# number of rings (size 3 to 8) (size 9 to 14) (size 15 to 20)
#    0.000    0.250    3.750    5.250    3.500    4.500 
#    2.250    0.000    0.000    0.000    0.000    0.000 
#    0.000    0.000    0.000    0.000    0.000    0.000 
#
# Total GULP energy -89361.272014 kJ/mol
# GULP energy per Si atom -5585.079501 kJ/mol
# Density = 2.183151 g / cm^3
# Si number density = 21.881317 Si / 1000 Ang^3
#
#
#
# Elastic Constant Matrix: (Units=GPa)
#
#
# Indices 1 2 3 4 5 6 
#
# 1 92.8610 29.1975 8.5954 -8.3952 -29.5383 8.4370
# 2 29.1975 114.8480 34.7912 -1.6692 -5.9651 -2.0039
# 3 8.5954 34.7912 56.1965 -19.7386 -20.0135 22.3499
# 4 -8.3952 -1.6692 -19.7386 27.2693 13.2066 -4.4708
# 5 -29.5383 -5.9651 -20.0135 13.2066 36.7462 -5.0849
# 6 8.4370 -2.0039 22.3499 -4.4708 -5.0849 38.1026
#
#
#
# Elastic Compliance Matrix: (Units=1/GPa)
#
#
# Indices 1 2 3 4 5 6 
#
# 1 0.019809 -0.008893 0.015725 0.005725 0.019491 -0.010805
# 2 -0.008893 0.017091 -0.021800 -0.010098 -0.010815 0.013027
# 3 0.015725 -0.021800 0.063008 0.029975 0.027893 -0.034348
# 4 0.005725 -0.010098 0.029975 0.059226 -0.003787 -0.012937
# 5 0.019491 -0.010815 0.027893 -0.003787 0.055706 -0.014256
# 6 -0.010805 0.013027 -0.034348 -0.012937 -0.014256 0.046050
#
#
# Mechanical properties :
#
#
# Convention : Reuss Voigt Hill
#
# Bulk Modulus (GPa) = 14.29119 45.45263 29.87191
# Shear Modulus (GPa) = 15.91606 33.17840 24.54723
#
# Velocity S-wave (km/s) = 2.69993 3.89818 3.35301
# Velocity P-wave (km/s) = 4.03297 6.40925 5.35460
#
# Compressibility (1/GPa) = 0.06997319
#
# Stress axis : x y z
#
# Youngs Moduli (GPa) = 50.48324 58.51159 15.87089
#
# Poissons Ratio (x) = 0.52032 -0.24958
# Poissons Ratio (y) = 0.44892 0.34599
# Poissons Ratio (z) = -0.79387 1.27556
#
# Static dielectric constant tensor:
#      x y z
#    x 1.867910 -0.008100 0.095650 
#    y -0.008100 1.865200 0.027060 
#    z 0.095650 0.027060 1.842730 
# 
# From -- ./inp_files/348805.got.cif
#   From: 2010.05.17/outbox.ucp.g08.bks.cvg/sg2_175_cif.got.tgz:348805.got - 2010.06.11 11:32:03.
