data_PCOD9075894
_publ_section_title
;
Structure prediction by ZEFSAII (Michael W. Deem and Ramdas Pophale) SiO2 
 PCOD9075894
Probable space group: P -1
;
_chemical_formula_sum "Si O2"
_cell_formula_units_Z 14
_cell_length_a 11.936665
_cell_length_b 13.272981
_cell_length_c 10.355705
_cell_angle_alpha 20.959301
_cell_angle_beta 64.254573
_cell_angle_gamma 63.837825
_cell_volume 525.451283
_symmetry_space_group_name_H-M "P -1"
_symmetry_group_IT_number 2
_symmetry_cell_setting 'triclinic'
loop_
_space_group_symop_operation_xyz
x,y,z
-x,-y,-z
loop_
_atom_site_type_symbol
_atom_site_label
_atom_site_fract_x
_atom_site_fract_y
_atom_site_fract_z
Si Si1 0.132542 0.386642 0.864193
Si Si2 0.133762 0.843674 0.782296
Si Si3 0.728948 0.692633 0.746631
Si Si4 0.354396 0.121045 0.716118
Si Si5 0.087371 0.725514 0.233073
Si Si6 0.256419 0.856976 0.331008
Si Si7 0.479710 0.406838 0.842401
O O1 0.157502 0.561870 0.511262
O O2 0.145784 0.649490 0.638220
O O3 0.000948 0.251245 0.078687
O O4 0.233233 0.110527 0.142298
O O5 0.169157 0.163544 0.389892
O O6 0.230908 0.638887 0.897164
O O7 0.153278 0.773100 0.008769
O O8 0.714807 0.814321 0.462707
O O9 0.597192 0.724401 0.847211
O O10 0.417661 0.399912 0.388239
O O11 0.268572 0.025572 0.988671
O O12 0.457638 0.852266 0.962910
O O13 0.000000 0.500000 0.500000
O O14 0.000000 0.000000 0.000000
O O15 0.378962 0.635133 0.550470
#
# Coordination Sequence:
#
# PCOD9075894 Si02
#       7
#     2   2   2   2   2   2   2
#     4  11  22  39  62  96 134 170 208 257 313 385
#     4  11  22  39  62  96 134 170 208 257 313 385
#     4  12  24  42  67  96 127 171 214 259 324 385
#     4  12  24  45  69  94 123 164 216 278 329 372
#     4  10  18  32  56  88 124 162 203 256 303 346
#     4  12  24  42  67  96 127 171 214 259 324 385
#     4  12  26  45  65  94 129 166 217 274 318 376
#
# _framework density 26.643764000000001
#
# number of rings (size 3 to 8) (size 9 to 14) (size 15 to 20)
#    0.000    0.571    0.000   11.143    0.000    0.000 
#    0.000    4.286    0.000    0.000    0.000    0.000 
#    0.000    0.000    0.000    0.000    0.000    0.000 
#
# Total GULP energy -78359.989029 kJ/mol
# GULP energy per Si atom -5597.142074 kJ/mol
# Density = 2.658312 g / cm^3
# Si number density = 26.643764 Si / 1000 Ang^3
#
#
#
# Elastic Constant Matrix: (Units=GPa)
#
#
# Indices 1 2 3 4 5 6 
#
# 1 84.1874 -7.4532 41.6912 0.3784 -24.3269 0.8396
# 2 -7.4532 173.4189 19.9978 -25.1887 -17.3764 -3.2455
# 3 41.6912 19.9978 146.3357 -13.5966 -0.4278 10.1555
# 4 0.3784 -25.1887 -13.5966 64.8157 3.6083 11.5941
# 5 -24.3269 -17.3764 -0.4278 3.6083 82.5814 -6.5416
# 6 0.8396 -3.2455 10.1555 11.5941 -6.5416 31.9131
#
#
#
# Elastic Compliance Matrix: (Units=1/GPa)
#
#
# Indices 1 2 3 4 5 6 
#
# 1 0.016093 0.001680 -0.005130 -0.001346 0.005362 0.002968
# 2 0.001680 0.006467 -0.001212 0.002036 0.001811 0.000631
# 3 -0.005130 -0.001212 0.008953 0.002292 -0.002146 -0.004110
# 4 -0.001346 0.002036 0.002292 0.018094 -0.001328 -0.007332
# 5 0.005362 0.001811 -0.002146 -0.001328 0.014447 0.004170
# 6 0.002968 0.000631 -0.004110 -0.007332 0.004170 0.036147
#
#
# Mechanical properties :
#
#
# Convention : Reuss Voigt Hill
#
# Bulk Modulus (GPa) = 45.06497 56.93481 50.99989
# Shear Modulus (GPa) = 42.76397 59.17578 50.96988
#
# Velocity S-wave (km/s) = 4.01063 4.71786 4.37855
# Velocity P-wave (km/s) = 6.19657 7.14793 6.68918
#
# Compressibility (1/GPa) = 0.02219018
#
# Stress axis : x y z
#
# Youngs Moduli (GPa) = 62.13752 154.62506 111.69911
#
# Poissons Ratio (x) = -0.25984 0.57303
# Poissons Ratio (y) = -0.10442 0.13537
# Poissons Ratio (z) = 0.31877 0.18739
#
# Static dielectric constant tensor:
#      x y z
#    x 2.121600 0.059840 0.083930 
#    y 0.059840 2.248560 0.256740 
#    z 0.083930 0.256740 2.227750 
# 
# From -- ./inp_files/433613.got.cif
#   From: 2010.05.17/outbox.cif.g08.bks.cpg/sg2_217_cif.got.tgz:433613.got - 2010.06.03 11:33:40.
