data_PCOD9075392
_publ_section_title
;
Structure prediction by ZEFSAII (Michael W. Deem and Ramdas Pophale) SiO2 
 PCOD9075392
Probable space group: P -1
;
_chemical_formula_sum "Si O2"
_cell_formula_units_Z 16
_cell_length_a 18.000000
_cell_length_b 24.000000
_cell_length_c 15.000000
_cell_angle_alpha 20.000000
_cell_angle_beta 30.000000
_cell_angle_gamma 20.000000
_cell_volume 749.971719
_symmetry_space_group_name_H-M "P -1"
_symmetry_group_IT_number 2
_symmetry_cell_setting 'triclinic'
loop_
_space_group_symop_operation_xyz
x,y,z
-x,-y,-z
loop_
_atom_site_type_symbol
_atom_site_label
_atom_site_fract_x
_atom_site_fract_y
_atom_site_fract_z
Si Si1 0.749850 0.103085 0.001130
Si Si2 0.871224 0.772754 0.211257
Si Si3 0.037866 0.445364 0.939826
Si Si4 0.067051 0.868948 0.752104
Si Si5 0.751705 0.385923 0.242181
Si Si6 0.125820 0.072908 0.660026
Si Si7 0.467746 0.056763 0.840451
Si Si8 0.419338 0.742900 0.685991
O O1 0.507168 0.377260 0.833614
O O2 0.943634 0.079891 0.817648
O O3 0.770436 0.935620 0.161063
O O4 0.780361 0.029439 0.184064
O O5 0.707219 0.900680 0.102784
O O6 0.000000 0.500000 0.500000
O O7 0.052038 0.752871 0.020470
O O8 0.989945 0.657736 0.624992
O O9 0.882455 0.433364 0.076292
O O10 0.000000 0.500000 0.000000
O O11 0.288715 0.191057 0.063696
O O12 0.167439 0.703426 0.809422
O O13 0.228857 0.872695 0.616110
O O14 0.840031 0.146901 0.552943
O O15 0.314771 0.911270 0.630035
O O16 0.423333 0.271249 0.518064
O O17 0.500000 0.000000 0.000000
O O18 0.500000 0.500000 0.000000
#
# Coordination Sequence:
#
# PCOD9075392 Si02
#       8
#     2   2   2   2   2   2   2   2
#     4  11  27  47  74 105 145 191 248 304 366 442
#     4  12  28  48  70 110 152 193 243 309 370 440
#     4  12  24  47  71 100 144 185 245 298 365 436
#     4  11  24  46  72 102 143 183 244 298 364 438
#     4  11  25  45  72 104 137 188 244 302 365 430
#     4  11  26  47  72 107 142 194 244 302 368 440
#     4  12  28  45  75 113 143 194 243 306 369 432
#     4  12  24  48  75 103 148 196 242 298 374 441
#
# _framework density 21.334137999999999
#
# number of rings (size 3 to 8) (size 9 to 14) (size 15 to 20)
#    0.000    0.500    3.750    3.000    7.000    2.000 
#    0.000    0.000    0.000    0.000    0.000    0.000 
#    0.000    0.000    0.000    0.000    0.000    0.000 
#
# Total GULP energy -89244.148262 kJ/mol
# GULP energy per Si atom -5577.759266 kJ/mol
# Density = 2.128558 g / cm^3
# Si number density = 21.334138 Si / 1000 Ang^3
#
#
#
# Elastic Constant Matrix: (Units=GPa)
#
#
# Indices 1 2 3 4 5 6 
#
# 1 157.5166 45.7602 35.9430 -0.8021 0.8735 13.1426
# 2 45.7602 78.0877 38.5586 -18.0607 1.7757 6.7319
# 3 35.9430 38.5586 121.8449 -17.6484 -1.0169 12.9284
# 4 -0.8021 -18.0607 -17.6484 30.5575 -3.6559 -0.3964
# 5 0.8735 1.7757 -1.0169 -3.6559 29.9819 -2.3075
# 6 13.1426 6.7319 12.9284 -0.3964 -2.3075 42.2431
#
#
#
# Elastic Compliance Matrix: (Units=1/GPa)
#
#
# Indices 1 2 3 4 5 6 
#
# 1 0.008133 -0.004818 -0.001221 -0.003420 -0.000522 -0.001450
# 2 -0.004818 0.019507 -0.003326 0.009474 -0.000011 -0.000503
# 3 -0.001221 -0.003326 0.010458 0.004124 0.000921 -0.002202
# 4 -0.003420 0.009474 0.004124 0.041155 0.004614 -0.001070
# 5 -0.000522 -0.000011 0.000921 0.004614 0.034101 0.001788
# 6 -0.001450 -0.000503 -0.002202 -0.001070 0.001788 0.024965
#
#
# Mechanical properties :
#
#
# Convention : Reuss Voigt Hill
#
# Bulk Modulus (GPa) = 51.62807 66.44141 59.03474
# Shear Modulus (GPa) = 30.58028 36.36898 33.47463
#
# Velocity S-wave (km/s) = 3.79013 4.13332 3.96544
# Velocity P-wave (km/s) = 6.58830 7.34779 6.97838
#
# Compressibility (1/GPa) = 0.01936931
#
# Stress axis : x y z
#
# Youngs Moduli (GPa) = 122.95566 51.26487 95.61631
#
# Poissons Ratio (x) = 0.24697 0.11670
# Poissons Ratio (y) = 0.59234 0.31805
# Poissons Ratio (z) = 0.15007 0.17052
#
# Static dielectric constant tensor:
#      x y z
#    x 1.767070 -0.029490 -0.027960 
#    y -0.029490 1.764940 0.061150 
#    z -0.027960 0.061150 1.835960 
# 
# From -- ./inp_files/539267.got.cif
#   From: 2010.05.17/outbox.ucp.g08.bks.cvg/sg2_270_cif.got.tgz:539267.got - 2010.06.11 11:32:03.
