data_PCOD9075158
_publ_section_title
;
Structure prediction by ZEFSAII (Michael W. Deem and Ramdas Pophale) SiO2 
 PCOD9075158
Probable space group: P -1
;
_chemical_formula_sum "Si O2"
_cell_formula_units_Z 16
_cell_length_a 12.000000
_cell_length_b 6.000000
_cell_length_c 12.000000
_cell_angle_alpha 80.000000
_cell_angle_beta 60.000000
_cell_angle_gamma 80.000000
_cell_volume 733.050061
_symmetry_space_group_name_H-M "P -1"
_symmetry_group_IT_number 2
_symmetry_cell_setting 'triclinic'
loop_
_space_group_symop_operation_xyz
x,y,z
-x,-y,-z
loop_
_atom_site_type_symbol
_atom_site_label
_atom_site_fract_x
_atom_site_fract_y
_atom_site_fract_z
Si Si1 0.467142 0.318633 0.752545
Si Si2 0.213027 0.549779 0.945986
Si Si3 0.710002 0.592660 0.607901
Si Si4 0.166443 0.018037 0.083968
Si Si5 0.359899 0.115660 0.599521
Si Si6 0.118194 0.814328 0.494522
Si Si7 0.327699 0.039039 0.233189
Si Si8 0.125285 0.819836 0.754371
O O1 0.365676 0.489441 0.854618
O O2 0.590474 0.448924 0.652419
O O3 0.394744 0.249590 0.682255
O O4 0.530024 0.098806 0.811314
O O5 0.140166 0.625314 0.859335
O O6 0.178240 0.287576 0.016770
O O7 0.196807 0.781994 0.013928
O O8 0.704738 0.750267 0.486752
O O9 0.846239 0.432999 0.559303
O O10 0.677310 0.707296 0.735284
O O11 0.255334 0.004461 0.154411
O O12 0.011216 0.026727 0.176635
O O13 0.500000 0.000000 0.500000
O O14 0.254359 0.945361 0.697749
O O15 0.121557 0.760859 0.629438
O O16 0.239271 0.939030 0.381302
O O17 0.000000 0.000000 0.500000
#
# Coordination Sequence:
#
# PCOD9075158 Si02
#       8
#     2   2   2   2   2   2   2   2
#     4  11  25  44  74 107 151 196 259 309 384 443
#     4  12  29  51  76 109 148 210 264 318 364 440
#     4  11  23  41  72 112 151 194 241 309 390 467
#     4  12  30  51  76 108 154 203 267 310 371 450
#     4  12  21  43  77 115 154 190 243 315 390 468
#     4  11  23  44  70 111 150 189 241 304 397 467
#     4  11  25  47  72 112 150 195 244 316 385 467
#     4  12  25  49  79 109 153 195 251 318 386 449
#
# _framework density 21.826612999999998
#
# number of rings (size 3 to 8) (size 9 to 14) (size 15 to 20)
#    0.000    0.500    3.750    4.125    5.250    3.500 
#    0.000    0.000    0.000    0.000    0.000    0.000 
#    0.000    0.000    0.000    0.000    0.000    0.000 
#
# Total GULP energy -89172.480478 kJ/mol
# GULP energy per Si atom -5573.280030 kJ/mol
# Density = 2.177693 g / cm^3
# Si number density = 21.826613 Si / 1000 Ang^3
#
#
#
# Elastic Constant Matrix: (Units=GPa)
#
#
# Indices 1 2 3 4 5 6 
#
# 1 116.4537 44.6996 38.0543 24.2427 11.8146 -22.0563
# 2 44.6996 134.8471 54.9312 28.5053 9.2921 -17.5305
# 3 38.0543 54.9312 87.2178 17.4179 9.8026 -6.8242
# 4 24.2427 28.5053 17.4179 41.0780 0.6707 -8.5200
# 5 11.8146 9.2921 9.8026 0.6707 49.5131 3.3420
# 6 -22.0563 -17.5305 -6.8242 -8.5200 3.3420 48.4013
#
#
#
# Elastic Compliance Matrix: (Units=1/GPa)
#
#
# Indices 1 2 3 4 5 6 
#
# 1 0.011856 -0.001151 -0.003082 -0.004026 -0.002218 0.003996
# 2 -0.001151 0.011280 -0.005470 -0.004385 -0.000840 0.002076
# 3 -0.003082 -0.005470 0.016655 -0.001680 -0.001429 -0.001234
# 4 -0.004026 -0.004385 -0.001680 0.030792 0.001588 0.001651
# 5 -0.002218 -0.000840 -0.001429 0.001588 0.021328 -0.002710
# 6 0.003996 0.002076 -0.001234 0.001651 -0.002710 0.023537
#
#
# Mechanical properties :
#
#
# Convention : Reuss Voigt Hill
#
# Bulk Modulus (GPa) = 49.05459 68.20987 58.63223
# Shear Modulus (GPa) = 35.29867 41.18738 38.24302
#
# Velocity S-wave (km/s) = 4.02584 4.34870 4.19038
# Velocity P-wave (km/s) = 6.64329 7.51888 7.09461
#
# Compressibility (1/GPa) = 0.02038545
#
# Stress axis : x y z
#
# Youngs Moduli (GPa) = 84.34493 88.65095 60.04306
#
# Poissons Ratio (x) = 0.10206 0.18505
# Poissons Ratio (y) = 0.09710 0.32841
# Poissons Ratio (z) = 0.25994 0.48489
#
# Static dielectric constant tensor:
#      x y z
#    x 1.777540 0.011890 -0.018350 
#    y 0.011890 1.982410 -0.020390 
#    z -0.018350 -0.020390 1.862240 
# 
# From -- ./inp_files/83183.got.cif
#   From: 2010.05.17/outbox.ucp.g08.bks.cvg/sg2_42_cif.got.tgz:83183.got - 2010.06.11 11:32:03.
