data_PCOD9075502
_publ_section_title
;
Structure prediction by ZEFSAII (Michael W. Deem and Ramdas Pophale) SiO2 
 PCOD9075502
Probable space group: P -1
;
_chemical_formula_sum "Si O2"
_cell_formula_units_Z 13
_cell_length_a 12.000000
_cell_length_b 9.000000
_cell_length_c 9.000000
_cell_angle_alpha 50.000000
_cell_angle_beta 130.000000
_cell_angle_gamma 100.000000
_cell_volume 520.713542
_symmetry_space_group_name_H-M "P -1"
_symmetry_group_IT_number 2
_symmetry_cell_setting 'triclinic'
loop_
_space_group_symop_operation_xyz
x,y,z
-x,-y,-z
loop_
_atom_site_type_symbol
_atom_site_label
_atom_site_fract_x
_atom_site_fract_y
_atom_site_fract_z
Si Si1 0.855841 0.322943 0.573420
Si Si2 0.000000 0.500000 0.000000
Si Si3 0.668067 0.109503 0.741574
Si Si4 0.679666 0.536128 0.764138
Si Si5 0.190673 0.347084 0.912999
Si Si6 0.371455 0.893314 0.970119
Si Si7 0.894803 0.992788 0.556728
O O1 0.758805 0.243707 0.659157
O O2 0.766665 0.543201 0.263565
O O3 0.014326 0.348793 0.749019
O O4 0.901326 0.142269 0.599807
O O5 0.191655 0.459452 0.247657
O O6 0.049171 0.248214 0.191422
O O7 0.481238 0.253565 0.503472
O O8 0.725381 0.017099 0.016416
O O9 0.698674 0.898709 0.810801
O O10 0.792864 0.522346 0.013979
O O11 0.611968 0.352139 0.829402
O O12 0.279771 0.937794 0.707478
O O13 0.500000 0.000000 0.000000
O O14 0.000000 0.000000 0.500000
#
# Coordination Sequence:
#
# PCOD9075502 Si02
#       7
#     2   1   2   2   2   2   2
#     4  11  26  49  82 115 159 205 270 324 396 480
#     4  12  26  46  84 110 154 198 274 314 402 462
#     4  12  28  48  77 118 159 207 266 327 393 473
#     4  12  27  50  78 115 157 212 261 332 396 471
#     4  11  25  49  81 113 155 207 258 329 402 466
#     4  12  28  51  75 114 161 207 263 324 403 468
#     4  12  24  51  81 115 159 207 262 323 393 476
#
# _framework density 24.965741999999999
#
# number of rings (size 3 to 8) (size 9 to 14) (size 15 to 20)
#    0.000    0.308    3.077    4.154    4.308    3.077 
#    0.000    0.000    0.000    0.000    0.000    0.000 
#    0.000    0.000    0.000    0.000    0.000    0.000 
#
# Total GULP energy -72470.424421 kJ/mol
# GULP energy per Si atom -5574.648032 kJ/mol
# Density = 2.490892 g / cm^3
# Si number density = 24.965742 Si / 1000 Ang^3
#
#
#
# Elastic Constant Matrix: (Units=GPa)
#
#
# Indices 1 2 3 4 5 6 
#
# 1 137.9281 49.3106 11.7735 2.2303 -7.8115 35.1974
# 2 49.3106 164.8277 35.7132 0.1680 2.5907 33.2906
# 3 11.7735 35.7132 65.5533 -9.1190 7.5842 11.7151
# 4 2.2303 0.1680 -9.1190 60.5783 5.0135 -8.7431
# 5 -7.8115 2.5907 7.5842 5.0135 48.4296 -0.7145
# 6 35.1974 33.2906 11.7151 -8.7431 -0.7145 50.6994
#
#
#
# Elastic Compliance Matrix: (Units=1/GPa)
#
#
# Indices 1 2 3 4 5 6 
#
# 1 0.009407 -0.001676 -0.000154 -0.001312 0.001684 -0.005598
# 2 -0.001676 0.008049 -0.003593 -0.000994 -0.000086 -0.003464
# 3 -0.000154 -0.003593 0.018210 0.002817 -0.002995 -0.001298
# 4 -0.001312 -0.000994 0.002817 0.017748 -0.002379 0.003940
# 5 0.001684 -0.000086 -0.002995 -0.002379 0.021632 -0.000526
# 6 -0.005598 -0.003464 -0.001298 0.003940 -0.000526 0.026857
#
#
# Mechanical properties :
#
#
# Convention : Reuss Voigt Hill
#
# Bulk Modulus (GPa) = 40.28787 62.43376 51.36082
# Shear Modulus (GPa) = 41.31437 50.04225 45.67831
#
# Velocity S-wave (km/s) = 4.07239 4.48195 4.28207
# Velocity P-wave (km/s) = 6.18747 7.20041 6.71307
#
# Compressibility (1/GPa) = 0.02482137
#
# Stress axis : x y z
#
# Youngs Moduli (GPa) = 106.29939 124.24174 54.91359
#
# Poissons Ratio (x) = 0.20818 0.00844
# Poissons Ratio (y) = 0.17811 0.19732
# Poissons Ratio (z) = 0.01634 0.44644
#
# Static dielectric constant tensor:
#      x y z
#    x 1.891850 -0.043890 0.039010 
#    y -0.043890 1.999750 0.042110 
#    z 0.039010 0.042110 2.078110 
# 
# From -- ./inp_files/242320.got.cif
#   From: 2010.05.17/outbox.ucp.g08.bks.cvg/sg2_122_cif.got.tgz:242320.got - 2010.06.11 11:32:03.
