data_PCOD9075654
_publ_section_title
;
Structure prediction by ZEFSAII (Michael W. Deem and Ramdas Pophale) SiO2 
 PCOD9075654
Probable space group: P -1
;
_chemical_formula_sum "Si O2"
_cell_formula_units_Z 16
_cell_length_a 12.000000
_cell_length_b 12.000000
_cell_length_c 6.000000
_cell_angle_alpha 120.000000
_cell_angle_beta 90.000000
_cell_angle_gamma 100.000000
_cell_volume 733.050061
_symmetry_space_group_name_H-M "P -1"
_symmetry_group_IT_number 2
_symmetry_cell_setting 'triclinic'
loop_
_space_group_symop_operation_xyz
x,y,z
-x,-y,-z
loop_
_atom_site_type_symbol
_atom_site_label
_atom_site_fract_x
_atom_site_fract_y
_atom_site_fract_z
Si Si1 0.179833 0.295843 0.096389
Si Si2 0.942735 0.250605 0.290844
Si Si3 0.128327 0.545636 0.156223
Si Si4 0.109952 0.996709 0.644963
Si Si5 0.457367 0.114879 0.248107
Si Si6 0.745919 0.096401 0.819901
Si Si7 0.385515 0.717564 0.198638
Si Si8 0.550224 0.628412 0.774559
O O1 0.153805 0.399894 0.022484
O O2 0.312829 0.354337 0.197655
O O3 0.074993 0.298767 0.271453
O O4 0.160373 0.143137 0.876215
O O5 0.899760 0.365233 0.544460
O O6 0.934136 0.115316 0.289096
O O7 0.852768 0.192622 0.036503
O O8 0.257721 0.630911 0.173652
O O9 0.000000 0.500000 0.000000
O O10 0.204274 0.942265 0.450989
O O11 0.000000 0.000000 0.500000
O O12 0.541477 0.182201 0.517573
O O13 0.459530 0.239837 0.221059
O O14 0.325519 0.043270 0.229371
O O15 0.500000 0.000000 0.000000
O O16 0.651992 0.183887 0.879777
O O17 0.472902 0.634697 0.004146
O O18 0.500000 0.500000 0.500000
#
# Coordination Sequence:
#
# PCOD9075654 Si02
#       8
#     2   2   2   2   2   2   2   2
#     4  12  27  46  73 107 151 186 242 301 364 429
#     4  12  26  48  75 108 147 192 241 299 367 439
#     4  12  27  49  78 106 143 197 245 297 364 438
#     4  12  25  45  70 113 147 184 235 301 374 422
#     4  12  26  46  77 107 143 195 246 296 362 441
#     4  12  25  44  80 107 145 190 243 304 363 433
#     4  12  27  50  75 106 151 189 253 302 357 441
#     4  12  30  48  71 107 148 199 242 301 371 429
#
# _framework density 21.826612999999998
#
# number of rings (size 3 to 8) (size 9 to 14) (size 15 to 20)
#    0.000    0.000    3.750    5.625    7.000    3.000 
#    0.000    0.000    0.000    0.000    0.000    0.000 
#    0.000    0.000    0.000    0.000    0.000    0.000 
#
# Total GULP energy -89105.926490 kJ/mol
# GULP energy per Si atom -5569.120406 kJ/mol
# Density = 2.177693 g / cm^3
# Si number density = 21.826613 Si / 1000 Ang^3
#
#
#
# Elastic Constant Matrix: (Units=GPa)
#
#
# Indices 1 2 3 4 5 6 
#
# 1 181.8690 18.4597 41.0199 -9.4570 7.8596 31.5195
# 2 18.4597 60.8399 -9.0704 11.3646 6.0979 11.3021
# 3 41.0199 -9.0704 83.1969 15.4099 7.7821 17.6101
# 4 -9.4570 11.3646 15.4099 24.7229 6.6261 7.3714
# 5 7.8596 6.0979 7.7821 6.6261 36.7339 -0.2541
# 6 31.5195 11.3021 17.6101 7.3714 -0.2541 58.3254
#
#
#
# Elastic Compliance Matrix: (Units=1/GPa)
#
#
# Indices 1 2 3 4 5 6 
#
# 1 0.008422 -0.004554 -0.005708 0.010304 -0.001718 -0.003255
# 2 -0.004554 0.022727 0.008405 -0.016257 -0.001663 -0.002433
# 3 -0.005708 0.008405 0.019534 -0.017218 -0.001222 -0.002271
# 4 0.010304 -0.016257 -0.017218 0.066387 -0.007872 -0.005644
# 5 -0.001718 -0.001663 -0.001222 -0.007872 0.029564 0.002744
# 6 -0.003255 -0.002433 -0.002271 -0.005644 0.002744 0.020787
#
#
# Mechanical properties :
#
#
# Convention : Reuss Voigt Hill
#
# Bulk Modulus (GPa) = 21.29059 47.41382 34.35220
# Shear Modulus (GPa) = 26.76756 42.32289 34.54522
#
# Velocity S-wave (km/s) = 3.50576 4.40824 3.98265
# Velocity P-wave (km/s) = 5.11495 6.90509 6.07630
#
# Compressibility (1/GPa) = 0.04696911
#
# Stress axis : x y z
#
# Youngs Moduli (GPa) = 118.73185 44.00092 51.19151
#
# Poissons Ratio (x) = 0.20039 0.29220
# Poissons Ratio (y) = 0.54073 -0.43026
# Poissons Ratio (z) = 0.67771 -0.36982
#
# Static dielectric constant tensor:
#      x y z
#    x 1.981220 0.117680 -0.033850 
#    y 0.117680 2.034550 -0.204260 
#    z -0.033850 -0.204260 1.938200 
# 
# From -- ./inp_files/72334.got.cif
#   From: 2010.05.17/outbox.ucp.g08.bks.cvg/sg2_37_cif.got.tgz:72334.got - 2010.06.11 11:32:03.
