data_PCOD9075791
_publ_section_title
;
Structure prediction by ZEFSAII (Michael W. Deem and Ramdas Pophale) SiO2 
 PCOD9075791
Probable space group: P -1
;
_chemical_formula_sum "Si O2"
_cell_formula_units_Z 16
_cell_length_a 8.132312
_cell_length_b 13.789669
_cell_length_c 12.251105
_cell_angle_alpha 134.294170
_cell_angle_beta 37.426265
_cell_angle_gamma 125.177172
_cell_volume 596.895299
_symmetry_space_group_name_H-M "P -1"
_symmetry_group_IT_number 2
_symmetry_cell_setting 'triclinic'
loop_
_space_group_symop_operation_xyz
x,y,z
-x,-y,-z
loop_
_atom_site_type_symbol
_atom_site_label
_atom_site_fract_x
_atom_site_fract_y
_atom_site_fract_z
Si Si1 0.450296 0.260536 0.167375
Si Si2 0.055197 0.189271 0.601961
Si Si3 0.477578 0.654724 0.242365
Si Si4 0.173077 0.972948 0.209871
Si Si5 0.574408 0.826566 0.128782
Si Si6 0.631834 0.547356 0.300176
Si Si7 0.058042 0.468864 0.572716
Si Si8 0.261269 0.931119 0.646053
O O1 0.587473 0.124660 0.020433
O O2 0.669010 0.387461 0.164787
O O3 0.191355 0.323851 0.406592
O O4 0.363758 0.240870 0.071234
O O5 0.752900 0.172157 0.698799
O O6 0.233953 0.091876 0.359570
O O7 0.161733 0.343321 0.672262
O O8 0.030362 0.127530 0.688861
O O9 0.644590 0.733801 0.122025
O O10 0.625076 0.576256 0.197119
O O11 0.327536 0.774088 0.483258
O O12 0.239634 0.553356 0.238210
O O13 0.016304 0.032816 0.238035
O O14 0.702975 0.978187 0.193143
O O15 0.328683 0.564802 0.526334
O O16 0.000000 0.500000 0.500000
O O17 0.500000 0.000000 0.500000
#
# Coordination Sequence:
#
# PCOD9075791 Si02
#       8
#     2   2   2   2   2   2   2   2
#     4   9  21  37  55  84 113 141 181 236 264 324
#     4  10  18  32  55  85 108 151 178 218 274 337
#     4  10  18  34  61  77 106 149 186 220 272 329
#     4  10  19  31  56  81 119 138 183 226 276 325
#     4  10  20  32  57  88 112 133 187 233 272 318
#     4   9  20  35  57  76 111 151 183 215 275 329
#     4   8  18  40  57  72 108 156 185 212 271 339
#     4  10  18  33  53  85 112 147 175 226 281 325
#
# _framework density 26.805372999999999
#
# number of rings (size 3 to 8) (size 9 to 14) (size 15 to 20)
#    0.750    1.750    2.500    1.500    3.500    2.500 
#    0.000    3.125    0.000    0.000    0.000    0.000 
#    0.000    0.000    0.000    0.000    0.000    0.000 
#
# Total GULP energy -89447.381111 kJ/mol
# GULP energy per Si atom -5590.461319 kJ/mol
# Density = 2.674436 g / cm^3
# Si number density = 26.805373 Si / 1000 Ang^3
#
#
#
# Elastic Constant Matrix: (Units=GPa)
#
#
# Indices 1 2 3 4 5 6 
#
# 1 98.7255 29.8829 26.4526 15.2817 -1.6682 -3.9347
# 2 29.8829 133.1243 20.6392 33.8209 5.7877 -4.7199
# 3 26.4526 20.6392 84.1224 3.5374 2.6910 -4.4864
# 4 15.2817 33.8209 3.5374 51.9873 -2.8181 -1.4691
# 5 -1.6682 5.7877 2.6910 -2.8181 39.5118 5.0176
# 6 -3.9347 -4.7199 -4.4864 -1.4691 5.0176 51.0796
#
#
#
# Elastic Compliance Matrix: (Units=1/GPa)
#
#
# Indices 1 2 3 4 5 6 
#
# 1 0.011851 -0.001633 -0.003242 -0.002150 0.000764 0.000340
# 2 -0.001633 0.009695 -0.001526 -0.005807 -0.001882 0.000654
# 3 -0.003242 -0.001526 0.013314 0.001018 -0.000861 0.000892
# 4 -0.002150 -0.005807 0.001018 0.023702 0.002402 -0.000167
# 5 0.000764 -0.001882 -0.000861 0.002402 0.026189 -0.002694
# 6 0.000340 0.000654 0.000892 -0.000167 -0.002694 0.020002
#
#
# Mechanical properties :
#
#
# Convention : Reuss Voigt Hill
#
# Bulk Modulus (GPa) = 45.33335 52.21351 48.77343
# Shear Modulus (GPa) = 40.02987 44.44891 42.23939
#
# Velocity S-wave (km/s) = 3.86858 4.07653 3.97392
# Velocity P-wave (km/s) = 6.07481 6.45589 6.26825
#
# Compressibility (1/GPa) = 0.02205881
#
# Stress axis : x y z
#
# Youngs Moduli (GPa) = 84.37982 103.14387 75.11120
#
# Poissons Ratio (x) = 0.16839 0.24351
# Poissons Ratio (y) = 0.13776 0.11462
# Poissons Ratio (z) = 0.27356 0.15740
#
# Static dielectric constant tensor:
#      x y z
#    x 2.111830 0.030700 0.017000 
#    y 0.030700 2.176100 -0.030320 
#    z 0.017000 -0.030320 2.178040 
# 
# From -- ./inp_files/399552.got.cif
#   From: 2010.05.17/outbox.cif.g08.bks.cpg/sg2_200_cif.got.tgz:399552.got - 2010.06.03 11:33:40.
