data_PCOD9075911
_publ_section_title
;
Structure prediction by ZEFSAII (Michael W. Deem and Ramdas Pophale) SiO2 
 PCOD9075911
Probable space group: P -1
;
_chemical_formula_sum "Si O2"
_cell_formula_units_Z 16
_cell_length_a 7.441608
_cell_length_b 9.374730
_cell_length_c 11.595232
_cell_angle_alpha 103.145083
_cell_angle_beta 101.885941
_cell_angle_gamma 68.619998
_cell_volume 726.728523
_symmetry_space_group_name_H-M "P -1"
_symmetry_group_IT_number 2
_symmetry_cell_setting 'triclinic'
loop_
_space_group_symop_operation_xyz
x,y,z
-x,-y,-z
loop_
_atom_site_type_symbol
_atom_site_label
_atom_site_fract_x
_atom_site_fract_y
_atom_site_fract_z
Si Si1 0.315025 0.719266 0.244168
Si Si2 0.901778 0.364999 0.352787
Si Si3 0.292243 0.532351 0.418731
Si Si4 0.483251 0.733333 0.756979
Si Si5 0.233154 0.359260 0.773821
Si Si6 0.666059 0.544832 0.961137
Si Si7 0.247655 0.022982 0.640546
Si Si8 0.845686 0.962209 0.626251
O O1 0.260615 0.677628 0.356740
O O2 0.547639 0.660365 0.245576
O O3 0.236928 0.613133 0.129010
O O4 0.245694 0.904892 0.266819
O O5 0.854791 0.428488 0.488135
O O6 0.711874 0.317300 0.282735
O O7 0.906929 0.498847 0.291208
O O8 0.090953 0.212968 0.352710
O O9 0.500000 0.500000 0.500000
O O10 0.345227 0.382308 0.317865
O O11 0.566381 0.689822 0.889058
O O12 0.414012 0.901287 0.717665
O O13 0.208377 0.196428 0.711956
O O14 0.216138 0.405104 0.914148
O O15 0.500000 0.500000 0.000000
O O16 0.278003 0.015444 0.504540
O O17 0.053440 0.979710 0.625457
#
# Coordination Sequence:
#
# PCOD9075911 Si02
#       8
#     2   2   2   2   2   2   2   2
#     4  10  18  34  60  81 104 144 186 233 258 324
#     4  10  18  32  57  78 111 148 180 219 270 339
#     4   9  13  26  51  80  98 138 184 211 258 323
#     4   9  16  31  55  80 105 145 183 220 267 326
#     4  11  21  35  58  85 109 139 191 229 268 304
#     4   9  17  34  58  84 106 139 187 233 260 316
#     4  10  22  35  55  82 117 144 174 228 278 332
#     4  10  21  38  53  78 116 149 179 210 288 334
#
# _framework density 22.016473000000001
#
# number of rings (size 3 to 8) (size 9 to 14) (size 15 to 20)
#    0.000    2.250    5.000    3.000    0.000    1.500 
#    0.000    1.250    2.750    0.000    0.000    0.000 
#    0.000    0.000    0.000    0.000    0.000    0.000 
#
# Total GULP energy -89329.658408 kJ/mol
# GULP energy per Si atom -5583.103650 kJ/mol
# Density = 2.196636 g / cm^3
# Si number density = 22.016473 Si / 1000 Ang^3
#
#
#
# Elastic Constant Matrix: (Units=GPa)
#
#
# Indices 1 2 3 4 5 6 
#
# 1 51.4404 17.3933 12.3519 -7.6238 3.7297 -1.9776
# 2 17.3933 202.1206 77.0244 -12.6928 -0.2146 -17.9853
# 3 12.3519 77.0244 151.5059 -12.5987 10.6938 -8.0406
# 4 -7.6238 -12.6928 -12.5987 27.7912 -1.6208 -1.0957
# 5 3.7297 -0.2146 10.6938 -1.6208 14.5657 9.6983
# 6 -1.9776 -17.9853 -8.0406 -1.0957 9.6983 32.0986
#
#
#
# Elastic Compliance Matrix: (Units=1/GPa)
#
#
# Indices 1 2 3 4 5 6 
#
# 1 0.021203 -0.001251 -0.000061 0.004936 -0.006708 0.002786
# 2 -0.001251 0.006531 -0.003046 0.001425 0.001128 0.002527
# 3 -0.000061 -0.003046 0.009134 0.002358 -0.008652 0.003272
# 4 0.004936 0.001425 0.002358 0.039139 -0.000795 0.003269
# 5 -0.006708 0.001128 -0.008652 -0.000795 0.097603 -0.031465
# 6 0.002786 0.002527 0.003272 0.003269 -0.031465 0.043180
#
#
# Mechanical properties :
#
#
# Convention : Reuss Voigt Hill
#
# Bulk Modulus (GPa) = 35.51933 68.73399 52.12666
# Shear Modulus (GPa) = 21.28676 34.77761 28.03219
#
# Velocity S-wave (km/s) = 3.11280 3.97875 3.57212
# Velocity P-wave (km/s) = 5.39328 7.23840 6.38286
#
# Compressibility (1/GPa) = 0.02815369
#
# Stress axis : x y z
#
# Youngs Moduli (GPa) = 47.16419 153.10845 109.47998
#
# Poissons Ratio (x) = 0.19147 0.00668
# Poissons Ratio (y) = 0.05898 0.33342
# Poissons Ratio (z) = 0.00288 0.46630
#
# Static dielectric constant tensor:
#      x y z
#    x 1.825550 0.006360 0.026950 
#    y 0.006360 1.829950 0.006410 
#    z 0.026950 0.006410 1.822020 
# 
# From -- ./inp_files/243136.got.cif
#   From: 2010.05.17/outbox.cif.g08.bks.cpg/sg2_122_cif.got.tgz:243136.got - 2010.06.03 11:33:40.
