data_PCOD9075684
_publ_section_title
;
Structure prediction by ZEFSAII (Michael W. Deem and Ramdas Pophale) SiO2 
 PCOD9075684
Probable space group: P -1
;
_chemical_formula_sum "Si O2"
_cell_formula_units_Z 16
_cell_length_a 27.322969
_cell_length_b 11.711272
_cell_length_c 10.963618
_cell_angle_alpha 131.417438
_cell_angle_beta 27.464584
_cell_angle_gamma 149.674425
_cell_volume 730.333384
_symmetry_space_group_name_H-M "P -1"
_symmetry_group_IT_number 2
_symmetry_cell_setting 'triclinic'
loop_
_space_group_symop_operation_xyz
x,y,z
-x,-y,-z
loop_
_atom_site_type_symbol
_atom_site_label
_atom_site_fract_x
_atom_site_fract_y
_atom_site_fract_z
Si Si1 0.611446 0.508227 0.639954
Si Si2 0.330348 0.092628 0.155937
Si Si3 0.093211 0.262111 0.017459
Si Si4 0.188974 0.669043 0.039811
Si Si5 0.322757 0.503019 0.909104
Si Si6 0.362288 0.260077 0.794735
Si Si7 0.808798 0.254241 0.194184
Si Si8 0.453461 0.955036 0.878563
O O1 0.712495 0.781593 0.636975
O O2 0.741778 0.549586 0.308954
O O3 0.454304 0.374796 0.802688
O O4 0.512972 0.315386 0.832303
O O5 0.181542 0.833840 0.224462
O O6 0.387341 0.051177 0.114275
O O7 0.034672 0.370482 0.202397
O O8 0.158732 0.318280 0.049573
O O9 0.000000 0.000000 0.000000
O O10 0.211150 0.709248 0.874825
O O11 0.354598 0.812060 0.863811
O O12 0.296088 0.349098 0.963596
O O13 0.484735 0.622951 0.553668
O O14 0.377101 0.738855 0.984373
O O15 0.224821 0.965706 0.889367
O O16 0.657336 0.158891 0.544718
O O17 0.000000 0.500000 0.000000
#
# Coordination Sequence:
#
# PCOD9075684 Si02
#       8
#     2   2   2   2   2   2   2   2
#     4  10  18  32  54  80  95 131 173 216 245 299
#     4   9  18  32  57  74  97 129 182 210 244 290
#     4  10  20  31  51  76 104 129 170 208 255 294
#     4   9  18  33  52  72 100 133 174 212 245 294
#     4   8  16  29  48  67  94 132 162 205 243 293
#     4   9  16  30  46  70 101 125 163 209 252 290
#     4  11  19  26  47  80 103 127 162 214 264 291
#     4   8  16  32  50  66  98 129 174 206 240 292
#
# _framework density 21.907805
#
# number of rings (size 3 to 8) (size 9 to 14) (size 15 to 20)
#    0.750    2.000    1.250    1.875    1.750    0.000 
#    0.000    1.250    0.000    2.250    0.000    0.000 
#    0.000    0.000    0.000    0.000    0.000    0.000 
#
# Total GULP energy -89069.832454 kJ/mol
# GULP energy per Si atom -5566.864528 kJ/mol
# Density = 2.185794 g / cm^3
# Si number density = 21.907805 Si / 1000 Ang^3
#
#
#
# Elastic Constant Matrix: (Units=GPa)
#
#
# Indices 1 2 3 4 5 6 
#
# 1 63.9336 32.9984 6.0099 -15.9299 -9.1530 -27.1298
# 2 32.9984 150.7955 0.0495 -12.2092 -6.8725 -21.8676
# 3 6.0099 0.0495 45.0809 -1.6078 -5.3787 1.3367
# 4 -15.9299 -12.2092 -1.6078 19.3032 3.5281 -3.6230
# 5 -9.1530 -6.8725 -5.3787 3.5281 10.9448 -1.0937
# 6 -27.1298 -21.8676 1.3367 -3.6230 -1.0937 41.3356
#
#
#
# Elastic Compliance Matrix: (Units=1/GPa)
#
#
# Indices 1 2 3 4 5 6 
#
# 1 0.041420 -0.000672 -0.002208 0.034750 0.024988 0.030608
# 2 -0.000672 0.007934 0.000552 0.004645 0.003618 0.004241
# 3 -0.002208 0.000552 0.023725 -0.001762 0.010548 -0.001799
# 4 0.034750 0.004645 -0.001762 0.088427 0.005927 0.033229
# 5 0.024988 0.003618 0.010548 0.005927 0.119975 0.021667
# 6 0.030608 0.004241 -0.001799 0.033229 0.021667 0.050069
#
#
# Mechanical properties :
#
#
# Convention : Reuss Voigt Hill
#
# Bulk Modulus (GPa) = 14.61471 37.54729 26.08100
# Shear Modulus (GPa) = 13.92710 29.03355 21.48032
#
# Velocity S-wave (km/s) = 2.52407 3.64436 3.13467
# Velocity P-wave (km/s) = 3.89616 5.90631 5.00323
#
# Compressibility (1/GPa) = 0.06842421
#
# Stress axis : x y z
#
# Youngs Moduli (GPa) = 24.14310 126.03340 42.14952
#
# Poissons Ratio (x) = 0.08471 0.09306
# Poissons Ratio (y) = 0.01623 -0.02329
# Poissons Ratio (z) = 0.05330 -0.06963
#
# Static dielectric constant tensor:
#      x y z
#    x 1.771420 -0.014710 0.003740 
#    y -0.014710 1.905170 0.010460 
#    z 0.003740 0.010460 1.835700 
# 
# From -- ./inp_files/477603.got.cif
#   From: 2010.05.17/outbox.cif.g08.bks.cpg/sg2_239_cif.got.tgz:477603.got - 2010.06.03 11:33:40.
