data_PCOD9075604
_publ_section_title
;
Structure prediction by ZEFSAII (Michael W. Deem and Ramdas Pophale) SiO2 
 PCOD9075604
Probable space group: P -1
;
_chemical_formula_sum "Si O2"
_cell_formula_units_Z 16
_cell_length_a 24.000000
_cell_length_b 9.000000
_cell_length_c 21.000000
_cell_angle_alpha 30.000000
_cell_angle_beta 20.000000
_cell_angle_gamma 30.000000
_cell_volume 738.640068
_symmetry_space_group_name_H-M "P -1"
_symmetry_group_IT_number 2
_symmetry_cell_setting 'triclinic'
loop_
_space_group_symop_operation_xyz
x,y,z
-x,-y,-z
loop_
_atom_site_type_symbol
_atom_site_label
_atom_site_fract_x
_atom_site_fract_y
_atom_site_fract_z
Si Si1 0.930286 0.790781 0.860600
Si Si2 0.814621 0.233423 0.935320
Si Si3 0.156695 0.824739 0.848338
Si Si4 0.771097 0.256725 0.534450
Si Si5 0.324137 0.705196 0.147376
Si Si6 0.133291 0.422960 0.565821
Si Si7 0.413393 0.748074 0.709041
Si Si8 0.424780 0.175578 0.079332
O O1 0.116015 0.698853 0.662196
O O2 0.913548 0.951585 0.887871
O O3 0.811371 0.062590 0.840388
O O4 0.879978 0.471680 0.034707
O O5 0.653883 0.458357 0.986019
O O6 0.944151 0.425396 0.745905
O O7 0.729348 0.141465 0.123816
O O8 0.317498 0.679709 0.775531
O O9 0.190915 0.082875 0.667179
O O10 0.000000 0.000000 0.000000
O O11 0.855547 0.333836 0.480365
O O12 0.575639 0.476365 0.660695
O O13 0.738572 0.924536 0.686439
O O14 0.237064 0.505946 0.362644
O O15 0.500000 0.500000 0.000000
O O16 0.409475 0.910612 0.022751
O O17 0.500000 0.000000 0.500000
O O18 0.500000 0.000000 0.000000
#
# Coordination Sequence:
#
# PCOD9075604 Si02
#       8
#     2   2   2   2   2   2   2   2
#     4  12  28  48  75 108 154 193 244 306 378 431
#     4  12  27  46  72 108 149 189 243 311 365 435
#     4  12  24  50  75 110 145 196 246 303 362 451
#     4  12  25  44  75 108 139 197 243 300 364 441
#     4  12  27  49  74 108 153 193 244 315 373 433
#     4  12  26  47  75 105 150 192 250 297 370 436
#     4  12  23  45  76 103 144 191 247 295 358 444
#     4  12  24  43  74 105 140 186 250 296 363 437
#
# _framework density 21.661429999999999
#
# number of rings (size 3 to 8) (size 9 to 14) (size 15 to 20)
#    0.000    0.000    7.500    1.500    3.500    2.500 
#    0.000    1.250    0.000    0.000    0.000    0.000 
#    0.000    0.000    0.000    0.000    0.000    0.000 
#
# Total GULP energy -89369.059971 kJ/mol
# GULP energy per Si atom -5585.566248 kJ/mol
# Density = 2.161213 g / cm^3
# Si number density = 21.661430 Si / 1000 Ang^3
#
#
#
# Elastic Constant Matrix: (Units=GPa)
#
#
# Indices 1 2 3 4 5 6 
#
# 1 91.6314 16.0632 40.1134 6.1722 -2.7554 -7.9359
# 2 16.0632 54.6892 22.0644 1.5362 10.9771 0.3133
# 3 40.1134 22.0644 166.4662 -8.3516 15.1666 7.6431
# 4 6.1722 1.5362 -8.3516 45.3939 -6.1422 7.0708
# 5 -2.7554 10.9771 15.1666 -6.1422 44.3809 3.3232
# 6 -7.9359 0.3133 7.6431 7.0708 3.3232 29.5782
#
#
#
# Elastic Compliance Matrix: (Units=1/GPa)
#
#
# Indices 1 2 3 4 5 6 
#
# 1 0.013636 -0.002956 -0.003452 -0.002909 0.001976 0.005055
# 2 -0.002956 0.020866 -0.001680 -0.001333 -0.004977 0.000298
# 3 -0.003452 -0.001680 0.007480 0.002147 -0.001822 -0.003150
# 4 -0.002909 -0.001333 0.002147 0.024498 0.003372 -0.007556
# 5 0.001976 -0.004977 -0.001822 0.003372 0.025168 -0.002580
# 6 0.005055 0.000298 -0.003150 -0.007556 -0.002580 0.038072
#
#
# Mechanical properties :
#
#
# Convention : Reuss Voigt Hill
#
# Bulk Modulus (GPa) = 38.75295 52.14100 45.44697
# Shear Modulus (GPa) = 32.36238 39.50699 35.93468
#
# Velocity S-wave (km/s) = 3.86944 4.27528 4.07741
# Velocity P-wave (km/s) = 6.15569 6.96375 6.57215
#
# Compressibility (1/GPa) = 0.02580449
#
# Stress axis : x y z
#
# Youngs Moduli (GPa) = 73.33524 47.92446 133.68736
#
# Poissons Ratio (x) = 0.14168 0.46151
# Poissons Ratio (y) = 0.21680 0.22465
# Poissons Ratio (z) = 0.25316 0.08053
#
# Static dielectric constant tensor:
#      x y z
#    x 1.614520 -0.184030 0.121370 
#    y -0.184030 1.857900 -0.064320 
#    z 0.121370 -0.064320 1.791470 
# 
# From -- ./inp_files/601912.got.cif
#   From: 2010.05.17/outbox.ucp.g08.bks.cvg/sg2_301_cif.got.tgz:601912.got - 2010.06.11 11:32:03.
