data_PCOD9075609
_publ_section_title
;
Structure prediction by ZEFSAII (Michael W. Deem and Ramdas Pophale) SiO2 
 PCOD9075609
Probable space group: P -1
;
_chemical_formula_sum "Si O2"
_cell_formula_units_Z 16
_cell_length_a 9.000000
_cell_length_b 12.000000
_cell_length_c 9.000000
_cell_angle_alpha 50.000000
_cell_angle_beta 90.000000
_cell_angle_gamma 80.000000
_cell_volume 725.212580
_symmetry_space_group_name_H-M "P -1"
_symmetry_group_IT_number 2
_symmetry_cell_setting 'triclinic'
loop_
_space_group_symop_operation_xyz
x,y,z
-x,-y,-z
loop_
_atom_site_type_symbol
_atom_site_label
_atom_site_fract_x
_atom_site_fract_y
_atom_site_fract_z
Si Si1 0.949628 0.263289 0.118002
Si Si2 0.520785 0.833187 0.694199
Si Si3 0.352076 0.471353 0.599876
Si Si4 0.132575 0.976230 0.886093
Si Si5 0.650475 0.403130 0.170285
Si Si6 0.915441 0.466332 0.674110
Si Si7 0.168711 0.225338 0.427967
Si Si8 0.518773 0.146790 0.963650
O O1 0.914038 0.118815 0.166105
O O2 0.802455 0.378817 0.090373
O O3 0.061412 0.208694 0.302471
O O4 0.994760 0.342299 0.899541
O O5 0.389750 0.758850 0.692329
O O6 0.675479 0.763502 0.665958
O O7 0.500000 0.000000 0.500000
O O8 0.516353 0.835643 0.872586
O O9 0.500000 0.500000 0.500000
O O10 0.328434 0.538084 0.712525
O O11 0.235149 0.546403 0.405112
O O12 0.398023 0.290282 0.773228
O O13 0.167706 0.115821 0.666347
O O14 0.296062 0.876818 0.028820
O O15 0.000000 0.000000 0.000000
O O16 0.500000 0.500000 0.000000
O O17 0.890744 0.613707 0.642949
O O18 0.000000 0.500000 0.500000
O O19 0.500000 0.000000 0.000000
#
# Coordination Sequence:
#
# PCOD9075609 Si02
#       8
#     2   2   2   2   2   2   2   2
#     4  12  26  47  70 104 140 187 241 291 355 420
#     4  12  25  46  73 104 142 181 242 292 348 427
#     4  12  26  44  73 104 140 186 233 293 358 416
#     4  12  26  49  70 104 146 183 237 293 352 432
#     4  12  23  46  74 102 140 186 239 295 350 423
#     4  12  27  46  67 105 144 185 235 290 356 421
#     4  12  26  46  73 104 139 192 233 292 356 420
#     4  12  27  46  71 106 143 187 233 295 358 421
#
# _framework density 22.062495999999999
#
# number of rings (size 3 to 8) (size 9 to 14) (size 15 to 20)
#    0.000    0.000    3.750    6.000    5.250    1.000 
#    0.000    0.000    0.000    0.000    0.000    0.000 
#    0.000    0.000    0.000    0.000    0.000    0.000 
#
# Total GULP energy -89106.931474 kJ/mol
# GULP energy per Si atom -5569.183217 kJ/mol
# Density = 2.201228 g / cm^3
# Si number density = 22.062496 Si / 1000 Ang^3
#
#
#
# Elastic Constant Matrix: (Units=GPa)
#
#
# Indices 1 2 3 4 5 6 
#
# 1 57.0816 -17.6791 -15.8652 15.5585 -15.6504 -0.5184
# 2 -17.6791 103.8330 -5.8343 10.5357 -16.3828 27.0607
# 3 -15.8652 -5.8343 85.9902 -3.1847 -12.6084 11.9317
# 4 15.5585 10.5357 -3.1847 42.4751 2.3935 1.8416
# 5 -15.6504 -16.3828 -12.6084 2.3935 34.2553 15.6748
# 6 -0.5184 27.0607 11.9317 1.8416 15.6748 35.2079
#
#
#
# Elastic Compliance Matrix: (Units=1/GPa)
#
#
# Indices 1 2 3 4 5 6 
#
# 1 -0.027995 -0.039213 -0.028371 0.019023 -0.076434 0.072375
# 2 -0.039213 -0.026456 -0.026325 0.020282 -0.068207 0.057984
# 3 -0.028371 -0.026325 -0.008144 0.017217 -0.049820 0.043855
# 4 0.019023 0.020282 0.017217 0.012205 0.042500 -0.040703
# 5 -0.076434 -0.068207 -0.049820 0.042500 -0.112822 0.116188
# 6 0.072375 0.057984 0.043855 -0.040703 0.116188 -0.079559
#
#
# Mechanical properties :
#
#
# Convention : Reuss Voigt Hill
#
# Bulk Modulus (GPa) = -3.99340 18.68309 7.34485
# Shear Modulus (GPa) = -36.12099 41.47320 2.67611
#
# Velocity S-wave (km/s) = -4.05064 4.34038 1.10254
# Velocity P-wave (km/s) = 4.86733 5.79699 2.22646
#
# Compressibility (1/GPa) = -0.25041331
#
# Stress axis : x y z
#
# Youngs Moduli (GPa) = -35.72012 -37.79828 -122.79417
#
# Poissons Ratio (x) = -1.48218 -3.48377
# Poissons Ratio (y) = -1.40069 -3.23258
# Poissons Ratio (z) = -1.01341 -0.99505
#
# Static dielectric constant tensor:
#      x y z
#    x 1.943330 -0.054580 0.019820 
#    y -0.054580 1.826150 -0.098000 
#    z 0.019820 -0.098000 1.878800 
# 
# From -- ./inp_files/184182.got.cif
#   From: 2010.05.17/outbox.ucp.g08.bks.cvg/sg2_93_cif.got.tgz:184182.got - 2010.06.11 11:32:03.
