data_PCOD9075306
_publ_section_title
;
Structure prediction by ZEFSAII (Michael W. Deem and Ramdas Pophale) SiO2 
 PCOD9075306
Probable space group: P -1
;
_chemical_formula_sum "Si O2"
_cell_formula_units_Z 12
_cell_length_a 21.000000
_cell_length_b 12.000000
_cell_length_c 18.000000
_cell_angle_alpha 30.000000
_cell_angle_beta 160.000000
_cell_angle_gamma 160.000000
_cell_volume 524.980204
_symmetry_space_group_name_H-M "P -1"
_symmetry_group_IT_number 2
_symmetry_cell_setting 'triclinic'
loop_
_space_group_symop_operation_xyz
x,y,z
-x,-y,-z
loop_
_atom_site_type_symbol
_atom_site_label
_atom_site_fract_x
_atom_site_fract_y
_atom_site_fract_z
Si Si1 0.689269 0.346934 0.047870
Si Si2 0.831442 0.190268 0.440383
Si Si3 0.081419 0.934020 0.822764
Si Si4 0.394789 0.808704 0.299510
Si Si5 0.262242 0.273305 0.681781
Si Si6 0.255750 0.774265 0.419188
O O1 0.782703 0.294167 0.254006
O O2 0.984501 0.648373 0.161224
O O3 0.527137 0.431895 0.834410
O O4 0.500000 0.000000 0.000000
O O5 0.000000 0.500000 0.500000
O O6 0.983446 0.086858 0.656893
O O7 0.540550 0.893240 0.332149
O O8 0.822982 0.579441 0.707458
O O9 0.281262 0.139952 0.853105
O O10 0.228792 0.896621 0.063137
O O11 0.625706 0.023581 0.491442
O O12 0.217853 0.475593 0.550360
O O13 0.000000 0.000000 0.500000
O O14 0.500000 0.000000 0.500000
#
# Coordination Sequence:
#
# PCOD9075306 Si02
#       6
#     2   2   2   2   2   2
#     4  12  25  43  71 102 136 186 230 283 351 415
#     4  12  23  43  69 102 137 177 239 287 342 416
#     4  11  24  42  68 102 137 187 225 288 351 411
#     4  11  25  42  68 102 141 178 236 288 346 413
#     4  12  23  44  70  97 138 186 229 284 349 420
#     4  12  27  45  69 103 140 181 235 293 348 415
#
# _framework density 22.858004999999999
#
# number of rings (size 3 to 8) (size 9 to 14) (size 15 to 20)
#    0.000    0.333    6.667    1.500    2.333    2.000 
#    0.000    1.667    0.000    0.000    0.000    0.000 
#    0.000    0.000    0.000    0.000    0.000    0.000 
#
# Total GULP energy -66978.058426 kJ/mol
# GULP energy per Si atom -5581.504869 kJ/mol
# Density = 2.280598 g / cm^3
# Si number density = 22.858005 Si / 1000 Ang^3
#
#
#
# Elastic Constant Matrix: (Units=GPa)
#
#
# Indices 1 2 3 4 5 6 
#
# 1 50.0280 13.3843 34.8909 4.1844 14.1949 -7.6406
# 2 13.3843 51.6057 27.0139 10.8619 6.6612 -16.7928
# 3 34.8909 27.0139 122.1620 16.9474 35.6137 -18.7311
# 4 4.1844 10.8619 16.9474 38.0337 -2.4258 2.4826
# 5 14.1949 6.6612 35.6137 -2.4258 54.7405 11.8069
# 6 -7.6406 -16.7928 -18.7311 2.4826 11.8069 34.8548
#
#
#
# Elastic Compliance Matrix: (Units=1/GPa)
#
#
# Indices 1 2 3 4 5 6 
#
# 1 0.025826 -0.002508 -0.005349 -0.000147 -0.003518 0.002780
# 2 -0.002508 0.027933 0.000261 -0.009295 -0.006783 0.016008
# 3 -0.005349 0.000261 0.016330 -0.008366 -0.012337 0.012504
# 4 -0.000147 -0.009295 -0.008366 0.034422 0.011445 -0.015335
# 5 -0.003518 -0.006783 -0.012337 0.011445 0.033461 -0.022819
# 6 0.002780 0.016008 0.012504 -0.015335 -0.022819 0.052554
#
#
# Mechanical properties :
#
#
# Convention : Reuss Voigt Hill
#
# Bulk Modulus (GPa) = 18.21626 41.59709 29.90667
# Shear Modulus (GPa) = 22.31984 35.42624 28.87304
#
# Velocity S-wave (km/s) = 3.12822 3.94107 3.55793
# Velocity P-wave (km/s) = 4.58632 6.24075 5.47637
#
# Compressibility (1/GPa) = 0.05489602
#
# Stress axis : x y z
#
# Youngs Moduli (GPa) = 38.72133 35.80043 61.23639
#
# Poissons Ratio (x) = 0.08979 0.32756
# Poissons Ratio (y) = 0.09712 -0.01599
# Poissons Ratio (z) = 0.20713 -0.00935
#
# Static dielectric constant tensor:
#      x y z
#    x 2.122790 0.574030 0.185200 
#    y 0.574030 2.825740 0.392590 
#    z 0.185200 0.392590 1.955490 
# 
# From -- ./inp_files/173735.got.cif
#   From: 2010.05.17/outbox.ucp.g08.bks.cvg/sg2_87_cif.got.tgz:173735.got - 2010.06.11 11:32:03.
