data_PCOD9075706
_publ_section_title
;
Structure prediction by ZEFSAII (Michael W. Deem and Ramdas Pophale) SiO2 
 PCOD9075706
Probable space group: P -1
;
_chemical_formula_sum "Si O2"
_cell_formula_units_Z 14
_cell_length_a 10.977200
_cell_length_b 6.744671
_cell_length_c 11.718102
_cell_angle_alpha 85.796248
_cell_angle_beta 41.613157
_cell_angle_gamma 82.655160
_cell_volume 571.103723
_symmetry_space_group_name_H-M "P -1"
_symmetry_group_IT_number 2
_symmetry_cell_setting 'triclinic'
loop_
_space_group_symop_operation_xyz
x,y,z
-x,-y,-z
loop_
_atom_site_type_symbol
_atom_site_label
_atom_site_fract_x
_atom_site_fract_y
_atom_site_fract_z
Si Si1 0.944066 0.740519 0.008842
Si Si2 0.761846 0.298674 0.027781
Si Si3 0.886761 0.691827 0.803564
Si Si4 0.757927 0.427343 0.561117
Si Si5 0.506061 0.836295 0.342403
Si Si6 0.473954 0.288438 0.416182
Si Si7 0.430064 0.310407 0.119047
O O1 0.726025 0.799163 0.174829
O O2 0.972260 0.782339 0.852828
O O3 0.000000 0.500000 0.000000
O O4 0.070334 0.822823 0.016397
O O5 0.626831 0.373988 0.225217
O O6 0.614525 0.202104 0.054207
O O7 0.835000 0.476598 0.896234
O O8 0.696860 0.793367 0.876127
O O9 0.037091 0.669175 0.599243
O O10 0.617305 0.257787 0.661741
O O11 0.713384 0.570775 0.476327
O O12 0.705299 0.579167 0.694428
O O13 0.466937 0.734997 0.494916
O O14 0.452332 0.069961 0.391405
O O15 0.500000 0.500000 0.000000
#
# Coordination Sequence:
#
# PCOD9075706 Si02
#       7
#     2   2   2   2   2   2   2
#     4  10  18  32  54  83 112 143 186 230 277 332
#     4   9  18  33  52  77 114 146 181 233 278 326
#     4  10  19  33  58  87 112 149 193 229 282 341
#     4  11  20  36  60  80 115 152 186 234 283 336
#     4  11  22  35  56  85 117 151 188 233 286 338
#     4  10  21  36  55  83 117 150 189 233 284 337
#     4   9  18  33  56  84 112 148 190 230 279 338
#
# _framework density 24.513936000000001
#
# number of rings (size 3 to 8) (size 9 to 14) (size 15 to 20)
#    0.000    2.000    0.000    7.714    0.000    0.571 
#    0.000    1.429    0.000   29.143    0.000    2.000 
#    0.000    0.000    0.000    0.000    0.000    0.000 
#
# Total GULP energy -78127.643841 kJ/mol
# GULP energy per Si atom -5580.545989 kJ/mol
# Density = 2.445814 g / cm^3
# Si number density = 24.513936 Si / 1000 Ang^3
#
#
#
# Elastic Constant Matrix: (Units=GPa)
#
#
# Indices 1 2 3 4 5 6 
#
# 1 193.6767 32.1649 23.8297 6.7975 -25.2361 8.7020
# 2 32.1649 51.8380 7.3130 16.8713 -3.9289 14.6808
# 3 23.8297 7.3130 90.4036 -5.2356 -11.2539 9.6234
# 4 6.7975 16.8713 -5.2356 22.4489 -2.5017 6.5745
# 5 -25.2361 -3.9289 -11.2539 -2.5017 43.3725 3.9379
# 6 8.7020 14.6808 9.6234 6.5745 3.9379 21.0385
#
#
#
# Elastic Compliance Matrix: (Units=1/GPa)
#
#
# Indices 1 2 3 4 5 6 
#
# 1 0.006297 -0.003802 -0.000811 0.001295 0.003238 -0.000592
# 2 -0.003802 0.032129 -0.001057 -0.018898 0.000658 -0.014581
# 3 -0.000811 -0.001057 0.013069 0.006799 0.003920 -0.007763
# 4 0.001295 -0.018898 0.006799 0.063917 0.005533 -0.011468
# 5 0.003238 0.000658 0.003920 0.005533 0.027283 -0.010427
# 6 -0.000592 -0.014581 -0.007763 -0.011468 -0.010427 0.067038
#
#
# Mechanical properties :
#
#
# Convention : Reuss Voigt Hill
#
# Bulk Modulus (GPa) = 24.90375 51.39261 38.14818
# Shear Modulus (GPa) = 21.32581 35.54602 28.43592
#
# Velocity S-wave (km/s) = 2.95269 3.81206 3.40956
# Velocity P-wave (km/s) = 4.66964 6.35499 5.57635
#
# Compressibility (1/GPa) = 0.04015459
#
# Stress axis : x y z
#
# Youngs Moduli (GPa) = 158.79524 31.12477 76.51696
#
# Poissons Ratio (x) = 0.11832 0.06209
# Poissons Ratio (y) = 0.60367 0.08090
# Poissons Ratio (z) = 0.12885 0.03291
#
# Static dielectric constant tensor:
#      x y z
#    x 2.054970 0.045260 0.003510 
#    y 0.045260 1.957270 -0.009670 
#    z 0.003510 -0.009670 1.949350 
# 
# From -- ./inp_files/414855.got.cif
#   From: 2010.05.17/outbox.cif.g08.bks.cpg/sg2_208_cif.got.tgz:414855.got - 2010.06.03 11:33:40.
