data_PCOD9075632
_publ_section_title
;
Structure prediction by ZEFSAII (Michael W. Deem and Ramdas Pophale) SiO2 
 PCOD9075632
Probable space group: P -1
;
_chemical_formula_sum "Si O2"
_cell_formula_units_Z 15
_cell_length_a 9.000000
_cell_length_b 21.000000
_cell_length_c 12.000000
_cell_angle_alpha 150.000000
_cell_angle_beta 60.000000
_cell_angle_gamma 140.000000
_cell_volume 627.666119
_symmetry_space_group_name_H-M "P -1"
_symmetry_group_IT_number 2
_symmetry_cell_setting 'triclinic'
loop_
_space_group_symop_operation_xyz
x,y,z
-x,-y,-z
loop_
_atom_site_type_symbol
_atom_site_label
_atom_site_fract_x
_atom_site_fract_y
_atom_site_fract_z
Si Si1 0.644231 0.469633 0.834630
Si Si2 0.360044 0.785447 0.411253
Si Si3 0.133756 0.364186 0.576679
Si Si4 0.825315 0.864002 0.668627
Si Si5 0.560722 0.817376 0.147296
Si Si6 0.000000 0.500000 0.500000
Si Si7 0.808765 0.149817 0.149147
Si Si8 0.241229 0.788961 0.037882
O O1 0.701499 0.379413 0.751526
O O2 0.944114 0.675163 0.996157
O O3 0.500000 0.500000 0.000000
O O4 0.435988 0.308103 0.571812
O O5 0.083734 0.699636 0.352361
O O6 0.510224 0.831280 0.312741
O O7 0.561676 0.980915 0.711136
O O8 0.946423 0.269179 0.394558
O O9 0.193428 0.251117 0.402352
O O10 0.407361 0.598035 0.843093
O O11 0.120337 0.008009 0.724555
O O12 0.828462 0.010612 0.926220
O O13 0.401251 0.824131 0.137686
O O14 0.983159 0.338013 0.287866
O O15 0.200960 0.646973 0.754585
O O16 0.500000 0.000000 0.000000
#
# Coordination Sequence:
#
# PCOD9075632 Si02
#       8
#     2   2   2   2   2   1   2   2
#     4  12  27  46  70 109 145 191 240 298 363 430
#     4  12  25  45  78 104 147 193 243 295 363 435
#     4  12  25  47  74 109 146 193 241 300 364 429
#     4  12  28  46  72 111 149 184 246 304 357 433
#     4  12  26  45  74 111 142 193 241 297 365 424
#     4  12  24  46  76 100 140 184 246 288 356 432
#     4  12  27  48  75 104 145 194 241 298 368 431
#     4  12  25  46  75 102 142 192 242 294 366 426
#
# _framework density 23.898056
#
# number of rings (size 3 to 8) (size 9 to 14) (size 15 to 20)
#    0.000    0.000    4.000    6.000    1.867    6.933 
#    2.400    0.000    0.000    0.000    0.000    0.000 
#    0.000    0.000    0.000    0.000    0.000    0.000 
#
# Total GULP energy -83574.860366 kJ/mol
# GULP energy per Si atom -5571.657358 kJ/mol
# Density = 2.384366 g / cm^3
# Si number density = 23.898056 Si / 1000 Ang^3
#
#
#
# Elastic Constant Matrix: (Units=GPa)
#
#
# Indices 1 2 3 4 5 6 
#
# 1 90.3191 22.2258 18.9073 9.7342 -13.7834 12.2562
# 2 22.2258 20.5219 -13.1255 10.0020 2.9009 -4.3391
# 3 18.9073 -13.1255 92.8595 7.8689 -11.0939 -17.5702
# 4 9.7342 10.0020 7.8689 31.9460 -1.4741 10.0646
# 5 -13.7834 2.9009 -11.0939 -1.4741 65.4049 5.8863
# 6 12.2562 -4.3391 -17.5702 10.0646 5.8863 24.4189
#
#
#
# Elastic Compliance Matrix: (Units=1/GPa)
#
#
# Indices 1 2 3 4 5 6 
#
# 1 -0.016184 0.068846 0.026785 -0.042183 -0.008180 0.058987
# 2 0.068846 -0.156877 -0.071733 0.097577 0.025945 -0.160518
# 3 0.026785 -0.071733 -0.017272 0.036963 0.011833 -0.056706
# 4 -0.042183 0.097577 0.036963 -0.020412 -0.014336 0.076976
# 5 -0.008180 0.025945 0.011833 -0.014336 0.012283 0.020178
# 6 0.058987 -0.160518 -0.056706 0.076976 0.020178 -0.094571
#
#
# Mechanical properties :
#
#
# Convention : Reuss Voigt Hill
#
# Bulk Modulus (GPa) = -7.01569 28.85730 10.92081
# Shear Modulus (GPa) = -12.87529 36.06682 11.59576
#
# Velocity S-wave (km/s) = -2.32364 3.88905 2.20516
# Velocity P-wave (km/s) = 3.18451 5.68046 3.32615
#
# Compressibility (1/GPa) = -0.14253765
#
# Stress axis : x y z
#
# Youngs Moduli (GPa) = -61.79103 -6.37440 -57.89668
#
# Poissons Ratio (x) = 0.43885 1.55076
# Poissons Ratio (y) = 4.25407 -4.15312
# Poissons Ratio (z) = 1.65507 -0.45726
#
# Static dielectric constant tensor:
#      x y z
#    x 1.861390 -0.061150 -0.006140 
#    y -0.061150 1.977130 -0.050700 
#    z -0.006140 -0.050700 1.971700 
# 
# From -- ./inp_files/177168.got.cif
#   From: 2010.05.17/outbox.ucp.g08.bks.cvg/sg2_89_cif.got.tgz:177168.got - 2010.06.11 11:32:03.
