data_PCOD9075009
_publ_section_title
;
Structure prediction by ZEFSAII (Michael W. Deem and Ramdas Pophale) SiO2 
 PCOD9075009
Probable space group: P -1
;
_chemical_formula_sum "Si O2"
_cell_formula_units_Z 14
_cell_length_a 9.000000
_cell_length_b 9.000000
_cell_length_c 12.000000
_cell_angle_alpha 40.000000
_cell_angle_beta 80.000000
_cell_angle_gamma 80.000000
_cell_volume 614.029152
_symmetry_space_group_name_H-M "P -1"
_symmetry_group_IT_number 2
_symmetry_cell_setting 'triclinic'
loop_
_space_group_symop_operation_xyz
x,y,z
-x,-y,-z
loop_
_atom_site_type_symbol
_atom_site_label
_atom_site_fract_x
_atom_site_fract_y
_atom_site_fract_z
Si Si1 0.580298 0.823387 0.886709
Si Si2 0.194561 0.035928 0.056056
Si Si3 0.135448 0.471590 0.656195
Si Si4 0.682663 0.416993 0.823620
Si Si5 0.461273 0.666636 0.516801
Si Si6 0.839675 0.423222 0.016632
Si Si7 0.929705 0.873548 0.334914
O O1 0.547730 0.053923 0.677294
O O2 0.644642 0.925122 0.932959
O O3 0.432713 0.693273 0.011284
O O4 0.708236 0.610983 0.971352
O O5 0.128489 0.262628 0.867981
O O6 0.229105 0.800286 0.120679
O O7 0.077194 0.966376 0.204173
O O8 0.287454 0.598785 0.598297
O O9 0.005056 0.681956 0.526288
O O10 0.149124 0.305161 0.637365
O O11 0.581534 0.582190 0.651815
O O12 0.812102 0.491390 0.850016
O O13 0.500000 0.500000 0.500000
O O14 0.837963 0.136557 0.209246
O O15 0.000000 0.500000 0.000000
#
# Coordination Sequence:
#
# PCOD9075009 Si02
#       7
#     2   2   2   2   2   2   2
#     4  12  25  46  72 103 146 184 224 290 351 419
#     4  12  21  42  73 103 134 179 233 288 345 402
#     4  11  22  39  68 104 134 173 234 289 339 404
#     4  12  26  44  74 104 139 188 230 288 351 409
#     4  12  23  42  72 109 136 175 240 293 342 410
#     4  12  26  48  70  99 148 190 228 281 355 420
#     4  11  24  42  67 103 140 179 228 292 344 403
#
# _framework density 22.800219999999999
#
# number of rings (size 3 to 8) (size 9 to 14) (size 15 to 20)
#    0.000    0.286    7.143    2.143    0.000    0.571 
#    0.000    2.143    0.000    0.000    0.000    0.000 
#    0.000    0.000    0.000    0.000    0.000    0.000 
#
# Total GULP energy -77963.124296 kJ/mol
# GULP energy per Si atom -5568.794593 kJ/mol
# Density = 2.274833 g / cm^3
# Si number density = 22.800220 Si / 1000 Ang^3
#
#
#
# Elastic Constant Matrix: (Units=GPa)
#
#
# Indices 1 2 3 4 5 6 
#
# 1 111.3177 6.1496 47.7172 8.2578 33.1155 12.6470
# 2 6.1496 61.5244 11.3097 -16.3315 13.3302 -0.7605
# 3 47.7172 11.3097 205.6947 -22.0686 45.1598 -5.7433
# 4 8.2578 -16.3315 -22.0686 41.8979 -2.2523 18.4419
# 5 33.1155 13.3302 45.1598 -2.2523 55.8646 1.8473
# 6 12.6470 -0.7605 -5.7433 18.4419 1.8473 52.1287
#
#
#
# Elastic Compliance Matrix: (Units=1/GPa)
#
#
# Indices 1 2 3 4 5 6 
#
# 1 0.011881 -0.000481 -0.001909 -0.003018 -0.005446 -0.001839
# 2 -0.000481 0.019523 0.000976 0.009082 -0.004713 -0.002537
# 3 -0.001909 0.000976 0.006625 0.004048 -0.004291 -0.000073
# 4 -0.003018 0.009082 0.004048 0.034855 -0.001883 -0.010953
# 5 -0.005446 -0.004713 -0.004291 -0.001883 0.025628 0.000538
# 6 -0.001839 -0.002537 -0.000073 -0.010953 0.000538 0.023440
#
#
# Mechanical properties :
#
#
# Convention : Reuss Voigt Hill
#
# Bulk Modulus (GPa) = 28.40742 56.54330 42.47536
# Shear Modulus (GPa) = 36.62636 50.86892 43.74764
#
# Velocity S-wave (km/s) = 4.01234 4.72855 4.38509
# Velocity P-wave (km/s) = 5.82679 7.39361 6.65646
#
# Compressibility (1/GPa) = 0.03520207
#
# Stress axis : x y z
#
# Youngs Moduli (GPa) = 84.16714 51.22204 150.93869
#
# Poissons Ratio (x) = 0.02461 0.28819
# Poissons Ratio (y) = 0.04044 -0.14736
# Poissons Ratio (z) = 0.16070 -0.05001
#
# Static dielectric constant tensor:
#      x y z
#    x 1.921450 0.005190 -0.024570 
#    y 0.005190 1.997450 0.037420 
#    z -0.024570 0.037420 1.867290 
# 
# From -- ./inp_files/380852.got.cif
#   From: 2010.05.17/outbox.ucp.g08.bks.cvg/sg2_191_cif.got.tgz:380852.got - 2010.06.11 11:32:03.
