data_PCOD9075321
_publ_section_title
;
Structure prediction by ZEFSAII (Michael W. Deem and Ramdas Pophale) SiO2 
 PCOD9075321
Probable space group: P -1
;
_chemical_formula_sum "Si O2"
_cell_formula_units_Z 16
_cell_length_a 15.000000
_cell_length_b 6.000000
_cell_length_c 15.000000
_cell_angle_alpha 70.000000
_cell_angle_beta 140.000000
_cell_angle_gamma 120.000000
_cell_volume 749.463735
_symmetry_space_group_name_H-M "P -1"
_symmetry_group_IT_number 2
_symmetry_cell_setting 'triclinic'
loop_
_space_group_symop_operation_xyz
x,y,z
-x,-y,-z
loop_
_atom_site_type_symbol
_atom_site_label
_atom_site_fract_x
_atom_site_fract_y
_atom_site_fract_z
Si Si1 0.913080 0.684519 0.952475
Si Si2 0.363621 0.777597 0.539093
Si Si3 0.238181 0.714609 0.957859
Si Si4 0.622562 0.730906 0.622319
Si Si5 0.110767 0.085569 0.703117
Si Si6 0.542413 0.996053 0.228079
Si Si7 0.214066 0.220964 0.556721
Si Si8 0.359774 0.577281 0.901629
O O1 0.764202 0.671841 0.780411
O O2 0.861941 0.534735 0.028140
O O3 0.000000 0.500000 0.000000
O O4 0.000000 0.000000 0.000000
O O5 0.512941 0.771325 0.607383
O O6 0.406328 0.849013 0.663642
O O7 0.234197 0.490701 0.488565
O O8 0.322447 0.000255 0.429296
O O9 0.156189 0.864189 0.815577
O O10 0.349125 0.650877 0.984382
O O11 0.362348 0.900510 0.095970
O O12 0.500000 0.500000 0.500000
O O13 0.930153 0.993056 0.573820
O O14 0.169605 0.166904 0.635053
O O15 0.202619 0.343336 0.792488
O O16 0.615998 0.181530 0.175868
O O17 0.623237 0.795316 0.323249
O O18 0.500000 0.500000 0.000000
#
# Coordination Sequence:
#
# PCOD9075321 Si02
#       8
#     2   2   2   2   2   2   2   2
#     4  12  33  54  81 116 161 207 270 334 401 462
#     4  11  25  44  81 104 145 194 252 317 383 457
#     4  12  27  46  74 106 149 196 250 314 379 457
#     4  11  27  52  78 108 144 200 269 323 391 465
#     4  11  25  42  66 101 150 188 243 297 381 457
#     4  12  24  43  74 108 143 191 248 308 380 466
#     4  11  24  43  64 106 146 191 239 305 373 462
#     4  12  24  42  72 107 148 194 247 304 382 464
#
# _framework density 21.348597999999999
#
# number of rings (size 3 to 8) (size 9 to 14) (size 15 to 20)
#    0.000    0.500    3.750    3.375   10.500    2.500 
#    0.000    0.000    0.000    0.000    0.000    0.000 
#    0.000    0.000    0.000    0.000    0.000    0.000 
#
# Total GULP energy -89286.071913 kJ/mol
# GULP energy per Si atom -5580.379495 kJ/mol
# Density = 2.130001 g / cm^3
# Si number density = 21.348598 Si / 1000 Ang^3
#
#
#
# Elastic Constant Matrix: (Units=GPa)
#
#
# Indices 1 2 3 4 5 6 
#
# 1 72.8931 17.7475 -2.3106 -14.3282 -4.9880 11.0499
# 2 17.7475 146.5198 32.0697 -17.8903 -2.5799 32.3912
# 3 -2.3106 32.0697 106.4439 -6.3703 22.1366 7.3742
# 4 -14.3282 -17.8903 -6.3703 39.9525 -10.7068 -2.9569
# 5 -4.9880 -2.5799 22.1366 -10.7068 15.6229 -9.9427
# 6 11.0499 32.3912 7.3742 -2.9569 -9.9427 40.3211
#
#
#
# Elastic Compliance Matrix: (Units=1/GPa)
#
#
# Indices 1 2 3 4 5 6 
#
# 1 0.016567 -0.000178 -0.002247 0.009670 0.015403 0.000521
# 2 -0.000178 0.009472 -0.003789 0.005249 0.007528 -0.004626
# 3 -0.002247 -0.003789 0.020356 -0.012766 -0.046936 -0.012573
# 4 0.009670 0.005249 -0.012766 0.046890 0.063437 0.014550
# 5 0.015403 0.007528 -0.046936 0.063437 0.215925 0.056212
# 6 0.000521 -0.004626 -0.012573 0.014550 0.056212 0.045602
#
#
# Mechanical properties :
#
#
# Convention : Reuss Voigt Hill
#
# Bulk Modulus (GPa) = 29.44167 46.76332 38.10250
# Shear Modulus (GPa) = 13.20793 37.73600 25.47196
#
# Velocity S-wave (km/s) = 2.49002 4.20886 3.45794
# Velocity P-wave (km/s) = 4.69977 6.75067 5.81633
#
# Compressibility (1/GPa) = 0.03396546
#
# Stress axis : x y z
#
# Youngs Moduli (GPa) = 60.36268 105.57484 49.12674
#
# Poissons Ratio (x) = 0.01881 0.11041
# Poissons Ratio (y) = 0.01075 0.18612
# Poissons Ratio (z) = 0.13566 0.39999
#
# Static dielectric constant tensor:
#      x y z
#    x 1.810250 -0.043690 -0.017860 
#    y -0.043690 1.852090 0.025770 
#    z -0.017860 0.025770 1.780830 
# 
# From -- ./inp_files/473382.got.cif
#   From: 2010.05.17/outbox.ucp.g08.bks.cvg/sg2_237_cif.got.tgz:473382.got - 2010.06.11 11:32:03.
