data_PCOD9075389
_publ_section_title
;
Structure prediction by ZEFSAII (Michael W. Deem and Ramdas Pophale) SiO2 
 PCOD9075389
Probable space group: P -1
;
_chemical_formula_sum "Si O2"
_cell_formula_units_Z 16
_cell_length_a 9.000000
_cell_length_b 12.000000
_cell_length_c 9.000000
_cell_angle_alpha 60.000000
_cell_angle_beta 120.000000
_cell_angle_gamma 100.000000
_cell_volume 725.212580
_symmetry_space_group_name_H-M "P -1"
_symmetry_group_IT_number 2
_symmetry_cell_setting 'triclinic'
loop_
_space_group_symop_operation_xyz
x,y,z
-x,-y,-z
loop_
_atom_site_type_symbol
_atom_site_label
_atom_site_fract_x
_atom_site_fract_y
_atom_site_fract_z
Si Si1 0.983661 0.789279 0.225150
Si Si2 0.511854 0.396388 0.207892
Si Si3 0.240747 0.895131 0.822034
Si Si4 0.407673 0.153899 0.132914
Si Si5 0.174386 0.542582 0.482571
Si Si6 0.317318 0.878383 0.220541
Si Si7 0.363863 0.353136 0.458059
Si Si8 0.070596 0.181070 0.471177
O O1 0.083023 0.666761 0.268715
O O2 0.135076 0.882259 0.215381
O O3 0.969016 0.777161 0.405016
O O4 0.787424 0.809616 0.052308
O O5 0.457201 0.257645 0.213189
O O6 0.703299 0.402691 0.367271
O O7 0.393808 0.431784 0.270340
O O8 0.500000 0.500000 0.000000
O O9 0.433533 0.841714 0.905063
O O10 0.097511 0.818098 0.718565
O O11 0.176323 0.039337 0.635331
O O12 0.254195 0.902257 0.002470
O O13 0.407127 0.998486 0.257263
O O14 0.297145 0.444488 0.504881
O O15 0.000000 0.500000 0.500000
O O16 0.460682 0.750196 0.372445
O O17 0.204205 0.270676 0.410407
#
# Coordination Sequence:
#
# PCOD9075389 Si02
#       8
#     2   2   2   2   2   2   2   2
#     4  12  25  46  73 110 155 202 252 310 384 453
#     4  12  30  50  76 111 150 204 260 318 376 455
#     4  11  25  42  74 110 157 196 250 310 381 459
#     4  12  26  47  76 111 156 198 250 315 380 456
#     4  12  26  51  78 106 150 206 255 316 379 457
#     4  12  26  46  78 115 152 202 251 316 386 454
#     4  12  27  50  79 109 153 199 262 310 394 446
#     4  11  24  46  71 112 154 198 248 315 380 454
#
# _framework density 22.062495999999999
#
# number of rings (size 3 to 8) (size 9 to 14) (size 15 to 20)
#    0.000    0.250    5.000    3.375    3.500    1.500 
#    0.000    2.500    0.000    0.000    0.000    0.000 
#    0.000    0.000    0.000    0.000    0.000    0.000 
#
# Total GULP energy -89231.932910 kJ/mol
# GULP energy per Si atom -5576.995807 kJ/mol
# Density = 2.201228 g / cm^3
# Si number density = 22.062496 Si / 1000 Ang^3
#
#
#
# Elastic Constant Matrix: (Units=GPa)
#
#
# Indices 1 2 3 4 5 6 
#
# 1 184.3707 50.8666 52.1247 15.9310 15.6184 14.4287
# 2 50.8666 133.6479 39.4519 17.7561 13.6999 1.9699
# 3 52.1247 39.4519 84.1289 5.2562 15.3810 2.1812
# 4 15.9310 17.7561 5.2562 31.4670 -3.4470 9.9966
# 5 15.6184 13.6999 15.3810 -3.4470 46.1941 -2.9015
# 6 14.4287 1.9699 2.1812 9.9966 -2.9015 45.6817
#
#
#
# Elastic Compliance Matrix: (Units=1/GPa)
#
#
# Indices 1 2 3 4 5 6 
#
# 1 0.007152 -0.001313 -0.003447 -0.001889 -0.001128 -0.001696
# 2 -0.001313 0.009711 -0.003162 -0.004818 -0.001674 0.001095
# 3 -0.003447 -0.003162 0.016058 0.000447 -0.003200 0.000157
# 4 -0.001889 -0.004818 0.000447 0.038170 0.004309 -0.007296
# 5 -0.001128 -0.001674 -0.003200 0.004309 0.023986 0.001162
# 6 -0.001696 0.001095 0.000157 -0.007296 0.001162 0.024042
#
#
# Mechanical properties :
#
#
# Convention : Reuss Voigt Hill
#
# Bulk Modulus (GPa) = 58.55689 76.33710 67.44699
# Shear Modulus (GPa) = 35.54777 41.98219 38.76498
#
# Velocity S-wave (km/s) = 4.01837 4.36693 4.19627
# Velocity P-wave (km/s) = 6.93748 7.75256 7.35632
#
# Compressibility (1/GPa) = 0.01707741
#
# Stress axis : x y z
#
# Youngs Moduli (GPa) = 139.81561 102.97669 62.27303
#
# Poissons Ratio (x) = 0.13519 0.21468
# Poissons Ratio (y) = 0.18356 0.19689
# Poissons Ratio (z) = 0.48201 0.32559
#
# Static dielectric constant tensor:
#      x y z
#    x 1.846430 0.072460 -0.038970 
#    y 0.072460 1.992440 -0.103550 
#    z -0.038970 -0.103550 1.850790 
# 
# From -- ./inp_files/185352.got.cif
#   From: 2010.05.17/outbox.ucp.g08.bks.cvg/sg2_93_cif.got.tgz:185352.got - 2010.06.11 11:32:03.
