data_PCOD9075564
_publ_section_title
;
Structure prediction by ZEFSAII (Michael W. Deem and Ramdas Pophale) SiO2 
 PCOD9075564
Probable space group: P -1
;
_chemical_formula_sum "Si O2"
_cell_formula_units_Z 16
_cell_length_a 12.000000
_cell_length_b 27.000000
_cell_length_c 9.000000
_cell_angle_alpha 150.000000
_cell_angle_beta 40.000000
_cell_angle_gamma 150.000000
_cell_volume 727.497153
_symmetry_space_group_name_H-M "P -1"
_symmetry_group_IT_number 2
_symmetry_cell_setting 'triclinic'
loop_
_space_group_symop_operation_xyz
x,y,z
-x,-y,-z
loop_
_atom_site_type_symbol
_atom_site_label
_atom_site_fract_x
_atom_site_fract_y
_atom_site_fract_z
Si Si1 0.420428 0.201823 0.715801
Si Si2 0.936371 0.774969 0.786535
Si Si3 0.970975 0.786519 0.292576
Si Si4 0.100082 0.637719 0.207050
Si Si5 0.098530 0.624230 0.819718
Si Si6 0.734421 0.037271 0.299849
Si Si7 0.590073 0.797787 0.632522
Si Si8 0.254124 0.940616 0.152240
O O1 0.657906 0.263228 0.705470
O O2 0.432916 0.209012 0.541269
O O3 0.266188 0.050703 0.503788
O O4 0.295877 0.250345 0.043907
O O5 0.925046 0.653952 0.498003
O O6 0.115019 0.838694 0.635227
O O7 0.075805 0.877211 0.039551
O O8 0.102527 0.908183 0.584426
O O9 0.147005 0.830023 0.093198
O O10 0.743972 0.757842 0.403990
O O11 0.945725 0.667322 0.069349
O O12 0.122447 0.631373 0.991168
O O13 0.000000 0.500000 0.000000
O O14 0.348324 0.716167 0.739748
O O15 0.000000 0.500000 0.500000
O O16 0.500000 0.000000 0.500000
O O17 0.702814 0.930925 0.950939
O O18 0.500000 0.000000 0.000000
#
# Coordination Sequence:
#
# PCOD9075564 Si02
#       8
#     2   2   2   2   2   2   2   2
#     4  12  26  44  73 106 142 183 229 281 343 413
#     4  12  24  45  70 104 146 177 231 281 341 415
#     4  12  26  43  71 106 144 182 227 283 349 410
#     4  12  29  49  74  99 132 186 237 290 340 403
#     4  12  29  50  72  99 136 183 237 288 344 406
#     4  12  23  43  69 108 145 182 223 281 350 415
#     4  12  25  45  72 106 143 184 224 282 348 412
#     4  12  22  40  72 107 144 186 220 278 346 412
#
# _framework density 21.993213000000001
#
# number of rings (size 3 to 8) (size 9 to 14) (size 15 to 20)
#    0.000    0.000    6.250    3.750    5.250    1.000 
#    0.000    0.000    0.000    0.000    0.000    0.000 
#    0.000    0.000    0.000    0.000    0.000    0.000 
#
# Total GULP energy -89202.571962 kJ/mol
# GULP energy per Si atom -5575.160748 kJ/mol
# Density = 2.194316 g / cm^3
# Si number density = 21.993213 Si / 1000 Ang^3
#
#
#
# Elastic Constant Matrix: (Units=GPa)
#
#
# Indices 1 2 3 4 5 6 
#
# 1 124.9264 15.4731 51.1921 -5.5464 6.8057 -2.9348
# 2 15.4731 8.7234 22.6405 -6.7521 -6.6913 -9.2457
# 3 51.1921 22.6405 151.8367 -7.5984 -12.8338 0.2883
# 4 -5.5464 -6.7521 -7.5984 26.9413 10.6584 -3.6899
# 5 6.8057 -6.6913 -12.8338 10.6584 44.2911 -4.4328
# 6 -2.9348 -9.2457 0.2883 -3.6899 -4.4328 13.7659
#
#
#
# Elastic Compliance Matrix: (Units=1/GPa)
#
#
# Indices 1 2 3 4 5 6 
#
# 1 0.008932 0.013143 -0.004784 0.005820 -0.000965 0.012081
# 2 0.013143 -0.223482 0.023596 -0.057591 -0.032469 -0.173684
# 3 -0.004784 0.023596 0.005495 0.006570 0.006158 0.018457
# 4 0.005820 -0.057591 0.006570 0.027944 -0.018007 -0.035886
# 5 -0.000965 -0.032469 0.006158 -0.018007 0.021947 -0.019902
# 6 0.012081 -0.173684 0.018457 -0.035886 -0.019902 -0.057848
#
#
# Mechanical properties :
#
#
# Convention : Reuss Voigt Hill
#
# Bulk Modulus (GPa) = -6.88957 51.56642 22.33842
# Shear Modulus (GPa) = -15.18363 30.07837 7.44737
#
# Velocity S-wave (km/s) = -2.63035 3.70215 1.84216
# Velocity P-wave (km/s) = 3.51631 6.46312 3.83455
#
# Compressibility (1/GPa) = -0.14514685
#
# Stress axis : x y z
#
# Youngs Moduli (GPa) = 111.95462 -4.47463 181.98400
#
# Poissons Ratio (x) = 0.05881 0.87070
# Poissons Ratio (y) = -1.47138 -4.29407
# Poissons Ratio (z) = 0.53564 0.10558
#
# Static dielectric constant tensor:
#      x y z
#    x 1.945550 -0.241280 -0.213650 
#    y -0.241280 2.015710 0.300360 
#    z -0.213650 0.300360 2.379600 
# 
# From -- ./inp_files/285866.got.cif
#   From: 2010.05.17/outbox.ucp.g08.bks.cvg/sg2_143_cif.got.tgz:285866.got - 2010.06.11 11:32:03.
