data_PCOD9075782
_publ_section_title
;
Structure prediction by ZEFSAII (Michael W. Deem and Ramdas Pophale) SiO2 
 PCOD9075782
Probable space group: P -1
;
_chemical_formula_sum "Si O2"
_cell_formula_units_Z 14
_cell_length_a 14.100698
_cell_length_b 9.186878
_cell_length_c 14.859445
_cell_angle_alpha 48.470738
_cell_angle_beta 142.065240
_cell_angle_gamma 138.056134
_cell_volume 777.188102
_symmetry_space_group_name_H-M "P -1"
_symmetry_group_IT_number 2
_symmetry_cell_setting 'triclinic'
loop_
_space_group_symop_operation_xyz
x,y,z
-x,-y,-z
loop_
_atom_site_type_symbol
_atom_site_label
_atom_site_fract_x
_atom_site_fract_y
_atom_site_fract_z
Si Si1 0.781142 0.576200 0.183564
Si Si2 0.582934 0.838037 0.937146
Si Si3 0.056757 0.200360 0.611240
Si Si4 0.708403 0.311226 0.874431
Si Si5 0.890868 0.295816 0.278906
Si Si6 0.615301 0.828787 0.181268
Si Si7 0.048050 0.299879 0.221203
O O1 0.598497 0.353750 0.158135
O O2 0.902103 0.648668 0.332172
O O3 0.857356 0.501008 0.188871
O O4 0.729929 0.769234 0.047934
O O5 0.624214 0.085423 0.845242
O O6 0.574967 0.827127 0.045455
O O7 0.242130 0.258670 0.677036
O O8 0.933607 0.221930 0.436249
O O9 0.982722 0.949242 0.694793
O O10 0.561145 0.293391 0.842290
O O11 0.788218 0.529931 0.783978
O O12 0.875556 0.305523 0.049189
O O13 0.048868 0.364897 0.298945
O O14 0.726733 0.078644 0.201986
#
# Coordination Sequence:
#
# PCOD9075782 Si02
#       7
#     2   2   2   2   2   2   2
#     4  10  19  31  56  78 103 136 175 214 261 298
#     4  10  18  32  55  84 104 126 177 224 253 313
#     4  10  21  36  52  79 106 138 182 209 246 313
#     4  11  18  33  56  80 110 127 168 226 271 300
#     4  11  19  35  55  77 105 142 178 212 246 308
#     4  10  18  32  56  80  98 136 178 214 256 301
#     4  10  21  33  54  80 109 132 169 223 265 303
#
# _framework density 18.013656999999998
#
# number of rings (size 3 to 8) (size 9 to 14) (size 15 to 20)
#    0.000    1.714    5.714    3.429    0.000    0.000 
#    0.000    3.571    9.429    0.857    0.000    0.000 
#    0.000    0.000    0.000    0.000    0.000    0.000 
#
# Total GULP energy -78009.267664 kJ/mol
# GULP energy per Si atom -5572.090547 kJ/mol
# Density = 1.797266 g / cm^3
# Si number density = 18.013657 Si / 1000 Ang^3
#
#
#
# Elastic Constant Matrix: (Units=GPa)
#
#
# Indices 1 2 3 4 5 6 
#
# 1 84.0146 49.1799 3.4564 1.1043 -6.0477 2.4470
# 2 49.1799 79.3316 21.9939 -0.5201 -12.7347 -2.7246
# 3 3.4564 21.9939 38.1710 -1.8705 -11.1032 0.1728
# 4 1.1043 -0.5201 -1.8705 14.7670 -2.7396 -8.8865
# 5 -6.0477 -12.7347 -11.1032 -2.7396 20.9872 0.8784
# 6 2.4470 -2.7246 0.1728 -8.8865 0.8784 40.1057
#
#
#
# Elastic Compliance Matrix: (Units=1/GPa)
#
#
# Indices 1 2 3 4 5 6 
#
# 1 0.020189 -0.014369 0.006386 -0.002901 0.000219 -0.002883
# 2 -0.014369 0.025820 -0.011784 0.003545 0.005615 0.003344
# 3 0.006386 -0.011784 0.037150 0.006485 0.015201 -0.000246
# 4 -0.002901 0.003545 0.006485 0.082688 0.014770 0.018388
# 5 0.000219 0.005615 0.015201 0.014770 0.060994 0.002239
# 6 -0.002883 0.003344 -0.000246 0.018388 0.002239 0.029364
#
#
# Mechanical properties :
#
#
# Convention : Reuss Voigt Hill
#
# Bulk Modulus (GPa) = 22.92310 38.97527 30.94918
# Shear Modulus (GPa) = 16.11441 23.63110 19.87276
#
# Velocity S-wave (km/s) = 2.99418 3.62587 3.32506
# Velocity P-wave (km/s) = 4.97056 6.26200 5.65328
#
# Compressibility (1/GPa) = 0.04362413
#
# Stress axis : x y z
#
# Youngs Moduli (GPa) = 49.53155 38.73029 26.91781
#
# Poissons Ratio (x) = 0.55652 -0.17189
# Poissons Ratio (y) = 0.71172 0.31720
# Poissons Ratio (z) = -0.31630 0.45640
#
# Static dielectric constant tensor:
#      x y z
#    x 1.642230 -0.010680 0.033590 
#    y -0.010680 1.626620 0.013690 
#    z 0.033590 0.013690 1.653840 
# 
# From -- ./inp_files/171369.got.cif
#   From: 2010.05.17/outbox.cif.g08.bks.cpg/sg2_86_cif.got.tgz:171369.got - 2010.06.03 11:33:40.
