data_PCOD9075486
_publ_section_title
;
Structure prediction by ZEFSAII (Michael W. Deem and Ramdas Pophale) SiO2 
 PCOD9075486
Probable space group: P -1
;
_chemical_formula_sum "Si O2"
_cell_formula_units_Z 14
_cell_length_a 9.000000
_cell_length_b 12.000000
_cell_length_c 12.000000
_cell_angle_alpha 130.000000
_cell_angle_beta 60.000000
_cell_angle_gamma 140.000000
_cell_volume 638.079485
_symmetry_space_group_name_H-M "P -1"
_symmetry_group_IT_number 2
_symmetry_cell_setting 'triclinic'
loop_
_space_group_symop_operation_xyz
x,y,z
-x,-y,-z
loop_
_atom_site_type_symbol
_atom_site_label
_atom_site_fract_x
_atom_site_fract_y
_atom_site_fract_z
Si Si1 0.522752 0.591959 0.343758
Si Si2 0.011759 0.751455 0.319990
Si Si3 0.747661 0.390860 0.356820
Si Si4 0.848686 0.119830 0.215998
Si Si5 0.330662 0.040582 0.580617
Si Si6 0.276923 0.172929 0.085920
Si Si7 0.674007 0.005434 0.855285
O O1 0.782518 0.718941 0.373067
O O2 0.331620 0.538292 0.472071
O O3 0.540117 0.731743 0.336287
O O4 0.469130 0.398370 0.195913
O O5 0.914624 0.556229 0.304794
O O6 0.151425 0.821830 0.191877
O O7 0.187013 0.930608 0.452310
O O8 0.841325 0.288883 0.305620
O O9 0.504427 0.199994 0.274325
O O10 0.082468 0.177365 0.122662
O O11 0.820695 0.063188 0.318678
O O12 0.661931 0.914507 0.086125
O O13 0.500000 0.000000 0.500000
O O14 0.196945 0.028391 0.127982
O O15 0.500000 0.000000 0.000000
#
# Coordination Sequence:
#
# PCOD9075486 Si02
#       7
#     2   2   2   2   2   2   2
#     4  12  25  46  75 114 142 193 249 305 357 439
#     4  12  27  44  77 113 143 194 246 305 370 420
#     4  12  25  46  76 108 148 191 248 295 366 438
#     4  11  25  48  68 106 150 201 230 302 372 430
#     4  12  25  44  72 105 148 189 241 301 360 437
#     4  11  26  46  73 102 153 188 243 305 362 431
#     4  12  25  50  73 105 150 190 245 311 359 433
#
# _framework density 21.940840000000001
#
# number of rings (size 3 to 8) (size 9 to 14) (size 15 to 20)
#    0.000    0.286    5.714    2.571    4.000    2.286 
#    0.000    0.000    0.000    0.000    0.000    0.000 
#    0.000    0.000    0.000    0.000    0.000    0.000 
#
# Total GULP energy -78101.067575 kJ/mol
# GULP energy per Si atom -5578.647684 kJ/mol
# Density = 2.189090 g / cm^3
# Si number density = 21.940840 Si / 1000 Ang^3
#
#
#
# Elastic Constant Matrix: (Units=GPa)
#
#
# Indices 1 2 3 4 5 6 
#
# 1 114.5945 33.0673 27.2442 -5.3287 -12.5251 -18.1637
# 2 33.0673 143.8717 36.5304 -13.8837 -7.6199 -34.5671
# 3 27.2442 36.5304 94.6626 -6.8878 -7.3657 -8.4511
# 4 -5.3287 -13.8837 -6.8878 36.6220 -1.9121 4.3942
# 5 -12.5251 -7.6199 -7.3657 -1.9121 36.6356 2.4633
# 6 -18.1637 -34.5671 -8.4511 4.3942 2.4633 48.5850
#
#
#
# Elastic Compliance Matrix: (Units=1/GPa)
#
#
# Indices 1 2 3 4 5 6 
#
# 1 0.010242 -0.001015 -0.002075 0.000551 0.002730 0.002558
# 2 -0.001015 0.009477 -0.002627 0.002316 0.000837 0.005655
# 3 -0.002075 -0.002627 0.012302 0.001166 0.001324 -0.000677
# 4 0.000551 0.002316 0.001166 0.028691 0.002447 -0.000662
# 5 0.002730 0.000837 0.001324 0.002447 0.028786 0.000166
# 6 0.002558 0.005655 -0.000677 -0.000662 0.000166 0.025496
#
#
# Mechanical properties :
#
#
# Convention : Reuss Voigt Hill
#
# Bulk Modulus (GPa) = 48.57204 60.75697 54.66451
# Shear Modulus (GPa) = 37.51214 41.45430 39.48322
#
# Velocity S-wave (km/s) = 4.13933 4.35140 4.24669
# Velocity P-wave (km/s) = 6.71053 7.27995 7.00103
#
# Compressibility (1/GPa) = 0.02058798
#
# Stress axis : x y z
#
# Youngs Moduli (GPa) = 97.63658 105.51526 81.28652
#
# Poissons Ratio (x) = 0.10708 0.16869
# Poissons Ratio (y) = 0.09908 0.21352
# Poissons Ratio (z) = 0.20262 0.27716
#
# Static dielectric constant tensor:
#      x y z
#    x 1.907970 0.049460 0.059190 
#    y 0.049460 1.849180 0.026270 
#    z 0.059190 0.026270 1.916880 
# 
# From -- ./inp_files/393047.got.cif
#   From: 2010.05.17/outbox.ucp.g08.bks.cvg/sg2_197_cif.got.tgz:393047.got - 2010.06.11 11:32:03.
