data_PCOD9075534
_publ_section_title
;
Structure prediction by ZEFSAII (Michael W. Deem and Ramdas Pophale) SiO2 
 PCOD9075534
Probable space group: P -1
;
_chemical_formula_sum "Si O2"
_cell_formula_units_Z 16
_cell_length_a 9.000000
_cell_length_b 12.000000
_cell_length_c 15.000000
_cell_angle_alpha 130.000000
_cell_angle_beta 110.000000
_cell_angle_gamma 40.000000
_cell_volume 759.581896
_symmetry_space_group_name_H-M "P -1"
_symmetry_group_IT_number 2
_symmetry_cell_setting 'triclinic'
loop_
_space_group_symop_operation_xyz
x,y,z
-x,-y,-z
loop_
_atom_site_type_symbol
_atom_site_label
_atom_site_fract_x
_atom_site_fract_y
_atom_site_fract_z
Si Si1 0.946932 0.531606 0.314417
Si Si2 0.526779 0.779452 0.461052
Si Si3 0.807938 0.654392 0.153216
Si Si4 0.800716 0.404938 0.886025
Si Si5 0.960666 0.215115 0.536049
Si Si6 0.959832 0.070780 0.280991
Si Si7 0.494047 0.543902 0.730307
Si Si8 0.262648 0.143424 0.318076
O O1 0.655505 0.746012 0.380798
O O2 0.952982 0.513990 0.200958
O O3 0.047447 0.614766 0.412254
O O4 0.101803 0.306178 0.284298
O O5 0.581899 0.570696 0.355957
O O6 0.686681 0.752066 0.553475
O O7 0.236647 0.999813 0.516586
O O8 0.977909 0.661737 0.150000
O O9 0.539152 0.906395 0.234449
O O10 0.763053 0.537918 0.029517
O O11 0.566529 0.548960 0.846542
O O12 0.887343 0.184167 0.818770
O O13 0.892915 0.149752 0.411193
O O14 0.757447 0.357181 0.642058
O O15 0.720656 0.224880 0.248626
O O16 0.124071 0.097681 0.304401
#
# Coordination Sequence:
#
# PCOD9075534 Si02
#       8
#     2   2   2   2   2   2   2   2
#     4  12  23  43  68 102 135 173 218 267 332 399
#     4  12  22  42  70 101 142 171 213 271 331 402
#     4  11  27  48  71  94 126 179 229 276 327 385
#     4  11  27  49  68  95 131 173 230 279 324 383
#     4  12  23  39  69 103 135 175 215 267 338 393
#     4  12  26  43  68 101 139 174 214 273 331 395
#     4  12  25  43  66 104 138 173 217 273 331 393
#     4  12  25  43  69 102 135 178 214 267 335 396
#
# _framework density 21.064219999999999
#
# number of rings (size 3 to 8) (size 9 to 14) (size 15 to 20)
#    0.000    0.250    6.250    3.000    3.500    1.500 
#    0.000    3.750    0.000    0.000    0.000    0.000 
#    0.000    0.000    0.000    0.000    0.000    0.000 
#
# Total GULP energy -89261.009168 kJ/mol
# GULP energy per Si atom -5578.813073 kJ/mol
# Density = 2.101628 g / cm^3
# Si number density = 21.064220 Si / 1000 Ang^3
#
#
#
# Elastic Constant Matrix: (Units=GPa)
#
#
# Indices 1 2 3 4 5 6 
#
# 1 42.0534 16.0968 28.1715 -8.6658 31.1637 3.5575
# 2 16.0968 142.7621 41.4632 -21.6530 20.6187 -5.9084
# 3 28.1715 41.4632 75.8848 -3.9059 28.9862 -0.1030
# 4 -8.6658 -21.6530 -3.9059 4.5286 -1.2913 9.3177
# 5 31.1637 20.6187 28.9862 -1.2913 25.6238 -2.5818
# 6 3.5575 -5.9084 -0.1030 9.3177 -2.5818 29.4213
#
#
#
# Elastic Compliance Matrix: (Units=1/GPa)
#
#
# Indices 1 2 3 4 5 6 
#
# 1 0.012753 -0.013790 0.000970 -0.093691 -0.007745 0.024684
# 2 -0.013790 0.007149 -0.005982 -0.005183 0.018161 0.006317
# 3 0.000970 -0.005982 0.024916 -0.015380 -0.025182 0.001430
# 4 -0.093691 -0.005183 -0.015380 -0.009130 0.137595 0.025200
# 5 -0.007745 0.018161 -0.025182 0.137595 0.065898 -0.033298
# 6 0.024684 0.006317 0.001430 0.025200 -0.033298 0.021375
#
#
# Mechanical properties :
#
#
# Convention : Reuss Voigt Hill
#
# Bulk Modulus (GPa) = 138.62154 48.01812 93.31983
# Shear Modulus (GPa) = 30.68044 23.57932 27.12988
#
# Velocity S-wave (km/s) = 3.82058 3.34938 3.59271
# Velocity P-wave (km/s) = 9.24199 6.14844 7.84913
#
# Compressibility (1/GPa) = 0.00721389
#
# Stress axis : x y z
#
# Youngs Moduli (GPa) = 78.41428 139.87329 40.13495
#
# Poissons Ratio (x) = 1.92880 -0.03893
# Poissons Ratio (y) = 1.08131 0.24010
# Poissons Ratio (z) = -0.07606 0.83677
#
# Static dielectric constant tensor:
#      x y z
#    x 1.919380 0.096460 -0.022610 
#    y 0.096460 1.739750 -0.001980 
#    z -0.022610 -0.001980 1.809200 
# 
# From -- ./inp_files/255819.got.cif
#   From: 2010.05.17/outbox.ucp.g08.bks.cvg/sg2_128_cif.got.tgz:255819.got - 2010.06.11 11:32:03.
