data_PCOD9075897
_publ_section_title
;
Structure prediction by ZEFSAII (Michael W. Deem and Ramdas Pophale) SiO2 
 PCOD9075897
Probable space group: P -1
;
_chemical_formula_sum "Si O2"
_cell_formula_units_Z 14
_cell_length_a 12.704943
_cell_length_b 11.549654
_cell_length_c 8.915735
_cell_angle_alpha 65.633303
_cell_angle_beta 50.090920
_cell_angle_gamma 104.784493
_cell_volume 610.778925
_symmetry_space_group_name_H-M "P -1"
_symmetry_group_IT_number 2
_symmetry_cell_setting 'triclinic'
loop_
_space_group_symop_operation_xyz
x,y,z
-x,-y,-z
loop_
_atom_site_type_symbol
_atom_site_label
_atom_site_fract_x
_atom_site_fract_y
_atom_site_fract_z
Si Si1 0.671867 0.588537 0.173366
Si Si2 0.078025 0.748848 0.683548
Si Si3 0.536334 0.725724 0.724692
Si Si4 0.330272 0.172877 0.129135
Si Si5 0.308443 0.947568 0.768906
Si Si6 0.535297 0.128442 0.768621
Si Si7 0.115123 0.574112 0.201897
O O1 0.500000 0.500000 0.500000
O O2 0.553653 0.432312 0.231163
O O3 0.757514 0.777402 0.921317
O O4 0.870669 0.645681 0.015066
O O5 0.259758 0.778825 0.554537
O O6 0.988970 0.603496 0.708147
O O7 0.188130 0.953467 0.415443
O O8 0.612425 0.729946 0.813046
O O9 0.702619 0.931331 0.380992
O O10 0.346652 0.687614 0.958641
O O11 0.519767 0.246387 0.816904
O O12 0.500000 0.000000 0.500000
O O13 0.363291 0.014428 0.856928
O O14 0.122645 0.721189 0.050401
O O15 0.500000 0.000000 0.000000
O O16 0.000000 0.500000 0.500000
#
# Coordination Sequence:
#
# PCOD9075897 Si02
#       7
#     2   2   2   2   2   2   2
#     4  11  24  42  62  87 120 160 202 246 297 354
#     4  10  21  37  61  91 121 155 198 244 298 354
#     4  10  22  40  59  83 118 162 200 239 295 357
#     4  11  21  41  65  88 119 159 199 246 300 358
#     4  10  19  35  56  84 123 160 190 238 295 351
#     4  10  19  35  62  92 117 151 196 246 298 350
#     4  10  18  32  56  89 121 151 190 243 299 350
#
# _framework density 22.92155
#
# number of rings (size 3 to 8) (size 9 to 14) (size 15 to 20)
#    0.000    1.714    0.000    7.714    0.000    0.000 
#    0.000   22.857    0.000    5.143    0.000    0.000 
#    0.000    0.000    0.000    0.000    0.000    0.000 
#
# Total GULP energy -78110.211838 kJ/mol
# GULP energy per Si atom -5579.300846 kJ/mol
# Density = 2.286938 g / cm^3
# Si number density = 22.921550 Si / 1000 Ang^3
#
#
#
# Elastic Constant Matrix: (Units=GPa)
#
#
# Indices 1 2 3 4 5 6 
#
# 1 67.4035 17.1399 21.0279 18.5302 -0.4288 7.7515
# 2 17.1399 86.6444 50.8195 16.5498 0.7239 4.5996
# 3 21.0279 50.8195 102.9322 12.0020 -5.7654 0.7335
# 4 18.5302 16.5498 12.0020 43.0267 -3.9518 2.6998
# 5 -0.4288 0.7239 -5.7654 -3.9518 31.1108 6.6766
# 6 7.7515 4.5996 0.7335 2.6998 6.6766 31.0785
#
#
#
# Elastic Compliance Matrix: (Units=1/GPa)
#
#
# Indices 1 2 3 4 5 6 
#
# 1 0.018043 -0.000568 -0.002623 -0.006611 -0.000265 -0.003723
# 2 -0.000568 0.017265 -0.008020 -0.004268 -0.002139 -0.001394
# 3 -0.002623 -0.008020 0.014305 0.000412 0.002662 0.000896
# 4 -0.006611 -0.004268 0.000412 0.028032 0.003858 -0.000993
# 5 -0.000265 -0.002139 0.002662 0.003858 0.034779 -0.007487
# 6 -0.003723 -0.001394 0.000896 -0.000993 -0.007487 0.034985
#
#
# Mechanical properties :
#
#
# Convention : Reuss Voigt Hill
#
# Bulk Modulus (GPa) = 36.77764 48.32831 42.55298
# Shear Modulus (GPa) = 27.94933 32.24271 30.09602
#
# Velocity S-wave (km/s) = 3.49570 3.75461 3.62747
# Velocity P-wave (km/s) = 5.68974 6.31871 6.01245
#
# Compressibility (1/GPa) = 0.02719044
#
# Stress axis : x y z
#
# Youngs Moduli (GPa) = 55.42418 57.92070 69.90424
#
# Poissons Ratio (x) = 0.03291 0.18335
# Poissons Ratio (y) = 0.03149 0.56065
# Poissons Ratio (z) = 0.14537 0.46453
#
# Static dielectric constant tensor:
#      x y z
#    x 1.831080 0.031270 -0.070020 
#    y 0.031270 1.838840 0.002530 
#    z -0.070020 0.002530 1.864610 
# 
# From -- ./inp_files/235848.got.cif
#   From: 2010.05.17/outbox.cif.g08.bks.cpg/sg2_118_cif.got.tgz:235848.got - 2010.06.03 11:33:40.
