data_PCOD9075574
_publ_section_title
;
Structure prediction by ZEFSAII (Michael W. Deem and Ramdas Pophale) SiO2 
 PCOD9075574
Probable space group: P -1
;
_chemical_formula_sum "Si O2"
_cell_formula_units_Z 14
_cell_length_a 7.015844
_cell_length_b 9.550004
_cell_length_c 9.498132
_cell_angle_alpha 86.898913
_cell_angle_beta 81.393383
_cell_angle_gamma 75.940069
_cell_volume 610.266700
_symmetry_space_group_name_H-M "P -1"
_symmetry_group_IT_number 2
_symmetry_cell_setting 'triclinic'
loop_
_space_group_symop_operation_xyz
x,y,z
-x,-y,-z
loop_
_atom_site_type_symbol
_atom_site_label
_atom_site_fract_x
_atom_site_fract_y
_atom_site_fract_z
Si Si1 0.594927 0.482591 0.647155
Si Si2 0.874903 0.690816 0.674610
Si Si3 0.757027 0.032818 0.369584
Si Si4 0.220027 0.904862 0.018841
Si Si5 0.768235 0.324217 0.178627
Si Si6 0.561257 0.980644 0.780411
Si Si7 0.120487 0.813655 0.399416
O O1 0.500000 0.500000 0.500000
O O2 0.758128 0.575983 0.640712
O O3 0.419176 0.547575 0.772117
O O4 0.708976 0.318214 0.664227
O O5 0.711851 0.827386 0.743438
O O6 0.032961 0.638976 0.785448
O O7 0.994030 0.740305 0.529686
O O8 0.748698 0.184781 0.283388
O O9 0.568567 0.975849 0.347966
O O10 0.790512 0.074134 0.524145
O O11 0.949648 0.908279 0.315806
O O12 0.224085 0.742920 0.974293
O O13 0.382585 0.961932 0.904526
O O14 0.307594 0.924792 0.162074
O O15 0.000000 0.000000 0.000000
#
# Coordination Sequence:
#
# PCOD9075574 Si02
#       7
#     2   2   2   2   2   2   2
#     4  12  20  35  51  76 111 142 174 216 256 309
#     4  11  19  32  53  81 107 136 176 212 258 316
#     4   9  18  37  49  80 111 140 178 210 258 313
#     4  10  18  32  54  79 101 134 173 226 276 292
#     4  10  20  34  55  79 108 134 178 224 254 312
#     4  10  19  31  53  80 106 130 175 227 260 308
#     4  10  21  32  56  75 114 150 169 209 260 317
#
# _framework density 22.940788999999999
#
# number of rings (size 3 to 8) (size 9 to 14) (size 15 to 20)
#    0.000    1.714    7.143    0.429    0.000    0.571 
#    0.000    0.000    0.000    0.857    0.000    5.000 
#    0.000    0.000    0.000    0.000    0.000    0.000 
#
# Total GULP energy -78196.106492 kJ/mol
# GULP energy per Si atom -5585.436178 kJ/mol
# Density = 2.288858 g / cm^3
# Si number density = 22.940789 Si / 1000 Ang^3
#
#
#
# Elastic Constant Matrix: (Units=GPa)
#
#
# Indices 1 2 3 4 5 6 
#
# 1 213.8612 72.2159 53.5939 25.1851 37.2595 -14.8591
# 2 72.2159 144.9663 44.3297 37.2106 3.4951 -35.2506
# 3 53.5939 44.3297 87.3027 24.6111 34.5994 -8.0154
# 4 25.1851 37.2106 24.6111 35.9140 5.1043 -7.9259
# 5 37.2595 3.4951 34.5994 5.1043 49.0288 15.7509
# 6 -14.8591 -35.2506 -8.0154 -7.9259 15.7509 46.2360
#
#
#
# Elastic Compliance Matrix: (Units=1/GPa)
#
#
# Indices 1 2 3 4 5 6 
#
# 1 0.006726 -0.002450 -0.000497 -0.000711 -0.005098 0.001822
# 2 -0.002450 0.012557 -0.002569 -0.008356 0.001606 0.006361
# 3 -0.000497 -0.002569 0.022556 -0.008842 -0.016310 0.005833
# 4 -0.000711 -0.008356 -0.008842 0.042052 0.003699 -0.002184
# 5 -0.005098 0.001606 -0.016310 0.003699 0.040556 -0.016423
# 6 0.001822 0.006361 0.005833 -0.002184 -0.016423 0.033295
#
#
# Mechanical properties :
#
#
# Convention : Reuss Voigt Hill
#
# Bulk Modulus (GPa) = 32.45985 87.37880 59.91932
# Shear Modulus (GPa) = 27.92590 44.63515 36.28053
#
# Velocity S-wave (km/s) = 3.49277 4.41576 3.98110
# Velocity P-wave (km/s) = 5.51780 8.01062 6.87809
#
# Compressibility (1/GPa) = 0.03080729
#
# Stress axis : x y z
#
# Youngs Moduli (GPa) = 148.66917 79.63388 44.33453
#
# Poissons Ratio (x) = 0.19513 0.02204
# Poissons Ratio (y) = 0.36429 0.11388
# Poissons Ratio (z) = 0.07390 0.20456
#
# Static dielectric constant tensor:
#      x y z
#    x 1.875640 0.017110 -0.041520 
#    y 0.017110 1.800310 -0.020540 
#    z -0.041520 -0.020540 2.088900 
# 
# From -- ./inp_files/282487.got.cif
#   From: 2010.05.17/outbox.cif.g08.bks.cpg/sg2_142_cif.got.tgz:282487.got - 2010.06.03 11:33:40.
