data_PCOD9075280
_publ_section_title
;
Structure prediction by ZEFSAII (Michael W. Deem and Ramdas Pophale) SiO2 
 PCOD9075280
Probable space group: P -1
;
_chemical_formula_sum "Si O2"
_cell_formula_units_Z 16
_cell_length_a 9.000000
_cell_length_b 21.000000
_cell_length_c 18.000000
_cell_angle_alpha 160.000000
_cell_angle_beta 60.000000
_cell_angle_gamma 130.000000
_cell_volume 818.070593
_symmetry_space_group_name_H-M "P -1"
_symmetry_group_IT_number 2
_symmetry_cell_setting 'triclinic'
loop_
_space_group_symop_operation_xyz
x,y,z
-x,-y,-z
loop_
_atom_site_type_symbol
_atom_site_label
_atom_site_fract_x
_atom_site_fract_y
_atom_site_fract_z
Si Si1 0.163545 0.959315 0.771068
Si Si2 0.745635 0.493598 0.837123
Si Si3 0.174787 0.784254 0.954304
Si Si4 0.858377 0.649327 0.748175
Si Si5 0.320130 0.109074 0.727121
Si Si6 0.796253 0.327326 0.806450
Si Si7 0.543308 0.186795 0.409853
Si Si8 0.731186 0.544338 0.492504
O O1 0.322065 0.912542 0.716695
O O2 0.918675 0.757375 0.629916
O O3 0.214795 0.006859 0.722341
O O4 0.215186 0.186883 0.045369
O O5 0.773683 0.422322 0.835183
O O6 0.562041 0.295142 0.608329
O O7 0.711595 0.694788 0.071327
O O8 0.967407 0.605429 0.859994
O O9 0.331264 0.003836 0.211972
O O10 0.296923 0.676970 0.779740
O O11 0.066237 0.779110 0.895209
O O12 0.688192 0.408163 0.564746
O O13 0.840930 0.597169 0.606193
O O14 0.573149 0.228693 0.795642
O O15 0.215742 0.897095 0.462616
O O16 0.000000 0.500000 0.000000
O O17 0.500000 0.500000 0.500000
#
# Coordination Sequence:
#
# PCOD9075280 Si02
#       8
#     2   2   2   2   2   2   2   2
#     4  12  23  48  69  99 139 188 236 286 345 420
#     4  11  23  47  68 103 142 182 231 281 343 421
#     4  11  24  43  71 101 140 189 233 289 349 408
#     4  11  25  46  68 100 139 182 239 297 341 408
#     4  11  24  46  72  98 143 181 224 286 346 411
#     4  11  26  44  73 110 138 175 227 283 346 422
#     4  11  24  43  71  98 138 186 233 286 343 411
#     4  12  26  45  70 103 143 187 240 296 354 407
#
# _framework density 19.558214
#
# number of rings (size 3 to 8) (size 9 to 14) (size 15 to 20)
#    0.000    0.750    6.250    1.875    3.500    2.000 
#    2.250    0.000    0.000    0.000    0.000    0.000 
#    0.000    0.000    0.000    0.000    0.000    0.000 
#
# Total GULP energy -89149.022163 kJ/mol
# GULP energy per Si atom -5571.813885 kJ/mol
# Density = 1.951370 g / cm^3
# Si number density = 19.558214 Si / 1000 Ang^3
#
#
#
# Elastic Constant Matrix: (Units=GPa)
#
#
# Indices 1 2 3 4 5 6 
#
# 1 84.5249 33.4802 46.1310 10.8128 32.3611 -12.1083
# 2 33.4802 116.0099 31.2595 -2.9195 13.1851 -11.1608
# 3 46.1310 31.2595 147.3254 -9.9863 20.8298 -9.9474
# 4 10.8128 -2.9195 -9.9863 29.1537 -5.6724 3.0505
# 5 32.3611 13.1851 20.8298 -5.6724 55.5125 -2.0820
# 6 -12.1083 -11.1608 -9.9474 3.0505 -2.0820 37.4909
#
#
#
# Elastic Compliance Matrix: (Units=1/GPa)
#
#
# Indices 1 2 3 4 5 6 
#
# 1 0.023373 -0.003758 -0.005403 -0.013784 -0.011909 0.005456
# 2 -0.003758 0.010062 -0.000772 0.002056 0.000354 0.001429
# 3 -0.005403 -0.000772 0.008916 0.005079 0.000507 0.000006
# 4 -0.013784 0.002056 0.005079 0.043865 0.009917 -0.005510
# 5 -0.011909 0.000354 0.000507 0.009917 0.025583 -0.002992
# 6 0.005456 0.001429 0.000006 -0.005510 -0.002992 0.029144
#
#
# Mechanical properties :
#
#
# Convention : Reuss Voigt Hill
#
# Bulk Modulus (GPa) = 44.47704 63.28909 53.88307
# Shear Modulus (GPa) = 29.70803 40.23073 34.96938
#
# Velocity S-wave (km/s) = 3.90160 4.54031 4.23302
# Velocity P-wave (km/s) = 6.56406 7.74051 7.17643
#
# Compressibility (1/GPa) = 0.02248351
#
# Stress axis : x y z
#
# Youngs Moduli (GPa) = 42.78517 99.38838 112.15170
#
# Poissons Ratio (x) = 0.37348 0.60599
# Poissons Ratio (y) = 0.16078 0.08663
# Poissons Ratio (z) = 0.23118 0.07677
#
# Static dielectric constant tensor:
#      x y z
#    x 1.710840 -0.019040 -0.027150 
#    y -0.019040 1.730920 -0.002170 
#    z -0.027150 -0.002170 1.734710 
# 
# From -- ./inp_files/337619.got.cif
#   From: 2010.05.17/outbox.ucp.g08.bks.cvg/sg2_169_cif.got.tgz:337619.got - 2010.06.11 11:32:03.
