data_PCOD9075660
_publ_section_title
;
Structure prediction by ZEFSAII (Michael W. Deem and Ramdas Pophale) SiO2 
 PCOD9075660
Probable space group: P -1
;
_chemical_formula_sum "Si O2"
_cell_formula_units_Z 15
_cell_length_a 15.000000
_cell_length_b 9.000000
_cell_length_c 9.000000
_cell_angle_alpha 80.000000
_cell_angle_beta 120.000000
_cell_angle_gamma 140.000000
_cell_volume 626.690879
_symmetry_space_group_name_H-M "P -1"
_symmetry_group_IT_number 2
_symmetry_cell_setting 'triclinic'
loop_
_space_group_symop_operation_xyz
x,y,z
-x,-y,-z
loop_
_atom_site_type_symbol
_atom_site_label
_atom_site_fract_x
_atom_site_fract_y
_atom_site_fract_z
Si Si1 0.005828 0.054980 0.166148
Si Si2 0.444297 0.124132 0.697555
Si Si3 0.913407 0.268411 0.063678
Si Si4 0.153291 0.634857 0.709068
Si Si5 0.352508 0.335917 0.530098
Si Si6 0.500000 0.000000 0.500000
Si Si7 0.707845 0.508800 0.074641
Si Si8 0.532164 0.787333 0.799753
O O1 0.034712 0.266628 0.175470
O O2 0.167830 0.161838 0.349223
O O3 0.822540 0.791485 0.125034
O O4 0.000000 0.000000 0.000000
O O5 0.346121 0.166405 0.628517
O O6 0.446157 0.088711 0.531356
O O7 0.333833 0.882159 0.744756
O O8 0.632070 0.375040 0.874343
O O9 0.871044 0.297214 0.176863
O O10 0.000000 0.500000 0.000000
O O11 0.732236 0.993122 0.907328
O O12 0.159189 0.465679 0.776462
O O13 0.000000 0.500000 0.500000
O O14 0.500000 0.500000 0.500000
O O15 0.415596 0.532732 0.663236
O O16 0.489093 0.074660 0.317908
O O17 0.544683 0.312859 0.080993
#
# Coordination Sequence:
#
# PCOD9075660 Si02
#       8
#     2   2   2   2   2   1   2   2
#     4  12  29  50  76 115 154 202 253 326 394 463
#     4  12  25  48  76 110 153 204 257 319 383 461
#     4  12  29  49  78 111 156 199 258 316 390 463
#     4  12  27  46  72 112 153 198 252 320 383 456
#     4  12  27  48  77 109 151 200 260 314 385 469
#     4  12  26  42  82 110 148 194 270 300 384 456
#     4  12  26  51  78 111 159 199 259 322 393 462
#     4  12  27  47  80 115 147 208 254 317 391 463
#
# _framework density 23.935244999999998
#
# number of rings (size 3 to 8) (size 9 to 14) (size 15 to 20)
#    0.000    0.000    4.000    5.200    7.467    1.600 
#    0.000    0.000    0.000    0.000    0.000    0.000 
#    0.000    0.000    0.000    0.000    0.000    0.000 
#
# Total GULP energy -83664.656347 kJ/mol
# GULP energy per Si atom -5577.643756 kJ/mol
# Density = 2.388077 g / cm^3
# Si number density = 23.935245 Si / 1000 Ang^3
#
#
#
# Elastic Constant Matrix: (Units=GPa)
#
#
# Indices 1 2 3 4 5 6 
#
# 1 27.1101 15.7140 18.7585 -18.2325 31.8061 15.8014
# 2 15.7140 91.6803 34.4052 -2.8686 25.2841 5.3173
# 3 18.7585 34.4052 97.7171 8.1023 17.9533 10.4688
# 4 -18.2325 -2.8686 8.1023 35.7128 -0.9839 9.7238
# 5 31.8061 25.2841 17.9533 -0.9839 28.1479 -20.2367
# 6 15.8014 5.3173 10.4688 9.7238 -20.2367 39.9516
#
#
#
# Elastic Compliance Matrix: (Units=1/GPa)
#
#
# Indices 1 2 3 4 5 6 
#
# 1 -0.004984 -0.006855 -0.003164 -0.006870 0.027426 0.019277
# 2 -0.006855 0.013403 -0.003222 -0.002207 -0.001031 0.001786
# 3 -0.003164 -0.003222 0.013491 -0.004209 -0.004529 -0.003124
# 4 -0.006870 -0.002207 -0.004209 0.023619 0.018999 0.007989
# 5 0.027426 -0.001031 -0.004529 0.018999 -0.001819 -0.015069
# 6 0.019277 0.001786 -0.003124 0.007989 -0.015069 0.008409
#
#
# Mechanical properties :
#
#
# Convention : Reuss Voigt Hill
#
# Bulk Modulus (GPa) = -218.71936 39.36255 -89.67841
# Shear Modulus (GPa) = 64.86793 30.60446 47.73620
#
# Velocity S-wave (km/s) = 5.21155 3.57968 4.47070
# Velocity P-wave (km/s) = 7.44072 5.79367 3.30134
#
# Compressibility (1/GPa) = -0.00457207
#
# Stress axis : x y z
#
# Youngs Moduli (GPa) = -200.64853 74.60801 74.12201
#
# Poissons Ratio (x) = 0.51145 0.23453
# Poissons Ratio (y) = -1.37547 0.23883
# Poissons Ratio (z) = -0.63488 0.24040
#
# Static dielectric constant tensor:
#      x y z
#    x 2.040430 -0.128500 0.101250 
#    y -0.128500 1.906050 -0.027440 
#    z 0.101250 -0.027440 1.904820 
# 
# From -- ./inp_files/186487.got.cif
#   From: 2010.05.17/outbox.ucp.g08.bks.cvg/sg2_94_cif.got.tgz:186487.got - 2010.06.11 11:32:03.
