data_PCOD9075930
_publ_section_title
;
Structure prediction by ZEFSAII (Michael W. Deem and Ramdas Pophale) SiO2 
 PCOD9075930
Probable space group: P -1
;
_chemical_formula_sum "Si O2"
_cell_formula_units_Z 16
_cell_length_a 19.749065
_cell_length_b 8.139665
_cell_length_c 14.633916
_cell_angle_alpha 125.148469
_cell_angle_beta 153.976943
_cell_angle_gamma 43.584797
_cell_volume 689.191235
_symmetry_space_group_name_H-M "P -1"
_symmetry_group_IT_number 2
_symmetry_cell_setting 'triclinic'
loop_
_space_group_symop_operation_xyz
x,y,z
-x,-y,-z
loop_
_atom_site_type_symbol
_atom_site_label
_atom_site_fract_x
_atom_site_fract_y
_atom_site_fract_z
Si Si1 0.498897 0.998031 0.607448
Si Si2 0.346242 0.521663 0.591459
Si Si3 0.940844 0.269926 0.535722
Si Si4 0.790549 0.559127 0.072100
Si Si5 0.207322 0.444323 0.728083
Si Si6 0.862029 0.938051 0.718009
Si Si7 0.680832 0.469686 0.660278
Si Si8 0.621756 0.074541 0.290480
O O1 0.493203 0.235764 0.707016
O O2 0.500000 0.000000 0.500000
O O3 0.298946 0.049947 0.413005
O O4 0.666009 0.716606 0.746324
O O5 0.157883 0.618737 0.451178
O O6 0.336142 0.521222 0.468387
O O7 0.368696 0.742459 0.706269
O O8 0.795839 0.431589 0.329575
O O9 0.113498 0.296648 0.750948
O O10 0.000000 0.000000 0.500000
O O11 0.772263 0.468934 0.121325
O O12 0.577274 0.751221 0.843968
O O13 0.933891 0.316673 0.111069
O O14 0.000000 0.500000 0.500000
O O15 0.354864 0.153677 0.803512
O O16 0.850254 0.187174 0.796103
O O17 0.786602 0.957426 0.528794
O O18 0.500000 0.500000 0.500000
#
# Coordination Sequence:
#
# PCOD9075930 Si02
#       8
#     2   2   2   2   2   2   2   2
#     4   9  16  32  58  88 109 149 197 237 298 344
#     4  10  18  32  57  85 115 146 189 246 287 332
#     4  11  22  36  59  85 116 152 191 243 291 333
#     4  11  22  37  59  84 114 159 196 234 283 353
#     4  10  19  37  56  78 117 154 193 233 277 342
#     4  10  18  36  59  82 115 151 194 238 291 344
#     4   8  17  29  57  86 106 149 197 230 284 358
#     4  11  21  36  60  84 115 156 199 228 286 349
#
# _framework density 23.215616000000001
#
# number of rings (size 3 to 8) (size 9 to 14) (size 15 to 20)
#    0.000    2.000    3.750    1.875    1.750    0.000 
#    0.000    3.750    0.000   28.500    0.000    0.000 
#    0.000    0.000    0.000    0.000    0.000    0.000 
#
# Total GULP energy -89224.217785 kJ/mol
# GULP energy per Si atom -5576.513612 kJ/mol
# Density = 2.316278 g / cm^3
# Si number density = 23.215616 Si / 1000 Ang^3
#
#
#
# Elastic Constant Matrix: (Units=GPa)
#
#
# Indices 1 2 3 4 5 6 
#
# 1 105.3753 29.8712 9.1525 -3.9303 10.3794 -3.9434
# 2 29.8712 194.3807 28.1891 -46.2643 -3.1240 19.5389
# 3 9.1525 28.1891 53.6766 -23.6839 5.1806 -6.6000
# 4 -3.9303 -46.2643 -23.6839 36.7877 -8.2397 1.5212
# 5 10.3794 -3.1240 5.1806 -8.2397 19.9731 -0.3557
# 6 -3.9434 19.5389 -6.6000 1.5212 -0.3557 38.9261
#
#
#
# Elastic Compliance Matrix: (Units=1/GPa)
#
#
# Indices 1 2 3 4 5 6 
#
# 1 0.011289 -0.003343 -0.001718 -0.006100 -0.008412 0.002692
# 2 -0.003343 0.009740 0.000180 0.014257 0.008995 -0.005672
# 3 -0.001718 0.000180 0.026859 0.017458 0.001221 0.003618
# 4 -0.006100 0.014257 0.017458 0.061875 0.026273 -0.006992
# 5 -0.008412 0.008995 0.001221 0.026273 0.066268 -0.005581
# 6 0.002692 -0.005672 0.003618 -0.006992 -0.005581 0.029645
#
#
# Mechanical properties :
#
#
# Convention : Reuss Voigt Hill
#
# Bulk Modulus (GPa) = 26.22877 54.20649 40.21763
# Shear Modulus (GPa) = 21.91577 38.21870 30.06723
#
# Velocity S-wave (km/s) = 3.07581 4.06180 3.60270
# Velocity P-wave (km/s) = 4.89250 6.73777 5.88787
#
# Compressibility (1/GPa) = 0.03812608
#
# Stress axis : x y z
#
# Youngs Moduli (GPa) = 88.58466 102.66601 37.23185
#
# Poissons Ratio (x) = 0.34324 0.06395
# Poissons Ratio (y) = 0.29616 -0.00670
# Poissons Ratio (z) = 0.15215 -0.01848
#
# Static dielectric constant tensor:
#      x y z
#    x 1.966620 -0.053760 -0.041910 
#    y -0.053760 1.961610 0.017450 
#    z -0.041910 0.017450 1.893530 
# 
# From -- ./inp_files/555261.got.cif
#   From: 2010.05.17/outbox.cif.g08.bks.cpg/sg2_278_cif.got.tgz:555261.got - 2010.06.03 11:33:40.
