data_PCOD9075799
_publ_section_title
;
Structure prediction by ZEFSAII (Michael W. Deem and Ramdas Pophale) SiO2 
 PCOD9075799
Probable space group: P -1
;
_chemical_formula_sum "Si O2"
_cell_formula_units_Z 16
_cell_length_a 8.441482
_cell_length_b 9.430755
_cell_length_c 14.817726
_cell_angle_alpha 132.881798
_cell_angle_beta 81.765923
_cell_angle_gamma 81.908608
_cell_volume 808.008215
_symmetry_space_group_name_H-M "P -1"
_symmetry_group_IT_number 2
_symmetry_cell_setting 'triclinic'
loop_
_space_group_symop_operation_xyz
x,y,z
-x,-y,-z
loop_
_atom_site_type_symbol
_atom_site_label
_atom_site_fract_x
_atom_site_fract_y
_atom_site_fract_z
Si Si1 0.376495 0.199653 0.549735
Si Si2 0.949593 0.085665 0.400654
Si Si3 0.782576 0.680483 0.561306
Si Si4 0.826898 0.226223 0.302613
Si Si5 0.128258 0.950004 0.051105
Si Si6 0.265475 0.308432 0.214642
Si Si7 0.979113 0.284752 0.661286
Si Si8 0.384922 0.630044 0.793931
O O1 0.373400 0.204605 0.442426
O O2 0.417291 0.394297 0.669228
O O3 0.179187 0.235297 0.606284
O O4 0.500000 0.000000 0.500000
O O5 0.084751 0.196832 0.408343
O O6 0.794125 0.156870 0.374791
O O7 0.897263 0.182364 0.545367
O O8 0.029608 0.842427 0.303391
O O9 0.846915 0.450702 0.413366
O O10 0.750990 0.660479 0.661327
O O11 0.696742 0.256434 0.244332
O O12 0.999503 0.043500 0.183581
O O13 0.247909 0.089913 0.100415
O O14 0.248673 0.719932 0.923709
O O15 0.000000 0.000000 0.000000
O O16 0.118302 0.476575 0.243136
O O17 0.443093 0.328422 0.181661
#
# Coordination Sequence:
#
# PCOD9075799 Si02
#       8
#     2   2   2   2   2   2   2   2
#     4  10  23  39  56  85 127 158 188 245 297 355
#     4  10  18  32  55  86 115 149 196 230 292 347
#     4  10  20  33  60  92 117 151 197 242 306 338
#     4  10  18  36  59  84 120 152 198 246 286 350
#     4  10  20  38  61  82 114 161 200 242 288 343
#     4  12  21  37  62  90 121 150 197 252 285 358
#     4  10  22  33  57  84 119 155 188 233 302 352
#     4  10  24  35  57  90 118 157 201 237 292 345
#
# _framework density 19.801780000000001
#
# number of rings (size 3 to 8) (size 9 to 14) (size 15 to 20)
#    0.000    1.750    2.500    3.750    5.250    3.000 
#    0.000    0.000    0.000   11.250    0.000    0.000 
#    0.000    0.000    0.000    0.000    0.000    0.000 
#
# Total GULP energy -89135.863035 kJ/mol
# GULP energy per Si atom -5570.991440 kJ/mol
# Density = 1.975671 g / cm^3
# Si number density = 19.801780 Si / 1000 Ang^3
#
#
#
# Elastic Constant Matrix: (Units=GPa)
#
#
# Indices 1 2 3 4 5 6 
#
# 1 84.2174 11.6551 11.3222 2.0770 -2.0462 -15.1848
# 2 11.6551 105.0837 7.8944 10.3549 -7.0734 -29.4815
# 3 11.3222 7.8944 48.4026 2.9919 6.9156 -16.2333
# 4 2.0770 10.3549 2.9919 18.5029 -3.0105 -3.6849
# 5 -2.0462 -7.0734 6.9156 -3.0105 26.7636 3.2736
# 6 -15.1848 -29.4815 -16.2333 -3.6849 3.2736 28.1418
#
#
#
# Elastic Compliance Matrix: (Units=1/GPa)
#
#
# Indices 1 2 3 4 5 6 
#
# 1 0.013222 0.000701 -0.000810 -0.000209 0.000487 0.007317
# 2 0.000701 0.014412 0.003354 -0.005307 0.000359 0.016674
# 3 -0.000810 0.003354 0.028682 -0.003945 -0.009503 0.020211
# 4 -0.000209 -0.005307 -0.003945 0.058500 0.006306 -0.001022
# 5 0.000487 0.000359 -0.009503 0.006306 0.041746 -0.008873
# 6 0.007317 0.016674 0.020211 -0.001022 -0.008873 0.069507
#
#
# Mechanical properties :
#
#
# Convention : Reuss Voigt Hill
#
# Bulk Modulus (GPa) = 15.92183 33.27190 24.59686
# Shear Modulus (GPa) = 20.78877 28.47045 24.62961
#
# Velocity S-wave (km/s) = 3.24364 3.79591 3.53059
# Velocity P-wave (km/s) = 4.69961 6.00424 5.39153
#
# Compressibility (1/GPa) = 0.06280687
#
# Stress axis : x y z
#
# Youngs Moduli (GPa) = 75.62998 69.38868 34.86461
#
# Poissons Ratio (x) = -0.04861 0.02823
# Poissons Ratio (y) = -0.05298 -0.11695
# Poissons Ratio (z) = 0.06124 -0.23276
#
# Static dielectric constant tensor:
#      x y z
#    x 1.725610 -0.007620 -0.024670 
#    y -0.007620 1.775900 -0.014760 
#    z -0.024670 -0.014760 1.751290 
# 
# From -- ./inp_files/313475.got.cif
#   From: 2010.05.17/outbox.cif.g08.bks.cpg/sg2_157_cif.got.tgz:313475.got - 2010.06.03 11:33:40.
