data_PCOD9075030
_publ_section_title
;
Structure prediction by ZEFSAII (Michael W. Deem and Ramdas Pophale) SiO2 
 PCOD9075030
Probable space group: P -1
;
_chemical_formula_sum "Si O2"
_cell_formula_units_Z 14
_cell_length_a 18.000000
_cell_length_b 12.000000
_cell_length_c 18.000000
_cell_angle_alpha 40.000000
_cell_angle_beta 150.000000
_cell_angle_gamma 160.000000
_cell_volume 638.438402
_symmetry_space_group_name_H-M "P -1"
_symmetry_group_IT_number 2
_symmetry_cell_setting 'triclinic'
loop_
_space_group_symop_operation_xyz
x,y,z
-x,-y,-z
loop_
_atom_site_type_symbol
_atom_site_label
_atom_site_fract_x
_atom_site_fract_y
_atom_site_fract_z
Si Si1 0.716000 0.613332 0.931706
Si Si2 0.867267 0.488765 0.732356
Si Si3 0.300619 0.775180 0.658093
Si Si4 0.358755 0.446039 0.831892
Si Si5 0.189921 0.280648 0.327949
Si Si6 0.750713 0.446719 0.905694
Si Si7 0.812988 0.318709 0.218266
O O1 0.487939 0.492143 0.844928
O O2 0.731193 0.595406 0.865780
O O3 0.748824 0.451112 0.072724
O O4 0.000000 0.000000 0.000000
O O5 0.948603 0.758715 0.699415
O O6 0.909760 0.485427 0.683731
O O7 0.534615 0.144623 0.643539
O O8 0.031499 0.490361 0.913971
O O9 0.413825 0.701581 0.766344
O O10 0.232196 0.728017 0.709534
O O11 0.000000 0.500000 0.500000
O O12 0.500000 0.500000 0.000000
O O13 0.020475 0.068521 0.716517
O O14 0.500000 0.500000 0.500000
O O15 0.203657 0.446826 0.193084
O O16 0.437454 0.048737 0.845797
#
# Coordination Sequence:
#
# PCOD9075030 Si02
#       7
#     2   2   2   2   2   2   2
#     4  11  22  41  66 104 128 164 228 283 330 387
#     4  11  23  45  71  96 125 179 228 269 330 398
#     4  12  26  44  65  98 137 178 221 269 337 403
#     4  12  23  41  68  95 132 175 219 277 334 386
#     4  12  25  43  66 101 138 173 220 282 340 394
#     4  11  23  42  72  96 128 174 226 272 326 406
#     4  11  23  43  70  97 132 171 226 275 321 401
#
# _framework density 21.928505000000001
#
# number of rings (size 3 to 8) (size 9 to 14) (size 15 to 20)
#    0.000    0.571    2.857    8.143    0.000    0.571 
#    2.571    1.429    0.000    0.000    0.000    0.000 
#    0.000    0.000    0.000    0.000    0.000    0.000 
#
# Total GULP energy -78050.959685 kJ/mol
# GULP energy per Si atom -5575.068549 kJ/mol
# Density = 2.187860 g / cm^3
# Si number density = 21.928505 Si / 1000 Ang^3
#
#
#
# Elastic Constant Matrix: (Units=GPa)
#
#
# Indices 1 2 3 4 5 6 
#
# 1 181.3119 23.2939 10.7079 11.1447 17.6107 -14.1174
# 2 23.2939 57.7957 13.1761 2.0911 -15.9356 -13.4945
# 3 10.7079 13.1761 32.9039 35.5161 17.8588 -9.9830
# 4 11.1447 2.0911 35.5161 12.3336 -15.0888 8.3241
# 5 17.6107 -15.9356 17.8588 -15.0888 18.6634 2.2103
# 6 -14.1174 -13.4945 -9.9830 8.3241 2.2103 42.7208
#
#
#
# Elastic Compliance Matrix: (Units=1/GPa)
#
#
# Indices 1 2 3 4 5 6 
#
# 1 0.005971 -0.002187 -0.003505 0.003076 -0.001655 -0.000050
# 2 -0.002187 0.021485 0.003976 -0.011590 0.006176 0.008932
# 3 -0.003505 0.003976 0.003214 0.015570 0.016576 -0.003043
# 4 0.003076 -0.011590 0.015570 0.002491 -0.025902 0.001849
# 5 -0.001655 0.006176 0.016576 -0.025902 0.022529 0.009159
# 6 -0.000050 0.008932 -0.003043 0.001849 0.009159 0.024667
#
#
# Mechanical properties :
#
#
# Convention : Reuss Voigt Hill
#
# Bulk Modulus (GPa) = 36.71216 40.70749 38.70982
# Shear Modulus (GPa) = 53.84019 29.73245 41.78632
#
# Velocity S-wave (km/s) = 4.96043 3.68622 4.37002
# Velocity P-wave (km/s) = 7.04173 6.05984 6.56916
#
# Compressibility (1/GPa) = 0.02723893
#
# Stress axis : x y z
#
# Youngs Moduli (GPa) = 167.47365 46.54454 311.17463
#
# Poissons Ratio (x) = 0.10180 1.09054
# Poissons Ratio (y) = 0.36628 -1.23734
# Poissons Ratio (z) = 0.58693 -0.18508
#
# Static dielectric constant tensor:
#      x y z
#    x 1.667050 -0.007320 -0.095180 
#    y -0.007320 1.803970 0.126130 
#    z -0.095180 0.126130 1.717430 
# 
# From -- ./inp_files/160243.got.cif
#   From: 2010.05.17/outbox.ucp.g08.bks.cvg/sg2_81_cif.got.tgz:160243.got - 2010.06.11 11:32:03.
