data_PCOD9075959
_publ_section_title
;
Structure prediction by ZEFSAII (Michael W. Deem and Ramdas Pophale) SiO2 
 PCOD9075959
Probable space group: P -1
;
_chemical_formula_sum "Si O2"
_cell_formula_units_Z 16
_cell_length_a 14.139624
_cell_length_b 12.067474
_cell_length_c 20.721698
_cell_angle_alpha 23.345126
_cell_angle_beta 26.065165
_cell_angle_gamma 39.367102
_cell_volume 587.915842
_symmetry_space_group_name_H-M "P -1"
_symmetry_group_IT_number 2
_symmetry_cell_setting 'triclinic'
loop_
_space_group_symop_operation_xyz
x,y,z
-x,-y,-z
loop_
_atom_site_type_symbol
_atom_site_label
_atom_site_fract_x
_atom_site_fract_y
_atom_site_fract_z
Si Si1 0.177261 0.650134 0.368091
Si Si2 0.375167 0.615500 0.910920
Si Si3 0.700475 0.212917 0.400641
Si Si4 0.286761 0.419596 0.590820
Si Si5 0.545695 0.350478 0.295590
Si Si6 0.144324 0.520476 0.237265
Si Si7 0.354361 0.986461 0.965250
Si Si8 0.947206 0.688107 0.077911
O O1 0.328510 0.438146 0.406660
O O2 0.000000 0.500000 0.500000
O O3 0.030296 0.710257 0.485071
O O4 0.341537 0.913672 0.087461
O O5 0.402402 0.483000 0.894410
O O6 0.616138 0.860868 0.641624
O O7 0.269424 0.466283 0.123602
O O8 0.188129 0.769152 0.919222
O O9 0.476256 0.275458 0.532195
O O10 0.725181 0.377334 0.228495
O O11 0.900528 0.377270 0.236653
O O12 0.412784 0.765524 0.321873
O O13 0.233248 0.355630 0.731969
O O14 0.041432 0.328284 0.756736
O O15 0.500000 0.000000 0.500000
O O16 0.316637 0.735449 0.067098
O O17 0.131467 0.096879 0.035062
#
# Coordination Sequence:
#
# PCOD9075959 Si02
#       8
#     2   2   2   2   2   2   2   2
#     4  10  22  39  61  88 121 156 201 242 289 357
#     4  10  21  35  62  84 121 154 194 245 301 338
#     4  10  18  34  54  85 123 147 192 245 294 345
#     4  10  18  32  57  89 123 141 200 249 292 339
#     4  10  22  39  59  87 123 159 195 243 295 351
#     4  10  19  36  57  86 116 154 198 240 289 347
#     4  10  20  33  57  86 120 150 192 249 295 338
#     4  10  20  32  57  97 115 148 199 248 292 348
#
# _framework density 27.214780000000001
#
# number of rings (size 3 to 8) (size 9 to 14) (size 15 to 20)
#    0.000    2.000    1.250    3.750    5.250    3.000 
#    0.000    2.500    0.000    3.000    0.000    0.000 
#    0.000    0.000    0.000    0.000    0.000    0.000 
#
# Total GULP energy -89296.568384 kJ/mol
# GULP energy per Si atom -5581.035524 kJ/mol
# Density = 2.715284 g / cm^3
# Si number density = 27.214780 Si / 1000 Ang^3
#
#
#
# Elastic Constant Matrix: (Units=GPa)
#
#
# Indices 1 2 3 4 5 6 
#
# 1 126.0102 18.5570 45.1529 16.5982 6.2875 18.7160
# 2 18.5570 88.5010 38.1924 35.2289 12.3458 10.6833
# 3 45.1529 38.1924 108.0595 16.5674 16.6960 21.8259
# 4 16.5982 35.2289 16.5674 42.7582 12.1145 0.7837
# 5 6.2875 12.3458 16.6960 12.1145 55.6137 10.1765
# 6 18.7160 10.6833 21.8259 0.7837 10.1765 49.0137
#
#
#
# Elastic Compliance Matrix: (Units=1/GPa)
#
#
# Indices 1 2 3 4 5 6 
#
# 1 0.009861 0.001062 -0.003589 -0.003539 0.000963 -0.002542
# 2 0.001062 0.018987 -0.004551 -0.014423 0.000615 -0.002415
# 3 -0.003589 -0.004551 0.013211 0.000685 -0.002134 -0.003088
# 4 -0.003539 -0.014423 0.000685 0.037917 -0.005737 0.004775
# 5 0.000963 0.000615 -0.002134 -0.005737 0.020299 -0.003674
# 6 -0.002542 -0.002415 -0.003088 0.004775 -0.003674 0.023961
#
#
# Mechanical properties :
#
#
# Convention : Reuss Voigt Hill
#
# Bulk Modulus (GPa) = 35.83603 58.48613 47.16108
# Shear Modulus (GPa) = 33.85442 44.18836 39.02139
#
# Velocity S-wave (km/s) = 3.53082 4.03387 3.79070
# Velocity P-wave (km/s) = 5.46065 6.57521 6.04368
#
# Compressibility (1/GPa) = 0.02790488
#
# Stress axis : x y z
#
# Youngs Moduli (GPa) = 101.40937 52.66660 75.69708
#
# Poissons Ratio (x) = -0.05594 0.27165
# Poissons Ratio (y) = -0.10772 0.34447
# Poissons Ratio (z) = 0.36392 0.23967
#
# Static dielectric constant tensor:
#      x y z
#    x 2.174680 0.002540 0.066620 
#    y 0.002540 2.236020 -0.108980 
#    z 0.066620 -0.108980 2.215280 
# 
# From -- ./inp_files/594053.got.cif
#   From: 2010.05.17/outbox.cif.g08.bks.cpg/sg2_298_cif.got.tgz:594053.got - 2010.06.03 11:33:40.
