data_PCOD9075646
_publ_section_title
;
Structure prediction by ZEFSAII (Michael W. Deem and Ramdas Pophale) SiO2 
 PCOD9075646
Probable space group: P -1
;
_chemical_formula_sum "Si O2"
_cell_formula_units_Z 16
_cell_length_a 9.000000
_cell_length_b 15.000000
_cell_length_c 9.000000
_cell_angle_alpha 100.000000
_cell_angle_beta 50.000000
_cell_angle_gamma 70.000000
_cell_volume 732.374747
_symmetry_space_group_name_H-M "P -1"
_symmetry_group_IT_number 2
_symmetry_cell_setting 'triclinic'
loop_
_space_group_symop_operation_xyz
x,y,z
-x,-y,-z
loop_
_atom_site_type_symbol
_atom_site_label
_atom_site_fract_x
_atom_site_fract_y
_atom_site_fract_z
Si Si1 0.270621 0.345000 0.614584
Si Si2 0.950903 0.266716 0.917573
Si Si3 0.720749 0.975044 0.454783
Si Si4 0.213440 0.563560 0.670335
Si Si5 0.756991 0.891008 0.749208
Si Si6 0.713240 0.198415 0.520564
Si Si7 0.534243 0.380076 0.965647
Si Si8 0.156345 0.345463 0.334803
O O1 0.172178 0.475127 0.743560
O O2 0.536851 0.266244 0.507725
O O3 0.214906 0.353591 0.473839
O O4 0.132394 0.294408 0.748013
O O5 0.055425 0.135316 0.809199
O O6 0.900244 0.321600 0.129526
O O7 0.725524 0.325465 0.964080
O O8 0.755932 0.919987 0.581769
O O9 0.500000 0.000000 0.500000
O O10 0.698410 0.091298 0.521133
O O11 0.500000 0.500000 0.500000
O O12 0.096137 0.592426 0.586094
O O13 0.758637 0.783132 0.752014
O O14 0.995106 0.864173 0.674013
O O15 0.500000 0.000000 0.000000
O O16 0.622717 0.295381 0.738679
O O17 0.302495 0.384664 0.166934
O O18 0.500000 0.500000 0.000000
#
# Coordination Sequence:
#
# PCOD9075646 Si02
#       8
#     2   2   2   2   2   2   2   2
#     4  12  24  48  74 111 147 195 249 316 381 449
#     4  12  25  46  73 108 147 194 258 302 381 453
#     4  12  25  50  77 107 148 202 256 310 372 451
#     4  12  27  47  73 107 153 199 247 315 382 448
#     4  12  27  46  73 111 151 197 251 311 376 441
#     4  12  25  49  78 109 153 200 252 306 380 452
#     4  12  26  47  79 112 148 199 250 306 381 457
#     4  12  26  48  74 113 151 192 253 313 379 449
#
# _framework density 21.846738999999999
#
# number of rings (size 3 to 8) (size 9 to 14) (size 15 to 20)
#    0.000    0.000    3.750    5.625    3.500    2.000 
#    0.000    1.250    0.000    0.000    0.000    0.000 
#    0.000    0.000    0.000    0.000    0.000    0.000 
#
# Total GULP energy -89173.751850 kJ/mol
# GULP energy per Si atom -5573.359491 kJ/mol
# Density = 2.179701 g / cm^3
# Si number density = 21.846739 Si / 1000 Ang^3
#
#
#
# Elastic Constant Matrix: (Units=GPa)
#
#
# Indices 1 2 3 4 5 6 
#
# 1 223.4062 43.6471 52.6504 7.4733 -4.9354 -14.1246
# 2 43.6471 173.8514 25.0767 23.7302 7.0431 17.6835
# 3 52.6504 25.0767 83.1792 7.1260 9.5028 3.1022
# 4 7.4733 23.7302 7.1260 38.7571 10.5090 1.2141
# 5 -4.9354 7.0431 9.5028 10.5090 42.4847 6.5550
# 6 -14.1246 17.6835 3.1022 1.2141 6.5550 74.5795
#
#
#
# Elastic Compliance Matrix: (Units=1/GPa)
#
#
# Indices 1 2 3 4 5 6 
#
# 1 0.005619 -0.001080 -0.003427 -0.000226 0.001448 0.001339
# 2 -0.001080 0.006858 -0.001013 -0.003796 0.000172 -0.001742
# 3 -0.003427 -0.001013 0.014951 -0.000543 -0.003327 -0.000729
# 4 -0.000226 -0.003796 -0.000543 0.030103 -0.006875 0.000994
# 5 0.001448 0.000172 -0.003327 -0.006875 0.026406 -0.001837
# 6 0.001339 -0.001742 -0.000729 0.000994 -0.001837 0.014251
#
#
# Mechanical properties :
#
#
# Convention : Reuss Voigt Hill
#
# Bulk Modulus (GPa) = 61.02508 80.35392 70.68950
# Shear Modulus (GPa) = 43.59569 55.10177 49.34873
#
# Velocity S-wave (km/s) = 4.47198 5.02760 4.75790
# Velocity P-wave (km/s) = 7.39315 8.40017 7.91270
#
# Compressibility (1/GPa) = 0.01638671
#
# Stress axis : x y z
#
# Youngs Moduli (GPa) = 177.96404 145.81917 66.88644
#
# Poissons Ratio (x) = 0.15754 0.22922
# Poissons Ratio (y) = 0.19227 0.06776
# Poissons Ratio (z) = 0.60988 0.14772
#
# Static dielectric constant tensor:
#      x y z
#    x 1.777040 -0.008420 -0.009860 
#    y -0.008420 1.798900 -0.001630 
#    z -0.009860 -0.001630 1.953290 
# 
# From -- ./inp_files/207528.got.cif
#   From: 2010.05.17/outbox.ucp.g08.bks.cvg/sg2_104_cif.got.tgz:207528.got - 2010.06.11 11:32:03.
