data_PCOD9075098
_publ_section_title
;
Structure prediction by ZEFSAII (Michael W. Deem and Ramdas Pophale) SiO2 
 PCOD9075098
Probable space group: P -1
;
_chemical_formula_sum "Si O2"
_cell_formula_units_Z 16
_cell_length_a 12.000000
_cell_length_b 18.000000
_cell_length_c 9.000000
_cell_angle_alpha 130.000000
_cell_angle_beta 100.000000
_cell_angle_gamma 40.000000
_cell_volume 729.599496
_symmetry_space_group_name_H-M "P -1"
_symmetry_group_IT_number 2
_symmetry_cell_setting 'triclinic'
loop_
_space_group_symop_operation_xyz
x,y,z
-x,-y,-z
loop_
_atom_site_type_symbol
_atom_site_label
_atom_site_fract_x
_atom_site_fract_y
_atom_site_fract_z
Si Si1 0.404989 0.046627 0.871641
Si Si2 0.621125 0.633302 0.539831
Si Si3 0.025390 0.769512 0.039297
Si Si4 0.847858 0.485061 0.887857
Si Si5 0.993529 0.836780 0.471161
Si Si6 0.179375 0.376943 0.657842
Si Si7 0.505683 0.180701 0.945734
Si Si8 0.896194 0.049103 0.201650
O O1 0.175071 0.155446 0.964000
O O2 0.576033 0.855234 0.566020
O O3 0.407794 0.148795 0.925950
O O4 0.500000 0.000000 0.000000
O O5 0.768152 0.614243 0.479452
O O6 0.593172 0.674490 0.762716
O O7 0.354881 0.812548 0.675528
O O8 0.746996 0.453869 0.250492
O O9 0.974268 0.836695 0.286686
O O10 0.039568 0.858075 0.064594
O O11 0.600305 0.709380 0.092154
O O12 0.849318 0.370781 0.720326
O O13 0.008724 0.417610 0.716679
O O14 0.901353 0.479950 0.061179
O O15 0.094351 0.863608 0.579726
O O16 0.771866 0.985208 0.717426
O O17 0.000000 0.000000 0.000000
#
# Coordination Sequence:
#
# PCOD9075098 Si02
#       8
#     2   2   2   2   2   2   2   2
#     4  12  24  42  74 106 147 186 229 291 360 423
#     4  12  26  47  73 108 139 190 243 293 352 424
#     4  12  28  47  77 102 142 191 239 290 362 427
#     4  11  26  42  71 108 150 180 235 293 351 432
#     4  12  27  49  71 105 144 191 238 294 359 417
#     4  11  22  45  68 104 149 183 226 293 355 418
#     4  12  26  41  74 108 144 189 232 289 361 428
#     4  12  28  51  74 103 142 184 247 310 346 410
#
# _framework density 21.929839999999999
#
# number of rings (size 3 to 8) (size 9 to 14) (size 15 to 20)
#    0.000    0.250    6.250    1.875    5.250    4.000 
#    0.000    0.000    0.000    0.000    0.000    0.000 
#    0.000    0.000    0.000    0.000    0.000    0.000 
#
# Total GULP energy -89100.282796 kJ/mol
# GULP energy per Si atom -5568.767675 kJ/mol
# Density = 2.187993 g / cm^3
# Si number density = 21.929840 Si / 1000 Ang^3
#
#
#
# Elastic Constant Matrix: (Units=GPa)
#
#
# Indices 1 2 3 4 5 6 
#
# 1 59.7444 22.2955 6.7189 -9.5017 3.9334 22.8491
# 2 22.2955 58.5605 27.7817 -20.0820 6.7660 13.4580
# 3 6.7189 27.7817 112.7662 -22.6832 -11.8400 12.7625
# 4 -9.5017 -20.0820 -22.6832 37.8255 -0.7194 2.7575
# 5 3.9334 6.7660 -11.8400 -0.7194 20.7762 1.3414
# 6 22.8491 13.4580 12.7625 2.7575 1.3414 30.1591
#
#
#
# Elastic Compliance Matrix: (Units=1/GPa)
#
#
# Indices 1 2 3 4 5 6 
#
# 1 0.027288 -0.004435 0.003443 0.008085 -0.000131 -0.020885
# 2 -0.004435 0.027634 -0.004435 0.011271 -0.009800 -0.007689
# 3 0.003443 -0.004435 0.012878 0.006919 0.008830 -0.007104
# 4 0.008085 0.011271 0.006919 0.039922 0.001273 -0.017789
# 5 -0.000131 -0.009800 0.008830 0.001273 0.056547 -0.001895
# 6 -0.020885 -0.007689 -0.007104 -0.017789 -0.001895 0.057128
#
#
# Mechanical properties :
#
#
# Convention : Reuss Voigt Hill
#
# Bulk Modulus (GPa) = 17.56102 38.29593 27.92847
# Shear Modulus (GPa) = 19.90179 29.37050 24.63614
#
# Velocity S-wave (km/s) = 3.01578 3.66361 3.35536
# Velocity P-wave (km/s) = 4.48907 5.94953 5.27013
#
# Compressibility (1/GPa) = 0.05694430
#
# Stress axis : x y z
#
# Youngs Moduli (GPa) = 36.64662 36.18783 77.64954
#
# Poissons Ratio (x) = 0.16050 -0.26734
# Poissons Ratio (y) = 0.16254 0.34440
# Poissons Ratio (z) = -0.12617 0.16050
#
# Static dielectric constant tensor:
#      x y z
#    x 1.799800 0.005480 0.012290 
#    y 0.005480 1.936900 0.064630 
#    z 0.012290 0.064630 1.769550 
# 
# From -- ./inp_files/245884.got.cif
#   From: 2010.05.17/outbox.ucp.g08.bks.cvg/sg2_123_cif.got.tgz:245884.got - 2010.06.11 11:32:03.
