data_PCOD9075051
_publ_section_title
;
Structure prediction by ZEFSAII (Michael W. Deem and Ramdas Pophale) SiO2 
 PCOD9075051
Probable space group: P -1
;
_chemical_formula_sum "Si O2"
_cell_formula_units_Z 16
_cell_length_a 9.000000
_cell_length_b 9.000000
_cell_length_c 12.000000
_cell_angle_alpha 50.000000
_cell_angle_beta 90.000000
_cell_angle_gamma 90.000000
_cell_volume 744.595199
_symmetry_space_group_name_H-M "P -1"
_symmetry_group_IT_number 2
_symmetry_cell_setting 'triclinic'
loop_
_space_group_symop_operation_xyz
x,y,z
-x,-y,-z
loop_
_atom_site_type_symbol
_atom_site_label
_atom_site_fract_x
_atom_site_fract_y
_atom_site_fract_z
Si Si1 0.690584 0.230853 0.123114
Si Si2 0.186071 0.749776 0.431992
Si Si3 0.981192 0.651305 0.687678
Si Si4 0.497270 0.081682 0.586334
Si Si5 0.308565 0.473802 0.386532
Si Si6 0.785919 0.608800 0.074374
Si Si7 0.026080 0.107975 0.207306
Si Si8 0.505962 0.232435 0.899775
O O1 0.711221 0.426914 0.099285
O O2 0.858561 0.150483 0.146151
O O3 0.590353 0.074983 0.263986
O O4 0.605329 0.274564 0.988440
O O5 0.334976 0.872834 0.397394
O O6 0.232121 0.559117 0.456189
O O7 0.097672 0.706860 0.565214
O O8 0.072618 0.886162 0.298631
O O9 0.823289 0.590257 0.666571
O O10 0.969828 0.822195 0.696987
O O11 0.062751 0.472040 0.833242
O O12 0.409064 0.284739 0.495130
O O13 0.500000 0.000000 0.500000
O O14 0.411842 0.647584 0.255049
O O15 0.661593 0.692159 0.116688
O O16 0.846459 0.767289 0.912492
O O17 0.500000 0.000000 0.000000
#
# Coordination Sequence:
#
# PCOD9075051 Si02
#       8
#     2   2   2   2   2   2   2   2
#     4  11  23  41  65  93 123 163 210 260 309 366
#     4  12  25  42  63  94 129 166 207 257 314 373
#     4  11  23  42  66  92 124 166 210 259 310 369
#     4  12  24  42  66  94 125 166 212 260 310 369
#     4  12  25  43  64  93 129 168 207 256 313 372
#     4  11  23  42  66  93 124 163 210 261 310 366
#     4  11  22  42  66  94 125 163 210 261 310 369
#     4  12  25  42  63  93 129 167 206 254 312 374
#
# _framework density 21.488185999999999
#
# number of rings (size 3 to 8) (size 9 to 14) (size 15 to 20)
#    0.000    0.500    0.000   11.250    0.000    2.000 
#    0.000    2.500    0.000    0.000    0.000    0.000 
#    0.000    0.000    0.000    0.000    0.000    0.000 
#
# Total GULP energy -89600.134849 kJ/mol
# GULP energy per Si atom -5600.008428 kJ/mol
# Density = 2.143928 g / cm^3
# Si number density = 21.488186 Si / 1000 Ang^3
#
#
#
# Elastic Constant Matrix: (Units=GPa)
#
#
# Indices 1 2 3 4 5 6 
#
# 1 68.5799 2.8496 -11.9435 14.6862 -8.9824 -12.8224
# 2 2.8496 19.6738 -1.6656 -12.2760 1.6189 -22.7713
# 3 -11.9435 -1.6656 73.9280 -0.0235 -25.2172 -12.3550
# 4 14.6862 -12.2760 -0.0235 19.4971 -1.5674 5.3752
# 5 -8.9824 1.6189 -25.2172 -1.5674 47.4212 -2.8473
# 6 -12.8224 -22.7713 -12.3550 5.3752 -2.8473 41.7615
#
#
#
# Elastic Compliance Matrix: (Units=1/GPa)
#
#
# Indices 1 2 3 4 5 6 
#
# 1 0.025137 -0.012962 0.008042 -0.028375 0.008981 0.007294
# 2 -0.012962 0.679900 0.091272 0.345067 0.055478 0.353120
# 3 0.008042 0.091272 0.034002 0.036894 0.021251 0.058997
# 4 -0.028375 0.345067 0.036894 0.247522 0.020245 0.159879
# 5 0.008981 0.055478 0.021251 0.020245 0.035212 0.039090
# 6 0.007294 0.353120 0.058997 0.159879 0.039090 0.218272
#
#
# Mechanical properties :
#
#
# Convention : Reuss Voigt Hill
#
# Bulk Modulus (GPa) = 1.09680 15.62919 8.36299
# Shear Modulus (GPa) = 3.64629 33.26538 18.45584
#
# Velocity S-wave (km/s) = 1.30406 3.93883 2.93385
# Velocity P-wave (km/s) = 1.66702 5.28914 3.92135
#
# Compressibility (1/GPa) = 0.91174434
#
# Stress axis : x y z
#
# Youngs Moduli (GPa) = 39.78162 1.47080 29.40965
#
# Poissons Ratio (x) = 0.01906 -0.23653
# Poissons Ratio (y) = 0.51563 -2.68426
# Poissons Ratio (z) = -0.31994 -0.13424
#
# Static dielectric constant tensor:
#      x y z
#    x 1.728810 -0.002920 0.020960 
#    y -0.002920 1.750690 0.016320 
#    z 0.020960 0.016320 1.837100 
# 
# From -- ./inp_files/158693.got.cif
#   From: 2010.05.17/outbox.ucp.g08.bks.cvg/sg2_80_cif.got.tgz:158693.got - 2010.06.11 11:32:03.
