data_PCOD9075536
_publ_section_title
;
Structure prediction by ZEFSAII (Michael W. Deem and Ramdas Pophale) SiO2 
 PCOD9075536
Probable space group: P -1
;
_chemical_formula_sum "Si O2"
_cell_formula_units_Z 13
_cell_length_a 6.000000
_cell_length_b 12.000000
_cell_length_c 12.000000
_cell_angle_alpha 130.000000
_cell_angle_beta 90.000000
_cell_angle_gamma 120.000000
_cell_volume 501.435774
_symmetry_space_group_name_H-M "P -1"
_symmetry_group_IT_number 2
_symmetry_cell_setting 'triclinic'
loop_
_space_group_symop_operation_xyz
x,y,z
-x,-y,-z
loop_
_atom_site_type_symbol
_atom_site_label
_atom_site_fract_x
_atom_site_fract_y
_atom_site_fract_z
Si Si1 0.114924 0.849775 0.287762
Si Si2 0.959318 0.852101 0.522999
Si Si3 0.627632 0.028763 0.219322
Si Si4 0.293106 0.529630 0.232169
Si Si5 0.723974 0.799696 0.927968
Si Si6 0.000000 0.500000 0.000000
Si Si7 0.195362 0.622982 0.684033
O O1 0.158081 0.875170 0.437564
O O2 0.910012 0.626211 0.120803
O O3 0.980050 0.951421 0.334509
O O4 0.377141 0.946867 0.259377
O O5 0.618820 0.690040 0.384915
O O6 0.063239 0.829943 0.624468
O O7 0.652432 0.158166 0.206179
O O8 0.582661 0.853589 0.049337
O O9 0.210782 0.323339 0.090502
O O10 0.245867 0.596831 0.162481
O O11 0.037991 0.475554 0.280191
O O12 0.480574 0.654684 0.741828
O O13 0.000000 0.000000 0.000000
O O14 0.000000 0.500000 0.500000
#
# Coordination Sequence:
#
# PCOD9075536 Si02
#       7
#     2   2   2   2   2   1   2
#     4  11  28  49  74 115 154 207 267 319 398 464
#     4  11  28  49  80 115 158 210 264 328 393 486
#     4  12  26  47  82 111 160 204 264 334 396 471
#     4  12  29  51  76 118 158 206 270 321 407 467
#     4  12  28  50  78 121 158 209 265 326 406 472
#     4  12  30  48  78 108 164 204 258 334 384 478
#     4  12  28  48  81 114 159 206 265 335 394 475
#
# _framework density 25.925554000000002
#
# number of rings (size 3 to 8) (size 9 to 14) (size 15 to 20)
#    0.000    0.308    1.538    4.615   19.385    1.846 
#    0.000    0.000    0.000    0.000    0.000    0.000 
#    0.000    0.000    0.000    0.000    0.000    0.000 
#
# Total GULP energy -72578.892205 kJ/mol
# GULP energy per Si atom -5582.991708 kJ/mol
# Density = 2.586655 g / cm^3
# Si number density = 25.925554 Si / 1000 Ang^3
#
#
#
# Elastic Constant Matrix: (Units=GPa)
#
#
# Indices 1 2 3 4 5 6 
#
# 1 74.9413 30.5987 56.5615 -6.3466 6.6469 6.2113
# 2 30.5987 73.5570 21.5997 3.6755 8.2349 -0.7817
# 3 56.5615 21.5997 127.0993 -9.6571 -4.3263 2.2239
# 4 -6.3466 3.6755 -9.6571 24.9836 -16.8023 0.4437
# 5 6.6469 8.2349 -4.3263 -16.8023 65.8013 1.3071
# 6 6.2113 -0.7817 2.2239 0.4437 1.3071 59.1699
#
#
#
# Elastic Compliance Matrix: (Units=1/GPa)
#
#
# Indices 1 2 3 4 5 6 
#
# 1 0.023700 -0.007181 -0.009132 0.002665 -0.001371 -0.002229
# 2 -0.007181 0.017409 -0.000403 -0.006726 -0.003220 0.001121
# 3 -0.009132 -0.000403 0.012436 0.004514 0.002936 0.000387
# 4 0.002665 -0.006726 0.004514 0.053197 0.014478 -0.001257
# 5 -0.001371 -0.003220 0.002936 0.014478 0.019640 -0.000551
# 6 -0.002229 0.001121 0.000387 -0.001257 -0.000551 0.017156
#
#
# Mechanical properties :
#
#
# Convention : Reuss Voigt Hill
#
# Bulk Modulus (GPa) = 49.71751 54.79081 52.25416
# Shear Modulus (GPa) = 27.22217 41.11346 34.16782
#
# Velocity S-wave (km/s) = 3.24391 3.98657 3.63426
# Velocity P-wave (km/s) = 5.76621 6.50923 6.14895
#
# Compressibility (1/GPa) = 0.02011364
#
# Stress axis : x y z
#
# Youngs Moduli (GPa) = 42.19447 57.44211 80.40962
#
# Poissons Ratio (x) = 0.41247 0.73428
# Poissons Ratio (y) = 0.30298 0.03243
# Poissons Ratio (z) = 0.38531 0.02317
#
# Static dielectric constant tensor:
#      x y z
#    x 2.005250 -0.074330 -0.030030 
#    y -0.074330 2.131550 0.075830 
#    z -0.030030 0.075830 1.982380 
# 
# From -- ./inp_files/365439.got.cif
#   From: 2010.05.17/outbox.ucp.g08.bks.cvg/sg2_183_cif.got.tgz:365439.got - 2010.06.11 11:32:03.
