data_PCOD9075044
_publ_section_title
;
Structure prediction by ZEFSAII (Michael W. Deem and Ramdas Pophale) SiO2 
 PCOD9075044
Probable space group: P -1
;
_chemical_formula_sum "Si O2"
_cell_formula_units_Z 13
_cell_length_a 20.303565
_cell_length_b 9.181205
_cell_length_c 9.425319
_cell_angle_alpha 121.299377
_cell_angle_beta 19.191025
_cell_angle_gamma 126.021742
_cell_volume 462.843637
_symmetry_space_group_name_H-M "P -1"
_symmetry_group_IT_number 2
_symmetry_cell_setting 'triclinic'
loop_
_space_group_symop_operation_xyz
x,y,z
-x,-y,-z
loop_
_atom_site_type_symbol
_atom_site_label
_atom_site_fract_x
_atom_site_fract_y
_atom_site_fract_z
Si Si1 0.513327 0.951477 0.610233
Si Si2 0.000000 0.000000 0.000000
Si Si3 0.693872 0.423757 0.232728
Si Si4 0.241771 0.408354 0.265339
Si Si5 0.128707 0.215250 0.128913
Si Si6 0.509235 0.177820 0.987929
Si Si7 0.880314 0.687717 0.210784
O O1 0.322200 0.755451 0.912240
O O2 0.717448 0.898347 0.206892
O O3 0.500000 0.000000 0.500000
O O4 0.513676 0.121975 0.787933
O O5 0.021653 0.897745 0.746118
O O6 0.086918 0.853638 0.838924
O O7 0.745031 0.588439 0.100770
O O8 0.849629 0.508906 0.092208
O O9 0.464967 0.383448 0.753866
O O10 0.324087 0.627941 0.208521
O O11 0.176316 0.352570 0.532381
O O12 0.077835 0.279270 0.420170
O O13 0.272838 0.206154 0.499668
O O14 0.500000 0.000000 0.000000
#
# Coordination Sequence:
#
# PCOD9075044 Si02
#       7
#     2   1   2   2   2   2   2
#     4  11  19  30  54  86 111 127 161 224 279 309
#     4  10  22  38  56  72 100 152 196 212 238 312
#     4   9  17  33  53  79 109 139 170 209 269 322
#     4  10  18  32  53  80 105 134 176 221 265 306
#     4  10  20  36  56  76 107 145 178 208 257 325
#     4  11  19  30  54  86 110 127 165 226 277 310
#     4  10  20  35  54  75 106 142 180 216 257 315
#
# _framework density 28.087237999999999
#
# number of rings (size 3 to 8) (size 9 to 14) (size 15 to 20)
#    0.000    1.846    0.000   10.154    0.000    0.615 
#    0.000    0.000    0.000   29.538    0.000    0.000 
#    0.000    0.000    0.000    0.000    0.000    0.000 
#
# Total GULP energy -72570.438038 kJ/mol
# GULP energy per Si atom -5582.341388 kJ/mol
# Density = 2.802331 g / cm^3
# Si number density = 28.087238 Si / 1000 Ang^3
#
#
#
# Elastic Constant Matrix: (Units=GPa)
#
#
# Indices 1 2 3 4 5 6 
#
# 1 162.0821 57.9453 36.8053 5.7553 24.4438 30.4998
# 2 57.9453 185.7703 32.6820 28.1746 1.7476 33.0098
# 3 36.8053 32.6820 66.8726 17.6620 8.0956 5.2605
# 4 5.7553 28.1746 17.6620 53.2268 13.1552 22.0358
# 5 24.4438 1.7476 8.0956 13.1552 42.3459 1.2376
# 6 30.4998 33.0098 5.2605 22.0358 1.2376 73.8227
#
#
#
# Elastic Compliance Matrix: (Units=1/GPa)
#
#
# Indices 1 2 3 4 5 6 
#
# 1 0.009342 -0.002105 -0.004315 0.004572 -0.005788 -0.003879
# 2 -0.002105 0.006983 -0.001644 -0.002926 0.002188 -0.001299
# 3 -0.004315 -0.001644 0.019543 -0.006622 0.000789 0.003089
# 4 0.004572 -0.002926 -0.006622 0.027846 -0.009662 -0.008259
# 5 -0.005788 0.002188 0.000789 -0.009662 0.029607 0.003744
# 6 -0.003879 -0.001299 0.003089 -0.008259 0.003744 0.017912
#
#
# Mechanical properties :
#
#
# Convention : Reuss Voigt Hill
#
# Bulk Modulus (GPa) = 50.65828 74.39891 62.52860
# Shear Modulus (GPa) = 37.32992 53.03191 45.18092
#
# Velocity S-wave (km/s) = 3.64960 4.34996 4.01508
# Velocity P-wave (km/s) = 5.98620 7.19552 6.61854
#
# Compressibility (1/GPa) = 0.01974011
#
# Stress axis : x y z
#
# Youngs Moduli (GPa) = 107.03780 143.21059 51.17032
#
# Poissons Ratio (x) = 0.30141 0.22080
# Poissons Ratio (y) = 0.22528 0.08413
# Poissons Ratio (z) = 0.46187 0.23545
#
# Static dielectric constant tensor:
#      x y z
#    x 2.409030 0.463000 -0.681870 
#    y 0.463000 3.550770 -1.518760 
#    z -0.681870 -1.518760 4.225530 
# 
# From -- ./inp_files/153272.got.cif
#   From: 2010.05.17/outbox.cif.g08.bks.cpg/sg2_77_cif.got.tgz:153272.got - 2010.06.03 11:33:40.
