data_PCOD9075079
_publ_section_title
;
Structure prediction by ZEFSAII (Michael W. Deem and Ramdas Pophale) SiO2 
 PCOD9075079
Probable space group: P -1
;
_chemical_formula_sum "Si O2"
_cell_formula_units_Z 16
_cell_length_a 9.000000
_cell_length_b 15.000000
_cell_length_c 18.000000
_cell_angle_alpha 140.000000
_cell_angle_beta 40.000000
_cell_angle_gamma 150.000000
_cell_volume 740.097418
_symmetry_space_group_name_H-M "P -1"
_symmetry_group_IT_number 2
_symmetry_cell_setting 'triclinic'
loop_
_space_group_symop_operation_xyz
x,y,z
-x,-y,-z
loop_
_atom_site_type_symbol
_atom_site_label
_atom_site_fract_x
_atom_site_fract_y
_atom_site_fract_z
Si Si1 0.107975 0.980232 0.023643
Si Si2 0.189839 0.553086 0.795883
Si Si3 0.392646 0.051335 0.181961
Si Si4 0.883102 0.645397 0.443047
Si Si5 0.503843 0.581536 0.837440
Si Si6 0.123152 0.300799 0.945334
Si Si7 0.213994 0.585073 0.401417
Si Si8 0.913299 0.968403 0.425489
O O1 0.338607 0.202473 0.097148
O O2 0.846804 0.812194 0.075746
O O3 0.315888 0.927765 0.897393
O O4 0.000000 0.000000 0.000000
O O5 0.494019 0.756651 0.774336
O O6 0.056695 0.396324 0.686469
O O7 0.255917 0.494904 0.809054
O O8 0.956500 0.587189 0.914116
O O9 0.184484 0.883077 0.095294
O O10 0.174971 0.985238 0.293737
O O11 0.500000 0.500000 0.500000
O O12 0.046957 0.612759 0.420685
O O13 0.035975 0.858278 0.517769
O O14 0.345330 0.451632 0.890255
O O15 0.765453 0.570340 0.721813
O O16 0.566190 0.776657 0.411995
O O17 0.000000 0.500000 0.500000
O O18 0.000000 0.000000 0.500000
#
# Coordination Sequence:
#
# PCOD9075079 Si02
#       8
#     2   2   2   2   2   2   2   2
#     4  11  26  43  68 109 149 191 234 300 373 436
#     4  11  22  43  75 103 145 191 242 292 372 448
#     4  11  22  46  73 104 144 192 246 297 366 448
#     4  12  26  47  74 107 143 195 243 304 372 441
#     4  12  24  44  72 103 142 189 240 302 369 436
#     4  11  23  45  72 104 144 188 246 295 365 445
#     4  12  29  48  71 106 145 193 254 308 369 443
#     4  12  26  48  76 109 145 193 251 309 373 439
#
# _framework density 21.618776
#
# number of rings (size 3 to 8) (size 9 to 14) (size 15 to 20)
#    0.000    0.500    5.000    3.750    3.500    0.500 
#    4.500    0.000    0.000    0.000    0.000    0.000 
#    0.000    0.000    0.000    0.000    0.000    0.000 
#
# Total GULP energy -89139.311140 kJ/mol
# GULP energy per Si atom -5571.206946 kJ/mol
# Density = 2.156957 g / cm^3
# Si number density = 21.618776 Si / 1000 Ang^3
#
#
#
# Elastic Constant Matrix: (Units=GPa)
#
#
# Indices 1 2 3 4 5 6 
#
# 1 166.8908 28.9845 28.7854 -0.5069 -2.0326 -36.4495
# 2 28.9845 93.1051 37.0239 -17.2020 -2.7128 -27.9407
# 3 28.7854 37.0239 90.1349 -7.7693 -2.2769 -12.5229
# 4 -0.5069 -17.2020 -7.7693 31.6090 -8.0415 5.5963
# 5 -2.0326 -2.7128 -2.2769 -8.0415 33.0525 5.7164
# 6 -36.4495 -27.9407 -12.5229 5.5963 5.7164 45.4810
#
#
#
# Elastic Compliance Matrix: (Units=1/GPa)
#
#
# Indices 1 2 3 4 5 6 
#
# 1 0.007577 -0.000323 -0.001665 -0.001766 -0.001103 0.005771
# 2 -0.000323 0.016307 -0.004957 0.006675 0.001320 0.007407
# 3 -0.001665 -0.004957 0.013651 0.000989 0.000818 -0.000846
# 4 -0.001766 0.006675 0.000989 0.038698 0.010462 -0.003119
# 5 -0.001103 0.001320 0.000818 0.010462 0.033829 -0.005387
# 6 0.005771 0.007407 -0.000846 -0.003119 -0.005387 0.031991
#
#
# Mechanical properties :
#
#
# Convention : Reuss Voigt Hill
#
# Bulk Modulus (GPa) = 42.29478 59.96870 51.13174
# Shear Modulus (GPa) = 30.52048 39.05097 34.78572
#
# Velocity S-wave (km/s) = 3.76141 4.25472 4.01565
# Velocity P-wave (km/s) = 6.20247 7.20668 6.72335
#
# Compressibility (1/GPa) = 0.02364358
#
# Stress axis : x y z
#
# Youngs Moduli (GPa) = 131.97917 61.32340 73.25496
#
# Poissons Ratio (x) = 0.01981 0.12199
# Poissons Ratio (y) = 0.04263 0.36315
# Poissons Ratio (z) = 0.21979 0.30400
#
# Static dielectric constant tensor:
#      x y z
#    x 1.833170 0.081100 0.118780 
#    y 0.081100 1.884550 0.024490 
#    z 0.118780 0.024490 1.883730 
# 
# From -- ./inp_files/561385.got.cif
#   From: 2010.05.17/outbox.ucp.g08.bks.cvg/sg2_281_cif.got.tgz:561385.got - 2010.06.11 11:32:03.
