data_PCOD9075621
_publ_section_title
;
Structure prediction by ZEFSAII (Michael W. Deem and Ramdas Pophale) SiO2 
 PCOD9075621
Probable space group: P -1
;
_chemical_formula_sum "Si O2"
_cell_formula_units_Z 16
_cell_length_a 15.000000
_cell_length_b 9.000000
_cell_length_c 9.000000
_cell_angle_alpha 90.000000
_cell_angle_beta 140.000000
_cell_angle_gamma 80.000000
_cell_volume 751.948787
_symmetry_space_group_name_H-M "P -1"
_symmetry_group_IT_number 2
_symmetry_cell_setting 'triclinic'
loop_
_space_group_symop_operation_xyz
x,y,z
-x,-y,-z
loop_
_atom_site_type_symbol
_atom_site_label
_atom_site_fract_x
_atom_site_fract_y
_atom_site_fract_z
Si Si1 0.907486 0.657702 0.100844
Si Si2 0.329483 0.673776 0.577321
Si Si3 0.940440 0.692487 0.644407
Si Si4 0.662806 0.564715 0.967215
Si Si5 0.334938 0.340694 0.685076
Si Si6 0.886676 0.912179 0.303109
Si Si7 0.334062 0.773237 0.923240
Si Si8 0.050872 0.815357 0.046388
O O1 0.756630 0.623689 0.962280
O O2 0.912398 0.817644 0.185206
O O3 0.011726 0.493522 0.289404
O O4 0.962812 0.701535 0.011654
O O5 0.309126 0.504128 0.572838
O O6 0.304669 0.750318 0.710062
O O7 0.210273 0.765790 0.314991
O O8 0.492673 0.641795 0.728627
O O9 0.781285 0.744578 0.511727
O O10 0.914454 0.768988 0.451601
O O11 0.045773 0.767691 0.869070
O O12 0.684573 0.622170 0.162910
O O13 0.694377 0.377111 0.027750
O O14 0.495871 0.249757 0.855422
O O15 0.743589 0.053800 0.124570
O O16 0.000000 0.000000 0.500000
O O17 0.000000 0.000000 0.000000
#
# Coordination Sequence:
#
# PCOD9075621 Si02
#       8
#     2   2   2   2   2   2   2   2
#     4  12  24  41  64  94 126 160 218 259 305 366
#     4   9  18  39  65  89 127 166 208 247 311 379
#     4  12  24  40  66  92 124 167 215 247 303 384
#     4   9  19  38  66  96 120 161 207 265 305 363
#     4   9  18  36  66  96 119 163 209 255 302 376
#     4  12  24  37  62  97 132 160 198 270 321 349
#     4   9  19  37  63  97 130 157 203 255 323 365
#     4  12  26  44  63  89 127 171 209 252 314 379
#
# _framework density 21.278044999999999
#
# number of rings (size 3 to 8) (size 9 to 14) (size 15 to 20)
#    0.000    1.500    2.500    5.250    1.750    0.500 
#    2.250    1.250    2.750    0.000    0.000    0.000 
#    0.000    0.000    0.000    0.000    0.000    0.000 
#
# Total GULP energy -89152.097346 kJ/mol
# GULP energy per Si atom -5572.006084 kJ/mol
# Density = 2.122962 g / cm^3
# Si number density = 21.278045 Si / 1000 Ang^3
#
#
#
# Elastic Constant Matrix: (Units=GPa)
#
#
# Indices 1 2 3 4 5 6 
#
# 1 58.0486 0.9177 10.5195 -4.6441 20.4907 17.0093
# 2 0.9177 30.8241 14.0215 -15.7289 -2.8361 -21.3897
# 3 10.5195 14.0215 103.8457 -17.3868 19.3818 -6.5022
# 4 -4.6441 -15.7289 -17.3868 28.5591 6.9351 3.0968
# 5 20.4907 -2.8361 19.3818 6.9351 19.1297 2.4709
# 6 17.0093 -21.3897 -6.5022 3.0968 2.4709 36.3832
#
#
#
# Elastic Compliance Matrix: (Units=1/GPa)
#
#
# Indices 1 2 3 4 5 6 
#
# 1 0.064328 -0.031050 0.019559 0.034083 -0.100396 -0.040915
# 2 -0.031050 0.104342 -0.008379 0.030798 0.037112 0.069219
# 3 0.019559 -0.008379 0.022631 0.026279 -0.053534 -0.008626
# 4 0.034083 0.030798 0.026279 0.095779 -0.093948 0.005096
# 5 -0.100396 0.037112 -0.053534 -0.093948 0.247104 0.050401
# 6 -0.040915 0.069219 -0.008626 0.005096 0.050401 0.081909
#
#
# Mechanical properties :
#
#
# Convention : Reuss Voigt Hill
#
# Bulk Modulus (GPa) = 6.59804 27.07065 16.83435
# Shear Modulus (GPa) = 7.07860 27.96506 17.52183
#
# Velocity S-wave (km/s) = 1.82591 3.62922 2.87273
# Velocity P-wave (km/s) = 2.74824 5.50560 4.35112
#
# Compressibility (1/GPa) = 0.15156007
#
# Stress axis : x y z
#
# Youngs Moduli (GPa) = 15.54528 9.58389 44.18683
#
# Poissons Ratio (x) = 0.29758 -0.86423
# Poissons Ratio (y) = 0.48268 0.37025
# Poissons Ratio (z) = -0.30404 0.08031
#
# Static dielectric constant tensor:
#      x y z
#    x 1.879700 -0.003640 0.073740 
#    y -0.003640 1.754670 -0.007710 
#    z 0.073740 -0.007710 1.859940 
# 
# From -- ./inp_files/279738.got.cif
#   From: 2010.05.17/outbox.ucp.g08.bks.cvg/sg2_140_cif.got.tgz:279738.got - 2010.06.11 11:32:03.
