data_PCOD9075918
_publ_section_title
;
Structure prediction by ZEFSAII (Michael W. Deem and Ramdas Pophale) SiO2 
 PCOD9075918
Probable space group: P -1
;
_chemical_formula_sum "Si O2"
_cell_formula_units_Z 14
_cell_length_a 21.458303
_cell_length_b 14.038724
_cell_length_c 8.019236
_cell_angle_alpha 138.455172
_cell_angle_beta 32.720282
_cell_angle_gamma 156.801537
_cell_volume 510.866482
_symmetry_space_group_name_H-M "P -1"
_symmetry_group_IT_number 2
_symmetry_cell_setting 'triclinic'
loop_
_space_group_symop_operation_xyz
x,y,z
-x,-y,-z
loop_
_atom_site_type_symbol
_atom_site_label
_atom_site_fract_x
_atom_site_fract_y
_atom_site_fract_z
Si Si1 0.373704 0.770702 0.607475
Si Si2 0.600760 0.778376 0.303541
Si Si3 0.075957 0.301190 0.467145
Si Si4 0.432503 0.069417 0.089970
Si Si5 0.011383 0.073703 0.874905
Si Si6 0.506069 0.416160 0.202778
Si Si7 0.883827 0.518838 0.716206
O O1 0.514767 0.779833 0.346716
O O2 0.166484 0.502229 0.658678
O O3 0.500000 0.000000 0.500000
O O4 0.335099 0.825500 0.930762
O O5 0.603799 0.891566 0.601759
O O6 0.466346 0.502576 0.275367
O O7 0.819192 0.938427 0.034705
O O8 0.006611 0.320246 0.488611
O O9 0.276383 0.422758 0.113968
O O10 0.940847 0.029117 0.459276
O O11 0.398156 0.160551 0.151783
O O12 0.663386 0.261631 0.823014
O O13 0.129391 0.342398 0.971617
O O14 0.000000 0.000000 0.000000
O O15 0.500000 0.500000 0.500000
O O16 0.000000 0.500000 0.500000
#
# Coordination Sequence:
#
# PCOD9075918 Si02
#       7
#     2   2   2   2   2   2   2
#     4  12  21  34  54  85 123 146 187 247 280 329
#     4  10  21  35  59  86 112 152 190 233 291 334
#     4   9  19  34  49  80 114 145 189 234 280 332
#     4  10  20  37  57  86 116 144 191 238 285 339
#     4   9  19  35  57  86 110 145 190 236 276 348
#     4   8  15  30  50  75 106 135 174 228 277 325
#     4  10  18  32  57  81 111 148 189 232 277 341
#
# _framework density 27.404420999999999
#
# number of rings (size 3 to 8) (size 9 to 14) (size 15 to 20)
#    0.000    2.286    2.857    2.143    0.000    2.286 
#    0.000    0.000    0.000    8.571    0.000    0.000 
#    0.000    0.000    0.000    0.000    0.000    0.000 
#
# Total GULP energy -78213.210192 kJ/mol
# GULP energy per Si atom -5586.657871 kJ/mol
# Density = 2.734205 g / cm^3
# Si number density = 27.404421 Si / 1000 Ang^3
#
#
#
# Elastic Constant Matrix: (Units=GPa)
#
#
# Indices 1 2 3 4 5 6 
#
# 1 189.1787 37.9016 56.0554 22.4307 -55.0479 -20.1669
# 2 37.9016 122.1756 52.0000 46.8577 -13.6815 3.5934
# 3 56.0554 52.0000 109.8814 31.0273 -31.7466 1.6226
# 4 22.4307 46.8577 31.0273 66.1088 -1.0205 -9.0393
# 5 -55.0479 -13.6815 -31.7466 -1.0205 58.3598 9.9503
# 6 -20.1669 3.5934 1.6226 -9.0393 9.9503 35.9899
#
#
#
# Elastic Compliance Matrix: (Units=1/GPa)
#
#
# Indices 1 2 3 4 5 6 
#
# 1 0.008143 -0.000846 -0.001839 -0.000815 0.005978 0.002873
# 2 -0.000846 0.013110 -0.003111 -0.008072 0.001121 -0.003980
# 3 -0.001839 -0.003111 0.014617 -0.004512 0.006126 -0.004206
# 4 -0.000815 -0.008072 -0.004512 0.024289 -0.006114 0.008343
# 5 0.005978 0.001121 0.006126 -0.006114 0.027306 -0.006123
# 6 0.002873 -0.003980 -0.004206 0.008343 -0.006123 0.033771
#
#
# Mechanical properties :
#
#
# Convention : Reuss Voigt Hill
#
# Bulk Modulus (GPa) = 41.18791 79.23885 60.21338
# Shear Modulus (GPa) = 35.48163 50.44362 42.96262
#
# Velocity S-wave (km/s) = 3.60215 4.29501 3.96375
# Velocity P-wave (km/s) = 5.68885 7.31939 6.55502
#
# Compressibility (1/GPa) = 0.02427897
#
# Stress axis : x y z
#
# Youngs Moduli (GPa) = 122.80942 76.27936 68.41441
#
# Poissons Ratio (x) = 0.06452 0.12580
# Poissons Ratio (y) = 0.10388 0.21281
# Poissons Ratio (z) = 0.22581 0.23727
#
# Static dielectric constant tensor:
#      x y z
#    x 2.179760 -0.011590 0.059100 
#    y -0.011590 2.369280 -0.008950 
#    z 0.059100 -0.008950 2.155050 
# 
# From -- ./inp_files/347370.got.cif
#   From: 2010.05.17/outbox.cif.g08.bks.cpg/sg2_174_cif.got.tgz:347370.got - 2010.06.03 11:33:40.
