data_PCOD9075357
_publ_section_title
;
Structure prediction by ZEFSAII (Michael W. Deem and Ramdas Pophale) SiO2 
 PCOD9075357
Probable space group: P -1
;
_chemical_formula_sum "Si O2"
_cell_formula_units_Z 15
_cell_length_a 9.000000
_cell_length_b 9.000000
_cell_length_c 12.000000
_cell_angle_alpha 120.000000
_cell_angle_beta 110.000000
_cell_angle_gamma 50.000000
_cell_volume 644.526612
_symmetry_space_group_name_H-M "P -1"
_symmetry_group_IT_number 2
_symmetry_cell_setting 'triclinic'
loop_
_space_group_symop_operation_xyz
x,y,z
-x,-y,-z
loop_
_atom_site_type_symbol
_atom_site_label
_atom_site_fract_x
_atom_site_fract_y
_atom_site_fract_z
Si Si1 0.153624 0.355117 0.890622
Si Si2 0.413528 0.023823 0.365870
Si Si3 0.052003 0.082755 0.366462
Si Si4 0.260144 0.833066 0.829845
Si Si5 0.524332 0.666449 0.630509
Si Si6 0.399380 0.440588 0.861016
Si Si7 0.500000 0.000000 0.000000
Si Si8 0.900381 0.289759 0.643780
O O1 0.203533 0.491265 0.883689
O O2 0.074136 0.263447 0.748854
O O3 0.349266 0.176020 0.936305
O O4 0.000000 0.500000 0.000000
O O5 0.187377 0.142557 0.374242
O O6 0.460052 0.169640 0.370839
O O7 0.500000 0.000000 0.500000
O O8 0.489401 0.799917 0.244445
O O9 0.959320 0.056344 0.221722
O O10 0.938959 0.237949 0.502103
O O11 0.153157 0.859993 0.372825
O O12 0.350441 0.799692 0.718781
O O13 0.346556 0.600932 0.808256
O O14 0.338487 0.943376 0.960717
O O15 0.500000 0.500000 0.500000
O O16 0.719628 0.529043 0.701276
O O17 0.500000 0.500000 0.000000
#
# Coordination Sequence:
#
# PCOD9075357 Si02
#       8
#     2   2   2   2   2   2   1   2
#     4  12  27  48  75 109 152 203 255 315 386 469
#     4  12  28  48  75 112 153 201 255 319 393 462
#     4  11  25  44  76 111 147 192 253 322 373 465
#     4  12  25  47  74 105 151 202 252 311 385 462
#     4  12  25  46  75 108 151 202 250 312 397 461
#     4  12  28  49  74 109 152 197 254 317 380 458
#     4  12  24  48  74 104 150 206 252 308 382 458
#     4  11  24  44  75 110 150 193 257 314 382 459
#
# _framework density 23.272894999999998
#
# number of rings (size 3 to 8) (size 9 to 14) (size 15 to 20)
#    0.000    0.267    4.000    4.800    5.600    0.533 
#    0.000    1.333    0.000    0.000    0.000    0.000 
#    0.000    0.000    0.000    0.000    0.000    0.000 
#
# Total GULP energy -83510.942062 kJ/mol
# GULP energy per Si atom -5567.396137 kJ/mol
# Density = 2.321992 g / cm^3
# Si number density = 23.272895 Si / 1000 Ang^3
#
#
#
# Elastic Constant Matrix: (Units=GPa)
#
#
# Indices 1 2 3 4 5 6 
#
# 1 118.1917 19.5622 32.6324 -8.2342 20.8793 32.8601
# 2 19.5622 33.4689 22.7671 -2.5064 42.4696 14.5315
# 3 32.6324 22.7671 90.4510 -4.3107 20.1612 -3.6149
# 4 -8.2342 -2.5064 -4.3107 30.1826 -11.5407 15.7883
# 5 20.8793 42.4696 20.1612 -11.5407 14.6876 1.0279
# 6 32.8601 14.5315 -3.6149 15.7883 1.0279 39.8418
#
#
#
# Elastic Compliance Matrix: (Units=1/GPa)
#
#
# Indices 1 2 3 4 5 6 
#
# 1 0.016173 -0.001958 -0.006537 0.015492 0.005181 -0.019491
# 2 -0.001958 -0.004488 -0.004900 0.012262 0.032323 -0.002886
# 3 -0.006537 -0.004900 0.016175 -0.008816 -0.006530 0.012308
# 4 0.015492 0.012262 -0.008816 0.061824 0.006189 -0.042709
# 5 0.005181 0.032323 -0.006530 0.006189 -0.017611 -0.018653
# 6 -0.019491 -0.002886 0.012308 -0.042709 -0.018653 0.060749
#
#
# Mechanical properties :
#
#
# Convention : Reuss Voigt Hill
#
# Bulk Modulus (GPa) = 934.60370 43.55944 489.08157
# Shear Modulus (GPa) = 31.25608 28.08572 29.67090
#
# Velocity S-wave (km/s) = 3.66871 3.47767 3.57447
# Velocity P-wave (km/s) = 20.50371 5.90619 15.08783
#
# Compressibility (1/GPa) = 0.00106997
#
# Stress axis : x y z
#
# Youngs Moduli (GPa) = 61.83251 -222.81571 61.82443
#
# Poissons Ratio (x) = -0.43623 0.40417
# Poissons Ratio (y) = 0.12106 0.30291
# Poissons Ratio (z) = 0.40423 -1.09170
#
# Static dielectric constant tensor:
#      x y z
#    x 2.244530 -0.051730 0.225040 
#    y -0.051730 1.875500 -0.009630 
#    z 0.225040 -0.009630 2.101310 
# 
# From -- ./inp_files/333637.got.cif
#   From: 2010.05.17/outbox.ucp.g08.bks.cvg/sg2_167_cif.got.tgz:333637.got - 2010.06.11 11:32:03.
