data_PCOD9075589
_publ_section_title
;
Structure prediction by ZEFSAII (Michael W. Deem and Ramdas Pophale) SiO2 
 PCOD9075589
Probable space group: P -1
;
_chemical_formula_sum "Si O2"
_cell_formula_units_Z 16
_cell_length_a 9.000000
_cell_length_b 27.000000
_cell_length_c 27.000000
_cell_angle_alpha 170.000000
_cell_angle_beta 140.000000
_cell_angle_gamma 40.000000
_cell_volume 728.340053
_symmetry_space_group_name_H-M "P -1"
_symmetry_group_IT_number 2
_symmetry_cell_setting 'triclinic'
loop_
_space_group_symop_operation_xyz
x,y,z
-x,-y,-z
loop_
_atom_site_type_symbol
_atom_site_label
_atom_site_fract_x
_atom_site_fract_y
_atom_site_fract_z
Si Si1 0.240681 0.986724 0.151630
Si Si2 0.304752 0.664075 0.517470
Si Si3 0.013784 0.387849 0.837729
Si Si4 0.904135 0.793754 0.466100
Si Si5 0.259170 0.130857 0.040642
Si Si6 0.234335 0.519647 0.610513
Si Si7 0.451105 0.642847 0.075073
Si Si8 0.779727 0.964957 0.302115
O O1 0.996261 0.921210 0.052192
O O2 0.222938 0.316391 0.455399
O O3 0.502931 0.934461 0.192131
O O4 0.249464 0.823701 0.940222
O O5 0.541357 0.570495 0.455500
O O6 0.081787 0.672438 0.434075
O O7 0.289235 0.983975 0.849847
O O8 0.275916 0.463861 0.360861
O O9 0.841476 0.147147 0.545529
O O10 0.288522 0.287482 0.803120
O O11 0.000000 0.500000 0.000000
O O12 0.922938 0.653925 0.040489
O O13 0.091022 0.862881 0.538182
O O14 0.736550 0.086191 0.709686
O O15 0.698312 0.586714 0.214026
O O16 0.500000 0.000000 0.000000
O O17 0.000000 0.500000 0.500000
O O18 0.500000 0.500000 0.000000
#
# Coordination Sequence:
#
# PCOD9075589 Si02
#       8
#     2   2   2   2   2   2   2   2
#     4  12  26  44  73 102 142 191 230 282 372 417
#     4  12  26  44  72 104 140 181 238 292 344 417
#     4  12  27  44  68 100 137 180 230 281 347 419
#     4  12  24  42  71 101 133 175 235 289 339 399
#     4  12  26  48  70 103 147 187 227 290 357 421
#     4  12  24  44  72 106 137 182 240 288 338 427
#     4  12  23  42  70  96 131 182 226 280 343 407
#     4  12  24  45  70  96 141 177 227 293 346 409
#
# _framework density 21.967760999999999
#
# number of rings (size 3 to 8) (size 9 to 14) (size 15 to 20)
#    0.000    0.000    3.750    6.750    1.750    3.000 
#    0.000    0.000    0.000    0.000    0.000    0.000 
#    0.000    0.000    0.000    0.000    0.000    0.000 
#
# Total GULP energy -89196.853631 kJ/mol
# GULP energy per Si atom -5574.803352 kJ/mol
# Density = 2.191776 g / cm^3
# Si number density = 21.967761 Si / 1000 Ang^3
#
#
#
# Elastic Constant Matrix: (Units=GPa)
#
#
# Indices 1 2 3 4 5 6 
#
# 1 111.8491 38.8846 -3.7650 -8.0035 1.1907 -33.8808
# 2 38.8846 206.3784 17.8365 -20.8467 -0.9747 -45.7023
# 3 -3.7650 17.8365 70.6124 -3.2601 1.3560 -9.5061
# 4 -8.0035 -20.8467 -3.2601 53.5626 4.0452 12.9373
# 5 1.1907 -0.9747 1.3560 4.0452 35.8845 1.9914
# 6 -33.8808 -45.7023 -9.5061 12.9373 1.9914 42.1260
#
#
#
# Elastic Compliance Matrix: (Units=1/GPa)
#
#
# Indices 1 2 3 4 5 6 
#
# 1 0.012156 -0.000281 0.002080 -0.000544 -0.000992 0.010156
# 2 -0.000281 0.006459 -0.000746 0.000912 -0.000242 0.006344
# 3 0.002080 -0.000746 0.015058 -0.000038 -0.000894 0.004316
# 4 -0.000544 0.000912 -0.000038 0.020452 -0.001948 -0.005645
# 5 -0.000992 -0.000242 -0.000894 -0.001948 0.028258 -0.001999
# 6 0.010156 0.006344 0.004316 -0.005645 -0.001999 0.041591
#
#
# Mechanical properties :
#
#
# Convention : Reuss Voigt Hill
#
# Bulk Modulus (GPa) = 27.94861 54.97246 41.46053
# Shear Modulus (GPa) = 37.37130 48.70688 43.03909
#
# Velocity S-wave (km/s) = 4.12902 4.71382 4.43108
# Velocity P-wave (km/s) = 5.95667 7.39630 6.71518
#
# Compressibility (1/GPa) = 0.03577995
#
# Stress axis : x y z
#
# Youngs Moduli (GPa) = 82.26252 154.82867 66.41206
#
# Poissons Ratio (x) = 0.04349 -0.13815
# Poissons Ratio (y) = 0.02311 0.04952
# Poissons Ratio (z) = -0.17113 0.11544
#
# Static dielectric constant tensor:
#      x y z
#    x 1.640220 0.127780 -0.163870 
#    y 0.127780 1.736000 0.037770 
#    z -0.163870 0.037770 1.730280 
# 
# From -- ./inp_files/343203.got.cif
#   From: 2010.05.17/outbox.ucp.g08.bks.cvg/sg2_172_cif.got.tgz:343203.got - 2010.06.11 11:32:03.
