data_PCOD9075040
_publ_section_title
;
Structure prediction by ZEFSAII (Michael W. Deem and Ramdas Pophale) SiO2 
 PCOD9075040
Probable space group: P -1
;
_chemical_formula_sum "Si O2"
_cell_formula_units_Z 14
_cell_length_a 24.000000
_cell_length_b 15.000000
_cell_length_c 6.000000
_cell_angle_alpha 120.000000
_cell_angle_beta 60.000000
_cell_angle_gamma 160.000000
_cell_volume 636.464036
_symmetry_space_group_name_H-M "P -1"
_symmetry_group_IT_number 2
_symmetry_cell_setting 'triclinic'
loop_
_space_group_symop_operation_xyz
x,y,z
-x,-y,-z
loop_
_atom_site_type_symbol
_atom_site_label
_atom_site_fract_x
_atom_site_fract_y
_atom_site_fract_z
Si Si1 0.344473 0.318227 0.456326
Si Si2 0.443845 0.608135 0.227883
Si Si3 0.519280 0.105821 0.388381
Si Si4 0.057332 0.511224 0.204484
Si Si5 0.231655 0.937343 0.131947
Si Si6 0.807274 0.708866 0.023237
Si Si7 0.765222 0.423626 0.963910
O O1 0.500000 0.500000 0.500000
O O2 0.409882 0.461383 0.270787
O O3 0.267314 0.308097 0.702553
O O4 0.218348 0.036230 0.366046
O O5 0.504235 0.806207 0.451522
O O6 0.276158 0.392492 0.172681
O O7 0.588228 0.796679 0.001701
O O8 0.500000 0.000000 0.500000
O O9 0.378556 0.857466 0.199364
O O10 0.703742 0.360592 0.253963
O O11 0.207860 0.799949 0.159577
O O12 0.088977 0.442599 0.143464
O O13 0.000000 0.500000 0.500000
O O14 0.911204 0.287108 0.041415
O O15 0.770994 0.539806 0.968570
O O16 0.000000 0.000000 0.000000
#
# Coordination Sequence:
#
# PCOD9075040 Si02
#       7
#     2   2   2   2   2   2   2
#     4  12  28  47  76 102 143 196 243 296 352 430
#     4  12  25  47  73 104 138 189 243 295 355 432
#     4  11  22  41  71 100 134 178 230 286 353 416
#     4  11  27  46  73 105 145 184 232 302 355 424
#     4  11  27  46  72 106 139 187 247 284 362 425
#     4  12  29  46  70 108 146 189 240 295 363 424
#     4  11  25  43  70 103 139 179 232 293 353 422
#
# _framework density 21.99653
#
# number of rings (size 3 to 8) (size 9 to 14) (size 15 to 20)
#    0.000    0.571    4.286    2.143   10.000    2.857 
#    0.000    0.000    0.000    0.000    0.000    0.000 
#    0.000    0.000    0.000    0.000    0.000    0.000 
#
# Total GULP energy -78034.035890 kJ/mol
# GULP energy per Si atom -5573.859706 kJ/mol
# Density = 2.194646 g / cm^3
# Si number density = 21.996530 Si / 1000 Ang^3
#
#
#
# Elastic Constant Matrix: (Units=GPa)
#
#
# Indices 1 2 3 4 5 6 
#
# 1 182.8264 43.5009 42.6006 3.0623 -6.9595 -6.3859
# 2 43.5009 91.6227 28.8752 15.7148 6.2998 -1.5658
# 3 42.6006 28.8752 67.7703 14.5577 -23.4800 -2.5010
# 4 3.0623 15.7148 14.5577 32.0947 -8.0642 -12.5621
# 5 -6.9595 6.2998 -23.4800 -8.0642 45.0918 1.3929
# 6 -6.3859 -1.5658 -2.5010 -12.5621 1.3929 37.0959
#
#
#
# Elastic Compliance Matrix: (Units=1/GPa)
#
#
# Indices 1 2 3 4 5 6 
#
# 1 0.007011 -0.002575 -0.003945 0.003088 -0.000118 0.001883
# 2 -0.002575 0.015742 -0.005995 -0.007453 -0.006976 -0.002445
# 3 -0.003945 -0.005995 0.025245 -0.005650 0.012413 -0.001610
# 4 0.003088 -0.007453 -0.005650 0.044316 0.006050 0.014616
# 5 -0.000118 -0.006976 0.012413 0.006050 0.030635 0.001421
# 6 0.001883 -0.002445 -0.001610 0.014616 0.001421 0.031966
#
#
# Mechanical properties :
#
#
# Convention : Reuss Voigt Hill
#
# Bulk Modulus (GPa) = 43.53762 63.57475 53.55619
# Shear Modulus (GPa) = 26.65231 38.00599 32.32915
#
# Velocity S-wave (km/s) = 3.48467 4.16121 3.83788
# Velocity P-wave (km/s) = 6.00220 7.21474 6.63622
#
# Compressibility (1/GPa) = 0.02296864
#
# Stress axis : x y z
#
# Youngs Moduli (GPa) = 142.63156 63.52312 39.61192
#
# Poissons Ratio (x) = 0.16356 0.15627
# Poissons Ratio (y) = 0.36726 0.23747
# Poissons Ratio (z) = 0.56268 0.38082
#
# Static dielectric constant tensor:
#      x y z
#    x 1.730990 -0.071440 0.044540 
#    y -0.071440 1.829550 0.060230 
#    z 0.044540 0.060230 2.043310 
# 
# From -- ./inp_files/101018.got.cif
#   From: 2010.05.17/outbox.ucp.g08.bks.cvg/sg2_51_cif.got.tgz:101018.got - 2010.06.11 11:32:03.
