data_PCOD9075749
_publ_section_title
;
Structure prediction by ZEFSAII (Michael W. Deem and Ramdas Pophale) SiO2 
 PCOD9075749
Probable space group: P -1
;
_chemical_formula_sum "Si O2"
_cell_formula_units_Z 14
_cell_length_a 7.797555
_cell_length_b 7.934052
_cell_length_c 15.773357
_cell_angle_alpha 36.464040
_cell_angle_beta 75.995118
_cell_angle_gamma 72.731120
_cell_volume 553.805692
_symmetry_space_group_name_H-M "P -1"
_symmetry_group_IT_number 2
_symmetry_cell_setting 'triclinic'
loop_
_space_group_symop_operation_xyz
x,y,z
-x,-y,-z
loop_
_atom_site_type_symbol
_atom_site_label
_atom_site_fract_x
_atom_site_fract_y
_atom_site_fract_z
Si Si1 0.743998 0.663694 0.101725
Si Si2 0.764184 0.539306 0.831484
Si Si3 0.439748 0.897453 0.911268
Si Si4 0.817716 0.636134 0.416001
Si Si5 0.063709 0.878966 0.168935
Si Si6 0.587849 0.121841 0.359004
Si Si7 0.279362 0.904358 0.304018
O O1 0.728369 0.344099 0.262318
O O2 0.655365 0.869008 0.104902
O O3 0.613183 0.730141 0.009585
O O4 0.917585 0.802054 0.996938
O O5 0.873216 0.348029 0.821832
O O6 0.585559 0.703270 0.738656
O O7 0.834195 0.800486 0.764210
O O8 0.689068 0.333491 0.991326
O O9 0.523052 0.037727 0.765763
O O10 0.726643 0.356679 0.525723
O O11 0.000000 0.500000 0.500000
O O12 0.882209 0.803362 0.260676
O O13 0.696638 0.854925 0.403471
O O14 0.201006 0.832496 0.251009
O O15 0.500000 0.000000 0.500000
#
# Coordination Sequence:
#
# PCOD9075749 Si02
#       7
#     2   2   2   2   2   2   2
#     4   8  15  29  53  76 103 139 167 209 263 302
#     4  10  20  33  57  82 102 137 174 213 263 307
#     4   8  14  29  51  81 108 127 166 216 259 308
#     4  10  21  35  51  73 107 144 174 212 258 307
#     4   9  19  37  54  78 110 136 172 210 254 318
#     4  11  20  33  54  81 106 134 178 219 257 307
#     4  10  18  32  55  79 106 137 171 214 259 304
#
# _framework density 25.279627999999999
#
# number of rings (size 3 to 8) (size 9 to 14) (size 15 to 20)
#    0.000    2.571    0.000    5.571    0.000    1.714 
#    0.000    0.000    0.000    0.000    0.000   20.000 
#    0.000    0.000    0.000    0.000    0.000    0.000 
#
# Total GULP energy -78291.037612 kJ/mol
# GULP energy per Si atom -5592.216972 kJ/mol
# Density = 2.522209 g / cm^3
# Si number density = 25.279628 Si / 1000 Ang^3
#
#
#
# Elastic Constant Matrix: (Units=GPa)
#
#
# Indices 1 2 3 4 5 6 
#
# 1 77.8954 35.7286 37.6947 17.5277 -5.3472 -11.8155
# 2 35.7286 158.0051 93.0495 4.8137 -32.3595 -5.6004
# 3 37.6947 93.0495 257.5273 10.0163 -50.7523 -14.1576
# 4 17.5277 4.8137 10.0163 45.5472 -6.3432 -9.0269
# 5 -5.3472 -32.3595 -50.7523 -6.3432 45.0683 11.5770
# 6 -11.8155 -5.6004 -14.1576 -9.0269 11.5770 29.9069
#
#
#
# Elastic Compliance Matrix: (Units=1/GPa)
#
#
# Indices 1 2 3 4 5 6 
#
# 1 0.016894 -0.003425 -0.001596 -0.005336 -0.004381 0.005363
# 2 -0.003425 0.009138 -0.002066 0.001026 0.004499 -0.002052
# 3 -0.001596 -0.002066 0.005823 0.000219 0.004943 -0.000108
# 4 -0.005336 0.001026 0.000219 0.025165 0.002673 0.004749
# 5 -0.004381 0.004499 0.004943 0.002673 0.033603 -0.010749
# 6 0.005363 -0.002052 -0.000108 0.004749 -0.010749 0.040715
#
#
# Mechanical properties :
#
#
# Convention : Reuss Voigt Hill
#
# Bulk Modulus (GPa) = 56.56072 91.81927 74.18999
# Shear Modulus (GPa) = 33.02365 45.90147 39.46256
#
# Velocity S-wave (km/s) = 3.61825 4.26578 3.95529
# Velocity P-wave (km/s) = 6.31492 7.78864 7.09017
#
# Compressibility (1/GPa) = 0.01768011
#
# Stress axis : x y z
#
# Youngs Moduli (GPa) = 59.19124 109.43774 171.73096
#
# Poissons Ratio (x) = 0.37478 0.27417
# Poissons Ratio (y) = 0.20271 0.35486
# Poissons Ratio (z) = 0.09450 0.22614
#
# Static dielectric constant tensor:
#      x y z
#    x 2.176900 -0.024230 -0.037380 
#    y -0.024230 1.925110 -0.026230 
#    z -0.037380 -0.026230 2.064190 
# 
# From -- ./inp_files/164801.got.cif
#   From: 2010.05.17/outbox.cif.g08.bks.cpg/sg2_83_cif.got.tgz:164801.got - 2010.06.03 11:33:40.
