data_PCOD9075655
_publ_section_title
;
Structure prediction by ZEFSAII (Michael W. Deem and Ramdas Pophale) SiO2 
 PCOD9075655
Probable space group: P -1
;
_chemical_formula_sum "Si O2"
_cell_formula_units_Z 16
_cell_length_a 9.000000
_cell_length_b 18.000000
_cell_length_c 15.000000
_cell_angle_alpha 40.000000
_cell_angle_beta 140.000000
_cell_angle_gamma 150.000000
_cell_volume 740.097418
_symmetry_space_group_name_H-M "P -1"
_symmetry_group_IT_number 2
_symmetry_cell_setting 'triclinic'
loop_
_space_group_symop_operation_xyz
x,y,z
-x,-y,-z
loop_
_atom_site_type_symbol
_atom_site_label
_atom_site_fract_x
_atom_site_fract_y
_atom_site_fract_z
Si Si1 0.687002 0.626231 0.890301
Si Si2 0.290400 0.703544 0.641367
Si Si3 0.414017 0.841236 0.077108
Si Si4 0.601908 0.547123 0.720354
Si Si5 0.684486 0.792710 0.088972
Si Si6 0.291531 0.649544 0.366972
Si Si7 0.707156 0.144371 0.674237
Si Si8 0.312919 0.800175 0.765266
O O1 0.610364 0.736908 0.756149
O O2 0.556039 0.545818 0.806808
O O3 0.500000 0.500000 0.000000
O O4 0.052905 0.721514 0.985984
O O5 0.253699 0.780687 0.472479
O O6 0.292376 0.766242 0.681146
O O7 0.015662 0.516317 0.665310
O O8 0.626198 0.868612 0.067924
O O9 0.447653 0.765449 0.246629
O O10 0.500000 0.000000 0.000000
O O11 0.476914 0.379341 0.791564
O O12 0.460011 0.602756 0.543441
O O13 0.968653 0.666174 0.766349
O O14 0.036097 0.866182 0.174807
O O15 0.535221 0.785494 0.934300
O O16 0.262512 0.744078 0.339945
O O17 0.403437 0.961411 0.687817
#
# Coordination Sequence:
#
# PCOD9075655 Si02
#       8
#     2   2   2   2   2   2   2   2
#     4  12  25  46  74 104 141 189 240 299 353 436
#     4  12  25  46  73 108 142 192 252 291 359 435
#     4  12  29  47  72 110 148 188 239 302 372 425
#     4  12  26  48  76 104 146 191 247 297 361 434
#     4  12  26  48  73 103 148 189 241 298 362 438
#     4  12  26  48  75 105 147 197 241 297 363 438
#     4  12  27  48  73 107 150 192 240 300 369 427
#     4  12  28  45  73 110 146 190 242 308 360 422
#
# _framework density 21.618776
#
# number of rings (size 3 to 8) (size 9 to 14) (size 15 to 20)
#    0.000    0.000    5.000    4.500    5.250    2.500 
#    0.000    0.000    0.000    0.000    0.000    0.000 
#    0.000    0.000    0.000    0.000    0.000    0.000 
#
# Total GULP energy -89459.191328 kJ/mol
# GULP energy per Si atom -5591.199458 kJ/mol
# Density = 2.156957 g / cm^3
# Si number density = 21.618776 Si / 1000 Ang^3
#
#
#
# Elastic Constant Matrix: (Units=GPa)
#
#
# Indices 1 2 3 4 5 6 
#
# 1 83.5296 12.8465 31.2749 1.0044 -16.1409 -26.4196
# 2 12.8465 78.7120 4.5406 -7.1762 2.8332 -13.1790
# 3 31.2749 4.5406 146.1708 17.1534 -21.3026 -3.5092
# 4 1.0044 -7.1762 17.1534 33.8715 -7.9427 -1.9975
# 5 -16.1409 2.8332 -21.3026 -7.9427 43.2315 1.3975
# 6 -26.4196 -13.1790 -3.5092 -1.9975 1.3975 36.1860
#
#
#
# Elastic Compliance Matrix: (Units=1/GPa)
#
#
# Indices 1 2 3 4 5 6 
#
# 1 0.018306 -0.000590 -0.003143 0.002958 0.005454 0.012798
# 2 -0.000590 0.013999 -0.000743 0.003401 -0.001035 0.004823
# 3 -0.003143 -0.000743 0.008275 -0.003834 0.002315 -0.002064
# 4 0.002958 0.003401 -0.003834 0.033547 0.005004 0.004685
# 5 0.005454 -0.001035 0.002315 0.005004 0.027197 0.003056
# 6 0.012798 0.004823 -0.002064 0.004685 0.003056 0.038676
#
#
# Mechanical properties :
#
#
# Convention : Reuss Voigt Hill
#
# Bulk Modulus (GPa) = 31.61915 45.08181 38.35048
# Shear Modulus (GPa) = 31.34921 39.97450 35.66185
#
# Velocity S-wave (km/s) = 3.81214 4.30474 4.06591
# Velocity P-wave (km/s) = 5.83387 6.75323 6.31031
#
# Compressibility (1/GPa) = 0.03162640
#
# Stress axis : x y z
#
# Youngs Moduli (GPa) = 54.62775 71.43570 120.85146
#
# Poissons Ratio (x) = 0.04216 0.37988
# Poissons Ratio (y) = 0.03224 0.08976
# Poissons Ratio (z) = 0.17171 0.05306
#
# Static dielectric constant tensor:
#      x y z
#    x 1.809470 0.016130 -0.000160 
#    y 0.016130 1.832920 -0.014590 
#    z -0.000160 -0.014590 1.763450 
# 
# From -- ./inp_files/189461.got.cif
#   From: 2010.05.17/outbox.ucp.g08.bks.cvg/sg2_95_cif.got.tgz:189461.got - 2010.06.11 11:32:03.
