data_PCOD9075331
_publ_section_title
;
Structure prediction by ZEFSAII (Michael W. Deem and Ramdas Pophale) SiO2 
 PCOD9075331
Probable space group: P -1
;
_chemical_formula_sum "Si O2"
_cell_formula_units_Z 16
_cell_length_a 24.000000
_cell_length_b 9.000000
_cell_length_c 15.000000
_cell_angle_alpha 30.000000
_cell_angle_beta 150.000000
_cell_angle_gamma 130.000000
_cell_volume 731.734496
_symmetry_space_group_name_H-M "P -1"
_symmetry_group_IT_number 2
_symmetry_cell_setting 'triclinic'
loop_
_space_group_symop_operation_xyz
x,y,z
-x,-y,-z
loop_
_atom_site_type_symbol
_atom_site_label
_atom_site_fract_x
_atom_site_fract_y
_atom_site_fract_z
Si Si1 0.123992 0.743946 0.755406
Si Si2 0.291882 0.872821 0.612187
Si Si3 0.587996 0.858863 0.779747
Si Si4 0.583628 0.551016 0.664424
Si Si5 0.946412 0.893412 0.712826
Si Si6 0.795247 0.105507 0.889976
Si Si7 0.873293 0.964056 0.870156
Si Si8 0.430101 0.244009 0.699303
O O1 0.120504 0.929890 0.562082
O O2 0.267977 0.611948 0.057670
O O3 0.100572 0.418130 0.887123
O O4 0.000000 0.000000 0.500000
O O5 0.161850 0.996935 0.421268
O O6 0.238970 0.878686 0.437013
O O7 0.375164 0.074337 0.637663
O O8 0.372043 0.515211 0.947606
O O9 0.500000 0.000000 0.500000
O O10 0.492056 0.067436 0.615295
O O11 0.716893 0.900030 0.919506
O O12 0.500000 0.500000 0.500000
O O13 0.535159 0.376751 0.761900
O O14 0.000000 0.500000 0.000000
O O15 0.065592 0.982025 0.836421
O O16 0.697788 0.462227 0.599955
O O17 0.819556 0.105719 0.818488
O O18 0.000000 0.000000 0.000000
O O19 0.500000 0.000000 0.000000
#
# Coordination Sequence:
#
# PCOD9075331 Si02
#       8
#     2   2   2   2   2   2   2   2
#     4  12  29  47  76 105 149 191 240 302 365 433
#     4  12  24  44  75 107 144 190 239 300 360 428
#     4  11  25  47  71 101 142 190 240 294 361 431
#     4  11  26  48  71 103 141 184 238 295 361 427
#     4  12  24  44  74 106 145 192 245 295 365 431
#     4  11  25  44  71  99 147 188 243 300 357 432
#     4  12  27  45  67 110 149 186 243 299 364 425
#     4  11  24  43  73 100 136 188 241 292 359 428
#
# _framework density 21.865853999999999
#
# number of rings (size 3 to 8) (size 9 to 14) (size 15 to 20)
#    0.000    0.500    2.500    6.000    5.250    2.000 
#    0.000    3.750    0.000    0.000    0.000    0.000 
#    0.000    0.000    0.000    0.000    0.000    0.000 
#
# Total GULP energy -89114.995111 kJ/mol
# GULP energy per Si atom -5569.687194 kJ/mol
# Density = 2.181609 g / cm^3
# Si number density = 21.865854 Si / 1000 Ang^3
#
#
#
# Elastic Constant Matrix: (Units=GPa)
#
#
# Indices 1 2 3 4 5 6 
#
# 1 83.3379 27.4277 24.9782 -3.1140 18.1681 4.6776
# 2 27.4277 118.8443 52.7825 11.5494 11.5941 12.5321
# 3 24.9782 52.7825 117.9947 0.7428 0.2577 -3.1791
# 4 -3.1140 11.5494 0.7428 48.4448 11.1653 3.2518
# 5 18.1681 11.5941 0.2577 11.1653 43.3092 15.5522
# 6 4.6776 12.5321 -3.1791 3.2518 15.5522 42.2328
#
#
#
# Elastic Compliance Matrix: (Units=1/GPa)
#
#
# Indices 1 2 3 4 5 6 
#
# 1 0.014914 -0.002245 -0.002126 0.003024 -0.006831 0.001137
# 2 -0.002245 0.011705 -0.004832 -0.002566 -0.000327 -0.003270
# 3 -0.002126 -0.004832 0.011135 0.000412 0.001295 0.001999
# 4 0.003024 -0.002566 0.000412 0.022960 -0.006952 0.001250
# 5 -0.006831 -0.000327 0.001295 -0.006952 0.031453 -0.010096
# 6 0.001137 -0.003270 0.001999 0.001250 -0.010096 0.028295
#
#
# Mechanical properties :
#
#
# Convention : Reuss Voigt Hill
#
# Bulk Modulus (GPa) = 51.68739 58.95039 55.31889
# Shear Modulus (GPa) = 34.40768 41.12994 37.76881
#
# Velocity S-wave (km/s) = 3.97114 4.34177 4.16058
# Velocity P-wave (km/s) = 6.68703 7.22171 6.95951
#
# Compressibility (1/GPa) = 0.01934708
#
# Stress axis : x y z
#
# Youngs Moduli (GPa) = 67.05195 85.43713 89.80760
#
# Poissons Ratio (x) = 0.19180 0.19096
# Poissons Ratio (y) = 0.15053 0.43393
# Poissons Ratio (z) = 0.14258 0.41281
#
# Static dielectric constant tensor:
#      x y z
#    x 1.741630 -0.052950 0.006940 
#    y -0.052950 1.866550 -0.018180 
#    z 0.006940 -0.018180 1.734920 
# 
# From -- ./inp_files/542635.got.cif
#   From: 2010.05.17/outbox.ucp.g08.bks.cvg/sg2_272_cif.got.tgz:542635.got - 2010.06.11 11:32:03.
