data_PCOD9075625
_publ_section_title
;
Structure prediction by ZEFSAII (Michael W. Deem and Ramdas Pophale) SiO2 
 PCOD9075625
Probable space group: P -1
;
_chemical_formula_sum "Si O2"
_cell_formula_units_Z 16
_cell_length_a 18.000000
_cell_length_b 12.000000
_cell_length_c 9.000000
_cell_angle_alpha 120.000000
_cell_angle_beta 150.000000
_cell_angle_gamma 50.000000
_cell_volume 736.400153
_symmetry_space_group_name_H-M "P -1"
_symmetry_group_IT_number 2
_symmetry_cell_setting 'triclinic'
loop_
_space_group_symop_operation_xyz
x,y,z
-x,-y,-z
loop_
_atom_site_type_symbol
_atom_site_label
_atom_site_fract_x
_atom_site_fract_y
_atom_site_fract_z
Si Si1 0.667063 0.756946 0.440183
Si Si2 0.445528 0.950777 0.724417
Si Si3 0.329847 0.730394 0.758424
Si Si4 0.118901 0.728365 0.683811
Si Si5 0.116097 0.981092 0.329946
Si Si6 0.674857 0.688669 0.746752
Si Si7 0.008281 0.501675 0.336110
Si Si8 0.464040 0.540075 0.291144
O O1 0.710929 0.726408 0.669965
O O2 0.825179 0.637359 0.535589
O O3 0.631401 0.918012 0.439967
O O4 0.490117 0.755867 0.095384
O O5 0.608102 0.815280 0.840643
O O6 0.292104 0.933861 0.514631
O O7 0.500000 0.000000 0.000000
O O8 0.228439 0.734746 0.736770
O O9 0.424417 0.584234 0.720802
O O10 0.183544 0.851208 0.481048
O O11 0.014641 0.648600 0.396320
O O12 0.992512 0.871645 0.657316
O O13 0.265256 0.607160 0.961736
O O14 0.000000 0.000000 0.000000
O O15 0.510601 0.667920 0.429320
O O16 0.829641 0.536680 0.975560
O O17 0.000000 0.500000 0.500000
O O18 0.500000 0.500000 0.500000
#
# Coordination Sequence:
#
# PCOD9075625 Si02
#       8
#     2   2   2   2   2   2   2   2
#     4  12  25  46  72 103 141 182 231 281 346 416
#     4  12  25  47  73  99 141 189 228 281 349 408
#     4  12  25  46  73 102 140 186 224 284 353 408
#     4  12  24  46  69 100 141 183 226 282 348 411
#     4  12  27  45  69 105 139 178 238 286 336 410
#     4  12  26  45  70 106 138 180 232 286 339 412
#     4  12  26  44  71 105 139 179 232 284 346 404
#     4  12  24  43  73 102 137 179 233 279 345 412
#
# _framework density 21.727318
#
# number of rings (size 3 to 8) (size 9 to 14) (size 15 to 20)
#    0.000    0.000    3.750    7.500    0.000    2.000 
#    0.000    0.000    0.000    0.000    0.000    0.000 
#    0.000    0.000    0.000    0.000    0.000    0.000 
#
# Total GULP energy -89324.600121 kJ/mol
# GULP energy per Si atom -5582.787508 kJ/mol
# Density = 2.167787 g / cm^3
# Si number density = 21.727318 Si / 1000 Ang^3
#
#
#
# Elastic Constant Matrix: (Units=GPa)
#
#
# Indices 1 2 3 4 5 6 
#
# 1 149.2156 9.8810 6.9939 -15.1022 -9.4269 -4.4339
# 2 9.8810 65.1541 -16.0821 -22.1213 0.9773 -24.0946
# 3 6.9939 -16.0821 75.8388 -18.6166 -14.2626 4.3629
# 4 -15.1022 -22.1213 -18.6166 32.2623 -0.0884 2.5697
# 5 -9.4269 0.9773 -14.2626 -0.0884 42.1433 -12.0482
# 6 -4.4339 -24.0946 4.3629 2.5697 -12.0482 46.9580
#
#
#
# Elastic Compliance Matrix: (Units=1/GPa)
#
#
# Indices 1 2 3 4 5 6 
#
# 1 0.007262 0.001521 0.001266 0.005043 0.002520 0.001719
# 2 0.001521 0.038749 0.017921 0.036121 0.011079 0.019227
# 3 0.001266 0.017921 0.024954 0.026649 0.010740 0.008294
# 4 0.005043 0.036121 0.026649 0.072250 0.014091 0.016196
# 5 0.002520 0.011079 0.010740 0.014091 0.031174 0.012152
# 6 0.001719 0.019227 0.008294 0.016196 0.012152 0.032785
#
#
# Mechanical properties :
#
#
# Convention : Reuss Voigt Hill
#
# Bulk Modulus (GPa) = 8.89825 32.42156 20.65990
# Shear Modulus (GPa) = 24.60418 43.56711 34.08565
#
# Velocity S-wave (km/s) = 3.36878 4.48278 3.96510
# Velocity P-wave (km/s) = 4.38587 6.46128 5.52196
#
# Compressibility (1/GPa) = 0.11238164
#
# Stress axis : x y z
#
# Youngs Moduli (GPa) = 137.69713 25.80690 40.07428
#
# Poissons Ratio (x) = -0.03926 -0.05072
# Poissons Ratio (y) = -0.20947 -0.71818
# Poissons Ratio (z) = -0.17429 -0.46249
#
# Static dielectric constant tensor:
#      x y z
#    x 1.833650 0.057520 0.002300 
#    y 0.057520 1.815380 0.051000 
#    z 0.002300 0.051000 1.802290 
# 
# From -- ./inp_files/186839.got.cif
#   From: 2010.05.17/outbox.ucp.g08.bks.cvg/sg2_94_cif.got.tgz:186839.got - 2010.06.11 11:32:03.
