data_PCOD9075966
_publ_section_title
;
Structure prediction by ZEFSAII (Michael W. Deem and Ramdas Pophale) SiO2 
 PCOD9075966
Probable space group: P -1
;
_chemical_formula_sum "Si O2"
_cell_formula_units_Z 16
_cell_length_a 11.036367
_cell_length_b 24.285592
_cell_length_c 11.305373
_cell_angle_alpha 149.530081
_cell_angle_beta 50.929303
_cell_angle_gamma 148.944969
_cell_volume 721.812522
_symmetry_space_group_name_H-M "P -1"
_symmetry_group_IT_number 2
_symmetry_cell_setting 'triclinic'
loop_
_space_group_symop_operation_xyz
x,y,z
-x,-y,-z
loop_
_atom_site_type_symbol
_atom_site_label
_atom_site_fract_x
_atom_site_fract_y
_atom_site_fract_z
Si Si1 0.192232 0.830015 0.350044
Si Si2 0.903985 0.222779 0.429556
Si Si3 0.146219 0.723038 0.767509
Si Si4 0.729164 0.916488 0.350266
Si Si5 0.461272 0.095309 0.339314
Si Si6 0.629309 0.332468 0.318329
Si Si7 0.941071 0.010816 0.921904
Si Si8 0.740474 0.371020 0.063110
O O1 0.076066 0.804569 0.498366
O O2 0.500000 0.000000 0.500000
O O3 0.152009 0.896969 0.399344
O O4 0.110779 0.660480 0.069323
O O5 0.618245 0.106094 0.356127
O O6 0.083052 0.426667 0.683396
O O7 0.965297 0.154517 0.184413
O O8 0.313241 0.759327 0.626248
O O9 0.224658 0.695814 0.782514
O O10 0.842988 0.543107 0.598488
O O11 0.250704 0.902066 0.049191
O O12 0.672749 0.882926 0.463372
O O13 0.445628 0.746798 0.151677
O O14 0.898758 0.937848 0.196398
O O15 0.357522 0.187372 0.281313
O O16 0.575902 0.294832 0.142133
O O17 0.000000 0.000000 0.000000
#
# Coordination Sequence:
#
# PCOD9075966 Si02
#       8
#     2   2   2   2   2   2   2   2
#     4  10  18  32  57  90 126 159 195 259 319 365
#     4  12  21  35  61  93 131 160 205 259 310 379
#     4  10  23  39  67  90 120 165 223 267 297 362
#     4  11  23  39  62  95 132 166 202 260 327 383
#     4  11  21  41  64  94 118 164 219 269 312 351
#     4  11  21  40  64  92 122 166 215 256 312 379
#     4  12  23  41  62  94 134 173 200 248 331 394
#     4  11  21  34  63  99 125 152 212 272 322 359
#
# _framework density 22.166419999999999
#
# number of rings (size 3 to 8) (size 9 to 14) (size 15 to 20)
#    0.000    1.000    7.500    1.875    0.000    0.500 
#    0.000    1.250    0.000    0.000    0.000    0.000 
#    0.000    0.000    0.000    0.000    0.000    0.000 
#
# Total GULP energy -89280.897063 kJ/mol
# GULP energy per Si atom -5580.056066 kJ/mol
# Density = 2.211597 g / cm^3
# Si number density = 22.166420 Si / 1000 Ang^3
#
#
#
# Elastic Constant Matrix: (Units=GPa)
#
#
# Indices 1 2 3 4 5 6 
#
# 1 20.3065 7.4979 18.7620 1.5657 2.8037 -4.5555
# 2 7.4979 112.5764 81.8213 -25.5789 -9.4570 -0.6773
# 3 18.7620 81.8213 129.7340 6.0686 -15.1342 6.2149
# 4 1.5657 -25.5789 6.0686 44.4120 -1.2536 0.0728
# 5 2.8037 -9.4570 -15.1342 -1.2536 32.7235 -5.1293
# 6 -4.5555 -0.6773 6.2149 0.0728 -5.1293 28.3010
#
#
#
# Elastic Compliance Matrix: (Units=1/GPa)
#
#
# Indices 1 2 3 4 5 6 
#
# 1 0.064857 0.007455 -0.015871 0.003912 -0.008629 0.012529
# 2 0.007455 0.025524 -0.018261 0.016919 -0.000159 0.005749
# 3 -0.015871 -0.018261 0.023066 -0.012953 0.005142 -0.007092
# 4 0.003912 0.016919 -0.012953 0.033900 0.000470 0.003877
# 5 -0.008629 -0.000159 0.005142 0.000470 0.034226 0.003680
# 6 0.012529 0.005749 -0.007092 0.003877 0.003680 0.039703
#
#
# Mechanical properties :
#
#
# Convention : Reuss Voigt Hill
#
# Bulk Modulus (GPa) = 16.64100 53.19770 34.91935
# Shear Modulus (GPa) = 16.96861 31.38968 24.17915
#
# Velocity S-wave (km/s) = 2.76979 3.76718 3.30631
# Velocity P-wave (km/s) = 4.21338 6.55542 5.51027
#
# Compressibility (1/GPa) = 0.06009255
#
# Stress axis : x y z
#
# Youngs Moduli (GPa) = 15.41848 39.17838 43.35405
#
# Poissons Ratio (x) = -0.29206 0.68807
# Poissons Ratio (y) = -0.11494 0.79170
# Poissons Ratio (z) = 0.24471 0.71544
#
# Static dielectric constant tensor:
#      x y z
#    x 1.888280 -0.024420 0.002110 
#    y -0.024420 1.866330 -0.031680 
#    z 0.002110 -0.031680 1.827650 
# 
# From -- ./inp_files/218854.got.cif
#   From: 2010.05.17/outbox.cif.g08.bks.cpg/sg2_110_cif.got.tgz:218854.got - 2010.06.03 11:33:40.
