data_PCOD9075455
_publ_section_title
;
Structure prediction by ZEFSAII (Michael W. Deem and Ramdas Pophale) SiO2 
 PCOD9075455
Probable space group: P -1
;
_chemical_formula_sum "Si O2"
_cell_formula_units_Z 15
_cell_length_a 9.000000
_cell_length_b 9.000000
_cell_length_c 18.000000
_cell_angle_alpha 120.000000
_cell_angle_beta 30.000000
_cell_angle_gamma 110.000000
_cell_volume 617.235917
_symmetry_space_group_name_H-M "P -1"
_symmetry_group_IT_number 2
_symmetry_cell_setting 'triclinic'
loop_
_space_group_symop_operation_xyz
x,y,z
-x,-y,-z
loop_
_atom_site_type_symbol
_atom_site_label
_atom_site_fract_x
_atom_site_fract_y
_atom_site_fract_z
Si Si1 0.500000 0.000000 0.000000
Si Si2 0.661130 0.607254 0.177227
Si Si3 0.657690 0.868641 0.509479
Si Si4 0.290644 0.841882 0.812192
Si Si5 0.326334 0.782588 0.488522
Si Si6 0.283203 0.317312 0.275431
Si Si7 0.225665 0.346465 0.012026
Si Si8 0.765660 0.258526 0.858854
O O1 0.793061 0.093047 0.861094
O O2 0.644154 0.814301 0.857247
O O3 0.631035 0.685758 0.291525
O O4 0.412318 0.489086 0.248009
O O5 0.648192 0.730167 0.141944
O O6 0.000000 0.500000 0.000000
O O7 0.496836 0.864758 0.657396
O O8 0.416072 0.830126 0.543252
O O9 0.979605 0.744229 0.316779
O O10 0.747040 0.051502 0.493438
O O11 0.519654 0.785810 0.767790
O O12 0.110104 0.685222 0.837349
O O13 0.000000 0.000000 0.000000
O O14 0.076592 0.664917 0.558533
O O15 0.261500 0.547792 0.047243
O O16 0.448118 0.248350 0.953783
#
# Coordination Sequence:
#
# PCOD9075455 Si02
#       8
#     1   2   2   2   2   2   2   2
#     4  12  24  46  76 104 146 186 250 290 380 430
#     4  12  24  47  73 102 147 187 246 299 365 440
#     4  11  27  47  73 104 147 191 243 304 363 437
#     4  12  28  46  71 109 147 191 245 307 369 437
#     4  11  27  45  71 107 142 192 244 295 372 432
#     4  12  27  44  75 103 144 195 239 306 366 440
#     4  11  25  45  74 108 143 195 243 298 375 434
#     4  11  25  46  77 108 146 193 241 309 362 441
#
# _framework density 24.301891000000001
#
# number of rings (size 3 to 8) (size 9 to 14) (size 15 to 20)
#    0.000    0.533    4.000    2.800    5.600    1.067 
#    0.000    0.000    0.000    0.000    0.000    0.000 
#    0.000    0.000    0.000    0.000    0.000    0.000 
#
# Total GULP energy -83502.284559 kJ/mol
# GULP energy per Si atom -5566.818971 kJ/mol
# Density = 2.424658 g / cm^3
# Si number density = 24.301891 Si / 1000 Ang^3
#
#
#
# Elastic Constant Matrix: (Units=GPa)
#
#
# Indices 1 2 3 4 5 6 
#
# 1 45.7293 -16.6891 17.1079 -14.1507 -9.1785 -12.1149
# 2 -16.6891 73.0653 1.4814 -31.5632 14.3779 11.6830
# 3 17.1079 1.4814 133.1087 -28.8589 25.1389 -12.8068
# 4 -14.1507 -31.5632 -28.8589 42.3684 1.7875 -1.8402
# 5 -9.1785 14.3779 25.1389 1.7875 38.9287 -15.5236
# 6 -12.1149 11.6830 -12.8068 -1.8402 -15.5236 25.0311
#
#
#
# Elastic Compliance Matrix: (Units=1/GPa)
#
#
# Indices 1 2 3 4 5 6 
#
# 1 0.045344 0.014476 -0.000684 0.025962 0.014977 0.026037
# 2 0.014476 0.053062 0.013831 0.054107 -0.040222 -0.031650
# 3 -0.000684 0.013831 0.014623 0.020431 -0.019629 -0.009976
# 4 0.025962 0.054107 0.020431 0.087275 -0.039055 -0.020040
# 5 0.014977 -0.040222 -0.019629 -0.039055 0.084723 0.065651
# 6 0.026037 -0.031650 -0.009976 -0.020040 0.065651 0.101462
#
#
# Mechanical properties :
#
#
# Convention : Reuss Voigt Hill
#
# Bulk Modulus (GPa) = 5.94262 28.41153 17.17708
# Shear Modulus (GPa) = 12.90868 37.93251 25.42060
#
# Velocity S-wave (km/s) = 2.30723 3.95509 3.23775
# Velocity P-wave (km/s) = 3.09005 5.70732 4.58922
#
# Compressibility (1/GPa) = 0.16827602
#
# Stress axis : x y z
#
# Youngs Moduli (GPa) = 22.05346 18.84594 68.38330
#
# Poissons Ratio (x) = -0.27281 0.04675
# Poissons Ratio (y) = -0.31925 -0.94580
# Poissons Ratio (z) = 0.01508 -0.26066
#
# Static dielectric constant tensor:
#      x y z
#    x 2.598020 -0.053800 0.444900 
#    y -0.053800 2.049190 0.129120 
#    z 0.444900 0.129120 2.487380 
# 
# From -- ./inp_files/557408.got.cif
#   From: 2010.05.17/outbox.ucp.g08.bks.cvg/sg2_279_cif.got.tgz:557408.got - 2010.06.11 11:32:03.
