data_PCOD9075803
_publ_section_title
;
Structure prediction by ZEFSAII (Michael W. Deem and Ramdas Pophale) SiO2 
 PCOD9075803
Probable space group: P -1
;
_chemical_formula_sum "Si O2"
_cell_formula_units_Z 16
_cell_length_a 17.258638
_cell_length_b 21.299112
_cell_length_c 8.515328
_cell_angle_alpha 138.098114
_cell_angle_beta 43.314240
_cell_angle_gamma 158.253739
_cell_volume 766.157379
_symmetry_space_group_name_H-M "P -1"
_symmetry_group_IT_number 2
_symmetry_cell_setting 'triclinic'
loop_
_space_group_symop_operation_xyz
x,y,z
-x,-y,-z
loop_
_atom_site_type_symbol
_atom_site_label
_atom_site_fract_x
_atom_site_fract_y
_atom_site_fract_z
Si Si1 0.944923 0.356384 0.757207
Si Si2 0.060475 0.852814 0.532001
Si Si3 0.699585 0.444054 0.632663
Si Si4 0.536104 0.007257 0.146556
Si Si5 0.727518 0.865402 0.485046
Si Si6 0.721952 0.969065 0.970991
Si Si7 0.481861 0.816155 0.351016
Si Si8 0.157638 0.256417 0.041545
O O1 0.991244 0.295038 0.681687
O O2 0.080957 0.431050 0.539852
O O3 0.692696 0.174792 0.779020
O O4 0.000000 0.500000 0.000000
O O5 0.894701 0.781050 0.765131
O O6 0.098585 0.942342 0.489825
O O7 0.289200 0.021279 0.595678
O O8 0.508812 0.275057 0.487047
O O9 0.656067 0.365137 0.715226
O O10 0.688367 0.548325 0.853076
O O11 0.620610 0.159024 0.392691
O O12 0.500000 0.000000 0.000000
O O13 0.682390 0.022822 0.002086
O O14 0.727708 0.877288 0.693118
O O15 0.774308 0.795226 0.221136
O O16 0.538110 0.846334 0.142913
O O17 0.940985 0.132843 0.043412
#
# Coordination Sequence:
#
# PCOD9075803 Si02
#       8
#     2   2   2   2   2   2   2   2
#     4  10  18  32  55  87 115 139 183 241 283 329
#     4   8  18  34  57  83 110 150 198 233 278 348
#     4  10  21  38  58  84 116 152 194 235 284 347
#     4  11  21  38  62  86 113 154 194 231 285 356
#     4  11  20  37  61  84 113 157 199 237 284 344
#     4  11  22  37  57  85 116 150 194 240 287 348
#     4   9  19  36  55  80 117 152 183 231 292 346
#     4  10  21  38  58  85 116 150 195 250 291 326
#
# _framework density 20.883438000000002
#
# number of rings (size 3 to 8) (size 9 to 14) (size 15 to 20)
#    0.000    2.000    0.000    6.000    0.000    0.000 
#    0.000    9.375    0.000    0.000    0.000    0.000 
#    0.000    0.000    0.000    0.000    0.000    0.000 
#
# Total GULP energy -89271.486193 kJ/mol
# GULP energy per Si atom -5579.467887 kJ/mol
# Density = 2.083591 g / cm^3
# Si number density = 20.883438 Si / 1000 Ang^3
#
#
#
# Elastic Constant Matrix: (Units=GPa)
#
#
# Indices 1 2 3 4 5 6 
#
# 1 55.4815 34.7368 28.2158 -11.6218 7.1874 -19.0088
# 2 34.7368 86.4811 37.2858 -0.3019 0.8665 -31.4853
# 3 28.2158 37.2858 147.7527 -0.3909 -4.9339 -37.0539
# 4 -11.6218 -0.3019 -0.3909 21.7006 -0.1518 -6.8578
# 5 7.1874 0.8665 -4.9339 -0.1518 23.9968 -0.2266
# 6 -19.0088 -31.4853 -37.0539 -6.8578 -0.2266 31.1039
#
#
#
# Elastic Compliance Matrix: (Units=1/GPa)
#
#
# Indices 1 2 3 4 5 6 
#
# 1 0.036106 -0.006729 -0.000356 0.025612 -0.010290 0.020402
# 2 -0.006729 0.020523 0.000685 0.002400 0.001600 0.018019
# 3 -0.000356 0.000685 0.010143 0.004291 0.002322 0.013522
# 4 0.025612 0.002400 0.004291 0.072214 -0.006050 0.039071
# 5 -0.010290 0.001600 0.002322 -0.006050 0.045108 -0.002907
# 6 0.020402 0.018019 0.013522 0.039071 -0.002907 0.087561
#
#
# Mechanical properties :
#
#
# Convention : Reuss Voigt Hill
#
# Bulk Modulus (GPa) = 18.52819 54.46578 36.49698
# Shear Modulus (GPa) = 16.53176 27.99205 22.26191
#
# Velocity S-wave (km/s) = 2.81663 3.66511 3.26852
# Velocity P-wave (km/s) = 4.41240 6.63688 5.63549
#
# Compressibility (1/GPa) = 0.05397181
#
# Stress axis : x y z
#
# Youngs Moduli (GPa) = 27.69603 48.72476 98.58700
#
# Poissons Ratio (x) = 0.32786 0.03513
# Poissons Ratio (y) = 0.18636 -0.06748
# Poissons Ratio (z) = 0.00987 -0.03335
#
# Static dielectric constant tensor:
#      x y z
#    x 1.784830 0.000840 -0.025230 
#    y 0.000840 1.752000 0.001460 
#    z -0.025230 0.001460 1.797900 
# 
# From -- ./inp_files/328730.got.cif
#   From: 2010.05.17/outbox.cif.g08.bks.cpg/sg2_165_cif.got.tgz:328730.got - 2010.06.03 11:33:40.
