data_PCOD9075681
_publ_section_title
;
Structure prediction by ZEFSAII (Michael W. Deem and Ramdas Pophale) SiO2 
 PCOD9075681
Probable space group: P -1
;
_chemical_formula_sum "Si O2"
_cell_formula_units_Z 15
_cell_length_a 9.000000
_cell_length_b 12.000000
_cell_length_c 18.000000
_cell_angle_alpha 30.000000
_cell_angle_beta 50.000000
_cell_angle_gamma 40.000000
_cell_volume 623.501542
_symmetry_space_group_name_H-M "P -1"
_symmetry_group_IT_number 2
_symmetry_cell_setting 'triclinic'
loop_
_space_group_symop_operation_xyz
x,y,z
-x,-y,-z
loop_
_atom_site_type_symbol
_atom_site_label
_atom_site_fract_x
_atom_site_fract_y
_atom_site_fract_z
Si Si1 0.609692 0.773045 0.033233
Si Si2 0.886853 0.454913 0.634312
Si Si3 0.059645 0.523099 0.099958
Si Si4 0.491137 0.028498 0.207121
Si Si5 0.215213 0.896756 0.808526
Si Si6 0.352300 0.779203 0.656000
Si Si7 0.975440 0.345511 0.384791
Si Si8 0.500000 0.500000 0.500000
O O1 0.649147 0.487074 0.202823
O O2 0.871184 0.699543 0.996278
O O3 0.470856 0.883529 0.937040
O O4 0.500000 0.000000 0.000000
O O5 0.616377 0.666951 0.612154
O O6 0.997491 0.489507 0.652655
O O7 0.000000 0.500000 0.500000
O O8 0.960667 0.155181 0.763978
O O9 0.219216 0.229077 0.188957
O O10 0.975142 0.488595 0.226555
O O11 0.217095 0.644172 0.982991
O O12 0.617709 0.060243 0.218185
O O13 0.534269 0.743656 0.353379
O O14 0.283736 0.860558 0.719384
O O15 0.186892 0.039671 0.509379
O O16 0.749031 0.336030 0.469348
#
# Coordination Sequence:
#
# PCOD9075681 Si02
#       8
#     2   2   2   2   2   2   2   1
#     4  12  28  50  77 118 157 220 269 338 406 492
#     4  12  27  47  79 122 163 210 274 335 407 487
#     4  12  28  50  81 118 161 213 277 334 420 484
#     4  12  27  49  81 114 165 210 275 334 410 485
#     4  12  27  53  86 121 162 218 272 347 404 494
#     4  12  28  53  85 119 169 215 279 335 418 490
#     4  12  28  49  81 120 166 216 265 346 407 491
#     4  12  28  48  76 114 168 210 272 326 412 484
#
# _framework density 24.057679
#
# number of rings (size 3 to 8) (size 9 to 14) (size 15 to 20)
#    0.000    0.000    4.000    4.400    5.600    5.867 
#    0.000    0.000    0.000    0.000    0.000    0.000 
#    0.000    0.000    0.000    0.000    0.000    0.000 
#
# Total GULP energy -83585.030700 kJ/mol
# GULP energy per Si atom -5572.335380 kJ/mol
# Density = 2.400292 g / cm^3
# Si number density = 24.057679 Si / 1000 Ang^3
#
#
#
# Elastic Constant Matrix: (Units=GPa)
#
#
# Indices 1 2 3 4 5 6 
#
# 1 44.2994 23.3103 54.5359 -19.4234 36.8460 2.3962
# 2 23.3103 148.4126 37.0137 -15.4687 21.4732 -9.1617
# 3 54.5359 37.0137 107.5876 4.7749 -23.5853 8.8215
# 4 -19.4234 -15.4687 4.7749 32.4117 38.2884 -12.8725
# 5 36.8460 21.4732 -23.5853 38.2884 8.1727 11.1855
# 6 2.3962 -9.1617 8.8215 -12.8725 11.1855 44.5745
#
#
#
# Elastic Compliance Matrix: (Units=1/GPa)
#
#
# Indices 1 2 3 4 5 6 
#
# 1 0.012983 -0.004944 -0.001298 -0.010780 0.011380 -0.007426
# 2 -0.004944 0.007440 0.000052 -0.000046 0.001038 0.001511
# 3 -0.001298 0.000052 0.007966 0.006926 -0.006755 0.002199
# 4 -0.010780 -0.000046 0.006926 0.012537 0.009316 0.000482
# 5 0.011380 0.001038 -0.006755 0.009316 0.000340 0.003543
# 6 -0.007426 0.001511 0.002199 0.000482 0.003543 0.021959
#
#
# Mechanical properties :
#
#
# Convention : Reuss Voigt Hill
#
# Bulk Modulus (GPa) = 62.46377 58.89103 60.67740
# Shear Modulus (GPa) = 61.77291 29.39443 45.58367
#
# Velocity S-wave (km/s) = 5.07275 3.49926 4.35761
# Velocity P-wave (km/s) = 7.76729 6.39208 7.11300
#
# Compressibility (1/GPa) = 0.01600928
#
# Stress axis : x y z
#
# Youngs Moduli (GPa) = 77.02359 134.41114 125.52893
#
# Poissons Ratio (x) = 0.66452 0.16295
# Poissons Ratio (y) = 0.38080 -0.00655
# Poissons Ratio (z) = 0.09999 -0.00701
#
# Static dielectric constant tensor:
#      x y z
#    x 1.981960 -0.054760 0.012560 
#    y -0.054760 2.016280 -0.056060 
#    z 0.012560 -0.056060 1.970810 
# 
# From -- ./inp_files/559489.got.cif
#   From: 2010.05.17/outbox.ucp.g08.bks.cvg/sg2_280_cif.got.tgz:559489.got - 2010.06.11 11:32:03.
