data_PCOD9075795
_publ_section_title
;
Structure prediction by ZEFSAII (Michael W. Deem and Ramdas Pophale) SiO2 
 PCOD9075795
Probable space group: P -1
;
_chemical_formula_sum "Si O2"
_cell_formula_units_Z 16
_cell_length_a 11.565307
_cell_length_b 12.443086
_cell_length_c 21.894656
_cell_angle_alpha 30.355207
_cell_angle_beta 138.917175
_cell_angle_gamma 117.018961
_cell_volume 844.376392
_symmetry_space_group_name_H-M "P -1"
_symmetry_group_IT_number 2
_symmetry_cell_setting 'triclinic'
loop_
_space_group_symop_operation_xyz
x,y,z
-x,-y,-z
loop_
_atom_site_type_symbol
_atom_site_label
_atom_site_fract_x
_atom_site_fract_y
_atom_site_fract_z
Si Si1 0.245825 0.135657 0.324559
Si Si2 0.916947 0.718358 0.939934
Si Si3 0.342631 0.332882 0.549660
Si Si4 0.159057 0.903566 0.170337
Si Si5 0.107420 0.990903 0.457254
Si Si6 0.027965 0.635533 0.671679
Si Si7 0.511880 0.190415 0.095944
Si Si8 0.566981 0.623924 0.886178
O O1 0.185881 0.102665 0.248932
O O2 0.142058 0.047023 0.375523
O O3 0.500000 0.000000 0.500000
O O4 0.135929 0.443748 0.142101
O O5 0.754041 0.643278 0.928458
O O6 0.935345 0.858848 0.936105
O O7 0.212119 0.645395 0.354289
O O8 0.594970 0.199843 0.699713
O O9 0.190421 0.345478 0.428994
O O10 0.365629 0.120712 0.710460
O O11 0.000000 0.000000 0.000000
O O12 0.969921 0.250346 0.317828
O O13 0.349932 0.818340 0.666044
O O14 0.019083 0.822870 0.523780
O O15 0.258769 0.353596 0.894041
O O16 0.493726 0.259725 0.126671
O O17 0.612641 0.338423 0.038192
#
# Coordination Sequence:
#
# PCOD9075795 Si02
#       8
#     2   2   2   2   2   2   2   2
#     4  11  24  37  60  87 122 164 191 244 295 365
#     4  11  23  40  57  85 120 159 203 239 297 359
#     4  11  22  36  56  90 118 157 198 239 307 356
#     4  11  25  40  60  84 121 165 203 251 292 351
#     4  10  19  33  57  88 124 155 191 238 308 359
#     4  10  20  33  56  90 123 154 187 248 304 356
#     4  10  19  30  52  89 124 151 181 237 306 359
#     4  10  18  32  55  85 123 154 184 242 300 358
#
# _framework density 18.948893999999999
#
# number of rings (size 3 to 8) (size 9 to 14) (size 15 to 20)
#    0.000    1.500    3.750    1.500    5.250    1.000 
#    0.000    0.000    0.000    0.750    0.000    3.500 
#    0.000    0.000    0.000    0.000    0.000    0.000 
#
# Total GULP energy -89194.158290 kJ/mol
# GULP energy per Si atom -5574.634893 kJ/mol
# Density = 1.890577 g / cm^3
# Si number density = 18.948894 Si / 1000 Ang^3
#
#
#
# Elastic Constant Matrix: (Units=GPa)
#
#
# Indices 1 2 3 4 5 6 
#
# 1 79.8836 27.6541 30.0524 11.1155 -13.7829 2.9469
# 2 27.6541 81.1431 44.4870 7.9465 6.7134 4.9760
# 3 30.0524 44.4870 101.3241 2.3107 0.4642 6.1533
# 4 11.1155 7.9465 2.3107 35.9380 4.5374 -3.5079
# 5 -13.7829 6.7134 0.4642 4.5374 35.1965 3.2362
# 6 2.9469 4.9760 6.1533 -3.5079 3.2362 23.9555
#
#
#
# Elastic Compliance Matrix: (Units=1/GPa)
#
#
# Indices 1 2 3 4 5 6 
#
# 1 0.017534 -0.004310 -0.003070 -0.005609 0.008679 -0.002467
# 2 -0.004310 0.017978 -0.006483 -0.001745 -0.004700 -0.001159
# 3 -0.003070 -0.006483 0.013691 0.001373 -0.000179 -0.001567
# 4 -0.005609 -0.001745 0.001373 0.031277 -0.006480 0.006155
# 5 0.008679 -0.004700 -0.000179 -0.006480 0.034059 -0.005595
# 6 -0.002467 -0.001159 -0.001567 0.006155 -0.005595 0.044348
#
#
# Mechanical properties :
#
#
# Convention : Reuss Voigt Hill
#
# Bulk Modulus (GPa) = 46.56269 51.85977 49.21123
# Shear Modulus (GPa) = 25.80320 29.69516 27.74918
#
# Velocity S-wave (km/s) = 3.69416 3.96298 3.83093
# Velocity P-wave (km/s) = 6.54384 6.95470 6.75240
#
# Compressibility (1/GPa) = 0.02147642
#
# Stress axis : x y z
#
# Youngs Moduli (GPa) = 57.03114 55.62308 73.03944
#
# Poissons Ratio (x) = 0.23973 0.22426
# Poissons Ratio (y) = 0.24580 0.47354
# Poissons Ratio (z) = 0.17511 0.36062
#
# Static dielectric constant tensor:
#      x y z
#    x 1.661260 0.048280 -0.020220 
#    y 0.048280 1.672720 -0.013730 
#    z -0.020220 -0.013730 1.757190 
# 
# From -- ./inp_files/594908.got.cif
#   From: 2010.05.17/outbox.cif.g08.bks.cpg/sg2_298_cif.got.tgz:594908.got - 2010.06.03 11:33:40.
