data_PCOD9075361
_publ_section_title
;
Structure prediction by ZEFSAII (Michael W. Deem and Ramdas Pophale) SiO2 
 PCOD9075361
Probable space group: P -1
;
_chemical_formula_sum "Si O2"
_cell_formula_units_Z 16
_cell_length_a 24.000000
_cell_length_b 30.000000
_cell_length_c 6.000000
_cell_angle_alpha 80.000000
_cell_angle_beta 80.000000
_cell_angle_gamma 10.000000
_cell_volume 738.675599
_symmetry_space_group_name_H-M "P -1"
_symmetry_group_IT_number 2
_symmetry_cell_setting 'triclinic'
loop_
_space_group_symop_operation_xyz
x,y,z
-x,-y,-z
loop_
_atom_site_type_symbol
_atom_site_label
_atom_site_fract_x
_atom_site_fract_y
_atom_site_fract_z
Si Si1 0.246980 0.842097 0.865441
Si Si2 0.274900 0.245712 0.502846
Si Si3 0.257809 0.486162 0.934574
Si Si4 0.315021 0.120938 0.821697
Si Si5 0.856757 0.225500 0.582492
Si Si6 0.341259 0.903019 0.230845
Si Si7 0.233506 0.072914 0.381733
Si Si8 0.105341 0.720975 0.194376
O O1 0.550423 0.573348 0.815577
O O2 0.428245 0.738219 0.977402
O O3 0.039439 0.034725 0.667309
O O4 0.000000 0.000000 0.000000
O O5 0.198467 0.256156 0.641902
O O6 0.000000 0.500000 0.500000
O O7 0.419103 0.120459 0.269757
O O8 0.574311 0.033161 0.607381
O O9 0.380509 0.350581 0.802235
O O10 0.063261 0.679055 0.781839
O O11 0.994727 0.666952 0.108323
O O12 0.500000 0.000000 0.000000
O O13 0.500000 0.500000 0.500000
O O14 0.830595 0.278406 0.768773
O O15 0.084845 0.076552 0.400202
O O16 0.455259 0.859353 0.306039
O O17 0.136025 0.082126 0.011016
O O18 0.082114 0.166019 0.613406
#
# Coordination Sequence:
#
# PCOD9075361 Si02
#       8
#     2   2   2   2   2   2   2   2
#     4  12  26  43  73 102 135 187 231 288 354 413
#     4  11  27  44  73 106 146 183 237 291 349 426
#     4  12  25  46  72  98 147 183 232 292 353 417
#     4  11  26  48  70 108 144 188 231 291 357 420
#     4  11  26  44  67  99 139 180 234 293 351 418
#     4  11  25  43  71 102 132 190 233 285 358 417
#     4  11  25  44  69 104 136 188 233 284 350 419
#     4  11  24  45  68  97 139 175 237 288 345 422
#
# _framework density 21.660388000000001
#
# number of rings (size 3 to 8) (size 9 to 14) (size 15 to 20)
#    0.000    0.750    3.750    2.250    7.000    2.000 
#    0.000    0.000    0.000    0.000    0.000    0.000 
#    0.000    0.000    0.000    0.000    0.000    0.000 
#
# Total GULP energy -89287.293867 kJ/mol
# GULP energy per Si atom -5580.455867 kJ/mol
# Density = 2.161109 g / cm^3
# Si number density = 21.660388 Si / 1000 Ang^3
#
#
#
# Elastic Constant Matrix: (Units=GPa)
#
#
# Indices 1 2 3 4 5 6 
#
# 1 168.2833 313.2758 249.7481 -47.0642 -17.5966 124.8695
# 2 313.2758 1429.5301 1036.7743 -319.5682 -24.7553 618.7416
# 3 249.7481 1036.7743 806.0650 -237.1203 -32.4757 443.4804
# 4 -47.0642 -319.5682 -237.1203 95.3575 18.3130 -127.1765
# 5 -17.5966 -24.7553 -32.4757 18.3130 38.7671 -12.9850
# 6 124.8695 618.7416 443.4804 -127.1765 -12.9850 312.2229
#
#
#
# Elastic Compliance Matrix: (Units=1/GPa)
#
#
# Indices 1 2 3 4 5 6 
#
# 1 0.029853 -0.020774 -0.008932 -0.053971 0.025327 0.020984
# 2 -0.020774 0.039604 -0.010582 0.058991 -0.031736 -0.032437
# 3 -0.008932 -0.010582 0.023631 0.014703 0.001037 -0.002991
# 4 -0.053971 0.058991 0.014703 0.158419 -0.067597 -0.054487
# 5 0.025327 -0.031736 0.001037 -0.067597 0.058600 0.026192
# 6 0.020984 -0.032437 -0.002991 -0.054487 0.026192 0.042236
#
#
# Mechanical properties :
#
#
# Convention : Reuss Voigt Hill
#
# Bulk Modulus (GPa) = 79.90991 622.60831 351.25911
# Shear Modulus (GPa) = 11.43933 142.87483 77.15708
#
# Velocity S-wave (km/s) = 2.30058 8.13047 5.97483
# Velocity P-wave (km/s) = 6.63545 19.39599 14.49541
#
# Compressibility (1/GPa) = 0.01251409
#
# Stress axis : x y z
#
# Youngs Moduli (GPa) = 33.49722 25.24991 42.31751
#
# Poissons Ratio (x) = 0.52453 0.37796
# Poissons Ratio (y) = 0.69586 0.44780
# Poissons Ratio (z) = 0.29918 0.26719
#
# Static dielectric constant tensor:
#      x y z
#    x 1.778110 -0.011180 0.065610 
#    y -0.011180 1.738770 0.054210 
#    z 0.065610 0.054210 1.877660 
# 
# From -- ./inp_files/46975.got.cif
#   From: 2010.05.17/outbox.ucp.g08.bks.cvg/sg2_24_cif.got.tgz:46975.got - 2010.06.11 11:32:03.
