data_PCOD9075252
_publ_section_title
;
Structure prediction by ZEFSAII (Michael W. Deem and Ramdas Pophale) SiO2 
 PCOD9075252
Probable space group: P -1
;
_chemical_formula_sum "Si O2"
_cell_formula_units_Z 16
_cell_length_a 9.000000
_cell_length_b 12.000000
_cell_length_c 15.000000
_cell_angle_alpha 110.000000
_cell_angle_beta 70.000000
_cell_angle_gamma 50.000000
_cell_volume 728.972637
_symmetry_space_group_name_H-M "P -1"
_symmetry_group_IT_number 2
_symmetry_cell_setting 'triclinic'
loop_
_space_group_symop_operation_xyz
x,y,z
-x,-y,-z
loop_
_atom_site_type_symbol
_atom_site_label
_atom_site_fract_x
_atom_site_fract_y
_atom_site_fract_z
Si Si1 0.799861 0.855873 0.950460
Si Si2 0.674120 0.166902 0.151953
Si Si3 0.663251 0.546863 0.141377
Si Si4 0.176380 0.649794 0.308959
Si Si5 0.949369 0.276601 0.324808
Si Si6 0.353531 0.770655 0.621050
Si Si7 0.928387 0.793053 0.205537
Si Si8 0.652367 0.994910 0.664666
O O1 0.066516 0.612385 0.882231
O O2 0.962112 0.809247 0.817973
O O3 0.500000 0.000000 0.000000
O O4 0.687138 0.019170 0.093734
O O5 0.398120 0.398674 0.217419
O O6 0.611922 0.252423 0.286432
O O7 0.000000 0.000000 0.000000
O O8 0.404941 0.616873 0.243845
O O9 0.499011 0.778688 0.226265
O O10 0.826250 0.395931 0.974984
O O11 0.042174 0.696779 0.254903
O O12 0.915923 0.833636 0.489348
O O13 0.696062 0.544793 0.447948
O O14 0.803126 0.249060 0.385113
O O15 0.208772 0.138132 0.305899
O O16 0.147875 0.018282 0.719051
O O17 0.616413 0.921624 0.286195
#
# Coordination Sequence:
#
# PCOD9075252 Si02
#       8
#     2   2   2   2   2   2   2   2
#     4  12  27  43  72 105 139 181 227 293 351 405
#     4  12  22  46  71 102 135 177 244 283 336 418
#     4  12  26  47  71 101 141 185 234 279 345 421
#     4  12  26  46  73 100 137 188 231 284 343 418
#     4  11  25  43  71 100 137 180 227 285 348 410
#     4  11  23  45  71  99 134 180 234 280 339 414
#     4  12  27  46  71 103 139 186 231 287 349 406
#     4  12  28  46  67 106 146 178 229 292 351 408
#
# _framework density 21.948698
#
# number of rings (size 3 to 8) (size 9 to 14) (size 15 to 20)
#    0.000    0.250    5.000    3.000    7.000    1.500 
#    0.000    0.000    0.000    0.000    0.000    0.000 
#    0.000    0.000    0.000    0.000    0.000    0.000 
#
# Total GULP energy -89366.520468 kJ/mol
# GULP energy per Si atom -5585.407529 kJ/mol
# Density = 2.189874 g / cm^3
# Si number density = 21.948698 Si / 1000 Ang^3
#
#
#
# Elastic Constant Matrix: (Units=GPa)
#
#
# Indices 1 2 3 4 5 6 
#
# 1 20.1643 -21.0111 43.6031 -8.9364 8.1055 -24.4340
# 2 -21.0111 76.0278 36.8468 -1.4598 11.6204 -29.3324
# 3 43.6031 36.8468 124.5794 10.4360 7.4129 9.0850
# 4 -8.9364 -1.4598 10.4360 30.6654 2.0712 4.7020
# 5 8.1055 11.6204 7.4129 2.0712 18.3204 -2.6785
# 6 -24.4340 -29.3324 9.0850 4.7020 -2.6785 36.9539
#
#
#
# Elastic Compliance Matrix: (Units=1/GPa)
#
#
# Indices 1 2 3 4 5 6 
#
# 1 -0.008002 -0.013997 0.008093 -0.003552 0.006997 -0.017432
# 2 -0.013997 0.004665 0.004259 -0.004472 0.001146 -0.005947
# 3 0.008093 0.004259 0.003760 0.000633 -0.006818 0.007233
# 4 -0.003552 -0.004472 0.000633 0.032798 -0.001063 -0.010304
# 5 0.006997 0.001146 -0.006818 -0.001063 0.055300 0.011356
# 6 -0.017432 -0.005947 0.007233 -0.010304 0.011356 0.011171
#
#
# Mechanical properties :
#
#
# Convention : Reuss Voigt Hill
#
# Bulk Modulus (GPa) = -348.88743 37.73878 -155.57432
# Shear Modulus (GPa) = 49.00718 27.94346 38.47532
#
# Velocity S-wave (km/s) = 4.73038 3.57196 4.19139
# Velocity P-wave (km/s) = 11.37829 5.85178 6.90008
#
# Compressibility (1/GPa) = -0.00286625
#
# Stress axis : x y z
#
# Youngs Moduli (GPa) = -124.96445 214.34360 265.96784
#
# Poissons Ratio (x) = 3.00014 -2.15251
# Poissons Ratio (y) = -1.74911 -1.13279
# Poissons Ratio (z) = 1.01135 -0.91292
#
# Static dielectric constant tensor:
#      x y z
#    x 1.823490 0.053450 -0.090980 
#    y 0.053450 1.695310 0.014990 
#    z -0.090980 0.014990 1.795700 
# 
# From -- ./inp_files/209545.got.cif
#   From: 2010.05.17/outbox.ucp.g08.bks.cvg/sg2_105_cif.got.tgz:209545.got - 2010.06.11 11:32:03.
