data_PCOD9075157
_publ_section_title
;
Structure prediction by ZEFSAII (Michael W. Deem and Ramdas Pophale) SiO2 
 PCOD9075157
Probable space group: P -1
;
_chemical_formula_sum "Si O2"
_cell_formula_units_Z 12
_cell_length_a 9.000000
_cell_length_b 9.000000
_cell_length_c 9.000000
_cell_angle_alpha 70.000000
_cell_angle_beta 80.000000
_cell_angle_gamma 50.000000
_cell_volume 523.686142
_symmetry_space_group_name_H-M "P -1"
_symmetry_group_IT_number 2
_symmetry_cell_setting 'triclinic'
loop_
_space_group_symop_operation_xyz
x,y,z
-x,-y,-z
loop_
_atom_site_type_symbol
_atom_site_label
_atom_site_fract_x
_atom_site_fract_y
_atom_site_fract_z
Si Si1 0.281888 0.054197 0.915119
Si Si2 0.092742 0.180836 0.208621
Si Si3 0.502465 0.100356 0.618239
Si Si4 0.446285 0.611517 0.128508
Si Si5 0.051510 0.848163 0.276767
Si Si6 0.237293 0.551095 0.621633
O O1 0.428366 0.060517 0.792332
O O2 0.126616 0.109094 0.795903
O O3 0.172128 0.193260 0.032769
O O4 0.403682 0.824059 0.032441
O O5 0.934908 0.388008 0.255263
O O6 0.272792 0.018772 0.341286
O O7 0.007511 0.064224 0.221981
O O8 0.358198 0.347174 0.567631
O O9 0.500000 0.000000 0.500000
O O10 0.238789 0.691005 0.195795
O O11 0.601668 0.487084 0.277702
O O12 0.500000 0.500000 0.000000
O O13 0.119056 0.740043 0.462893
#
# Coordination Sequence:
#
# PCOD9075157 Si02
#       6
#     2   2   2   2   2   2
#     4  11  24  46  69 100 143 178 227 286 339 405
#     4  11  24  46  72 100 139 178 232 288 339 403
#     4  12  28  46  67 100 145 186 228 278 341 412
#     4  11  23  41  72 105 133 177 232 282 345 404
#     4  11  23  43  72 103 140 173 230 288 340 405
#     4  12  25  44  72 103 138 183 228 280 348 402
#
# _framework density 22.914487999999999
#
# number of rings (size 3 to 8) (size 9 to 14) (size 15 to 20)
#    0.000    0.667    3.333    6.500    2.333    3.333 
#    0.000    0.000    0.000    0.000    0.000    0.000 
#    0.000    0.000    0.000    0.000    0.000    0.000 
#
# Total GULP energy -67055.543140 kJ/mol
# GULP energy per Si atom -5587.961928 kJ/mol
# Density = 2.286233 g / cm^3
# Si number density = 22.914488 Si / 1000 Ang^3
#
#
#
# Elastic Constant Matrix: (Units=GPa)
#
#
# Indices 1 2 3 4 5 6 
#
# 1 86.4865 28.9578 18.8148 -2.3902 21.1896 -14.6786
# 2 28.9578 119.7704 25.3553 34.5658 3.8561 -13.8084
# 3 18.8148 25.3553 107.0662 6.3893 13.5232 8.7150
# 4 -2.3902 34.5658 6.3893 47.2400 -2.4595 11.7820
# 5 21.1896 3.8561 13.5232 -2.4595 44.6930 5.4741
# 6 -14.6786 -13.8084 8.7150 11.7820 5.4741 24.5722
#
#
#
# Elastic Compliance Matrix: (Units=1/GPa)
#
#
# Indices 1 2 3 4 5 6 
#
# 1 0.016847 -0.001355 -0.002489 -0.001481 -0.008773 0.012850
# 2 -0.001355 0.016293 -0.003783 -0.016114 -0.002712 0.018019
# 3 -0.002489 -0.003783 0.011290 0.003349 -0.000612 -0.009087
# 4 -0.001481 -0.016114 0.003349 0.040880 0.007291 -0.032353
# 5 -0.008773 -0.002712 -0.000612 0.007291 0.029387 -0.016590
# 6 0.012850 0.018019 -0.009087 -0.032353 -0.016590 0.080929
#
#
# Mechanical properties :
#
#
# Convention : Reuss Voigt Hill
#
# Bulk Modulus (GPa) = 34.27438 51.06432 42.66935
# Shear Modulus (GPa) = 22.66492 39.31408 30.98950
#
# Velocity S-wave (km/s) = 3.14842 4.14658 3.68149
# Velocity P-wave (km/s) = 5.31100 6.72745 6.06075
#
# Compressibility (1/GPa) = 0.02917631
#
# Stress axis : x y z
#
# Youngs Moduli (GPa) = 59.35799 61.37665 88.57089
#
# Poissons Ratio (x) = 0.08316 0.22047
# Poissons Ratio (y) = 0.08043 0.33505
# Poissons Ratio (z) = 0.14775 0.23218
#
# Static dielectric constant tensor:
#      x y z
#    x 1.910780 0.041810 -0.068820 
#    y 0.041810 1.871790 -0.040030 
#    z -0.068820 -0.040030 1.892150 
# 
# From -- ./inp_files/148768.got.cif
#   From: 2010.05.17/outbox.ucp.g08.bks.cvg/sg2_75_cif.got.tgz:148768.got - 2010.06.11 11:32:03.
