data_PCOD9075494
_publ_section_title
;
Structure prediction by ZEFSAII (Michael W. Deem and Ramdas Pophale) SiO2 
 PCOD9075494
Probable space group: P -1
;
_chemical_formula_sum "Si O2"
_cell_formula_units_Z 16
_cell_length_a 12.000000
_cell_length_b 9.000000
_cell_length_c 15.000000
_cell_angle_alpha 110.000000
_cell_angle_beta 150.000000
_cell_angle_gamma 70.000000
_cell_volume 757.522634
_symmetry_space_group_name_H-M "P -1"
_symmetry_group_IT_number 2
_symmetry_cell_setting 'triclinic'
loop_
_space_group_symop_operation_xyz
x,y,z
-x,-y,-z
loop_
_atom_site_type_symbol
_atom_site_label
_atom_site_fract_x
_atom_site_fract_y
_atom_site_fract_z
Si Si1 0.589823 0.641936 0.353210
Si Si2 0.816962 0.953036 0.988730
Si Si3 0.282112 0.017461 0.424940
Si Si4 0.642840 0.116244 0.224192
Si Si5 0.662272 0.434465 0.181391
Si Si6 0.037217 0.848484 0.378513
Si Si7 0.894235 0.256749 0.996605
Si Si8 0.024726 0.483171 0.296508
O O1 0.681575 0.814298 0.468784
O O2 0.643148 0.562408 0.276018
O O3 0.718136 0.537903 0.498130
O O4 0.321500 0.651546 0.181724
O O5 0.774920 0.110762 0.930476
O O6 0.599689 0.920493 0.898259
O O7 0.047868 0.000398 0.206251
O O8 0.913181 0.813787 0.955281
O O9 0.500000 0.000000 0.500000
O O10 0.215522 0.903999 0.438995
O O11 0.618807 0.265447 0.166112
O O12 0.814930 0.159164 0.429913
O O13 0.803404 0.968155 0.256640
O O14 0.894023 0.429909 0.284582
O O15 0.500000 0.500000 0.000000
O O16 0.967668 0.670668 0.274749
O O17 0.977785 0.369422 0.156660
#
# Coordination Sequence:
#
# PCOD9075494 Si02
#       8
#     2   2   2   2   2   2   2   2
#     4  12  24  47  76 108 155 200 258 316 389 469
#     4  11  26  48  79 116 155 205 269 319 389 472
#     4  12  26  49  80 112 155 211 257 321 392 471
#     4  11  27  51  76 116 158 207 261 328 388 465
#     4  12  27  47  78 112 158 206 255 324 396 468
#     4  11  28  48  78 115 159 203 266 322 388 472
#     4  11  25  48  79 113 153 210 258 322 394 469
#     4  12  26  48  77 116 153 207 260 321 396 463
#
# _framework density 21.121480999999999
#
# number of rings (size 3 to 8) (size 9 to 14) (size 15 to 20)
#    0.000    0.500    5.000    1.875    8.750    0.500 
#    2.250    2.500    0.000    0.000    0.000    0.000 
#    0.000    0.000    0.000    0.000    0.000    0.000 
#
# Total GULP energy -89167.858631 kJ/mol
# GULP energy per Si atom -5572.991164 kJ/mol
# Density = 2.107341 g / cm^3
# Si number density = 21.121481 Si / 1000 Ang^3
#
#
#
# Elastic Constant Matrix: (Units=GPa)
#
#
# Indices 1 2 3 4 5 6 
#
# 1 157.0435 72.8247 44.3286 5.6315 18.8039 -3.9421
# 2 72.8247 158.0135 50.0043 11.6999 -5.0503 -12.2658
# 3 44.3286 50.0043 130.6122 -5.2477 -3.9509 -20.7961
# 4 5.6315 11.6999 -5.2477 45.1878 -4.8370 -8.5947
# 5 18.8039 -5.0503 -3.9509 -4.8370 51.5110 5.8834
# 6 -3.9421 -12.2658 -20.7961 -8.5947 5.8834 51.4059
#
#
#
# Elastic Compliance Matrix: (Units=1/GPa)
#
#
# Indices 1 2 3 4 5 6 
#
# 1 0.009102 -0.003687 -0.001941 -0.000947 -0.003844 -0.000685
# 2 -0.003687 0.008924 -0.002106 -0.001807 0.001834 0.000483
# 3 -0.001941 -0.002106 0.009848 0.002746 0.001097 0.003666
# 4 -0.000947 -0.001807 0.002746 0.024099 0.002141 0.004391
# 5 -0.003844 0.001834 0.001097 0.002141 0.021454 -0.001511
# 6 -0.000685 0.000483 0.003666 0.004391 -0.001511 0.021906
#
#
# Mechanical properties :
#
#
# Convention : Reuss Voigt Hill
#
# Bulk Modulus (GPa) = 80.59506 86.66493 83.62999
# Shear Modulus (GPa) = 43.50243 48.18839 45.84541
#
# Velocity S-wave (km/s) = 4.54324 4.78167 4.66398
# Velocity P-wave (km/s) = 8.10938 8.46207 8.28760
#
# Compressibility (1/GPa) = 0.01240771
#
# Stress axis : x y z
#
# Youngs Moduli (GPa) = 109.86397 112.05893 101.53893
#
# Poissons Ratio (x) = 0.41311 0.19711
# Poissons Ratio (y) = 0.40502 0.21380
# Poissons Ratio (z) = 0.21327 0.23595
#
# Static dielectric constant tensor:
#      x y z
#    x 1.798790 -0.018130 -0.001220 
#    y -0.018130 1.835550 -0.063530 
#    z -0.001220 -0.063530 1.854270 
# 
# From -- ./inp_files/516025.got.cif
#   From: 2010.05.17/outbox.ucp.g08.bks.cvg/sg2_259_cif.got.tgz:516025.got - 2010.06.11 11:32:03.
