data_PCOD9075586
_publ_section_title
;
Structure prediction by ZEFSAII (Michael W. Deem and Ramdas Pophale) SiO2 
 PCOD9075586
Probable space group: P -1
;
_chemical_formula_sum "Si O2"
_cell_formula_units_Z 16
_cell_length_a 9.095790
_cell_length_b 10.383287
_cell_length_c 12.589691
_cell_angle_alpha 146.041267
_cell_angle_beta 92.599308
_cell_angle_gamma 79.432140
_cell_volume 640.456931
_symmetry_space_group_name_H-M "P -1"
_symmetry_group_IT_number 2
_symmetry_cell_setting 'triclinic'
loop_
_space_group_symop_operation_xyz
x,y,z
-x,-y,-z
loop_
_atom_site_type_symbol
_atom_site_label
_atom_site_fract_x
_atom_site_fract_y
_atom_site_fract_z
Si Si1 0.140990 0.977883 0.631426
Si Si2 0.265296 0.325432 0.533638
Si Si3 0.542816 0.488683 0.173777
Si Si4 0.715277 0.714821 0.882536
Si Si5 0.653573 0.194476 0.777426
Si Si6 0.414671 0.845742 0.688284
Si Si7 0.106676 0.627834 0.197244
Si Si8 0.171387 0.574633 0.508169
O O1 0.131534 0.811759 0.416490
O O2 0.084702 0.827403 0.622635
O O3 0.310545 0.970255 0.669646
O O4 0.048762 0.242508 0.776804
O O5 0.316161 0.482048 0.732835
O O6 0.136474 0.480877 0.557891
O O7 0.247971 0.078141 0.412568
O O8 0.415827 0.224165 0.396675
O O9 0.409415 0.437431 0.207795
O O10 0.472591 0.725643 0.263658
O O11 0.582940 0.273342 0.943761
O O12 0.851225 0.620206 0.908404
O O13 0.792927 0.642386 0.722883
O O14 0.625384 0.979804 0.092591
O O15 0.762642 0.367954 0.879523
O O16 0.335403 0.637014 0.570211
#
# Coordination Sequence:
#
# PCOD9075586 Si02
#       8
#     2   2   2   2   2   2   2   2
#     4   8  18  35  57  76 102 134 169 220 255 293
#     4  12  20  34  54  77 107 141 168 204 262 310
#     4  10  20  34  50  77 110 133 168 213 253 308
#     4  10  18  32  54  79 105 132 168 217 260 300
#     4  10  21  34  52  77 104 141 167 206 259 309
#     4  10  19  31  51  80 103 133 168 208 260 301
#     4   9  17  37  56  75 106 131 172 218 256 296
#     4   9  21  34  50  79 105 135 172 216 250 300
#
# _framework density 24.982164000000001
#
# number of rings (size 3 to 8) (size 9 to 14) (size 15 to 20)
#    0.750    1.500    2.500    1.500    0.000    2.000 
#    0.000    0.625    0.000    0.750    0.000    0.000 
#    0.000    0.000    0.000    0.000    0.000    0.000 
#
# Total GULP energy -89297.496577 kJ/mol
# GULP energy per Si atom -5581.093536 kJ/mol
# Density = 2.492530 g / cm^3
# Si number density = 24.982164 Si / 1000 Ang^3
#
#
#
# Elastic Constant Matrix: (Units=GPa)
#
#
# Indices 1 2 3 4 5 6 
#
# 1 27.4791 19.1161 -0.2637 -4.1448 -2.4618 -5.5412
# 2 19.1161 102.0422 15.2430 -26.0190 12.4383 -12.7688
# 3 -0.2637 15.2430 78.1106 -15.6823 7.3819 0.1669
# 4 -4.1448 -26.0190 -15.6823 26.1605 -2.0533 4.9545
# 5 -2.4618 12.4383 7.3819 -2.0533 22.0561 -3.2689
# 6 -5.5412 -12.7688 0.1669 4.9545 -3.2689 36.7043
#
#
#
# Elastic Compliance Matrix: (Units=1/GPa)
#
#
# Indices 1 2 3 4 5 6 
#
# 1 0.044766 -0.009809 0.000562 -0.002354 0.010806 0.004624
# 2 -0.009809 0.016446 0.000426 0.014062 -0.008974 0.001541
# 3 0.000562 0.000426 0.015056 0.009468 -0.004560 -0.001520
# 4 -0.002354 0.014062 0.009468 0.057735 -0.006562 -0.003884
# 5 0.010806 -0.008974 -0.004560 -0.006562 0.053136 0.004148
# 6 0.004624 0.001541 -0.001520 -0.003884 0.004148 0.029380
#
#
# Mechanical properties :
#
#
# Convention : Reuss Voigt Hill
#
# Bulk Modulus (GPa) = 17.05779 30.64698 23.85239
# Shear Modulus (GPa) = 19.70797 28.55326 24.13062
#
# Velocity S-wave (km/s) = 2.81175 3.38442 3.11129
# Velocity P-wave (km/s) = 4.16942 5.25038 4.74081
#
# Compressibility (1/GPa) = 0.05862424
#
# Stress axis : x y z
#
# Youngs Moduli (GPa) = 22.33846 60.80428 66.41743
#
# Poissons Ratio (x) = 0.59644 -0.03729
# Poissons Ratio (y) = 0.21912 -0.02826
# Poissons Ratio (z) = -0.01254 -0.02587
#
# Static dielectric constant tensor:
#      x y z
#    x 2.038870 -0.030200 -0.017870 
#    y -0.030200 2.086470 0.015430 
#    z -0.017870 0.015430 1.974270 
# 
# From -- ./inp_files/424554.got.cif
#   From: 2010.05.17/outbox.cif.g08.bks.cpg/sg2_213_cif.got.tgz:424554.got - 2010.06.03 11:33:40.
