data_PCOD9075199
_publ_section_title
;
Structure prediction by ZEFSAII (Michael W. Deem and Ramdas Pophale) SiO2 
 PCOD9075199
Probable space group: P -1
;
_chemical_formula_sum "Si O2"
_cell_formula_units_Z 16
_cell_length_a 12.000000
_cell_length_b 9.000000
_cell_length_c 27.000000
_cell_angle_alpha 150.000000
_cell_angle_beta 150.000000
_cell_angle_gamma 40.000000
_cell_volume 727.497153
_symmetry_space_group_name_H-M "P -1"
_symmetry_group_IT_number 2
_symmetry_cell_setting 'triclinic'
loop_
_space_group_symop_operation_xyz
x,y,z
-x,-y,-z
loop_
_atom_site_type_symbol
_atom_site_label
_atom_site_fract_x
_atom_site_fract_y
_atom_site_fract_z
Si Si1 0.824724 0.261572 0.380247
Si Si2 0.053272 0.207621 0.247391
Si Si3 0.038379 0.281985 0.563082
Si Si4 0.978262 0.327752 0.060514
Si Si5 0.915146 0.372176 0.710320
Si Si6 0.591194 0.553469 0.791845
Si Si7 0.697663 0.732409 0.992042
Si Si8 0.534913 0.037932 0.421763
O O1 0.617327 0.279605 0.268398
O O2 0.000000 0.500000 0.500000
O O3 0.822912 0.333297 0.458798
O O4 0.929191 0.926883 0.323389
O O5 0.019025 0.374132 0.229740
O O6 0.323551 0.173292 0.348397
O O7 0.954453 0.429802 0.316603
O O8 0.921416 0.907920 0.116078
O O9 0.266871 0.166819 0.589212
O O10 0.000000 0.000000 0.500000
O O11 0.043632 0.532577 0.190600
O O12 0.182575 0.308473 0.096056
O O13 0.771486 0.499396 0.998591
O O14 0.000000 0.000000 0.000000
O O15 0.668055 0.272553 0.571722
O O16 0.608644 0.558060 0.859627
O O17 0.583577 0.222001 0.670243
O O18 0.500000 0.000000 0.000000
#
# Coordination Sequence:
#
# PCOD9075199 Si02
#       8
#     2   2   2   2   2   2   2   2
#     4  11  23  43  71 104 149 181 234 303 364 438
#     4  12  25  46  75 103 149 194 242 298 364 448
#     4  11  23  43  69 112 147 190 233 294 375 434
#     4  12  29  49  72 106 145 192 248 310 363 437
#     4  11  25  45  70 110 146 183 243 299 370 436
#     4  12  25  47  73 102 142 192 239 299 365 436
#     4  12  28  50  76 101 141 201 253 298 368 448
#     4  11  24  43  74 107 146 183 240 295 365 438
#
# _framework density 21.993213000000001
#
# number of rings (size 3 to 8) (size 9 to 14) (size 15 to 20)
#    0.000    0.500    6.250    3.000    5.250    1.500 
#    0.000    2.500    0.000    0.000    0.000    0.000 
#    0.000    0.000    0.000    0.000    0.000    0.000 
#
# Total GULP energy -89186.624858 kJ/mol
# GULP energy per Si atom -5574.164054 kJ/mol
# Density = 2.194316 g / cm^3
# Si number density = 21.993213 Si / 1000 Ang^3
#
#
#
# Elastic Constant Matrix: (Units=GPa)
#
#
# Indices 1 2 3 4 5 6 
#
# 1 65.5249 33.3772 30.9486 -12.1338 -16.7827 14.9718
# 2 33.3772 150.6560 27.7639 -30.0512 3.5725 29.2870
# 3 30.9486 27.7639 111.4414 -14.3136 -16.7839 15.2240
# 4 -12.1338 -30.0512 -14.3136 49.3906 11.0130 4.5286
# 5 -16.7827 3.5725 -16.7839 11.0130 36.3504 -3.3010
# 6 14.9718 29.2870 15.2240 4.5286 -3.3010 42.0352
#
#
#
# Elastic Compliance Matrix: (Units=1/GPa)
#
#
# Indices 1 2 3 4 5 6 
#
# 1 0.021701 -0.003599 -0.003325 0.000634 0.008334 -0.003432
# 2 -0.003599 0.010509 -0.000594 0.007282 -0.005817 -0.007066
# 3 -0.003325 -0.000594 0.011004 0.001574 0.002916 -0.002328
# 4 0.000634 0.007282 0.001574 0.028205 -0.009115 -0.009624
# 5 0.008334 -0.005817 0.002916 -0.009115 0.036389 0.003868
# 6 -0.003432 -0.007066 -0.002328 -0.009624 0.003868 0.032119
#
#
# Mechanical properties :
#
#
# Convention : Reuss Voigt Hill
#
# Bulk Modulus (GPa) = 35.48821 56.86687 46.17754
# Shear Modulus (GPa) = 30.42222 41.25740 35.83981
#
# Velocity S-wave (km/s) = 3.72325 4.33588 4.04119
# Velocity P-wave (km/s) = 5.88680 7.13997 6.54346
#
# Compressibility (1/GPa) = 0.02817837
#
# Stress axis : x y z
#
# Youngs Moduli (GPa) = 46.08059 95.16015 90.87655
#
# Poissons Ratio (x) = 0.34250 0.30212
# Poissons Ratio (y) = 0.16585 0.05397
# Poissons Ratio (z) = 0.15320 0.05652
#
# Static dielectric constant tensor:
#      x y z
#    x 1.968490 -0.004180 0.035320 
#    y -0.004180 1.857100 0.003250 
#    z 0.035320 0.003250 1.882520 
# 
# From -- ./inp_files/618240.got.cif
#   From: 2010.05.17/outbox.ucp.g08.bks.cvg/sg2_310_cif.got.tgz:618240.got - 2010.06.11 11:32:03.
