data_PCOD9075275
_publ_section_title
;
Structure prediction by ZEFSAII (Michael W. Deem and Ramdas Pophale) SiO2 
 PCOD9075275
Probable space group: P -1
;
_chemical_formula_sum "Si O2"
_cell_formula_units_Z 16
_cell_length_a 12.000000
_cell_length_b 21.000000
_cell_length_c 18.000000
_cell_angle_alpha 20.000000
_cell_angle_beta 30.000000
_cell_angle_gamma 30.000000
_cell_volume 738.640068
_symmetry_space_group_name_H-M "P -1"
_symmetry_group_IT_number 2
_symmetry_cell_setting 'triclinic'
loop_
_space_group_symop_operation_xyz
x,y,z
-x,-y,-z
loop_
_atom_site_type_symbol
_atom_site_label
_atom_site_fract_x
_atom_site_fract_y
_atom_site_fract_z
Si Si1 0.272908 0.756549 0.291594
Si Si2 0.078981 0.904722 0.681256
Si Si3 0.847458 0.375569 0.268617
Si Si4 0.782883 0.603958 0.212162
Si Si5 0.478892 0.763808 0.871385
Si Si6 0.204945 0.040771 0.596274
Si Si7 0.262418 0.996061 0.883586
Si Si8 0.506443 0.342657 0.381610
O O1 0.510162 0.721248 0.237858
O O2 0.196780 0.555120 0.558342
O O3 0.068515 0.900928 0.298458
O O4 0.291828 0.864585 0.085119
O O5 0.244555 0.798851 0.635248
O O6 0.259443 0.896139 0.654116
O O7 0.963101 0.137468 0.473579
O O8 0.923474 0.763394 0.949241
O O9 0.818130 0.477595 0.254098
O O10 0.594496 0.402232 0.345434
O O11 0.000000 0.500000 0.000000
O O12 0.713401 0.773220 0.681752
O O13 0.442083 0.872143 0.853483
O O14 0.305418 0.922417 0.742503
O O15 0.449023 0.548172 0.140592
O O16 0.328437 0.204198 0.631297
O O17 0.000000 0.000000 0.000000
#
# Coordination Sequence:
#
# PCOD9075275 Si02
#       8
#     2   2   2   2   2   2   2   2
#     4  11  24  47  66 100 141 186 221 288 352 402
#     4  12  24  43  72 107 136 182 236 280 347 413
#     4  12  24  42  72 105 143 176 229 287 344 414
#     4  11  25  44  71 100 143 185 226 287 349 413
#     4  11  25  48  72 101 134 185 237 288 343 402
#     4  11  23  46  73  97 142 180 234 292 335 414
#     4  12  26  48  71  98 145 184 230 291 346 410
#     4  12  26  42  73 106 138 184 236 284 344 414
#
# _framework density 21.661429999999999
#
# number of rings (size 3 to 8) (size 9 to 14) (size 15 to 20)
#    0.000    0.500    5.000    3.375    1.750    2.500 
#    6.750    0.000    0.000    0.000    0.000    0.000 
#    0.000    0.000    0.000    0.000    0.000    0.000 
#
# Total GULP energy -89113.123336 kJ/mol
# GULP energy per Si atom -5569.570209 kJ/mol
# Density = 2.161213 g / cm^3
# Si number density = 21.661430 Si / 1000 Ang^3
#
#
#
# Elastic Constant Matrix: (Units=GPa)
#
#
# Indices 1 2 3 4 5 6 
#
# 1 77.2129 0.3918 55.4841 -1.4462 9.7981 6.6275
# 2 0.3918 61.7850 27.5249 6.7234 1.5726 4.2984
# 3 55.4841 27.5249 250.0909 -5.1766 -1.3149 2.7548
# 4 -1.4462 6.7234 -5.1766 40.6324 0.8511 -3.8357
# 5 9.7981 1.5726 -1.3149 0.8511 51.8480 8.7421
# 6 6.6275 4.2984 2.7548 -3.8357 8.7421 27.0473
#
#
#
# Elastic Compliance Matrix: (Units=1/GPa)
#
#
# Indices 1 2 3 4 5 6 
#
# 1 0.016283 0.001931 -0.003815 -0.000462 -0.002702 -0.003100
# 2 0.001931 0.017889 -0.002434 -0.003521 -0.000328 -0.003462
# 3 -0.003815 -0.002434 0.005129 0.000968 0.000794 0.000680
# 4 -0.000462 -0.003521 0.000968 0.025749 -0.000969 0.004539
# 5 -0.002702 -0.000328 0.000794 -0.000969 0.020899 -0.006259
# 6 -0.003100 -0.003462 0.000680 0.004539 -0.006259 0.040880
#
#
# Mechanical properties :
#
#
# Convention : Reuss Voigt Hill
#
# Bulk Modulus (GPa) = 32.60856 61.76560 47.18708
# Shear Modulus (GPa) = 34.32013 44.28474 39.30244
#
# Velocity S-wave (km/s) = 3.98476 4.52642 4.26420
# Velocity P-wave (km/s) = 6.02142 7.47622 6.78791
#
# Compressibility (1/GPa) = 0.03066680
#
# Stress axis : x y z
#
# Youngs Moduli (GPa) = 61.41431 55.89874 194.95398
#
# Poissons Ratio (x) = -0.10793 0.74367
# Poissons Ratio (y) = -0.11858 0.47447
# Poissons Ratio (z) = 0.23427 0.13604
#
# Static dielectric constant tensor:
#      x y z
#    x 1.895640 -0.040370 0.002550 
#    y -0.040370 1.871550 0.018990 
#    z 0.002550 0.018990 1.805510 
# 
# From -- ./inp_files/570653.got.cif
#   From: 2010.05.17/outbox.ucp.g08.bks.cvg/sg2_286_cif.got.tgz:570653.got - 2010.06.11 11:32:03.
