data_PCOD9075014
_publ_section_title
;
Structure prediction by ZEFSAII (Michael W. Deem and Ramdas Pophale) SiO2 
 PCOD9075014
Probable space group: P -1
;
_chemical_formula_sum "Si O2"
_cell_formula_units_Z 16
_cell_length_a 9.000000
_cell_length_b 24.000000
_cell_length_c 9.000000
_cell_angle_alpha 30.000000
_cell_angle_beta 130.000000
_cell_angle_gamma 120.000000
_cell_volume 736.400153
_symmetry_space_group_name_H-M "P -1"
_symmetry_group_IT_number 2
_symmetry_cell_setting 'triclinic'
loop_
_space_group_symop_operation_xyz
x,y,z
-x,-y,-z
loop_
_atom_site_type_symbol
_atom_site_label
_atom_site_fract_x
_atom_site_fract_y
_atom_site_fract_z
Si Si1 0.660403 0.179801 0.416858
Si Si2 0.087096 0.945385 0.336129
Si Si3 0.420196 0.609228 0.287909
Si Si4 0.923173 0.824632 0.761145
Si Si5 0.632049 0.973790 0.421952
Si Si6 0.680538 0.183417 0.775089
Si Si7 0.421571 0.394286 0.268998
Si Si8 0.984818 0.598491 0.141718
O O1 0.823222 0.173159 0.405977
O O2 0.573002 0.066058 0.586368
O O3 0.707806 0.180762 0.619985
O O4 0.531538 0.292345 0.018486
O O5 0.934487 0.920681 0.421582
O O6 0.242211 0.999174 0.416244
O O7 0.000000 0.000000 0.000000
O O8 0.500000 0.500000 0.500000
O O9 0.514652 0.619765 0.486346
O O10 0.193454 0.599524 0.197924
O O11 0.745025 0.866556 0.655963
O O12 0.920010 0.711264 0.933810
O O13 0.115707 0.811856 0.018381
O O14 0.610557 0.074844 0.057107
O O15 0.524780 0.288015 0.486133
O O16 0.500000 0.500000 0.000000
O O17 0.188331 0.410778 0.063648
O O18 0.000000 0.500000 0.500000
#
# Coordination Sequence:
#
# PCOD9075014 Si02
#       8
#     2   2   2   2   2   2   2   2
#     4  12  24  42  63 101 138 170 226 294 337 397
#     4  11  22  40  63  94 138 175 220 284 340 394
#     4  12  27  48  69 105 142 169 230 295 348 404
#     4  11  22  44  67  98 136 181 237 273 333 423
#     4  11  24  40  66  99 135 189 232 270 340 418
#     4  11  22  43  70  97 138 186 234 275 337 415
#     4  12  24  47  75 103 135 185 231 285 340 416
#     4  12  25  46  77  99 132 185 231 280 347 417
#
# _framework density 21.727318
#
# number of rings (size 3 to 8) (size 9 to 14) (size 15 to 20)
#    0.000    0.500    3.750    6.000    1.750    2.500 
#    2.250    0.000    0.000    0.000    0.000    0.000 
#    0.000    0.000    0.000    0.000    0.000    0.000 
#
# Total GULP energy -89274.599100 kJ/mol
# GULP energy per Si atom -5579.662444 kJ/mol
# Density = 2.167787 g / cm^3
# Si number density = 21.727318 Si / 1000 Ang^3
#
#
#
# Elastic Constant Matrix: (Units=GPa)
#
#
# Indices 1 2 3 4 5 6 
#
# 1 112.6553 61.8127 45.3575 9.2069 -2.2734 -15.8061
# 2 61.8127 114.5333 52.4648 10.2028 -12.9248 -11.4927
# 3 45.3575 52.4648 97.7256 -0.0023 -14.2414 11.2615
# 4 9.2069 10.2028 -0.0023 38.5316 -12.1406 2.1305
# 5 -2.2734 -12.9248 -14.2414 -12.1406 37.6186 -0.9114
# 6 -15.8061 -11.4927 11.2615 2.1305 -0.9114 41.4769
#
#
#
# Elastic Compliance Matrix: (Units=1/GPa)
#
#
# Indices 1 2 3 4 5 6 
#
# 1 0.014908 -0.005070 -0.005455 -0.003802 -0.003991 0.005865
# 2 -0.005070 0.014983 -0.005864 -0.002360 0.001956 0.003976
# 3 -0.005455 -0.005864 0.017762 0.005176 0.005841 -0.008664
# 4 -0.003802 -0.002360 0.005176 0.031178 0.010863 -0.004871
# 5 -0.003991 0.001956 0.005841 0.010863 0.032672 -0.002405
# 6 0.005865 0.003976 -0.008664 -0.004871 -0.002405 0.029996
#
#
# Mechanical properties :
#
#
# Convention : Reuss Voigt Hill
#
# Bulk Modulus (GPa) = 67.22305 71.57602 69.39953
# Shear Modulus (GPa) = 27.89610 34.54403 31.22007
#
# Velocity S-wave (km/s) = 3.58707 3.99167 3.79476
# Velocity P-wave (km/s) = 6.93993 7.36607 7.15617
#
# Compressibility (1/GPa) = 0.01487585
#
# Stress axis : x y z
#
# Youngs Moduli (GPa) = 67.07906 66.74041 56.29940
#
# Poissons Ratio (x) = 0.33838 0.30710
# Poissons Ratio (y) = 0.34010 0.33013
# Poissons Ratio (z) = 0.36590 0.39136
#
# Static dielectric constant tensor:
#      x y z
#    x 1.804090 0.067270 0.024000 
#    y 0.067270 1.777920 -0.048190 
#    z 0.024000 -0.048190 1.853030 
# 
# From -- ./inp_files/225867.got.cif
#   From: 2010.05.17/outbox.ucp.g08.bks.cvg/sg2_113_cif.got.tgz:225867.got - 2010.06.11 11:32:03.
