data_PCOD9075057
_publ_section_title
;
Structure prediction by ZEFSAII (Michael W. Deem and Ramdas Pophale) SiO2 
 PCOD9075057
Probable space group: P -1
;
_chemical_formula_sum "Si O2"
_cell_formula_units_Z 16
_cell_length_a 9.000000
_cell_length_b 15.000000
_cell_length_c 9.000000
_cell_angle_alpha 130.000000
_cell_angle_beta 80.000000
_cell_angle_gamma 70.000000
_cell_volume 732.374747
_symmetry_space_group_name_H-M "P -1"
_symmetry_group_IT_number 2
_symmetry_cell_setting 'triclinic'
loop_
_space_group_symop_operation_xyz
x,y,z
-x,-y,-z
loop_
_atom_site_type_symbol
_atom_site_label
_atom_site_fract_x
_atom_site_fract_y
_atom_site_fract_z
Si Si1 0.546898 0.842720 0.976201
Si Si2 0.876681 0.160517 0.489628
Si Si3 0.974504 0.165678 0.821548
Si Si4 0.666175 0.832938 0.258520
Si Si5 0.797805 0.829208 0.674749
Si Si6 0.500343 0.446143 0.781295
Si Si7 0.571666 0.359131 0.239968
Si Si8 0.198209 0.394194 0.767180
O O1 0.712380 0.834860 0.854525
O O2 0.485260 0.745721 0.816742
O O3 0.618443 0.788400 0.069605
O O4 0.370065 0.013463 0.197256
O O5 0.676457 0.276382 0.571156
O O6 0.895567 0.192400 0.693957
O O7 0.022633 0.172070 0.382567
O O8 0.930184 0.000197 0.322041
O O9 0.135310 0.190128 0.815913
O O10 0.795437 0.262298 0.064771
O O11 0.670747 0.737444 0.284298
O O12 0.500000 0.000000 0.500000
O O13 0.830700 0.687173 0.444315
O O14 0.526938 0.551867 0.797425
O O15 0.310637 0.461659 0.787415
O O16 0.500000 0.500000 0.000000
O O17 0.500000 0.500000 0.500000
O O18 0.000000 0.500000 0.000000
#
# Coordination Sequence:
#
# PCOD9075057 Si02
#       8
#     2   2   2   2   2   2   2   2
#     4  11  25  45  70  99 139 181 230 281 339 420
#     4  11  22  42  71 101 135 177 229 288 339 405
#     4  11  23  42  70 102 138 176 229 285 348 403
#     4  12  23  42  70 106 136 175 233 285 344 409
#     4  11  23  46  69  99 138 180 225 284 348 398
#     4  12  24  41  68 103 136 176 230 278 335 408
#     4  12  26  48  68  99 144 186 224 280 354 410
#     4  12  24  42  68 103 141 176 225 281 342 407
#
# _framework density 21.846738999999999
#
# number of rings (size 3 to 8) (size 9 to 14) (size 15 to 20)
#    0.000    0.500    5.000    3.750    1.750    1.000 
#    0.000    3.125    0.000    0.000    0.000    0.000 
#    0.000    0.000    0.000    0.000    0.000    0.000 
#
# Total GULP energy -89318.668603 kJ/mol
# GULP energy per Si atom -5582.416788 kJ/mol
# Density = 2.179701 g / cm^3
# Si number density = 21.846739 Si / 1000 Ang^3
#
#
#
# Elastic Constant Matrix: (Units=GPa)
#
#
# Indices 1 2 3 4 5 6 
#
# 1 88.3252 1.8693 25.3600 2.0060 -10.8288 31.7439
# 2 1.8693 50.0120 -9.0486 17.4875 -8.0508 13.7818
# 3 25.3600 -9.0486 81.9632 18.3645 -10.0867 -0.3533
# 4 2.0060 17.4875 18.3645 29.7905 4.4890 1.9691
# 5 -10.8288 -8.0508 -10.0867 4.4890 38.8239 4.6364
# 6 31.7439 13.7818 -0.3533 1.9691 4.6364 38.3681
#
#
#
# Elastic Compliance Matrix: (Units=1/GPa)
#
#
# Indices 1 2 3 4 5 6 
#
# 1 0.020949 0.006496 -0.004173 -0.002624 0.008874 -0.020642
# 2 0.006496 0.044702 0.013764 -0.036957 0.021560 -0.022013
# 3 -0.004173 0.013764 0.021224 -0.022291 0.009943 -0.001353
# 4 -0.002624 -0.036957 -0.022291 0.071873 -0.024226 0.014479
# 5 0.008874 0.021560 0.009943 -0.024226 0.040312 -0.018623
# 6 -0.020642 -0.022013 -0.001353 0.014479 -0.018623 0.052543
#
#
# Mechanical properties :
#
#
# Convention : Reuss Voigt Hill
#
# Bulk Modulus (GPa) = 8.40000 28.51798 18.45899
# Shear Modulus (GPa) = 19.29667 34.87115 27.08391
#
# Velocity S-wave (km/s) = 2.97522 3.99955 3.52479
# Velocity P-wave (km/s) = 3.95675 5.86605 5.00332
#
# Compressibility (1/GPa) = 0.11904756
#
# Stress axis : x y z
#
# Youngs Moduli (GPa) = 47.73562 22.37034 47.11722
#
# Poissons Ratio (x) = -0.14532 0.19664
# Poissons Ratio (y) = -0.31010 -0.64851
# Poissons Ratio (z) = 0.19922 -0.30790
#
# Static dielectric constant tensor:
#      x y z
#    x 1.651910 -0.108700 -0.131900 
#    y -0.108700 1.743420 -0.098850 
#    z -0.131900 -0.098850 1.721400 
# 
# From -- ./inp_files/206507.got.cif
#   From: 2010.05.17/outbox.ucp.g08.bks.cvg/sg2_104_cif.got.tgz:206507.got - 2010.06.11 11:32:03.
