data_PCOD9075922
_publ_section_title
;
Structure prediction by ZEFSAII (Michael W. Deem and Ramdas Pophale) SiO2 
 PCOD9075922
Probable space group: P -1
;
_chemical_formula_sum "Si O2"
_cell_formula_units_Z 16
_cell_length_a 9.682911
_cell_length_b 12.741999
_cell_length_c 9.446416
_cell_angle_alpha 73.362159
_cell_angle_beta 49.393718
_cell_angle_gamma 92.479760
_cell_volume 804.451039
_symmetry_space_group_name_H-M "P -1"
_symmetry_group_IT_number 2
_symmetry_cell_setting 'triclinic'
loop_
_space_group_symop_operation_xyz
x,y,z
-x,-y,-z
loop_
_atom_site_type_symbol
_atom_site_label
_atom_site_fract_x
_atom_site_fract_y
_atom_site_fract_z
Si Si1 0.036409 0.443933 0.853366
Si Si2 0.726290 0.309956 0.466199
Si Si3 0.711757 0.805632 0.479574
Si Si4 0.628403 0.633759 0.355979
Si Si5 0.301278 0.756783 0.827387
Si Si6 0.233397 0.919496 0.434544
Si Si7 0.678757 0.993660 0.199409
Si Si8 0.068090 0.991388 0.251047
O O1 0.145672 0.557566 0.646637
O O2 0.172762 0.368904 0.836897
O O3 0.844634 0.353500 0.957279
O O4 0.000000 0.500000 0.000000
O O5 0.507095 0.302191 0.651092
O O6 0.716649 0.276540 0.316270
O O7 0.797888 0.214074 0.528371
O O8 0.685046 0.691987 0.448795
O O9 0.522576 0.779093 0.711240
O O10 0.699222 0.905984 0.340044
O O11 0.914986 0.862067 0.394251
O O12 0.500000 0.500000 0.500000
O O13 0.254598 0.874050 0.843431
O O14 0.452292 0.963372 0.327284
O O15 0.208213 0.991450 0.287354
O O16 0.069946 0.932691 0.646196
O O17 0.809366 0.981740 0.984361
#
# Coordination Sequence:
#
# PCOD9075922 Si02
#       8
#     2   2   2   2   2   2   2   2
#     4   9  18  30  51  84 113 143 183 232 289 330
#     4   9  18  35  56  78 114 151 185 236 282 335
#     4  11  20  36  56  86 115 144 190 243 279 333
#     4   9  17  31  53  80 108 143 184 232 281 328
#     4  10  18  32  57  82 116 141 183 245 283 324
#     4  11  22  42  55  83 120 152 191 231 280 347
#     4  12  21  37  60  84 114 147 193 237 286 337
#     4  11  25  36  58  84 116 158 186 229 293 336
#
# _framework density 19.889341000000002
#
# number of rings (size 3 to 8) (size 9 to 14) (size 15 to 20)
#    0.000    1.750    3.750    3.375    0.000    2.000 
#    0.000    0.000    0.000    7.500    0.000    0.000 
#    0.000    0.000    0.000    0.000    0.000    0.000 
#
# Total GULP energy -89157.079153 kJ/mol
# GULP energy per Si atom -5572.317447 kJ/mol
# Density = 1.984407 g / cm^3
# Si number density = 19.889341 Si / 1000 Ang^3
#
#
#
# Elastic Constant Matrix: (Units=GPa)
#
#
# Indices 1 2 3 4 5 6 
#
# 1 58.6256 13.4627 19.6177 1.8038 -9.7805 -8.2964
# 2 13.4627 118.0184 28.4626 4.0446 -13.6800 -3.5075
# 3 19.6177 28.4626 77.5800 11.2937 -27.8578 -10.6346
# 4 1.8038 4.0446 11.2937 36.9440 -0.6463 -16.0942
# 5 -9.7805 -13.6800 -27.8578 -0.6463 18.4626 2.8733
# 6 -8.2964 -3.5075 -10.6346 -16.0942 2.8733 26.7482
#
#
#
# Elastic Compliance Matrix: (Units=1/GPa)
#
#
# Indices 1 2 3 4 5 6 
#
# 1 0.019719 -0.000987 -0.002142 0.002537 0.005628 0.006057
# 2 -0.000987 0.009475 -0.001877 -0.000599 0.003733 -0.000571
# 3 -0.002142 -0.001877 0.031430 -0.007519 0.044276 0.002305
# 4 0.002537 -0.000599 -0.007519 0.038872 -0.012580 0.022459
# 5 0.005628 0.003733 0.044276 -0.012580 0.126483 -0.001318
# 6 0.006057 -0.000571 0.002305 0.022459 -0.001318 0.053761
#
#
# Mechanical properties :
#
#
# Convention : Reuss Voigt Hill
#
# Bulk Modulus (GPa) = 19.75874 41.92334 30.84104
# Shear Modulus (GPa) = 16.30662 29.27635 22.79148
#
# Velocity S-wave (km/s) = 2.86644 3.84078 3.38881
# Velocity P-wave (km/s) = 4.57288 6.38693 5.55446
#
# Compressibility (1/GPa) = 0.05061052
#
# Stress axis : x y z
#
# Youngs Moduli (GPa) = 50.71238 105.54263 31.81693
#
# Poissons Ratio (x) = 0.10420 0.06816
# Poissons Ratio (y) = 0.05007 0.05973
# Poissons Ratio (z) = 0.10863 0.19812
#
# Static dielectric constant tensor:
#      x y z
#    x 1.735940 0.016060 -0.039850 
#    y 0.016060 1.752540 -0.000930 
#    z -0.039850 -0.000930 1.748650 
# 
# From -- ./inp_files/186419.got.cif
#   From: 2010.05.17/outbox.cif.g08.bks.cpg/sg2_94_cif.got.tgz:186419.got - 2010.06.03 11:33:40.
