data_PCOD9075326
_publ_section_title
;
Structure prediction by ZEFSAII (Michael W. Deem and Ramdas Pophale) SiO2 
 PCOD9075326
Probable space group: P -1
;
_chemical_formula_sum "Si O2"
_cell_formula_units_Z 14
_cell_length_a 9.000000
_cell_length_b 9.000000
_cell_length_c 12.000000
_cell_angle_alpha 130.000000
_cell_angle_beta 120.000000
_cell_angle_gamma 60.000000
_cell_volume 621.029576
_symmetry_space_group_name_H-M "P -1"
_symmetry_group_IT_number 2
_symmetry_cell_setting 'triclinic'
loop_
_space_group_symop_operation_xyz
x,y,z
-x,-y,-z
loop_
_atom_site_type_symbol
_atom_site_label
_atom_site_fract_x
_atom_site_fract_y
_atom_site_fract_z
Si Si1 0.383810 0.023428 0.111109
Si Si2 0.209706 0.489859 0.573350
Si Si3 0.184343 0.426600 0.105220
Si Si4 0.252122 0.888775 0.660934
Si Si5 0.644937 0.964459 0.634508
Si Si6 0.455241 0.577543 0.893667
Si Si7 0.849638 0.157129 0.639674
O O1 0.244346 0.214682 0.092909
O O2 0.584307 0.050532 0.189841
O O3 0.382743 0.978881 0.220999
O O4 0.360777 0.814460 0.957541
O O5 0.242958 0.675214 0.604899
O O6 0.289363 0.275177 0.445349
O O7 0.320740 0.478716 0.726480
O O8 0.000000 0.500000 0.500000
O O9 0.352958 0.442158 0.101275
O O10 0.164910 0.609684 0.271232
O O11 0.000000 0.500000 0.000000
O O12 0.262399 0.889621 0.530117
O O13 0.057751 0.043111 0.672549
O O14 0.500000 0.000000 0.500000
O O15 0.774737 0.087022 0.690352
O O16 0.500000 0.500000 0.000000
#
# Coordination Sequence:
#
# PCOD9075326 Si02
#       7
#     2   2   2   2   2   2   2
#     4  12  26  46  75 106 145 194 240 299 367 432
#     4  12  26  46  73 106 144 191 243 296 359 436
#     4  12  27  46  71 103 147 191 252 297 363 430
#     4  11  24  44  74 101 146 185 245 291 368 429
#     4  12  24  43  71 107 143 182 240 297 361 431
#     4  12  28  48  75 107 149 192 241 301 375 436
#     4  11  24  43  69 107 140 188 238 302 354 438
#
# _framework density 22.543209999999998
#
# number of rings (size 3 to 8) (size 9 to 14) (size 15 to 20)
#    0.000    0.286    4.286    4.714    2.000    3.429 
#    0.000    2.143    0.000    0.000    0.000    0.000 
#    0.000    0.000    0.000    0.000    0.000    0.000 
#
# Total GULP energy -78093.015536 kJ/mol
# GULP energy per Si atom -5578.072538 kJ/mol
# Density = 2.249190 g / cm^3
# Si number density = 22.543210 Si / 1000 Ang^3
#
#
#
# Elastic Constant Matrix: (Units=GPa)
#
#
# Indices 1 2 3 4 5 6 
#
# 1 59.7275 14.7083 9.8680 -21.3617 6.0854 14.6247
# 2 14.7083 140.1464 4.2405 1.4753 -8.6586 7.5674
# 3 9.8680 4.2405 69.9615 -9.4298 9.1530 3.0710
# 4 -21.3617 1.4753 -9.4298 60.0293 4.5671 3.2281
# 5 6.0854 -8.6586 9.1530 4.5671 31.5293 -12.4426
# 6 14.6247 7.5674 3.0710 3.2281 -12.4426 40.8472
#
#
#
# Elastic Compliance Matrix: (Units=1/GPa)
#
#
# Indices 1 2 3 4 5 6 
#
# 1 0.026021 -0.002918 0.000282 0.011086 -0.012877 -0.013596
# 2 -0.002918 0.007650 -0.000768 -0.001658 0.003472 0.000874
# 3 0.000282 -0.000768 0.015768 0.003289 -0.006676 -0.003438
# 4 0.011086 -0.001658 0.003289 0.022417 -0.010274 -0.008811
# 5 -0.012877 0.003472 -0.006676 -0.010274 0.046222 0.019361
# 6 -0.013596 0.000874 -0.003438 -0.008811 0.019361 0.036040
#
#
# Mechanical properties :
#
#
# Convention : Reuss Voigt Hill
#
# Bulk Modulus (GPa) = 23.45689 36.38543 29.92116
# Shear Modulus (GPa) = 28.54965 42.54905 35.54935
#
# Velocity S-wave (km/s) = 3.56257 4.34919 3.97538
# Velocity P-wave (km/s) = 5.22976 6.43396 5.86286
#
# Compressibility (1/GPa) = 0.04263141
#
# Stress axis : x y z
#
# Youngs Moduli (GPa) = 38.43121 130.72572 63.41971
#
# Poissons Ratio (x) = 0.38140 -0.01791
# Poissons Ratio (y) = 0.11212 0.04872
# Poissons Ratio (z) = -0.01085 0.10042
#
# Static dielectric constant tensor:
#      x y z
#    x 6.924210 0.915570 -0.650030 
#    y 0.915570 1.935620 -0.086710 
#    z -0.650030 -0.086710 1.938090 
# 
# From -- ./inp_files/190626.got.cif
#   From: 2010.05.17/outbox.ucp.g08.bks.cvg/sg2_96_cif.got.tgz:190626.got - 2010.06.11 11:32:03.
