data_PCOD9075348
_publ_section_title
;
Structure prediction by ZEFSAII (Michael W. Deem and Ramdas Pophale) SiO2 
 PCOD9075348
Probable space group: P -1
;
_chemical_formula_sum "Si O2"
_cell_formula_units_Z 16
_cell_length_a 9.000000
_cell_length_b 15.000000
_cell_length_c 6.000000
_cell_angle_alpha 70.000000
_cell_angle_beta 100.000000
_cell_angle_gamma 90.000000
_cell_volume 748.042140
_symmetry_space_group_name_H-M "P -1"
_symmetry_group_IT_number 2
_symmetry_cell_setting 'triclinic'
loop_
_space_group_symop_operation_xyz
x,y,z
-x,-y,-z
loop_
_atom_site_type_symbol
_atom_site_label
_atom_site_fract_x
_atom_site_fract_y
_atom_site_fract_z
Si Si1 0.760351 0.880234 0.685637
Si Si2 0.729776 0.625127 0.440714
Si Si3 0.677166 0.966291 0.093912
Si Si4 0.383796 0.319895 0.140041
Si Si5 0.016557 0.714287 0.334399
Si Si6 0.105674 0.551361 0.161123
Si Si7 0.260220 0.697792 0.798758
Si Si8 0.901469 0.131615 0.103764
O O1 0.694213 0.914110 0.392321
O O2 0.715031 0.771894 0.796106
O O3 0.940212 0.893984 0.708611
O O4 0.711239 0.923833 0.884510
O O5 0.646342 0.632230 0.659116
O O6 0.824169 0.524174 0.579167
O O7 0.853821 0.704953 0.410340
O O8 0.652896 0.634334 0.162081
O O9 0.794704 0.048617 0.084902
O O10 0.500000 0.000000 0.000000
O O11 0.563678 0.294411 0.207990
O O12 0.019874 0.637157 0.200754
O O13 0.153050 0.690559 0.561294
O O14 0.045033 0.815321 0.150162
O O15 0.234005 0.603192 0.015524
O O16 0.000000 0.500000 0.000000
O O17 0.194790 0.789280 0.843056
#
# Coordination Sequence:
#
# PCOD9075348 Si02
#       8
#     2   2   2   2   2   2   2   2
#     4  12  26  48  74 105 145 187 240 287 353 425
#     4  12  25  46  72 100 143 189 243 289 357 422
#     4  12  28  47  75 109 147 185 230 296 359 422
#     4  12  28  46  71 105 148 190 233 299 362 421
#     4  11  24  44  74 101 140 191 243 291 352 424
#     4  11  24  44  72 105 139 188 245 300 348 420
#     4  11  27  44  72 104 144 188 238 296 360 418
#     4  11  26  46  74 106 142 189 242 290 349 430
#
# _framework density 21.389168999999999
#
# number of rings (size 3 to 8) (size 9 to 14) (size 15 to 20)
#    0.000    0.500    2.500    4.500   10.500    1.000 
#    0.000    0.000    0.000    0.000    0.000    0.000 
#    0.000    0.000    0.000    0.000    0.000    0.000 
#
# Total GULP energy -89292.442123 kJ/mol
# GULP energy per Si atom -5580.777633 kJ/mol
# Density = 2.134049 g / cm^3
# Si number density = 21.389169 Si / 1000 Ang^3
#
#
#
# Elastic Constant Matrix: (Units=GPa)
#
#
# Indices 1 2 3 4 5 6 
#
# 1 111.5002 -10.7538 19.4887 4.8939 4.9635 -15.7616
# 2 -10.7538 50.6746 10.3871 9.7132 -14.3957 -4.4709
# 3 19.4887 10.3871 178.8636 1.7841 9.6587 -12.2768
# 4 4.8939 9.7132 1.7841 37.8101 -0.0728 -2.7676
# 5 4.9635 -14.3957 9.6587 -0.0728 41.9485 5.9640
# 6 -15.7616 -4.4709 -12.2768 -2.7676 5.9640 26.1707
#
#
#
# Elastic Compliance Matrix: (Units=1/GPa)
#
#
# Indices 1 2 3 4 5 6 
#
# 1 0.010421 0.002984 -0.000798 -0.001607 -0.000946 0.006457
# 2 0.002984 0.024530 -0.001951 -0.006394 0.008142 0.002541
# 3 -0.000798 -0.001951 0.006094 0.000505 -0.002352 0.002634
# 4 -0.001607 -0.006394 0.000505 0.028395 -0.002314 0.001707
# 5 -0.000946 0.008142 -0.002352 -0.002314 0.028273 -0.006970
# 6 0.006457 0.002541 0.002634 0.001707 -0.006970 0.045538
#
#
# Mechanical properties :
#
#
# Convention : Reuss Voigt Hill
#
# Bulk Modulus (GPa) = 24.08815 42.14250 33.11533
# Shear Modulus (GPa) = 31.92434 42.64696 37.28565
#
# Velocity S-wave (km/s) = 3.86754 4.47011 4.17970
# Velocity P-wave (km/s) = 5.58839 6.81087 6.22969
#
# Compressibility (1/GPa) = 0.04151419
#
# Stress axis : x y z
#
# Youngs Moduli (GPa) = 95.95624 40.76698 164.09841
#
# Poissons Ratio (x) = -0.12166 0.13103
# Poissons Ratio (y) = -0.28635 0.32018
# Poissons Ratio (z) = 0.07662 0.07954
#
# Static dielectric constant tensor:
#      x y z
#    x 1.776040 -0.049470 -0.018950 
#    y -0.049470 1.807960 -0.012340 
#    z -0.018950 -0.012340 1.816200 
# 
# From -- ./inp_files/37580.got.cif
#   From: 2010.05.17/outbox.ucp.g08.bks.cvg/sg2_19_cif.got.tgz:37580.got - 2010.06.11 11:32:03.
