data_PCOD9075642
_publ_section_title
;
Structure prediction by ZEFSAII (Michael W. Deem and Ramdas Pophale) SiO2 
 PCOD9075642
Probable space group: P -1
;
_chemical_formula_sum "Si O2"
_cell_formula_units_Z 10
_cell_length_a 9.000000
_cell_length_b 9.000000
_cell_length_c 12.000000
_cell_angle_alpha 110.000000
_cell_angle_beta 60.000000
_cell_angle_gamma 150.000000
_cell_volume 411.490611
_symmetry_space_group_name_H-M "P -1"
_symmetry_group_IT_number 2
_symmetry_cell_setting 'triclinic'
loop_
_space_group_symop_operation_xyz
x,y,z
-x,-y,-z
loop_
_atom_site_type_symbol
_atom_site_label
_atom_site_fract_x
_atom_site_fract_y
_atom_site_fract_z
Si Si1 0.812183 0.301975 0.184659
Si Si2 0.790588 0.709436 0.696897
Si Si3 0.809073 0.077682 0.789668
Si Si4 0.525565 0.871743 0.373490
Si Si5 0.125174 0.254244 0.954589
O O1 0.966621 0.591316 0.244292
O O2 0.568261 0.164093 0.141992
O O3 0.566974 0.003762 0.277907
O O4 0.084973 0.385916 0.072142
O O5 0.718506 0.473703 0.612357
O O6 0.492282 0.504250 0.840824
O O7 0.828313 0.917367 0.679730
O O8 0.131621 0.946694 0.689258
O O9 0.920535 0.126284 0.885431
O O10 0.500000 0.000000 0.500000
O O11 0.000000 0.000000 0.000000
#
# Coordination Sequence:
#
# PCOD9075642 Si02
#       5
#     2   2   2   2   2
#     4  12  26  43  70 107 142 182 225 285 350 403
#     4  12  24  48  71 102 139 182 234 281 350 410
#     4  12  25  44  68 109 145 177 222 286 354 416
#     4  12  27  50  74  98 135 188 244 285 335 412
#     4  12  25  43  74 105 146 182 225 281 346 430
#
# _framework density 24.301891000000001
#
# number of rings (size 3 to 8) (size 9 to 14) (size 15 to 20)
#    0.000    0.000    6.000    3.000    2.800    1.600 
#    0.000    6.000    0.000    0.000    0.000    0.000 
#    0.000    0.000    0.000    0.000    0.000    0.000 
#
# Total GULP energy -55810.087712 kJ/mol
# GULP energy per Si atom -5581.008771 kJ/mol
# Density = 2.424658 g / cm^3
# Si number density = 24.301891 Si / 1000 Ang^3
#
#
#
# Elastic Constant Matrix: (Units=GPa)
#
#
# Indices 1 2 3 4 5 6 
#
# 1 154.7765 45.3185 22.2908 1.6252 -29.3306 -25.0509
# 2 45.3185 159.1371 -7.9369 22.7978 -12.3555 -34.3067
# 3 22.2908 -7.9369 51.2600 19.5224 -17.5149 -5.6719
# 4 1.6252 22.7978 19.5224 29.2460 -8.4186 -29.6327
# 5 -29.3306 -12.3555 -17.5149 -8.4186 19.6602 11.4067
# 6 -25.0509 -34.3067 -5.6719 -29.6327 11.4067 74.9141
#
#
#
# Elastic Compliance Matrix: (Units=1/GPa)
#
#
# Indices 1 2 3 4 5 6 
#
# 1 0.011992 -0.003969 -0.007824 0.018190 0.012188 0.006939
# 2 -0.003969 0.010059 0.011066 -0.016984 0.004931 -0.003352
# 3 -0.007824 0.011066 0.054665 -0.056342 0.031769 -0.020534
# 4 0.018190 -0.016984 -0.056342 0.129022 -0.005084 0.045848
# 5 0.012188 0.004931 0.031769 -0.005084 0.103513 -0.009033
# 6 0.006939 -0.003352 -0.020534 0.045848 -0.009033 0.032091
#
#
# Mechanical properties :
#
#
# Convention : Reuss Voigt Hill
#
# Bulk Modulus (GPa) = 13.28694 53.83539 33.56116
# Shear Modulus (GPa) = 13.59127 45.13082 29.36104
#
# Velocity S-wave (km/s) = 2.36745 4.31407 3.47966
# Velocity P-wave (km/s) = 3.59895 6.85681 5.47578
#
# Compressibility (1/GPa) = 0.07526190
#
# Stress axis : x y z
#
# Youngs Moduli (GPa) = 83.39133 99.40881 18.29321
#
# Poissons Ratio (x) = 0.39453 0.14313
# Poissons Ratio (y) = 0.33096 -0.20243
# Poissons Ratio (z) = 0.65249 -1.10006
#
# Static dielectric constant tensor:
#      x y z
#    x 1.914380 -0.041190 0.043250 
#    y -0.041190 2.031810 0.021810 
#    z 0.043250 0.021810 2.032270 
# 
# From -- ./inp_files/39151.got.cif
#   From: 2010.05.17/outbox.ucp.g08.bks.cvg/sg2_20_cif.got.tgz:39151.got - 2010.06.11 11:32:03.
