data_PCOD9075796
_publ_section_title
;
Structure prediction by ZEFSAII (Michael W. Deem and Ramdas Pophale) SiO2 
 PCOD9075796
Probable space group: P -1
;
_chemical_formula_sum "Si O2"
_cell_formula_units_Z 12
_cell_length_a 14.931373
_cell_length_b 13.374212
_cell_length_c 11.401119
_cell_angle_alpha 34.744808
_cell_angle_beta 154.029600
_cell_angle_gamma 152.854186
_cell_volume 452.197192
_symmetry_space_group_name_H-M "P -1"
_symmetry_group_IT_number 2
_symmetry_cell_setting 'triclinic'
loop_
_space_group_symop_operation_xyz
x,y,z
-x,-y,-z
loop_
_atom_site_type_symbol
_atom_site_label
_atom_site_fract_x
_atom_site_fract_y
_atom_site_fract_z
Si Si1 0.005604 0.439505 0.243338
Si Si2 0.734974 0.767922 0.932370
Si Si3 0.981722 0.969744 0.369818
Si Si4 0.751594 0.385187 0.401322
Si Si5 0.529218 0.741020 0.478324
Si Si6 0.585678 0.181589 0.159513
O O1 0.018588 0.235530 0.463391
O O2 0.128358 0.602575 0.343881
O O3 0.217719 0.578435 0.254591
O O4 0.703989 0.311994 0.047392
O O5 0.550684 0.804613 0.747039
O O6 0.597531 0.659391 0.751005
O O7 0.765308 0.603545 0.194810
O O8 0.000000 0.000000 0.000000
O O9 0.702661 0.902969 0.076067
O O10 0.000000 0.000000 0.500000
O O11 0.243963 0.186988 0.414939
O O12 0.776343 0.328704 0.351627
O O13 0.579808 0.969534 0.349451
#
# Coordination Sequence:
#
# PCOD9075796 Si02
#       6
#     2   2   2   2   2   2
#     4  10  23  41  61  93 127 157 200 246 295 361
#     4  10  18  32  55  85 124 162 196 235 286 354
#     4  11  25  45  64  84 118 162 206 255 306 352
#     4  10  20  35  59  90 127 162 190 234 298 363
#     4  10  23  39  60  93 122 153 205 252 294 358
#     4  11  22  39  63  91 122 160 199 245 303 358
#
# _framework density 26.537092999999999
#
# number of rings (size 3 to 8) (size 9 to 14) (size 15 to 20)
#    0.000    1.667    0.000    6.500    0.000   10.000 
#    0.000    1.667    0.000    0.000    0.000    0.000 
#    0.000    0.000    0.000    0.000    0.000    0.000 
#
# Total GULP energy -66929.370116 kJ/mol
# GULP energy per Si atom -5577.447510 kJ/mol
# Density = 2.647669 g / cm^3
# Si number density = 26.537093 Si / 1000 Ang^3
#
#
#
# Elastic Constant Matrix: (Units=GPa)
#
#
# Indices 1 2 3 4 5 6 
#
# 1 128.9503 9.0972 -4.1228 9.9409 9.8854 25.2260
# 2 9.0972 80.5032 -19.4409 0.6278 -3.5432 6.1345
# 3 -4.1228 -19.4409 -74.3487 5.8409 -16.3959 -136.2945
# 4 9.9409 0.6278 5.8409 25.8240 -5.1600 -12.7954
# 5 9.8854 -3.5432 -16.3959 -5.1600 34.0687 -14.1066
# 6 25.2260 6.1345 -136.2945 -12.7954 -14.1066 -61.6718
#
#
#
# Elastic Compliance Matrix: (Units=1/GPa)
#
#
# Indices 1 2 3 4 5 6 
#
# 1 0.008911 -0.000113 0.003371 -0.005723 -0.002677 -0.002015
# 2 -0.000113 0.013263 0.002186 -0.002239 0.000771 -0.003270
# 3 0.003371 0.002186 0.007274 -0.009500 -0.003534 -0.011701
# 4 -0.005723 -0.002239 -0.009500 0.047937 0.006970 0.006891
# 5 -0.002677 0.000771 -0.003534 0.006970 0.029028 -0.001295
# 6 -0.002015 -0.003270 -0.011701 0.006891 -0.001295 0.007361
#
#
# Mechanical properties :
#
#
# Convention : Reuss Voigt Hill
#
# Bulk Modulus (GPa) = 24.79125 11.79685 18.29405
# Shear Modulus (GPa) = 42.98014 9.61559 26.29787
#
# Velocity S-wave (km/s) = 4.02882 1.90560 3.15141
# Velocity P-wave (km/s) = 5.56815 3.04907 4.48894
#
# Compressibility (1/GPa) = 0.04033681
#
# Stress axis : x y z
#
# Youngs Moduli (GPa) = 112.21653 75.39742 137.46815
#
# Poissons Ratio (x) = 0.00849 -0.46335
# Poissons Ratio (y) = 0.01264 -0.30051
# Poissons Ratio (z) = -0.37824 -0.16482
#
# Static dielectric constant tensor:
#      x y z
#    x 2.196460 0.102190 0.026500 
#    y 0.102190 2.120960 0.134920 
#    z 0.026500 0.134920 2.228740 
# 
# From -- ./inp_files/453666.got.cif
#   From: 2010.05.17/outbox.cif.g08.bks.cpg/sg2_227_cif.got.tgz:453666.got - 2010.06.03 11:33:40.
