data_PCOD9075671
_publ_section_title
;
Structure prediction by ZEFSAII (Michael W. Deem and Ramdas Pophale) SiO2 
 PCOD9075671
Probable space group: P -1
;
_chemical_formula_sum "Si O2"
_cell_formula_units_Z 14
_cell_length_a 18.000000
_cell_length_b 9.000000
_cell_length_c 9.000000
_cell_angle_alpha 150.000000
_cell_angle_beta 60.000000
_cell_angle_gamma 110.000000
_cell_volume 617.235917
_symmetry_space_group_name_H-M "P -1"
_symmetry_group_IT_number 2
_symmetry_cell_setting 'triclinic'
loop_
_space_group_symop_operation_xyz
x,y,z
-x,-y,-z
loop_
_atom_site_type_symbol
_atom_site_label
_atom_site_fract_x
_atom_site_fract_y
_atom_site_fract_z
Si Si1 0.583246 0.741329 0.746173
Si Si2 0.707461 0.217800 0.043494
Si Si3 0.813336 0.400087 0.830142
Si Si4 0.242030 0.973728 0.692639
Si Si5 0.010744 0.445446 0.765557
Si Si6 0.554302 0.267463 0.631950
Si Si7 0.132159 0.905535 0.016237
O O1 0.629274 0.515849 0.375605
O O2 0.558689 0.495263 0.678401
O O3 0.500000 0.000000 0.000000
O O4 0.658756 0.936421 0.880918
O O5 0.767321 0.214612 0.834453
O O6 0.777074 0.261403 0.140058
O O7 0.795442 0.273183 0.577571
O O8 0.915019 0.411225 0.771729
O O9 0.762101 0.746752 0.172451
O O10 0.342115 0.860482 0.549233
O O11 0.170977 0.056732 0.968413
O O12 0.080607 0.142856 0.391981
O O13 0.000000 0.500000 0.000000
O O14 0.060322 0.703453 0.875878
O O15 0.500000 0.000000 0.500000
O O16 0.500000 0.500000 0.000000
#
# Coordination Sequence:
#
# PCOD9075671 Si02
#       7
#     2   2   2   2   2   2   2
#     4  12  28  48  78 113 150 195 261 314 378 456
#     4  12  26  48  76 109 150 202 251 310 385 448
#     4  12  28  46  75 111 152 198 255 317 376 454
#     4  12  28  49  72 111 153 199 252 309 394 456
#     4  12  26  46  76 113 147 197 260 315 378 443
#     4  12  28  49  78 109 153 202 250 315 386 457
#     4  12  26  47  79 102 154 202 249 315 378 459
#
# _framework density 22.681764999999999
#
# number of rings (size 3 to 8) (size 9 to 14) (size 15 to 20)
#    0.000    0.000    2.857    6.000   10.000    3.429 
#    0.000    0.000    0.000    0.000    0.000    0.000 
#    0.000    0.000    0.000    0.000    0.000    0.000 
#
# Total GULP energy -78085.591220 kJ/mol
# GULP energy per Si atom -5577.542230 kJ/mol
# Density = 2.263014 g / cm^3
# Si number density = 22.681765 Si / 1000 Ang^3
#
#
#
# Elastic Constant Matrix: (Units=GPa)
#
#
# Indices 1 2 3 4 5 6 
#
# 1 157.4421 63.5575 43.1903 3.7444 -13.9620 24.5117
# 2 63.5575 165.9245 25.8867 3.3469 -5.1307 34.1995
# 3 43.1903 25.8867 122.9066 8.8641 -7.6678 15.5960
# 4 3.7444 3.3469 8.8641 47.9388 7.9450 -5.3659
# 5 -13.9620 -5.1307 -7.6678 7.9450 39.3761 7.5600
# 6 24.5117 34.1995 15.5960 -5.3659 7.5600 36.7598
#
#
#
# Elastic Compliance Matrix: (Units=1/GPa)
#
#
# Indices 1 2 3 4 5 6 
#
# 1 0.008632 -0.002084 -0.001793 -0.001209 0.003441 -0.003941
# 2 -0.002084 0.008365 0.000112 -0.001576 0.002053 -0.007092
# 3 -0.001793 0.000112 0.009563 -0.002476 0.002477 -0.003837
# 4 -0.001209 -0.001576 -0.002476 0.023696 -0.007495 0.008323
# 5 0.003441 0.002053 0.002477 -0.007495 0.031334 -0.012793
# 6 -0.003941 -0.007092 -0.003837 0.008323 -0.012793 0.041903
#
#
# Mechanical properties :
#
#
# Convention : Reuss Voigt Hill
#
# Bulk Modulus (GPa) = 52.54670 79.06024 65.80347
# Shear Modulus (GPa) = 36.39940 45.72420 41.06180
#
# Velocity S-wave (km/s) = 4.01033 4.49475 4.25943
# Velocity P-wave (km/s) = 6.68288 7.86569 7.29828
#
# Compressibility (1/GPa) = 0.01903069
#
# Stress axis : x y z
#
# Youngs Moduli (GPa) = 115.85038 119.55109 104.57415
#
# Poissons Ratio (x) = 0.24912 0.18746
# Poissons Ratio (y) = 0.24141 -0.01173
# Poissons Ratio (z) = 0.20767 -0.01341
#
# Static dielectric constant tensor:
#      x y z
#    x 1.848980 -0.003310 0.081350 
#    y -0.003310 0.742080 -0.210150 
#    z 0.081350 -0.210150 1.879470 
# 
# From -- ./inp_files/329698.got.cif
#   From: 2010.05.17/outbox.ucp.g08.bks.cvg/sg2_165_cif.got.tgz:329698.got - 2010.06.11 11:32:03.
