data_PCOD9075151
_publ_section_title
;
Structure prediction by ZEFSAII (Michael W. Deem and Ramdas Pophale) SiO2 
 PCOD9075151
Probable space group: P -1
;
_chemical_formula_sum "Si O2"
_cell_formula_units_Z 16
_cell_length_a 9.000000
_cell_length_b 15.000000
_cell_length_c 30.000000
_cell_angle_alpha 20.000000
_cell_angle_beta 140.000000
_cell_angle_gamma 130.000000
_cell_volume 833.890543
_symmetry_space_group_name_H-M "P -1"
_symmetry_group_IT_number 2
_symmetry_cell_setting 'triclinic'
loop_
_space_group_symop_operation_xyz
x,y,z
-x,-y,-z
loop_
_atom_site_type_symbol
_atom_site_label
_atom_site_fract_x
_atom_site_fract_y
_atom_site_fract_z
Si Si1 0.889073 0.766070 0.699571
Si Si2 0.104227 0.261386 0.750529
Si Si3 0.397471 0.697311 0.027305
Si Si4 0.212928 0.750288 0.228444
Si Si5 0.567492 0.390742 0.302199
Si Si6 0.214191 0.354131 0.579969
Si Si7 0.704516 0.300359 0.103452
Si Si8 0.900256 0.669354 0.118193
O O1 0.677682 0.628148 0.721619
O O2 0.039524 0.729123 0.798131
O O3 0.067150 0.590807 0.783955
O O4 0.767418 0.085303 0.504337
O O5 0.320469 0.378597 0.761677
O O6 0.939810 0.246076 0.763046
O O7 0.917303 0.488744 0.568386
O O8 0.212865 0.972735 0.881817
O O9 0.489175 0.461250 0.198677
O O10 0.643967 0.759543 0.043182
O O11 0.317875 0.625860 0.991274
O O12 0.512583 0.626137 0.359119
O O13 0.117469 0.603215 0.235484
O O14 0.121951 0.069863 0.040758
O O15 0.000000 0.500000 0.500000
O O16 0.283084 0.020638 0.746281
O O17 0.500000 0.500000 0.000000
#
# Coordination Sequence:
#
# PCOD9075151 Si02
#       8
#     2   2   2   2   2   2   2   2
#     4  11  25  45  67  94 137 180 231 268 343 405
#     4  12  24  43  70 101 137 171 228 285 341 401
#     4  12  24  44  72 100 134 177 229 285 339 398
#     4  11  24  41  68 106 133 173 220 285 343 396
#     4  11  26  43  69 100 131 180 224 288 333 402
#     4  12  24  44  71 100 137 176 229 280 342 397
#     4  12  24  45  69  96 138 184 221 276 340 409
#     4  11  23  41  70  97 132 177 224 278 337 406
#
# _framework density 19.187169999999998
#
# number of rings (size 3 to 8) (size 9 to 14) (size 15 to 20)
#    0.000    0.500    6.250    1.500    5.250    1.000 
#    2.250    0.000    0.000    0.000    0.000    0.000 
#    0.000    0.000    0.000    0.000    0.000    0.000 
#
# Total GULP energy -89158.762388 kJ/mol
# GULP energy per Si atom -5572.422649 kJ/mol
# Density = 1.914350 g / cm^3
# Si number density = 19.187170 Si / 1000 Ang^3
#
#
#
# Elastic Constant Matrix: (Units=GPa)
#
#
# Indices 1 2 3 4 5 6 
#
# 1 138.2170 41.9437 47.8306 5.4477 -4.1798 -13.2177
# 2 41.9437 122.1716 34.8712 26.9047 11.3673 -14.0623
# 3 47.8306 34.8712 95.3818 18.0261 -5.7633 -15.7144
# 4 5.4477 26.9047 18.0261 43.7384 -8.0696 -0.5645
# 5 -4.1798 11.3673 -5.7633 -8.0696 41.6275 6.5941
# 6 -13.2177 -14.0623 -15.7144 -0.5645 6.5941 41.9776
#
#
#
# Elastic Compliance Matrix: (Units=1/GPa)
#
#
# Indices 1 2 3 4 5 6 
#
# 1 0.009451 -0.002739 -0.004057 0.002472 0.001563 0.000327
# 2 -0.002739 0.012136 -0.001409 -0.007569 -0.005803 0.003485
# 3 -0.004057 -0.001409 0.014490 -0.004450 0.000562 0.003527
# 4 0.002472 -0.007569 -0.004450 0.030521 0.008299 -0.004316
# 5 0.001563 -0.005803 0.000562 0.008299 0.028335 -0.005581
# 6 0.000327 0.003485 0.003527 -0.004316 -0.005581 0.027232
#
#
# Mechanical properties :
#
#
# Convention : Reuss Voigt Hill
#
# Bulk Modulus (GPa) = 50.84810 67.22905 59.03857
# Shear Modulus (GPa) = 34.45183 40.87702 37.66442
#
# Velocity S-wave (km/s) = 4.24201 4.62067 4.43538
# Velocity P-wave (km/s) = 7.10996 7.97384 7.55426
#
# Compressibility (1/GPa) = 0.01966642
#
# Stress axis : x y z
#
# Youngs Moduli (GPa) = 105.80647 82.40129 69.01367
#
# Poissons Ratio (x) = 0.22569 0.27999
# Poissons Ratio (y) = 0.28980 0.09726
# Poissons Ratio (z) = 0.42925 0.11613
#
# Static dielectric constant tensor:
#      x y z
#    x 1.693990 0.004290 -0.010550 
#    y 0.004290 1.712520 0.011740 
#    z -0.010550 0.011740 1.684320 
# 
# From -- ./inp_files/622594.got.cif
#   From: 2010.05.17/outbox.ucp.g08.bks.cvg/sg2_312_cif.got.tgz:622594.got - 2010.06.11 11:32:03.
