data_PCOD9075877
_publ_section_title
;
Structure prediction by ZEFSAII (Michael W. Deem and Ramdas Pophale) SiO2 
 PCOD9075877
Probable space group: P -1
;
_chemical_formula_sum "Si O2"
_cell_formula_units_Z 14
_cell_length_a 15.520121
_cell_length_b 10.958729
_cell_length_c 8.118163
_cell_angle_alpha 122.401169
_cell_angle_beta 138.966417
_cell_angle_gamma 33.911368
_cell_volume 490.157608
_symmetry_space_group_name_H-M "P -1"
_symmetry_group_IT_number 2
_symmetry_cell_setting 'triclinic'
loop_
_space_group_symop_operation_xyz
x,y,z
-x,-y,-z
loop_
_atom_site_type_symbol
_atom_site_label
_atom_site_fract_x
_atom_site_fract_y
_atom_site_fract_z
Si Si1 0.482862 0.342853 0.995934
Si Si2 0.697447 0.738885 0.126973
Si Si3 0.713753 0.603739 0.572913
Si Si4 0.102369 0.310514 0.284656
Si Si5 0.930399 0.891765 0.315702
Si Si6 0.066367 0.070497 0.288617
Si Si7 0.359104 0.723310 0.249641
O O1 0.503170 0.488582 0.191266
O O2 0.697055 0.094534 0.066136
O O3 0.388006 0.346875 0.020353
O O4 0.329522 0.434752 0.695172
O O5 0.797492 0.708336 0.418416
O O6 0.874733 0.571298 0.127849
O O7 0.500000 0.000000 0.000000
O O8 0.764122 0.728603 0.696143
O O9 0.502426 0.746186 0.464813
O O10 0.915778 0.342211 0.729865
O O11 0.074473 0.169960 0.211646
O O12 0.913752 0.862490 0.463616
O O13 0.000000 0.000000 0.500000
O O14 0.269405 0.800875 0.361534
O O15 0.859483 0.150852 0.053699
#
# Coordination Sequence:
#
# PCOD9075877 Si02
#       7
#     2   2   2   2   2   2   2
#     4  11  20  36  62  86 116 155 193 245 292 342
#     4  10  18  32  56  86 114 146 193 243 292 337
#     4  11  22  40  61  89 120 150 199 246 293 340
#     4  10  20  36  58  83 118 151 193 244 282 346
#     4  12  22  36  63  92 118 150 198 247 292 349
#     4  11  23  40  60  89 119 158 201 231 295 358
#     4  11  22  39  60  84 123 161 189 241 295 347
#
# _framework density 28.562242999999999
#
# number of rings (size 3 to 8) (size 9 to 14) (size 15 to 20)
#    0.000    1.143    4.286    4.714    0.000    1.143 
#    0.000    0.000    0.000    0.000    0.000    9.000 
#    0.000    0.000    0.000    0.000    0.000    0.000 
#
# Total GULP energy -78227.770725 kJ/mol
# GULP energy per Si atom -5587.697909 kJ/mol
# Density = 2.849723 g / cm^3
# Si number density = 28.562243 Si / 1000 Ang^3
#
#
#
# Elastic Constant Matrix: (Units=GPa)
#
#
# Indices 1 2 3 4 5 6 
#
# 1 124.2532 30.0688 24.6781 0.0018 41.2486 10.9996
# 2 30.0688 113.8366 37.3172 -5.0729 14.2278 -5.3978
# 3 24.6781 37.3172 106.2612 -17.1691 34.3378 -2.5994
# 4 0.0018 -5.0729 -17.1691 49.6042 -4.1024 19.7105
# 5 41.2486 14.2278 34.3378 -4.1024 48.0063 6.0504
# 6 10.9996 -5.3978 -2.5994 19.7105 6.0504 50.3371
#
#
#
# Elastic Compliance Matrix: (Units=1/GPa)
#
#
# Indices 1 2 3 4 5 6 
#
# 1 0.011913 -0.002378 0.001361 -0.000012 -0.010311 -0.001544
# 2 -0.002378 0.010482 -0.003611 -0.000702 0.001260 0.001580
# 3 0.001361 -0.003611 0.014163 0.003821 -0.009870 -0.000263
# 4 -0.000012 -0.000702 0.003821 0.025438 0.000912 -0.009946
# 5 -0.010311 0.001260 -0.009870 0.000912 0.036820 -0.002904
# 6 -0.001544 0.001580 -0.000263 -0.009946 -0.002904 0.024603
#
#
# Mechanical properties :
#
#
# Convention : Reuss Voigt Hill
#
# Bulk Modulus (GPa) = 36.62667 58.71993 47.67330
# Shear Modulus (GPa) = 35.26675 46.40863 40.83769
#
# Velocity S-wave (km/s) = 3.51769 4.03528 3.78534
# Velocity P-wave (km/s) = 5.41758 6.50497 5.98601
#
# Compressibility (1/GPa) = 0.02730251
#
# Stress axis : x y z
#
# Youngs Moduli (GPa) = 83.94296 95.39725 70.60524
#
# Poissons Ratio (x) = 0.22683 -0.09607
# Poissons Ratio (y) = 0.19959 0.25495
# Poissons Ratio (z) = -0.11421 0.34447
#
# Static dielectric constant tensor:
#      x y z
#    x 2.306440 0.159630 -0.059540 
#    y 0.159630 2.369170 -0.051370 
#    z -0.059540 -0.051370 2.179670 
# 
# From -- ./inp_files/390138.got.cif
#   From: 2010.05.17/outbox.cif.g08.bks.cpg/sg2_196_cif.got.tgz:390138.got - 2010.06.03 11:33:40.
