data_PCOD9075704
_publ_section_title
;
Structure prediction by ZEFSAII (Michael W. Deem and Ramdas Pophale) SiO2 
 PCOD9075704
Probable space group: P -1
;
_chemical_formula_sum "Si O2"
_cell_formula_units_Z 16
_cell_length_a 18.887949
_cell_length_b 11.600892
_cell_length_c 7.869837
_cell_angle_alpha 95.839622
_cell_angle_beta 50.531147
_cell_angle_gamma 134.330958
_cell_volume 746.995622
_symmetry_space_group_name_H-M "P -1"
_symmetry_group_IT_number 2
_symmetry_cell_setting 'triclinic'
loop_
_space_group_symop_operation_xyz
x,y,z
-x,-y,-z
loop_
_atom_site_type_symbol
_atom_site_label
_atom_site_fract_x
_atom_site_fract_y
_atom_site_fract_z
Si Si1 0.987207 0.978858 0.765993
Si Si2 0.240600 0.781337 0.817733
Si Si3 0.319030 0.247882 0.931136
Si Si4 0.454296 0.297218 0.384070
Si Si5 0.243650 0.040925 0.336946
Si Si6 0.943876 0.326018 0.247695
Si Si7 0.154859 0.329130 0.781556
Si Si8 0.450595 0.767376 0.502187
O O1 0.116674 0.013057 0.552131
O O2 0.080115 0.193370 0.708232
O O3 0.857160 0.876714 0.808523
O O4 0.871302 0.803150 0.064880
O O5 0.183464 0.766979 0.717269
O O6 0.350266 0.780814 0.636238
O O7 0.360600 0.996151 0.760455
O O8 0.071258 0.561719 0.125074
O O9 0.342552 0.215011 0.704620
O O10 0.446920 0.484913 0.781350
O O11 0.331869 0.167959 0.048815
O O12 0.359295 0.161700 0.342217
O O13 0.560840 0.304500 0.303663
O O14 0.144626 0.818320 0.474174
O O15 0.047217 0.326677 0.007009
O O16 0.342293 0.564251 0.526334
#
# Coordination Sequence:
#
# PCOD9075704 Si02
#       8
#     2   2   2   2   2   2   2   2
#     4  10  19  33  52  82 115 148 185 225 276 341
#     4   9  18  31  54  85 106 145 201 237 282 331
#     4  11  23  37  57  85 120 155 186 225 281 347
#     4  11  22  37  57  85 120 154 186 226 281 346
#     4  11  22  37  58  86 119 151 187 232 281 340
#     4   9  17  32  54  83 111 145 194 242 278 328
#     4   9  17  30  53  81 114 148 183 228 279 333
#     4  10  18  32  54  83 110 148 193 232 282 337
#
# _framework density 21.419134
#
# number of rings (size 3 to 8) (size 9 to 14) (size 15 to 20)
#    0.000    2.000    2.500    3.000    1.750    0.000 
#    0.000    0.000    0.000    1.500    0.000    0.000 
#    0.000    0.000    0.000    0.000    0.000    0.000 
#
# Total GULP energy -89175.899804 kJ/mol
# GULP energy per Si atom -5573.493738 kJ/mol
# Density = 2.137038 g / cm^3
# Si number density = 21.419134 Si / 1000 Ang^3
#
#
#
# Elastic Constant Matrix: (Units=GPa)
#
#
# Indices 1 2 3 4 5 6 
#
# 1 129.5232 26.5415 52.7635 -18.4369 11.1347 -5.3586
# 2 26.5415 72.4710 43.9826 -33.7356 4.3341 -17.1321
# 3 52.7635 43.9826 89.7486 -23.2612 4.6833 -2.8238
# 4 -18.4369 -33.7356 -23.2612 27.3740 0.6447 6.0216
# 5 11.1347 4.3341 4.6833 0.6447 32.7675 -7.8666
# 6 -5.3586 -17.1321 -2.8238 6.0216 -7.8666 19.3688
#
#
#
# Elastic Compliance Matrix: (Units=1/GPa)
#
#
# Indices 1 2 3 4 5 6 
#
# 1 0.010681 0.002730 -0.006109 0.005041 -0.002790 0.001779
# 2 0.002730 0.046731 -0.012589 0.042761 0.000356 0.027105
# 3 -0.006109 -0.012589 0.020766 0.000402 -0.001792 -0.010650
# 4 0.005041 0.042761 0.000402 0.091406 -0.007333 0.007881
# 5 -0.002790 0.000356 -0.001792 -0.007333 0.035672 0.016050
# 6 0.001779 0.027105 -0.010650 0.007881 0.016050 0.078612
#
#
# Mechanical properties :
#
#
# Convention : Reuss Voigt Hill
#
# Bulk Modulus (GPa) = 21.62560 59.81308 40.71934
# Shear Modulus (GPa) = 15.09583 27.13242 21.11412
#
# Velocity S-wave (km/s) = 2.65765 3.56299 3.14309
# Velocity P-wave (km/s) = 4.41993 6.70166 5.67662
#
# Compressibility (1/GPa) = 0.04624149
#
# Stress axis : x y z
#
# Youngs Moduli (GPa) = 93.62588 21.39913 48.15661
#
# Poissons Ratio (x) = -0.05842 0.29419
# Poissons Ratio (y) = -0.25559 0.60624
# Poissons Ratio (z) = 0.57196 0.26939
#
# Static dielectric constant tensor:
#      x y z
#    x 1.792920 0.006950 0.003700 
#    y 0.006950 1.784630 0.002460 
#    z 0.003700 0.002460 1.850080 
# 
# From -- ./inp_files/258458.got.cif
#   From: 2010.05.17/outbox.cif.g08.bks.cpg/sg2_130_cif.got.tgz:258458.got - 2010.06.03 11:33:40.
