data_PCOD9075881
_publ_section_title
;
Structure prediction by ZEFSAII (Michael W. Deem and Ramdas Pophale) SiO2 
 PCOD9075881
Probable space group: P -1
;
_chemical_formula_sum "Si O2"
_cell_formula_units_Z 16
_cell_length_a 14.725664
_cell_length_b 11.311450
_cell_length_c 11.452479
_cell_angle_alpha 54.633958
_cell_angle_beta 61.765137
_cell_angle_gamma 29.436957
_cell_volume 762.241083
_symmetry_space_group_name_H-M "P -1"
_symmetry_group_IT_number 2
_symmetry_cell_setting 'triclinic'
loop_
_space_group_symop_operation_xyz
x,y,z
-x,-y,-z
loop_
_atom_site_type_symbol
_atom_site_label
_atom_site_fract_x
_atom_site_fract_y
_atom_site_fract_z
Si Si1 0.849826 0.618400 0.686168
Si Si2 0.951671 0.475531 0.161079
Si Si3 0.263437 0.614529 0.389297
Si Si4 0.363788 0.358156 0.722838
Si Si5 0.279661 0.889114 0.326506
Si Si6 0.810281 0.904123 0.348219
Si Si7 0.459025 0.181939 0.333472
Si Si8 0.183053 0.844693 0.650054
O O1 0.807709 0.809153 0.522685
O O2 0.660721 0.748065 0.737414
O O3 0.965388 0.531332 0.777338
O O4 0.987102 0.357802 0.675869
O O5 0.737731 0.676794 0.182973
O O6 0.075794 0.185126 0.255404
O O7 0.000000 0.500000 0.000000
O O8 0.325779 0.453051 0.558541
O O9 0.333586 0.697627 0.314570
O O10 0.342731 0.437047 0.331599
O O11 0.040223 0.884653 0.375578
O O12 0.579084 0.141215 0.738953
O O13 0.259617 0.593709 0.737360
O O14 0.269081 0.823516 0.496064
O O15 0.658715 0.018860 0.285809
O O16 0.767285 0.117092 0.290240
O O17 0.500000 0.000000 0.500000
#
# Coordination Sequence:
#
# PCOD9075881 Si02
#       8
#     2   2   2   2   2   2   2   2
#     4  10  21  35  52  80 117 151 186 229 286 348
#     4  12  26  42  57  80 117 163 205 238 271 332
#     4  11  18  34  59  92 121 148 181 235 310 352
#     4  11  22  35  59  84 117 154 189 241 291 346
#     4  11  21  36  59  85 117 153 193 242 287 345
#     4  10  18  32  56  86 117 143 176 233 299 353
#     4  10  21  30  53  88 122 151 171 225 300 362
#     4  11  17  35  59  91 120 145 180 240 308 350
#
# _framework density 20.990732999999999
#
# number of rings (size 3 to 8) (size 9 to 14) (size 15 to 20)
#    0.000    1.250    5.000    3.750    5.250    0.500 
#    0.000    0.000    0.000    3.000    0.000    3.500 
#    0.000    0.000    0.000    0.000    0.000    0.000 
#
# Total GULP energy -89334.174576 kJ/mol
# GULP energy per Si atom -5583.385911 kJ/mol
# Density = 2.094296 g / cm^3
# Si number density = 20.990733 Si / 1000 Ang^3
#
#
#
# Elastic Constant Matrix: (Units=GPa)
#
#
# Indices 1 2 3 4 5 6 
#
# 1 150.7708 16.9790 16.2027 9.6391 2.5901 -20.2003
# 2 16.9790 52.8051 -20.5162 -2.9025 6.4144 -10.5978
# 3 16.2027 -20.5162 10.1574 13.5364 6.2333 -1.6983
# 4 9.6391 -2.9025 13.5364 7.9498 -1.3611 -7.2592
# 5 2.5901 6.4144 6.2333 -1.3611 4.7305 1.9384
# 6 -20.2003 -10.5978 -1.6983 -7.2592 1.9384 53.2226
#
#
#
# Elastic Compliance Matrix: (Units=1/GPa)
#
#
# Indices 1 2 3 4 5 6 
#
# 1 0.007765 -0.002104 0.000162 -0.010104 -0.005068 0.001340
# 2 -0.002104 0.017759 -0.013329 0.039097 0.002793 0.007543
# 3 0.000162 -0.013329 -0.021960 0.042803 0.059076 0.000393
# 4 -0.010104 0.039097 0.042803 0.082366 -0.088283 0.019766
# 5 -0.005068 0.002793 0.059076 -0.088283 0.113552 -0.015659
# 6 0.001340 0.007543 0.000393 0.019766 -0.015659 0.024078
#
#
# Mechanical properties :
#
#
# Convention : Reuss Voigt Hill
#
# Bulk Modulus (GPa) = -37.06679 26.56268 -5.25206
# Shear Modulus (GPa) = 20.39915 26.58510 23.49212
#
# Velocity S-wave (km/s) = 3.12078 3.56268 3.34902
# Velocity P-wave (km/s) = 2.17055 5.44109 3.52804
#
# Compressibility (1/GPa) = -0.02697833
#
# Stress axis : x y z
#
# Youngs Moduli (GPa) = 128.78911 56.30859 -45.53648
#
# Poissons Ratio (x) = 0.11850 0.00739
# Poissons Ratio (y) = 0.27104 -0.60695
# Poissons Ratio (z) = -0.02091 0.75052
#
# Static dielectric constant tensor:
#      x y z
#    x 1.846860 0.005840 -0.032410 
#    y 0.005840 1.793830 -0.021590 
#    z -0.032410 -0.021590 1.725210 
# 
# From -- ./inp_files/432272.got.cif
#   From: 2010.05.17/outbox.cif.g08.bks.cpg/sg2_217_cif.got.tgz:432272.got - 2010.06.03 11:33:40.
