data_PCOD9075689
_publ_section_title
;
Structure prediction by ZEFSAII (Michael W. Deem and Ramdas Pophale) SiO2 
 PCOD9075689
Probable space group: P -1
;
_chemical_formula_sum "Si O2"
_cell_formula_units_Z 16
_cell_length_a 18.841136
_cell_length_b 11.981821
_cell_length_c 9.392516
_cell_angle_alpha 58.344355
_cell_angle_beta 120.478288
_cell_angle_gamma 154.385056
_cell_volume 776.961757
_symmetry_space_group_name_H-M "P -1"
_symmetry_group_IT_number 2
_symmetry_cell_setting 'triclinic'
loop_
_space_group_symop_operation_xyz
x,y,z
-x,-y,-z
loop_
_atom_site_type_symbol
_atom_site_label
_atom_site_fract_x
_atom_site_fract_y
_atom_site_fract_z
Si Si1 0.217077 0.322313 0.449433
Si Si2 0.992275 0.964920 0.218052
Si Si3 0.688316 0.256031 0.206952
Si Si4 0.442279 0.409013 0.662623
Si Si5 0.956231 0.166512 0.862220
Si Si6 0.653675 0.382474 0.333446
Si Si7 0.396335 0.245711 0.150864
Si Si8 0.466538 0.746209 0.166529
O O1 0.273852 0.257661 0.607953
O O2 0.327734 0.510632 0.295950
O O3 0.018972 0.132959 0.045237
O O4 0.043198 0.062893 0.365872
O O5 0.083190 0.966173 0.236894
O O6 0.722071 0.490492 0.492799
O O7 0.800308 0.014874 0.884655
O O8 0.885775 0.524653 0.209746
O O9 0.649072 0.237814 0.343906
O O10 0.601378 0.008899 0.221192
O O11 0.610786 0.266436 0.023848
O O12 0.500000 0.500000 0.500000
O O13 0.569473 0.666370 0.711622
O O14 0.451168 0.269725 0.806752
O O15 0.484985 0.228238 0.238577
O O16 0.799559 0.663283 0.212982
O O17 0.500000 0.500000 0.000000
#
# Coordination Sequence:
#
# PCOD9075689 Si02
#       8
#     2   2   2   2   2   2   2   2
#     4  10  19  33  55  83 112 137 173 230 276 313
#     4  10  18  32  54  81 111 139 177 222 270 319
#     4  10  21  36  56  79 106 151 184 216 257 323
#     4   9  19  32  53  80 107 137 173 222 270 313
#     4  10  19  31  54  80 111 140 179 226 261 317
#     4  10  21  33  53  83 113 140 172 222 279 323
#     4  11  19  31  54  83 109 137 172 228 279 310
#     4  10  19  35  57  77 108 145 190 216 256 326
#
# _framework density 20.593032999999998
#
# number of rings (size 3 to 8) (size 9 to 14) (size 15 to 20)
#    0.000    2.000    2.500    2.625    1.750    0.500 
#    0.000    0.000    0.000   30.000    0.000    0.000 
#    0.000    0.000    0.000    0.000    0.000    0.000 
#
# Total GULP energy -89145.835069 kJ/mol
# GULP energy per Si atom -5571.614692 kJ/mol
# Density = 2.054616 g / cm^3
# Si number density = 20.593033 Si / 1000 Ang^3
#
#
#
# Elastic Constant Matrix: (Units=GPa)
#
#
# Indices 1 2 3 4 5 6 
#
# 1 79.5000 27.6640 -6.7637 9.9788 4.7136 12.1871
# 2 27.6640 73.2314 -11.0931 17.0977 11.8552 4.9790
# 3 -6.7637 -11.0931 15.6163 10.4984 -5.3383 -2.1301
# 4 9.9788 17.0977 10.4984 20.5748 -7.6182 0.0411
# 5 4.7136 11.8552 -5.3383 -7.6182 31.3627 10.3581
# 6 12.1871 4.9790 -2.1301 0.0411 10.3581 29.8999
#
#
#
# Elastic Compliance Matrix: (Units=1/GPa)
#
#
# Indices 1 2 3 4 5 6 
#
# 1 0.018407 0.009349 0.037436 -0.038830 -0.008206 -0.003496
# 2 0.009349 0.091349 0.182140 -0.194421 -0.056742 0.013878
# 3 0.037436 0.182140 0.482570 -0.457616 -0.112919 0.028538
# 4 -0.038830 -0.194421 -0.457616 0.513233 0.136840 -0.032510
# 5 -0.008206 -0.056742 -0.112919 0.136840 0.075746 -0.021680
# 6 -0.003496 0.013878 0.028538 -0.032510 -0.021680 0.042147
#
#
# Mechanical properties :
#
#
# Convention : Reuss Voigt Hill
#
# Bulk Modulus (GPa) = 0.95222 20.88467 10.91845
# Shear Modulus (GPa) = 4.48165 26.93685 15.70925
#
# Velocity S-wave (km/s) = 1.47683 3.62063 2.76496
# Velocity P-wave (km/s) = 1.83615 5.25759 3.93787
#
# Compressibility (1/GPa) = 1.05017547
#
# Stress axis : x y z
#
# Youngs Moduli (GPa) = 54.32828 10.94705 2.07224
#
# Poissons Ratio (x) = -0.10235 -0.07758
# Poissons Ratio (y) = -0.50794 -0.37744
# Poissons Ratio (z) = -2.03384 -1.99389
#
# Static dielectric constant tensor:
#      x y z
#    x 1.820350 0.044210 -0.016510 
#    y 0.044210 1.750650 0.018680 
#    z -0.016510 0.018680 1.753380 
# 
# From -- ./inp_files/470337.got.cif
#   From: 2010.05.17/outbox.cif.g08.bks.cpg/sg2_236_cif.got.tgz:470337.got - 2010.06.03 11:33:40.
