data_PCOD9075160
_publ_section_title
;
Structure prediction by ZEFSAII (Michael W. Deem and Ramdas Pophale) SiO2 
 PCOD9075160
Probable space group: P -1
;
_chemical_formula_sum "Si O2"
_cell_formula_units_Z 16
_cell_length_a 9.000000
_cell_length_b 9.000000
_cell_length_c 15.000000
_cell_angle_alpha 40.000000
_cell_angle_beta 110.000000
_cell_angle_gamma 110.000000
_cell_volume 727.419504
_symmetry_space_group_name_H-M "P -1"
_symmetry_group_IT_number 2
_symmetry_cell_setting 'triclinic'
loop_
_space_group_symop_operation_xyz
x,y,z
-x,-y,-z
loop_
_atom_site_type_symbol
_atom_site_label
_atom_site_fract_x
_atom_site_fract_y
_atom_site_fract_z
Si Si1 0.862237 0.487026 0.052080
Si Si2 0.383091 0.404011 0.166888
Si Si3 0.529444 0.915897 0.945626
Si Si4 0.209860 0.065528 0.425564
Si Si5 0.834380 0.983812 0.354756
Si Si6 0.419189 0.339826 0.635833
Si Si7 0.682070 0.409293 0.330599
Si Si8 0.122006 0.232987 0.907302
O O1 0.800382 0.223513 0.191382
O O2 0.932648 0.602215 0.103809
O O3 0.731679 0.652499 0.915418
O O4 0.000000 0.500000 0.000000
O O5 0.287904 0.290234 0.284661
O O6 0.563493 0.356515 0.244923
O O7 0.406836 0.680117 0.029707
O O8 0.504062 0.112484 0.778768
O O9 0.705614 0.849262 0.005499
O O10 0.500000 0.000000 0.000000
O O11 0.023476 0.018612 0.388454
O O12 0.233588 0.067665 0.535890
O O13 0.281309 0.836610 0.513141
O O14 0.759129 0.767460 0.379799
O O15 0.500000 0.500000 0.500000
O O16 0.410740 0.472843 0.665915
O O17 0.836143 0.590009 0.249550
O O18 0.000000 0.000000 0.000000
#
# Coordination Sequence:
#
# PCOD9075160 Si02
#       8
#     2   2   2   2   2   2   2   2
#     4  12  25  43  71 107 137 179 238 294 349 409
#     4  11  23  41  74  97 136 179 235 286 353 403
#     4  11  24  45  71 102 139 183 233 289 349 419
#     4  11  24  45  66  98 137 185 227 286 351 412
#     4  11  25  42  68  98 139 180 233 284 346 414
#     4  12  26  45  70 103 139 185 230 290 353 412
#     4  11  25  45  69 102 140 185 231 287 350 421
#     4  11  27  43  71 103 142 188 231 285 358 415
#
# _framework density 21.995560999999999
#
# number of rings (size 3 to 8) (size 9 to 14) (size 15 to 20)
#    0.000    0.750    6.250    1.125    3.500    5.500 
#    0.000    0.000    0.000    0.000    0.000    0.000 
#    0.000    0.000    0.000    0.000    0.000    0.000 
#
# Total GULP energy -89184.009731 kJ/mol
# GULP energy per Si atom -5574.000608 kJ/mol
# Density = 2.194550 g / cm^3
# Si number density = 21.995561 Si / 1000 Ang^3
#
#
#
# Elastic Constant Matrix: (Units=GPa)
#
#
# Indices 1 2 3 4 5 6 
#
# 1 62.4313 33.3520 43.6896 -7.9447 -21.6083 0.0111
# 2 33.3520 52.5298 22.8242 -7.0928 -4.0142 7.4587
# 3 43.6896 22.8242 162.9910 -3.6642 -19.0511 7.8090
# 4 -7.9447 -7.0928 -3.6642 23.4407 4.7679 -1.7638
# 5 -21.6083 -4.0142 -19.0511 4.7679 43.0975 -6.4132
# 6 0.0111 7.4587 7.8090 -1.7638 -6.4132 26.3521
#
#
#
# Elastic Compliance Matrix: (Units=1/GPa)
#
#
# Indices 1 2 3 4 5 6 
#
# 1 0.036946 -0.021068 -0.005633 0.002992 0.015464 0.011580
# 2 -0.021068 0.033707 0.000481 0.004169 -0.009411 -0.011685
# 3 -0.005633 0.000481 0.007717 -0.000811 0.000366 -0.002386
# 4 0.002992 0.004169 -0.000811 0.045583 -0.003319 0.001302
# 5 0.015464 -0.009411 0.000366 -0.003319 0.032118 0.010143
# 6 0.011580 -0.011685 -0.002386 0.001302 0.010143 0.044513
#
#
# Mechanical properties :
#
#
# Convention : Reuss Voigt Hill
#
# Bulk Modulus (GPa) = 38.56754 53.07595 45.82174
# Shear Modulus (GPa) = 19.10819 30.45050 24.77935
#
# Velocity S-wave (km/s) = 2.95062 3.72478 3.36007
# Velocity P-wave (km/s) = 5.40190 6.53310 5.99424
#
# Compressibility (1/GPa) = 0.02592854
#
# Stress axis : x y z
#
# Youngs Moduli (GPa) = 27.06680 29.66701 129.58728
#
# Poissons Ratio (x) = 0.62503 0.72997
# Poissons Ratio (y) = 0.57025 -0.06230
# Poissons Ratio (z) = 0.15247 -0.01426
#
# Static dielectric constant tensor:
#      x y z
#    x 1.858010 0.177070 0.046900 
#    y 0.177070 1.968170 0.015930 
#    z 0.046900 0.015930 1.830950 
# 
# From -- ./inp_files/494333.got.cif
#   From: 2010.05.17/outbox.ucp.g08.bks.cvg/sg2_248_cif.got.tgz:494333.got - 2010.06.11 11:32:03.
