data_PCOD9075548
_publ_section_title
;
Structure prediction by ZEFSAII (Michael W. Deem and Ramdas Pophale) SiO2 
 PCOD9075548
Probable space group: P -1
;
_chemical_formula_sum "Si O2"
_cell_formula_units_Z 14
_cell_length_a 12.000000
_cell_length_b 30.000000
_cell_length_c 30.000000
_cell_angle_alpha 170.000000
_cell_angle_beta 20.000000
_cell_angle_gamma 160.000000
_cell_volume 622.618477
_symmetry_space_group_name_H-M "P -1"
_symmetry_group_IT_number 2
_symmetry_cell_setting 'triclinic'
loop_
_space_group_symop_operation_xyz
x,y,z
-x,-y,-z
loop_
_atom_site_type_symbol
_atom_site_label
_atom_site_fract_x
_atom_site_fract_y
_atom_site_fract_z
Si Si1 0.837311 0.726177 0.765791
Si Si2 0.260103 0.885806 0.683408
Si Si3 0.880891 0.100151 0.436400
Si Si4 0.255976 0.477672 0.973545
Si Si5 0.338192 0.952594 0.625926
Si Si6 0.315668 0.545868 0.893855
Si Si7 0.892347 0.378231 0.093352
O O1 0.446339 0.610721 0.792821
O O2 0.000000 0.500000 0.500000
O O3 0.953534 0.780243 0.725426
O O4 0.000000 0.000000 0.000000
O O5 0.141235 0.850736 0.643358
O O6 0.535316 0.712092 0.417129
O O7 0.408291 0.192844 0.940902
O O8 0.871626 0.010447 0.300836
O O9 0.038912 0.413056 0.686873
O O10 0.500000 0.000000 0.500000
O O11 0.104966 0.928021 0.206273
O O12 0.449344 0.258962 0.673720
O O13 0.877029 0.387947 0.011333
O O14 0.224162 0.504131 0.063810
O O15 0.417088 0.765490 0.177797
O O16 0.000000 0.500000 0.000000
#
# Coordination Sequence:
#
# PCOD9075548 Si02
#       7
#     2   2   2   2   2   2   2
#     4  12  27  49  70  96 133 180 226 269 321 405
#     4  12  24  43  62  93 136 170 216 278 323 388
#     4  12  23  41  65  97 135 169 218 275 330 387
#     4  12  21  35  60  93 127 162 208 263 329 388
#     4  12  23  37  61  94 127 164 206 268 329 379
#     4  12  22  37  62  97 131 166 211 267 343 402
#     4  12  24  42  66  95 129 176 222 268 327 388
#
# _framework density 22.485679999999999
#
# number of rings (size 3 to 8) (size 9 to 14) (size 15 to 20)
#    0.000    0.000    5.714    6.000    0.000    0.000 
#    0.000    1.429    0.000    0.000    0.000    0.000 
#    0.000    0.000    0.000    0.000    0.000    0.000 
#
# Total GULP energy -77958.491875 kJ/mol
# GULP energy per Si atom -5568.463705 kJ/mol
# Density = 2.243450 g / cm^3
# Si number density = 22.485680 Si / 1000 Ang^3
#
#
#
# Elastic Constant Matrix: (Units=GPa)
#
#
# Indices 1 2 3 4 5 6 
#
# 1 250.0148 58.9964 -124.0730 19.0588 13.2621 -52.5697
# 2 58.9964 69.2073 -2.5082 2.2477 17.2325 -22.9392
# 3 -124.0730 -2.5082 187.0003 -4.3537 -7.5705 46.1152
# 4 19.0588 2.2477 -4.3537 26.5275 2.3788 -1.3766
# 5 13.2621 17.2325 -7.5705 2.3788 36.7743 0.2149
# 6 -52.5697 -22.9392 46.1152 -1.3766 0.2149 42.4306
#
#
#
# Elastic Compliance Matrix: (Units=1/GPa)
#
#
# Indices 1 2 3 4 5 6 
#
# 1 0.009034 -0.007482 0.005637 -0.005042 0.001730 0.000849
# 2 -0.007482 0.029157 -0.009114 0.003450 -0.013161 0.016576
# 3 0.005637 -0.009114 0.011784 -0.002344 0.004879 -0.010852
# 4 -0.005042 0.003450 -0.002344 0.040879 -0.002922 -0.000493
# 5 0.001730 -0.013161 0.004879 -0.002922 0.033991 -0.010541
# 6 0.000849 0.016576 -0.010852 -0.000493 -0.010541 0.045412
#
#
# Mechanical properties :
#
#
# Convention : Reuss Voigt Hill
#
# Bulk Modulus (GPa) = 35.64237 41.22809 38.43523
# Shear Modulus (GPa) = 24.81048 59.40032 42.10540
#
# Velocity S-wave (km/s) = 3.32534 5.14532 4.33198
# Velocity P-wave (km/s) = 5.53438 7.32626 6.49244
#
# Compressibility (1/GPa) = 0.02805650
#
# Stress axis : x y z
#
# Youngs Moduli (GPa) = 110.69548 34.29741 84.85804
#
# Poissons Ratio (x) = 0.25663 -0.47833
# Poissons Ratio (y) = 0.82826 0.77337
# Poissons Ratio (z) = -0.62397 0.31258
#
# Static dielectric constant tensor:
#      x y z
#    x 1.942810 -0.108270 0.044230 
#    y -0.108270 1.772220 -0.031040 
#    z 0.044230 -0.031040 1.736480 
# 
# From -- ./inp_files/433612.got.cif
#   From: 2010.05.17/outbox.ucp.g08.bks.cvg/sg2_217_cif.got.tgz:433612.got - 2010.06.11 11:32:03.
