data_PCOD9075827
_publ_section_title
;
Structure prediction by ZEFSAII (Michael W. Deem and Ramdas Pophale) SiO2 
 PCOD9075827
Probable space group: P -1
;
_chemical_formula_sum "Si O2"
_cell_formula_units_Z 14
_cell_length_a 11.463135
_cell_length_b 15.599832
_cell_length_c 7.579726
_cell_angle_alpha 130.968215
_cell_angle_beta 143.343097
_cell_angle_gamma 46.010887
_cell_volume 566.704143
_symmetry_space_group_name_H-M "P -1"
_symmetry_group_IT_number 2
_symmetry_cell_setting 'triclinic'
loop_
_space_group_symop_operation_xyz
x,y,z
-x,-y,-z
loop_
_atom_site_type_symbol
_atom_site_label
_atom_site_fract_x
_atom_site_fract_y
_atom_site_fract_z
Si Si1 0.608723 0.901278 0.347668
Si Si2 0.419954 0.735065 0.004145
Si Si3 0.144380 0.364676 0.156404
Si Si4 0.685924 0.546897 0.829418
Si Si5 0.256540 0.569972 0.756887
Si Si6 0.192427 0.929483 0.275195
Si Si7 0.045173 0.222436 0.114090
O O1 0.440962 0.835962 0.028526
O O2 0.808607 0.810819 0.578958
O O3 0.500000 0.000000 0.500000
O O4 0.698930 0.973828 0.416761
O O5 0.366086 0.813145 0.226555
O O6 0.628769 0.619768 0.043259
O O7 0.250791 0.670315 0.734034
O O8 0.288938 0.357158 0.153545
O O9 0.178254 0.466914 0.458217
O O10 0.173314 0.242438 0.131779
O O11 0.899168 0.431278 0.905861
O O12 0.500000 0.500000 0.500000
O O13 0.132484 0.647107 0.875324
O O14 0.500000 0.500000 0.000000
O O15 0.073513 0.870985 0.185399
O O16 0.000000 0.000000 0.000000
#
# Coordination Sequence:
#
# PCOD9075827 Si02
#       7
#     2   2   2   2   2   2   2
#     4   9  17  33  55  84 111 142 190 249 304 348
#     4  10  18  32  56  79 111 153 191 230 294 346
#     4  11  23  37  57  82 122 162 197 238 284 350
#     4  11  23  41  56  80 122 166 208 232 267 358
#     4  11  20  32  55  88 121 148 188 244 300 359
#     4   8  17  32  54  84 109 140 185 249 303 346
#     4  10  19  32  54  85 114 147 189 240 308 347
#
# _framework density 24.704249999999998
#
# number of rings (size 3 to 8) (size 9 to 14) (size 15 to 20)
#    0.000    2.000    1.429    3.000    0.000    0.000 
#    0.000    0.000    0.000    8.571    0.000    0.000 
#    0.000    0.000    0.000    0.000    0.000    0.000 
#
# Total GULP energy -77965.688255 kJ/mol
# GULP energy per Si atom -5568.977733 kJ/mol
# Density = 2.464802 g / cm^3
# Si number density = 24.704250 Si / 1000 Ang^3
#
#
#
# Elastic Constant Matrix: (Units=GPa)
#
#
# Indices 1 2 3 4 5 6 
#
# 1 175.0546 22.0039 46.0594 20.1818 48.0580 30.9900
# 2 22.0039 67.3034 12.5966 2.6890 4.9955 -11.8340
# 3 46.0594 12.5966 79.4917 0.7669 41.6545 18.4791
# 4 20.1818 2.6890 0.7669 25.9612 5.8233 21.7788
# 5 48.0580 4.9955 41.6545 5.8233 45.8960 18.5159
# 6 30.9900 -11.8340 18.4791 21.7788 18.5159 45.8841
#
#
#
# Elastic Compliance Matrix: (Units=1/GPa)
#
#
# Indices 1 2 3 4 5 6 
#
# 1 0.008914 -0.002475 -0.000340 -0.003419 -0.007579 -0.001840
# 2 -0.002475 0.019585 -0.005527 -0.012131 0.001293 0.014185
# 3 -0.000340 -0.005527 0.026846 0.012790 -0.021186 -0.009529
# 4 -0.003419 -0.012131 0.012790 0.078377 0.000914 -0.043540
# 5 -0.007579 0.001293 -0.021186 0.000914 0.051635 -0.007286
# 6 -0.001840 0.014185 -0.009529 -0.043540 -0.007286 0.054139
#
#
# Mechanical properties :
#
#
# Convention : Reuss Voigt Hill
#
# Bulk Modulus (GPa) = 25.86686 53.68549 39.77618
# Shear Modulus (GPa) = 18.58265 39.62760 29.10512
#
# Velocity S-wave (km/s) = 2.74561 4.00944 3.43613
# Velocity P-wave (km/s) = 4.53261 6.57363 5.64611
#
# Compressibility (1/GPa) = 0.03865950
#
# Stress axis : x y z
#
# Youngs Moduli (GPa) = 112.18478 51.06048 37.24888
#
# Poissons Ratio (x) = 0.12637 0.01268
# Poissons Ratio (y) = 0.27765 0.20589
# Poissons Ratio (z) = 0.03818 0.28223
#
# Static dielectric constant tensor:
#      x y z
#    x 2.107620 0.115810 0.085270 
#    y 0.115810 0.491150 -0.572160 
#    z 0.085270 -0.572160 1.920270 
# 
# From -- ./inp_files/280176.got.cif
#   From: 2010.05.17/outbox.cif.g08.bks.cpg/sg2_141_cif.got.tgz:280176.got - 2010.06.03 11:33:40.
