data_PCOD9075686
_publ_section_title
;
Structure prediction by ZEFSAII (Michael W. Deem and Ramdas Pophale) SiO2 
 PCOD9075686
Probable space group: P -1
;
_chemical_formula_sum "Si O2"
_cell_formula_units_Z 14
_cell_length_a 20.641573
_cell_length_b 8.161659
_cell_length_c 11.701797
_cell_angle_alpha 50.958677
_cell_angle_beta 25.055911
_cell_angle_gamma 40.151771
_cell_volume 524.046353
_symmetry_space_group_name_H-M "P -1"
_symmetry_group_IT_number 2
_symmetry_cell_setting 'triclinic'
loop_
_space_group_symop_operation_xyz
x,y,z
-x,-y,-z
loop_
_atom_site_type_symbol
_atom_site_label
_atom_site_fract_x
_atom_site_fract_y
_atom_site_fract_z
Si Si1 0.248955 0.634171 0.587037
Si Si2 0.079881 0.661637 0.079594
Si Si3 0.347262 0.112806 0.364141
Si Si4 0.417764 0.467801 0.763981
Si Si5 0.693123 0.877392 0.314738
Si Si6 0.837215 0.880911 0.869162
Si Si7 0.743323 0.340349 0.695465
O O1 0.463087 0.494570 0.351611
O O2 0.208336 0.428105 0.706515
O O3 0.242632 0.739397 0.425079
O O4 0.121388 0.759399 0.851763
O O5 0.183541 0.349423 0.025636
O O6 0.858755 0.791094 0.397159
O O7 0.195179 0.650069 0.010514
O O8 0.336571 0.044520 0.542873
O O9 0.364767 0.352884 0.235620
O O10 0.514888 0.825241 0.179559
O O11 0.500000 0.500000 0.500000
O O12 0.500000 0.000000 0.500000
O O13 0.818628 0.922471 0.016332
O O14 0.049151 0.760994 0.549554
O O15 0.697707 0.162633 0.912873
#
# Coordination Sequence:
#
# PCOD9075686 Si02
#       7
#     2   2   2   2   2   2   2
#     4   9  18  32  50  74 105 138 173 216 263 311
#     4   9  18  33  53  76 105 139 176 217 263 311
#     4  10  19  33  56  80 104 138 178 218 264 314
#     4  10  20  34  52  77 109 139 173 220 264 312
#     4  10  18  32  54  81 106 133 176 223 263 311
#     4   9  17  32  55  79 107 138 175 223 265 309
#     4   9  18  33  55  80 104 138 180 218 264 315
#
# _framework density 26.715195999999999
#
# number of rings (size 3 to 8) (size 9 to 14) (size 15 to 20)
#    0.000    2.571    0.000    3.429    0.000    5.714 
#    0.000    8.571    0.000   14.571    0.000    0.000 
#    0.000    0.000    0.000    0.000    0.000    0.000 
#
# Total GULP energy -78124.605145 kJ/mol
# GULP energy per Si atom -5580.328939 kJ/mol
# Density = 2.665439 g / cm^3
# Si number density = 26.715196 Si / 1000 Ang^3
#
#
#
# Elastic Constant Matrix: (Units=GPa)
#
#
# Indices 1 2 3 4 5 6 
#
# 1 96.4252 26.4446 9.1751 -0.6602 -21.7110 -9.2608
# 2 26.4446 123.4663 14.9628 -18.4503 10.3526 -1.1304
# 3 9.1751 14.9628 37.6495 8.4066 -13.7991 -18.5204
# 4 -0.6602 -18.4503 8.4066 38.8309 -21.9767 0.9314
# 5 -21.7110 10.3526 -13.7991 -21.9767 44.0136 8.6178
# 6 -9.2608 -1.1304 -18.5204 0.9314 8.6178 39.9049
#
#
#
# Elastic Compliance Matrix: (Units=1/GPa)
#
#
# Indices 1 2 3 4 5 6 
#
# 1 0.013407 -0.003273 0.001423 0.003600 0.009317 0.001583
# 2 -0.003273 0.010655 -0.007341 0.004736 -0.003424 -0.003236
# 3 0.001423 -0.007341 0.043171 -0.008767 0.007935 0.018650
# 4 0.003600 0.004736 -0.008767 0.041712 0.020400 -0.008479
# 5 0.009317 -0.003424 0.007935 0.020400 0.041519 -0.003695
# 6 0.001583 -0.003236 0.018650 -0.008479 -0.003695 0.034987
#
#
# Mechanical properties :
#
#
# Convention : Reuss Voigt Hill
#
# Bulk Modulus (GPa) = 20.47000 39.85622 30.16311
# Shear Modulus (GPa) = 22.71512 38.34712 30.53112
#
# Velocity S-wave (km/s) = 2.91910 3.79278 3.38426
# Velocity P-wave (km/s) = 4.36354 5.84223 5.15617
#
# Compressibility (1/GPa) = 0.04885198
#
# Stress axis : x y z
#
# Youngs Moduli (GPa) = 74.58549 93.84965 23.16343
#
# Poissons Ratio (x) = 0.30716 -0.03297
# Poissons Ratio (y) = 0.24411 0.17005
# Poissons Ratio (z) = -0.10615 0.68899
#
# Static dielectric constant tensor:
#      x y z
#    x 2.088340 0.036200 0.036140 
#    y 0.036200 2.221580 0.013300 
#    z 0.036140 0.013300 2.130630 
# 
# From -- ./inp_files/154308.got.cif
#   From: 2010.05.17/outbox.cif.g08.bks.cpg/sg2_78_cif.got.tgz:154308.got - 2010.06.03 11:33:40.
