data_PCOD9075690
_publ_section_title
;
Structure prediction by ZEFSAII (Michael W. Deem and Ramdas Pophale) SiO2 
 PCOD9075690
Probable space group: P -1
;
_chemical_formula_sum "Si O2"
_cell_formula_units_Z 16
_cell_length_a 5.030220
_cell_length_b 15.117279
_cell_length_c 10.565211
_cell_angle_alpha 82.804737
_cell_angle_beta 90.004724
_cell_angle_gamma 109.594790
_cell_volume 750.169428
_symmetry_space_group_name_H-M "P -1"
_symmetry_group_IT_number 2
_symmetry_cell_setting 'triclinic'
loop_
_space_group_symop_operation_xyz
x,y,z
-x,-y,-z
loop_
_atom_site_type_symbol
_atom_site_label
_atom_site_fract_x
_atom_site_fract_y
_atom_site_fract_z
Si Si1 0.409025 0.372915 0.524550
Si Si2 0.094054 0.754704 0.332955
Si Si3 0.685395 0.799727 0.626911
Si Si4 0.729578 0.462207 0.266182
Si Si5 0.278698 0.896625 0.536586
Si Si6 0.860482 0.647956 0.812482
Si Si7 0.917144 0.401162 0.942134
Si Si8 0.531674 0.691124 0.212964
O O1 0.404213 0.272268 0.480741
O O2 0.595680 0.447097 0.409744
O O3 0.540997 0.388022 0.660794
O O4 0.070862 0.338915 0.561338
O O5 0.344005 0.751912 0.245565
O O6 0.970029 0.887613 0.587917
O O7 0.848754 0.752564 0.234271
O O8 0.426845 0.837870 0.636136
O O9 0.785888 0.735364 0.737184
O O10 0.920002 0.393352 0.256496
O O11 0.913999 0.565244 0.195290
O O12 0.450737 0.430689 0.183261
O O13 0.205688 0.841139 0.413327
O O14 0.500000 0.000000 0.500000
O O15 0.983951 0.663413 0.950606
O O16 0.592546 0.355095 0.910896
O O17 0.000000 0.500000 0.000000
#
# Coordination Sequence:
#
# PCOD9075690 Si02
#       8
#     2   2   2   2   2   2   2   2
#     4   8  18  31  54  74 107 141 181 213 281 327
#     4   9  19  35  51  82 109 141 178 209 273 359
#     4  10  18  32  54  81 111 144 174 210 267 343
#     4  10  20  33  55  76 106 142 186 247 278 304
#     4  11  19  32  56  89 116 132 162 221 278 333
#     4  10  21  35  55  75 107 153 186 227 267 321
#     4  10  23  40  54  80 108 145 202 246 269 294
#     4  10  20  34  56  75 110 148 187 224 272 329
#
# _framework density 21.328512
#
# number of rings (size 3 to 8) (size 9 to 14) (size 15 to 20)
#    0.750    1.500    1.250    2.250    3.500    4.500 
#    0.000    0.625    0.000    0.000    0.000    5.250 
#    0.000    0.000    0.000    0.000    0.000    0.000 
#
# Total GULP energy -89107.373513 kJ/mol
# GULP energy per Si atom -5569.210845 kJ/mol
# Density = 2.127997 g / cm^3
# Si number density = 21.328512 Si / 1000 Ang^3
#
#
#
# Elastic Constant Matrix: (Units=GPa)
#
#
# Indices 1 2 3 4 5 6 
#
# 1 125.8232 25.4263 21.0970 9.7073 26.5828 -0.3443
# 2 25.4263 61.2378 27.9192 5.9167 14.6975 17.7678
# 3 21.0970 27.9192 111.0373 13.4924 32.6307 4.6768
# 4 9.7073 5.9167 13.4924 23.6244 1.8260 5.6900
# 5 26.5828 14.6975 32.6307 1.8260 43.3323 7.1671
# 6 -0.3443 17.7678 4.6768 5.6900 7.1671 30.4048
#
#
#
# Elastic Compliance Matrix: (Units=1/GPa)
#
#
# Indices 1 2 3 4 5 6 
#
# 1 0.010336 -0.004316 0.001400 -0.004624 -0.006535 0.004830
# 2 -0.004316 0.024139 -0.005033 0.001901 0.000460 -0.013845
# 3 0.001400 -0.005033 0.013608 -0.007427 -0.009843 0.004574
# 4 -0.004624 0.001901 -0.007427 0.050104 0.007521 -0.011170
# 5 -0.006535 0.000460 -0.009843 0.007521 0.035447 -0.008592
# 6 0.004830 -0.013845 0.004574 -0.011170 -0.008592 0.044447
#
#
# Mechanical properties :
#
#
# Convention : Reuss Voigt Hill
#
# Bulk Modulus (GPa) = 31.06887 49.66482 40.36684
# Shear Modulus (GPa) = 24.42532 34.38269 29.40400
#
# Velocity S-wave (km/s) = 3.38775 4.01939 3.71701
# Velocity P-wave (km/s) = 5.46817 6.69902 6.11465
#
# Compressibility (1/GPa) = 0.03218656
#
# Stress axis : x y z
#
# Youngs Moduli (GPa) = 96.75242 41.42615 73.48795
#
# Poissons Ratio (x) = 0.17879 -0.10291
# Poissons Ratio (y) = 0.41758 0.36983
# Poissons Ratio (z) = -0.13549 0.20848
#
# Static dielectric constant tensor:
#      x y z
#    x 1.890140 -0.065560 -0.025410 
#    y -0.065560 1.819920 -0.006090 
#    z -0.025410 -0.006090 1.855660 
# 
# From -- ./inp_files/366896.got.cif
#   From: 2010.05.17/outbox.cif.g08.bks.cpg/sg2_184_cif.got.tgz:366896.got - 2010.06.03 11:33:40.
