data_PCOD9075323
_publ_section_title
;
Structure prediction by ZEFSAII (Michael W. Deem and Ramdas Pophale) SiO2 
 PCOD9075323
Probable space group: P -1
;
_chemical_formula_sum "Si O2"
_cell_formula_units_Z 15
_cell_length_a 24.000000
_cell_length_b 15.000000
_cell_length_c 9.000000
_cell_angle_alpha 40.000000
_cell_angle_beta 140.000000
_cell_angle_gamma 160.000000
_cell_volume 696.397529
_symmetry_space_group_name_H-M "P -1"
_symmetry_group_IT_number 2
_symmetry_cell_setting 'triclinic'
loop_
_space_group_symop_operation_xyz
x,y,z
-x,-y,-z
loop_
_atom_site_type_symbol
_atom_site_label
_atom_site_fract_x
_atom_site_fract_y
_atom_site_fract_z
Si Si1 0.000000 0.500000 0.000000
Si Si2 0.331087 0.423397 0.871214
Si Si3 0.220156 0.016488 0.631493
Si Si4 0.601015 0.578360 0.299201
Si Si5 0.947086 0.075078 0.862194
Si Si6 0.302633 0.711203 0.499259
Si Si7 0.735284 0.346653 0.152248
Si Si8 0.567190 0.868669 0.285326
O O1 0.831025 0.376361 0.751695
O O2 0.127325 0.792444 0.842463
O O3 0.301925 0.344308 0.742405
O O4 0.287257 0.523734 0.679873
O O5 0.513967 0.607259 0.045171
O O6 0.214891 0.174453 0.055930
O O7 0.098853 0.887110 0.414526
O O8 0.282883 0.239263 0.555270
O O9 0.376713 0.151193 0.708947
O O10 0.473021 0.284057 0.462391
O O11 0.090322 0.339900 0.913513
O O12 0.000000 0.000000 0.000000
O O13 0.281415 0.707258 0.637838
O O14 0.500000 0.000000 0.500000
O O15 0.712541 0.175166 0.232244
O O16 0.590266 0.253809 0.925151
#
# Coordination Sequence:
#
# PCOD9075323 Si02
#       8
#     1   2   2   2   2   2   2   2
#     4  12  26  46  70 110 140 190 252 288 386 432
#     4  11  24  44  71 108 143 191 240 302 369 430
#     4  12  25  44  71  99 142 185 238 297 354 434
#     4  11  24  43  72 108 142 189 249 299 362 443
#     4  12  23  45  71 102 142 187 233 295 367 432
#     4  12  24  46  73 101 150 191 237 310 366 436
#     4  11  24  43  68 102 141 185 240 294 362 440
#     4  11  24  43  71 105 137 192 241 295 364 436
#
# _framework density 21.539421999999998
#
# number of rings (size 3 to 8) (size 9 to 14) (size 15 to 20)
#    0.000    0.533    4.000    4.400    0.000    3.733 
#    0.000    4.667    0.000    0.000    0.000    0.000 
#    0.000    0.000    0.000    0.000    0.000    0.000 
#
# Total GULP energy -83511.996085 kJ/mol
# GULP energy per Si atom -5567.466406 kJ/mol
# Density = 2.149040 g / cm^3
# Si number density = 21.539422 Si / 1000 Ang^3
#
#
#
# Elastic Constant Matrix: (Units=GPa)
#
#
# Indices 1 2 3 4 5 6 
#
# 1 27.2705 15.0862 -5.5312 1.4985 -20.5836 -18.5583
# 2 15.0862 40.7146 43.2123 -3.5217 7.0038 -7.1898
# 3 -5.5312 43.2123 77.5435 1.9326 27.4516 -14.4412
# 4 1.4985 -3.5217 1.9326 33.0395 2.1362 0.5693
# 5 -20.5836 7.0038 27.4516 2.1362 9.9465 -0.2038
# 6 -18.5583 -7.1898 -14.4412 0.5693 -0.2038 27.7705
#
#
#
# Elastic Compliance Matrix: (Units=1/GPa)
#
#
# Indices 1 2 3 4 5 6 
#
# 1 -0.146068 0.249076 -0.228644 0.040004 0.141675 -0.151807
# 2 0.249076 -0.415090 0.424177 -0.062923 -0.343748 0.278331
# 3 -0.228644 0.424177 -0.415477 0.061283 0.356395 -0.257674
# 4 0.040004 -0.062923 0.061283 0.020391 -0.045571 0.041558
# 5 0.141675 -0.343748 0.356395 -0.045571 -0.334178 0.189495
# 6 -0.151807 0.278331 -0.257674 0.041558 0.189495 -0.126836
#
#
# Mechanical properties :
#
#
# Convention : Reuss Voigt Hill
#
# Bulk Modulus (GPa) = -11.43940 27.89593 8.22826
# Shear Modulus (GPa) = -2.14076 20.33538 9.09731
#
# Velocity S-wave (km/s) = -0.99802 3.07596 2.05736
# Velocity P-wave (km/s) = 2.57886 5.05911 3.07767
#
# Compressibility (1/GPa) = -0.08741719
#
# Stress axis : x y z
#
# Youngs Moduli (GPa) = -6.84615 -2.40912 -2.40687
#
# Poissons Ratio (x) = 0.60005 -0.55032
# Poissons Ratio (y) = 1.70521 1.02094
# Poissons Ratio (z) = -1.56533 1.02189
#
# Static dielectric constant tensor:
#      x y z
#    x 1.770430 0.021730 0.003950 
#    y 0.021730 1.830050 0.030680 
#    z 0.003950 0.030680 1.822070 
# 
# From -- ./inp_files/354290.got.cif
#   From: 2010.05.17/outbox.ucp.g08.bks.cvg/sg2_178_cif.got.tgz:354290.got - 2010.06.11 11:32:03.
