data_PCOD9075128
_publ_section_title
;
Structure prediction by ZEFSAII (Michael W. Deem and Ramdas Pophale) SiO2 
 PCOD9075128
Probable space group: P -1
;
_chemical_formula_sum "Si O2"
_cell_formula_units_Z 16
_cell_length_a 27.000000
_cell_length_b 27.000000
_cell_length_c 12.000000
_cell_angle_alpha 30.000000
_cell_angle_beta 150.000000
_cell_angle_gamma 170.000000
_cell_volume 750.765935
_symmetry_space_group_name_H-M "P -1"
_symmetry_group_IT_number 2
_symmetry_cell_setting 'triclinic'
loop_
_space_group_symop_operation_xyz
x,y,z
-x,-y,-z
loop_
_atom_site_type_symbol
_atom_site_label
_atom_site_fract_x
_atom_site_fract_y
_atom_site_fract_z
Si Si1 0.056247 0.698111 0.915855
Si Si2 0.650089 0.593629 0.280972
Si Si3 0.761423 0.569763 0.753117
Si Si4 0.380964 0.877335 0.880469
Si Si5 0.802295 0.914840 0.270692
Si Si6 0.592174 0.434287 0.038328
Si Si7 0.825613 0.097746 0.639062
Si Si8 0.171446 0.002404 0.400251
O O1 0.130498 0.864985 0.662932
O O2 0.882192 0.582526 0.907256
O O3 0.841481 0.422516 0.971190
O O4 0.349624 0.908374 0.088701
O O5 0.787575 0.680736 0.494463
O O6 0.917833 0.843952 0.232118
O O7 0.448308 0.319243 0.369785
O O8 0.489278 0.545587 0.084617
O O9 0.426898 0.270611 0.717656
O O10 0.953205 0.772832 0.840301
O O11 0.219433 0.827111 0.622493
O O12 0.500000 0.000000 0.000000
O O13 0.591201 0.713906 0.143590
O O14 0.000000 0.000000 0.500000
O O15 0.927584 0.721530 0.153380
O O16 0.462648 0.209262 0.265866
O O17 0.832101 0.044010 0.640054
#
# Coordination Sequence:
#
# PCOD9075128 Si02
#       8
#     2   2   2   2   2   2   2   2
#     4  11  23  42  69 102 132 166 220 286 332 382
#     4  11  23  39  64  96 136 177 215 257 322 405
#     4  11  23  40  70 100 131 163 223 280 334 380
#     4  12  24  42  72  97 131 174 226 274 329 383
#     4  12  24  43  70  97 128 176 224 277 325 384
#     4  12  27  43  63  95 139 179 220 268 331 390
#     4  12  27  42  64  96 137 181 217 271 328 395
#     4  11  23  39  64  96 137 176 216 255 324 404
#
# _framework density 21.311568999999999
#
# number of rings (size 3 to 8) (size 9 to 14) (size 15 to 20)
#    0.000    0.500    2.500    7.500    3.500    3.000 
#    0.000    0.000    0.000   15.000    0.000    0.000 
#    0.000    0.000    0.000    0.000    0.000    0.000 
#
# Total GULP energy -89213.976932 kJ/mol
# GULP energy per Si atom -5575.873558 kJ/mol
# Density = 2.126306 g / cm^3
# Si number density = 21.311569 Si / 1000 Ang^3
#
#
#
# Elastic Constant Matrix: (Units=GPa)
#
#
# Indices 1 2 3 4 5 6 
#
# 1 78.6006 20.8383 26.8926 39.1759 -0.4329 7.2715
# 2 20.8383 88.9748 8.0996 37.9253 -7.4030 0.3161
# 3 26.8926 8.0996 85.2131 24.2865 9.9305 7.6846
# 4 39.1759 37.9253 24.2865 7.9268 16.3557 6.6186
# 5 -0.4329 -7.4030 9.9305 16.3557 26.4934 15.1956
# 6 7.2715 0.3161 7.6846 6.6186 15.1956 35.2633
#
#
#
# Elastic Compliance Matrix: (Units=1/GPa)
#
#
# Indices 1 2 3 4 5 6 
#
# 1 0.010875 -0.007369 -0.005094 0.011101 -0.006666 -0.000277
# 2 -0.007369 0.007984 -0.001087 0.010867 -0.005296 0.001927
# 3 -0.005094 -0.001087 0.013848 0.001087 -0.006654 0.000705
# 4 0.011101 0.010867 0.001087 -0.027065 0.024056 -0.007910
# 5 -0.006666 -0.005296 -0.006654 0.024056 0.032865 -0.015805
# 6 -0.000277 0.001927 0.000705 -0.007910 -0.015805 0.036540
#
#
# Mechanical properties :
#
#
# Convention : Reuss Voigt Hill
#
# Bulk Modulus (GPa) = 178.31857 40.49438 109.40648
# Shear Modulus (GPa) = 48.07022 27.06724 37.56873
#
# Velocity S-wave (km/s) = 4.75446 3.56767 4.20317
# Velocity P-wave (km/s) = 10.67678 6.00112 8.66046
#
# Compressibility (1/GPa) = 0.00560794
#
# Stress axis : x y z
#
# Youngs Moduli (GPa) = 91.95460 125.24689 72.21267
#
# Poissons Ratio (x) = 0.92290 0.36783
# Poissons Ratio (y) = 0.67758 0.07852
# Poissons Ratio (z) = 0.46838 0.13618
#
# Static dielectric constant tensor:
#      x y z
#    x 1.854240 0.041410 -0.068600 
#    y 0.041410 1.841850 -0.020210 
#    z -0.068600 -0.020210 1.755440 
# 
# From -- ./inp_files/477210.got.cif
#   From: 2010.05.17/outbox.ucp.g08.bks.cvg/sg2_239_cif.got.tgz:477210.got - 2010.06.11 11:32:03.
