data_PCOD9075437
_publ_section_title
;
Structure prediction by ZEFSAII (Michael W. Deem and Ramdas Pophale) SiO2 
 PCOD9075437
Probable space group: P -1
;
_chemical_formula_sum "Si O2"
_cell_formula_units_Z 16
_cell_length_a 12.000000
_cell_length_b 9.000000
_cell_length_c 9.000000
_cell_angle_alpha 80.000000
_cell_angle_beta 130.000000
_cell_angle_gamma 90.000000
_cell_volume 725.212580
_symmetry_space_group_name_H-M "P -1"
_symmetry_group_IT_number 2
_symmetry_cell_setting 'triclinic'
loop_
_space_group_symop_operation_xyz
x,y,z
-x,-y,-z
loop_
_atom_site_type_symbol
_atom_site_label
_atom_site_fract_x
_atom_site_fract_y
_atom_site_fract_z
Si Si1 0.807386 0.814792 0.121582
Si Si2 0.782170 0.574189 0.546483
Si Si3 0.333259 0.572923 0.796935
Si Si4 0.428474 0.955375 0.287514
Si Si5 0.737962 0.312717 0.750790
Si Si6 0.865453 0.474112 0.108306
Si Si7 0.712059 0.903469 0.362582
Si Si8 0.849288 0.161950 0.579421
O O1 0.799869 0.651084 0.061343
O O2 0.736798 0.863464 0.216157
O O3 0.982554 0.810982 0.303546
O O4 0.721691 0.937373 0.911248
O O5 0.734637 0.548514 0.341579
O O6 0.695915 0.464781 0.589116
O O7 0.739002 0.749639 0.509609
O O8 0.958895 0.535002 0.720096
O O9 0.224759 0.610482 0.835679
O O10 0.288513 0.723627 0.631655
O O11 0.500000 0.500000 0.000000
O O12 0.387932 0.782287 0.285381
O O13 0.547726 0.973784 0.258170
O O14 0.500000 0.000000 0.500000
O O15 0.825908 0.191957 0.730559
O O16 0.831980 0.386163 0.944321
O O17 0.826965 0.005429 0.510030
#
# Coordination Sequence:
#
# PCOD9075437 Si02
#       8
#     2   2   2   2   2   2   2   2
#     4  12  27  48  79 109 147 199 250 313 364 442
#     4  11  25  49  74 110 148 196 253 305 369 442
#     4  11  25  44  73 109 152 195 243 309 368 441
#     4  12  30  51  71 111 156 200 243 306 382 447
#     4  11  27  47  74 109 150 195 247 305 374 445
#     4  12  25  45  78 111 147 193 256 304 371 439
#     4  12  27  48  77 109 150 195 250 311 371 441
#     4  11  26  50  74 110 151 194 256 300 375 443
#
# _framework density 22.062495999999999
#
# number of rings (size 3 to 8) (size 9 to 14) (size 15 to 20)
#    0.000    0.500    5.000    2.250    8.750    1.000 
#    0.000    0.000    0.000    0.000    0.000    0.000 
#    0.000    0.000    0.000    0.000    0.000    0.000 
#
# Total GULP energy -89173.430534 kJ/mol
# GULP energy per Si atom -5573.339408 kJ/mol
# Density = 2.201228 g / cm^3
# Si number density = 22.062496 Si / 1000 Ang^3
#
#
#
# Elastic Constant Matrix: (Units=GPa)
#
#
# Indices 1 2 3 4 5 6 
#
# 1 89.7443 6.3146 42.5556 14.1412 0.9151 0.2492
# 2 6.3146 131.6870 58.8017 21.8660 -4.0590 3.3274
# 3 42.5556 58.8017 141.5951 19.4856 -0.2513 -2.7678
# 4 14.1412 21.8660 19.4856 31.1234 -8.8548 -3.1933
# 5 0.9151 -4.0590 -0.2513 -8.8548 29.7476 4.7359
# 6 0.2492 3.3274 -2.7678 -3.1933 4.7359 26.1009
#
#
#
# Elastic Compliance Matrix: (Units=1/GPa)
#
#
# Indices 1 2 3 4 5 6 
#
# 1 0.013986 0.002217 -0.004354 -0.005797 -0.001686 -0.001281
# 2 0.002217 0.010426 -0.004225 -0.005961 -0.000055 -0.002518
# 3 -0.004354 -0.004225 0.010391 -0.001709 -0.001131 0.001678
# 4 -0.005797 -0.005961 -0.001709 0.043764 0.011764 0.003854
# 5 -0.001686 -0.000055 -0.001131 0.011764 0.038038 -0.005559
# 6 -0.001281 -0.002518 0.001678 0.003854 -0.005559 0.040304
#
#
# Mechanical properties :
#
#
# Convention : Reuss Voigt Hill
#
# Bulk Modulus (GPa) = 45.29387 64.26334 54.77860
# Shear Modulus (GPa) = 28.24976 34.41799 31.33387
#
# Velocity S-wave (km/s) = 3.58221 3.95400 3.77269
# Velocity P-wave (km/s) = 6.13873 7.07365 6.62271
#
# Compressibility (1/GPa) = 0.02207804
#
# Stress axis : x y z
#
# Youngs Moduli (GPa) = 71.50183 95.91774 96.23340
#
# Poissons Ratio (x) = -0.21261 0.41901
# Poissons Ratio (y) = -0.15849 0.40656
# Poissons Ratio (z) = 0.31132 0.40523
#
# Static dielectric constant tensor:
#      x y z
#    x 1.861030 0.016600 -0.063540 
#    y 0.016600 1.876680 -0.039420 
#    z -0.063540 -0.039420 1.864310 
# 
# From -- ./inp_files/243701.got.cif
#   From: 2010.05.17/outbox.ucp.g08.bks.cvg/sg2_122_cif.got.tgz:243701.got - 2010.06.11 11:32:03.
