data_PCOD9075129
_publ_section_title
;
Structure prediction by ZEFSAII (Michael W. Deem and Ramdas Pophale) SiO2 
 PCOD9075129
Probable space group: P -1
;
_chemical_formula_sum "Si O2"
_cell_formula_units_Z 14
_cell_length_a 6.000000
_cell_length_b 12.000000
_cell_length_c 12.000000
_cell_angle_alpha 50.000000
_cell_angle_beta 100.000000
_cell_angle_gamma 110.000000
_cell_volume 620.665057
_symmetry_space_group_name_H-M "P -1"
_symmetry_group_IT_number 2
_symmetry_cell_setting 'triclinic'
loop_
_space_group_symop_operation_xyz
x,y,z
-x,-y,-z
loop_
_atom_site_type_symbol
_atom_site_label
_atom_site_fract_x
_atom_site_fract_y
_atom_site_fract_z
Si Si1 0.673922 0.166331 0.425773
Si Si2 0.714040 0.974491 0.106231
Si Si3 0.837744 0.694589 0.633722
Si Si4 0.491452 0.803753 0.394676
Si Si5 0.897101 0.752239 0.119127
Si Si6 0.539543 0.465217 0.149888
Si Si7 0.186021 0.564148 0.379394
O O1 0.721205 0.186423 0.551349
O O2 0.622840 0.316025 0.274166
O O3 0.926951 0.183146 0.385655
O O4 0.500000 0.000000 0.500000
O O5 0.610743 0.945644 0.238514
O O6 0.774402 0.829228 0.151632
O O7 0.500000 0.000000 0.000000
O O8 0.958873 0.110896 0.035714
O O9 0.668762 0.785831 0.515256
O O10 0.722002 0.580776 0.793713
O O11 0.834081 0.574231 0.613998
O O12 0.423488 0.655713 0.405344
O O13 0.711282 0.608861 0.137407
O O14 0.101060 0.692353 0.227712
O O15 0.500000 0.500000 0.000000
O O16 0.000000 0.500000 0.500000
#
# Coordination Sequence:
#
# PCOD9075129 Si02
#       7
#     2   2   2   2   2   2   2
#     4  11  26  46  66  98 133 175 233 279 328 407
#     4  11  24  40  64  99 141 177 213 274 344 402
#     4  11  23  43  69  97 134 167 226 279 335 398
#     4  11  23  39  67  99 130 177 217 269 347 398
#     4  11  24  42  64  99 137 170 228 272 327 413
#     4  11  26  46  68  97 131 183 230 279 335 397
#     4  12  19  39  69  97 133 168 216 277 335 395
#
# _framework density 22.556449000000001
#
# number of rings (size 3 to 8) (size 9 to 14) (size 15 to 20)
#    0.000    0.857    4.286    3.000    0.000    6.286 
#    0.000    0.000    0.000    0.000    0.000    0.000 
#    0.000    0.000    0.000    0.000    0.000    0.000 
#
# Total GULP energy -77968.994930 kJ/mol
# GULP energy per Si atom -5569.213924 kJ/mol
# Density = 2.250511 g / cm^3
# Si number density = 22.556449 Si / 1000 Ang^3
#
#
#
# Elastic Constant Matrix: (Units=GPa)
#
#
# Indices 1 2 3 4 5 6 
#
# 1 46.8380 35.3210 35.3461 -8.2305 -22.2285 25.7800
# 2 35.3210 111.1029 51.7963 -32.7526 -17.7964 27.5374
# 3 35.3461 51.7963 125.8861 7.0856 -34.6354 14.1974
# 4 -8.2305 -32.7526 7.0856 26.1991 -4.1272 -7.7782
# 5 -22.2285 -17.7964 -34.6354 -4.1272 33.2851 -11.1696
# 6 25.7800 27.5374 14.1974 -7.7782 -11.1696 34.5852
#
#
#
# Elastic Compliance Matrix: (Units=1/GPa)
#
#
# Indices 1 2 3 4 5 6 
#
# 1 0.054789 0.001379 -0.007656 0.016124 0.021935 -0.028085
# 2 0.001379 0.027400 -0.011221 0.036136 0.005588 -0.008306
# 3 -0.007656 -0.011221 0.016740 -0.018390 0.005883 0.005533
# 4 0.016124 0.036136 -0.018390 0.095211 0.021072 -0.005023
# 5 0.021935 0.005588 0.005883 0.021072 0.056318 -0.000287
# 6 -0.028085 -0.008306 0.005533 -0.005023 -0.000287 0.052969
#
#
# Mechanical properties :
#
#
# Convention : Reuss Voigt Hill
#
# Bulk Modulus (GPa) = 15.64135 58.75042 37.19588
# Shear Modulus (GPa) = 13.89914 29.57145 21.73529
#
# Velocity S-wave (km/s) = 2.48502 3.62470 3.10755
# Velocity P-wave (km/s) = 3.89655 6.60457 5.42234
#
# Compressibility (1/GPa) = 0.06393311
#
# Stress axis : x y z
#
# Youngs Moduli (GPa) = 18.25170 36.49644 59.73757
#
# Poissons Ratio (x) = -0.05031 0.45735
# Poissons Ratio (y) = -0.02516 0.67029
# Poissons Ratio (z) = 0.13974 0.40951
#
# Static dielectric constant tensor:
#      x y z
#    x 2.193060 -0.145930 0.071500 
#    y -0.145930 1.914930 -0.096600 
#    z 0.071500 -0.096600 2.028610 
# 
# From -- ./inp_files/27208.got.cif
#   From: 2010.05.17/outbox.ucp.g08.bks.cvg/sg2_14_cif.got.tgz:27208.got - 2010.06.11 11:32:03.
