data_PCOD9075124
_publ_section_title
;
Structure prediction by ZEFSAII (Michael W. Deem and Ramdas Pophale) SiO2 
 PCOD9075124
Probable space group: P -1
;
_chemical_formula_sum "Si O2"
_cell_formula_units_Z 16
_cell_length_a 9.000000
_cell_length_b 15.000000
_cell_length_c 9.000000
_cell_angle_alpha 70.000000
_cell_angle_beta 130.000000
_cell_angle_gamma 80.000000
_cell_volume 732.374747
_symmetry_space_group_name_H-M "P -1"
_symmetry_group_IT_number 2
_symmetry_cell_setting 'triclinic'
loop_
_space_group_symop_operation_xyz
x,y,z
-x,-y,-z
loop_
_atom_site_type_symbol
_atom_site_label
_atom_site_fract_x
_atom_site_fract_y
_atom_site_fract_z
Si Si1 0.739190 0.250648 0.721615
Si Si2 0.298295 0.917719 0.373003
Si Si3 0.389888 0.621399 0.739603
Si Si4 0.068809 0.220436 0.446780
Si Si5 0.880782 0.991623 0.281468
Si Si6 0.532544 0.754026 0.203260
Si Si7 0.191832 0.165544 0.210334
Si Si8 0.260900 0.443787 0.763037
O O1 0.749535 0.132728 0.773871
O O2 0.651653 0.307726 0.474593
O O3 0.567034 0.300598 0.720792
O O4 0.975018 0.241861 0.919772
O O5 0.570923 0.837287 0.639139
O O6 0.095275 0.936532 0.338300
O O7 0.261623 0.040514 0.274474
O O8 0.353518 0.521771 0.725881
O O9 0.186199 0.696337 0.690514
O O10 0.646122 0.573029 0.997555
O O11 0.180394 0.100294 0.670862
O O12 0.238017 0.262163 0.568122
O O13 0.090506 0.194412 0.298180
O O14 0.000000 0.000000 0.500000
O O15 0.662853 0.115037 0.030903
O O16 0.603928 0.682723 0.140240
O O17 0.000000 0.500000 0.500000
#
# Coordination Sequence:
#
# PCOD9075124 Si02
#       8
#     2   2   2   2   2   2   2   2
#     4  12  24  43  67 105 137 179 224 285 337 404
#     4  11  23  38  62  97 143 186 223 266 334 400
#     4  11  26  45  77 102 130 172 235 282 338 411
#     4  12  23  45  67 106 136 186 228 274 335 411
#     4  12  23  40  64 102 141 182 226 278 331 405
#     4  12  26  44  70  98 142 184 223 282 346 397
#     4  11  24  40  64  95 148 185 224 268 336 408
#     4  11  25  51  75  98 130 175 228 288 343 400
#
# _framework density 21.846738999999999
#
# number of rings (size 3 to 8) (size 9 to 14) (size 15 to 20)
#    0.000    0.500    6.250    2.250    0.000    2.500 
#    0.000    0.625    0.000    0.000    0.000    0.000 
#    0.000    0.000    0.000    0.000    0.000    0.000 
#
# Total GULP energy -89267.216138 kJ/mol
# GULP energy per Si atom -5579.201009 kJ/mol
# Density = 2.179701 g / cm^3
# Si number density = 21.846739 Si / 1000 Ang^3
#
#
#
# Elastic Constant Matrix: (Units=GPa)
#
#
# Indices 1 2 3 4 5 6 
#
# 1 45.1007 1.3328 46.5988 4.4264 9.6065 5.8181
# 2 1.3328 66.5729 20.7029 5.7284 -0.8003 11.4036
# 3 46.5988 20.7029 143.1645 24.6183 11.2587 12.5466
# 4 4.4264 5.7284 24.6183 33.8825 12.9881 3.9991
# 5 9.6065 -0.8003 11.2587 12.9881 32.3105 5.2607
# 6 5.8181 11.4036 12.5466 3.9991 5.2607 15.2786
#
#
#
# Elastic Compliance Matrix: (Units=1/GPa)
#
#
# Indices 1 2 3 4 5 6 
#
# 1 0.036987 0.003316 -0.012723 0.007828 -0.008792 -0.005133
# 2 0.003316 0.018201 -0.002559 -0.001228 0.003044 -0.013473
# 3 -0.012723 -0.002559 0.012893 -0.008069 0.002914 -0.002724
# 4 0.007828 -0.001228 -0.008069 0.040694 -0.015798 -0.000651
# 5 -0.008792 0.003044 0.002914 -0.015798 0.040803 -0.011230
# 6 -0.005133 -0.013473 -0.002724 -0.000651 -0.011230 0.083736
#
#
# Mechanical properties :
#
#
# Convention : Reuss Voigt Hill
#
# Bulk Modulus (GPa) = 22.65050 43.56745 33.10898
# Shear Modulus (GPa) = 18.38490 28.70789 23.54639
#
# Velocity S-wave (km/s) = 2.90408 3.62893 3.28655
# Velocity P-wave (km/s) = 4.65138 6.12735 5.43966
#
# Compressibility (1/GPa) = 0.04414914
#
# Stress axis : x y z
#
# Youngs Moduli (GPa) = 27.03631 54.94347 77.55874
#
# Poissons Ratio (x) = -0.18221 0.98681
# Poissons Ratio (y) = -0.08966 0.19847
# Poissons Ratio (z) = 0.34399 0.14060
#
# Static dielectric constant tensor:
#      x y z
#    x 5.169530 -0.842030 -0.657640 
#    y -0.842030 2.078440 0.115660 
#    z -0.657640 0.115660 1.951650 
# 
# From -- ./inp_files/206533.got.cif
#   From: 2010.05.17/outbox.ucp.g08.bks.cvg/sg2_104_cif.got.tgz:206533.got - 2010.06.11 11:32:03.
