data_PCOD9075529
_publ_section_title
;
Structure prediction by ZEFSAII (Michael W. Deem and Ramdas Pophale) SiO2 
 PCOD9075529
Probable space group: P -1
;
_chemical_formula_sum "Si O2"
_cell_formula_units_Z 15
_cell_length_a 21.000000
_cell_length_b 6.000000
_cell_length_c 12.000000
_cell_angle_alpha 110.000000
_cell_angle_beta 150.000000
_cell_angle_gamma 60.000000
_cell_volume 640.096506
_symmetry_space_group_name_H-M "P -1"
_symmetry_group_IT_number 2
_symmetry_cell_setting 'triclinic'
loop_
_space_group_symop_operation_xyz
x,y,z
-x,-y,-z
loop_
_atom_site_type_symbol
_atom_site_label
_atom_site_fract_x
_atom_site_fract_y
_atom_site_fract_z
Si Si1 0.227543 0.859229 0.097459
Si Si2 0.000000 0.500000 0.500000
Si Si3 0.423867 0.655325 0.152641
Si Si4 0.682594 0.773795 0.551628
Si Si5 0.978645 0.368163 0.700882
Si Si6 0.395841 0.940321 0.750897
Si Si7 0.784582 0.102169 0.329583
Si Si8 0.090156 0.695771 0.054333
O O1 0.328727 0.693241 0.123674
O O2 0.182817 0.690241 0.085846
O O3 0.291339 0.014467 0.298236
O O4 0.094563 0.086789 0.872964
O O5 0.011667 0.449961 0.644648
O O6 0.907253 0.821236 0.433853
O O7 0.534740 0.774496 0.361452
O O8 0.513157 0.349058 0.209698
O O9 0.329983 0.797193 0.926554
O O10 0.805411 0.487621 0.723735
O O11 0.664924 0.862599 0.411163
O O12 0.839681 0.324440 0.465732
O O13 0.985970 0.571951 0.836626
O O14 0.278252 0.933773 0.654706
O O15 0.500000 0.000000 0.000000
O O16 0.000000 0.000000 0.000000
#
# Coordination Sequence:
#
# PCOD9075529 Si02
#       8
#     2   1   2   2   2   2   2   2
#     4  11  26  50  78 114 154 208 261 327 398 470
#     4  12  26  46  78 116 156 208 256 330 392 466
#     4  12  27  50  78 115 159 203 267 320 405 470
#     4  11  27  51  79 113 157 204 268 330 395 471
#     4  11  27  47  76 115 159 200 266 326 393 471
#     4  12  29  50  77 115 157 212 259 326 395 476
#     4  12  28  48  78 121 160 207 262 330 399 473
#     4  11  28  53  78 116 159 214 266 325 396 476
#
# _framework density 23.433966000000002
#
# number of rings (size 3 to 8) (size 9 to 14) (size 15 to 20)
#    0.000    0.533    2.667    2.800    3.733   12.800 
#    0.000    2.000    0.000    0.000    0.000    0.000 
#    0.000    0.000    0.000    0.000    0.000    0.000 
#
# Total GULP energy -83876.804299 kJ/mol
# GULP energy per Si atom -5591.786953 kJ/mol
# Density = 2.338063 g / cm^3
# Si number density = 23.433966 Si / 1000 Ang^3
#
#
#
# Elastic Constant Matrix: (Units=GPa)
#
#
# Indices 1 2 3 4 5 6 
#
# 1 143.5019 28.8381 36.3580 -10.9698 -24.2027 10.2040
# 2 28.8381 104.2684 13.1485 -21.7590 4.0224 -3.9270
# 3 36.3580 13.1485 81.6624 -6.2652 -15.7053 25.2568
# 4 -10.9698 -21.7590 -6.2652 32.3622 20.9546 -5.1944
# 5 -24.2027 4.0224 -15.7053 20.9546 41.6042 -13.3101
# 6 10.2040 -3.9270 25.2568 -5.1944 -13.3101 40.5028
#
#
#
# Elastic Compliance Matrix: (Units=1/GPa)
#
#
# Indices 1 2 3 4 5 6 
#
# 1 0.009106 -0.003195 -0.002804 -0.003843 0.006763 0.000875
# 2 -0.003195 0.014742 -0.002614 0.016311 -0.011823 0.002071
# 3 -0.002804 -0.002614 0.017340 -0.003342 0.003798 -0.009540
# 4 -0.003843 0.016311 -0.003342 0.064066 -0.037135 0.000646
# 5 0.006763 -0.011823 0.003798 -0.037135 0.051468 0.006933
# 6 0.000875 0.002071 -0.009540 0.000646 0.006933 0.032980
#
#
# Mechanical properties :
#
#
# Convention : Reuss Voigt Hill
#
# Bulk Modulus (GPa) = 41.73507 54.01354 47.87430
# Shear Modulus (GPa) = 23.26500 39.63304 31.44902
#
# Velocity S-wave (km/s) = 3.15427 4.11696 3.66734
# Velocity P-wave (km/s) = 5.57801 6.76006 6.19729
#
# Compressibility (1/GPa) = 0.02396067
#
# Stress axis : x y z
#
# Youngs Moduli (GPa) = 109.82135 67.83489 57.67119
#
# Poissons Ratio (x) = 0.21671 0.16173
# Poissons Ratio (y) = 0.35084 0.15076
# Poissons Ratio (z) = 0.30798 0.17733
#
# Static dielectric constant tensor:
#      x y z
#    x 1.857920 -0.007270 0.051880 
#    y -0.007270 1.852840 0.022910 
#    z 0.051880 0.022910 1.893830 
# 
# From -- ./inp_files/468440.got.cif
#   From: 2010.05.17/outbox.ucp.g08.bks.cvg/sg2_235_cif.got.tgz:468440.got - 2010.06.11 11:32:03.
