data_PCOD9075163
_publ_section_title
;
Structure prediction by ZEFSAII (Michael W. Deem and Ramdas Pophale) SiO2 
 PCOD9075163
Probable space group: P -1
;
_chemical_formula_sum "Si O2"
_cell_formula_units_Z 16
_cell_length_a 27.000000
_cell_length_b 9.000000
_cell_length_c 27.000000
_cell_angle_alpha 140.000000
_cell_angle_beta 170.000000
_cell_angle_gamma 40.000000
_cell_volume 728.340053
_symmetry_space_group_name_H-M "P -1"
_symmetry_group_IT_number 2
_symmetry_cell_setting 'triclinic'
loop_
_space_group_symop_operation_xyz
x,y,z
-x,-y,-z
loop_
_atom_site_type_symbol
_atom_site_label
_atom_site_fract_x
_atom_site_fract_y
_atom_site_fract_z
Si Si1 0.028789 0.641445 0.512724
Si Si2 0.411627 0.425553 0.021848
Si Si3 0.101251 0.869398 0.217296
Si Si4 0.555188 0.199330 0.764717
Si Si5 0.270488 0.529811 0.390494
Si Si6 0.437583 0.619274 0.689171
Si Si7 0.130643 0.165195 0.767099
Si Si8 0.167308 0.787493 0.142810
O O1 0.288699 0.618817 0.722858
O O2 0.000000 0.500000 0.500000
O O3 0.023478 0.912309 0.591706
O O4 0.788016 0.560594 0.219121
O O5 0.419518 0.647227 0.122185
O O6 0.293181 0.238409 0.895799
O O7 0.236423 0.686953 0.346205
O O8 0.121059 0.802048 0.160983
O O9 0.252593 0.102915 0.434164
O O10 0.769578 0.964307 0.921093
O O11 0.589664 0.367922 0.794033
O O12 0.348455 0.636159 0.547825
O O13 0.492485 0.293519 0.545181
O O14 0.961671 0.436550 0.064259
O O15 0.151260 0.663178 0.452473
O O16 0.646540 0.806132 0.961312
O O17 0.000000 0.000000 0.000000
#
# Coordination Sequence:
#
# PCOD9075163 Si02
#       8
#     2   2   2   2   2   2   2   2
#     4  12  25  41  64  97 134 171 215 274 337 396
#     4  11  23  43  66  92 128 174 223 269 322 397
#     4  12  24  41  65  95 132 171 213 270 333 393
#     4  11  23  42  65  93 124 170 219 267 321 389
#     4  12  25  42  64  97 132 168 212 271 334 390
#     4  11  23  42  66  96 129 170 225 276 324 393
#     4  11  23  42  68  95 128 176 225 275 326 394
#     4  12  24  43  67  93 128 174 221 268 318 390
#
# _framework density 21.967760999999999
#
# number of rings (size 3 to 8) (size 9 to 14) (size 15 to 20)
#    0.000    0.500    0.000   10.500    0.000    3.000 
#    0.000    0.000    0.000    0.000    0.000    0.000 
#    0.000    0.000    0.000    0.000    0.000    0.000 
#
# Total GULP energy -89233.676477 kJ/mol
# GULP energy per Si atom -5577.104780 kJ/mol
# Density = 2.191776 g / cm^3
# Si number density = 21.967761 Si / 1000 Ang^3
#
#
#
# Elastic Constant Matrix: (Units=GPa)
#
#
# Indices 1 2 3 4 5 6 
#
# 1 155.4592 41.4130 13.4429 -16.0759 -41.3912 10.7636
# 2 41.4130 74.1578 5.4848 -5.9986 -3.1233 12.2426
# 3 13.4429 5.4848 86.0521 -6.5628 -17.0128 -6.6532
# 4 -16.0759 -5.9986 -6.5628 46.9838 -10.2013 -6.7427
# 5 -41.3912 -3.1233 -17.0128 -10.2013 55.4807 -4.0696
# 6 10.7636 12.2426 -6.6532 -6.7427 -4.0696 34.2097
#
#
#
# Elastic Compliance Matrix: (Units=1/GPa)
#
#
# Indices 1 2 3 4 5 6 
#
# 1 0.010622 -0.005343 0.000895 0.005126 0.008900 0.000813
# 2 -0.005343 0.017211 -0.001653 -0.001585 -0.004227 -0.005615
# 3 0.000895 -0.001653 0.013336 0.003813 0.005682 0.004331
# 4 0.005126 -0.001585 0.003813 0.026467 0.010221 0.006128
# 5 0.008900 -0.004227 0.005682 0.010221 0.028431 0.005214
# 6 0.000813 -0.005615 0.004331 0.006128 0.005214 0.033656
#
#
# Mechanical properties :
#
#
# Convention : Reuss Voigt Hill
#
# Bulk Modulus (GPa) = 34.52257 48.48337 41.50297
# Shear Modulus (GPa) = 32.98589 44.35673 38.67131
#
# Velocity S-wave (km/s) = 3.87920 4.49840 4.20022
# Velocity P-wave (km/s) = 5.98444 7.00706 6.51584
#
# Compressibility (1/GPa) = 0.02896655
#
# Stress axis : x y z
#
# Youngs Moduli (GPa) = 94.14460 58.10117 74.98714
#
# Poissons Ratio (x) = 0.31041 -0.06709
# Poissons Ratio (y) = 0.50298 0.12397
# Poissons Ratio (z) = -0.08423 0.09605
#
# Static dielectric constant tensor:
#      x y z
#    x 1.782970 -0.000380 0.044730 
#    y -0.000380 1.822500 -0.031000 
#    z 0.044730 -0.031000 1.772080 
# 
# From -- ./inp_files/357962.got.cif
#   From: 2010.05.17/outbox.ucp.g08.bks.cvg/sg2_179_cif.got.tgz:357962.got - 2010.06.11 11:32:03.
