data_PCOD9075591
_publ_section_title
;
Structure prediction by ZEFSAII (Michael W. Deem and Ramdas Pophale) SiO2 
 PCOD9075591
Probable space group: P -1
;
_chemical_formula_sum "Si O2"
_cell_formula_units_Z 16
_cell_length_a 24.000000
_cell_length_b 9.000000
_cell_length_c 9.000000
_cell_angle_alpha 150.000000
_cell_angle_beta 130.000000
_cell_angle_gamma 50.000000
_cell_volume 725.531033
_symmetry_space_group_name_H-M "P -1"
_symmetry_group_IT_number 2
_symmetry_cell_setting 'triclinic'
loop_
_space_group_symop_operation_xyz
x,y,z
-x,-y,-z
loop_
_atom_site_type_symbol
_atom_site_label
_atom_site_fract_x
_atom_site_fract_y
_atom_site_fract_z
Si Si1 0.371774 0.617063 0.871195
Si Si2 0.567446 0.887454 0.706760
Si Si3 0.815844 0.613585 0.039513
Si Si4 0.797997 0.244215 0.409274
Si Si5 0.596202 0.222825 0.598180
Si Si6 0.341886 0.254422 0.963577
Si Si7 0.987998 0.285400 0.110027
Si Si8 0.948604 0.155756 0.408041
O O1 0.374511 0.679690 0.107806
O O2 0.438008 0.774957 0.067896
O O3 0.393296 0.313224 0.540918
O O4 0.283906 0.746469 0.790822
O O5 0.488063 0.821308 0.561082
O O6 0.622200 0.891778 0.946465
O O7 0.791469 0.513448 0.750047
O O8 0.746785 0.624551 0.046177
O O9 0.897793 0.409568 0.045433
O O10 0.823686 0.953811 0.311078
O O11 0.864011 0.254013 0.412242
O O12 0.607908 0.498740 0.755558
O O13 0.642993 0.943090 0.334283
O O14 0.020380 0.596470 0.426180
O O15 0.000000 0.000000 0.000000
O O16 0.037825 0.129913 0.923600
O O17 0.000000 0.000000 0.500000
#
# Coordination Sequence:
#
# PCOD9075591 Si02
#       8
#     2   2   2   2   2   2   2   2
#     4  12  24  44  67 101 136 182 234 287 355 411
#     4  12  23  44  71  96 136 187 236 281 348 426
#     4  12  23  44  70  97 139 183 232 291 349 425
#     4  12  23  42  71 101 130 184 242 291 334 425
#     4  12  26  42  66 104 141 175 230 302 347 412
#     4  12  24  43  68  99 138 184 233 279 359 422
#     4  12  26  45  70 109 143 182 227 296 366 420
#     4  12  23  43  75 102 138 183 241 287 345 421
#
# _framework density 22.052813
#
# number of rings (size 3 to 8) (size 9 to 14) (size 15 to 20)
#    0.000    0.000    5.000    6.000    0.000    1.000 
#    0.000    2.500    0.000    0.000    0.000    0.000 
#    0.000    0.000    0.000    0.000    0.000    0.000 
#
# Total GULP energy -89092.332168 kJ/mol
# GULP energy per Si atom -5568.270760 kJ/mol
# Density = 2.200262 g / cm^3
# Si number density = 22.052813 Si / 1000 Ang^3
#
#
#
# Elastic Constant Matrix: (Units=GPa)
#
#
# Indices 1 2 3 4 5 6 
#
# 1 156.1633 37.9565 29.0133 -15.6539 -9.8818 -24.7393
# 2 37.9565 78.2475 4.6082 -2.2419 15.4821 -19.2191
# 3 29.0133 4.6082 95.5228 4.0438 -17.2438 -11.4664
# 4 -15.6539 -2.2419 4.0438 27.5599 -0.4722 8.7332
# 5 -9.8818 15.4821 -17.2438 -0.4722 46.3843 8.8806
# 6 -24.7393 -19.2191 -11.4664 8.7332 8.8806 34.4539
#
#
#
# Elastic Compliance Matrix: (Units=1/GPa)
#
#
# Indices 1 2 3 4 5 6 
#
# 1 0.008563 -0.003927 -0.002017 0.004358 0.002116 0.001637
# 2 -0.003927 0.019260 0.000131 -0.004506 -0.009474 0.011551
# 3 -0.002017 0.000131 0.012192 -0.003728 0.003499 0.002725
# 4 0.004358 -0.004506 -0.003728 0.042973 0.003881 -0.012518
# 5 0.002116 -0.009474 0.003499 0.003881 0.028611 -0.010959
# 6 0.001637 0.011551 0.002725 -0.012518 -0.010959 0.043547
#
#
# Mechanical properties :
#
#
# Convention : Reuss Voigt Hill
#
# Bulk Modulus (GPa) = 35.22699 52.56552 43.89626
# Shear Modulus (GPa) = 28.37125 38.90333 33.63729
#
# Velocity S-wave (km/s) = 3.59069 4.20467 3.90975
# Velocity P-wave (km/s) = 5.76189 6.88914 6.35058
#
# Compressibility (1/GPa) = 0.02838733
#
# Stress axis : x y z
#
# Youngs Moduli (GPa) = 116.78479 51.92195 82.02282
#
# Poissons Ratio (x) = 0.20388 0.16547
# Poissons Ratio (y) = 0.45857 -0.01071
# Poissons Ratio (z) = 0.23560 -0.00678
#
# Static dielectric constant tensor:
#      x y z
#    x 1.751010 0.030260 -0.013390 
#    y 0.030260 1.869140 0.043750 
#    z -0.013390 0.043750 1.884880 
# 
# From -- ./inp_files/227976.got.cif
#   From: 2010.05.17/outbox.ucp.g08.bks.cvg/sg2_114_cif.got.tgz:227976.got - 2010.06.11 11:32:03.
