data_PCOD9075332
_publ_section_title
;
Structure prediction by ZEFSAII (Michael W. Deem and Ramdas Pophale) SiO2 
 PCOD9075332
Probable space group: P -1
;
_chemical_formula_sum "Si O2"
_cell_formula_units_Z 16
_cell_length_a 9.000000
_cell_length_b 12.000000
_cell_length_c 9.000000
_cell_angle_alpha 120.000000
_cell_angle_beta 80.000000
_cell_angle_gamma 120.000000
_cell_volume 725.212580
_symmetry_space_group_name_H-M "P -1"
_symmetry_group_IT_number 2
_symmetry_cell_setting 'triclinic'
loop_
_space_group_symop_operation_xyz
x,y,z
-x,-y,-z
loop_
_atom_site_type_symbol
_atom_site_label
_atom_site_fract_x
_atom_site_fract_y
_atom_site_fract_z
Si Si1 0.878472 0.571305 0.091190
Si Si2 0.671237 0.343981 0.224573
Si Si3 0.578425 0.841385 0.091578
Si Si4 0.526322 0.257895 0.655867
Si Si5 0.830908 0.649807 0.558206
Si Si6 0.150049 0.165285 0.581133
Si Si7 0.694262 0.600645 0.868413
Si Si8 0.231045 0.806378 0.653957
O O1 0.735280 0.448300 0.138861
O O2 0.914682 0.726834 0.260415
O O3 0.820169 0.585077 0.949040
O O4 0.000000 0.500000 0.000000
O O5 0.706239 0.478120 0.421717
O O6 0.771966 0.270718 0.239641
O O7 0.503045 0.203670 0.090500
O O8 0.440875 0.788880 0.217186
O O9 0.701557 0.018253 0.212309
O O10 0.647771 0.722599 0.018733
O O11 0.320466 0.165204 0.611221
O O12 0.558115 0.426713 0.754924
O O13 0.635691 0.220361 0.492090
O O14 0.794812 0.758885 0.538212
O O15 0.785989 0.663238 0.741163
O O16 0.038329 0.712435 0.555855
O O17 0.000000 0.000000 0.500000
#
# Coordination Sequence:
#
# PCOD9075332 Si02
#       8
#     2   2   2   2   2   2   2   2
#     4  11  24  43  73 102 138 190 243 292 345 433
#     4  11  24  44  71 104 141 188 248 287 353 428
#     4  12  26  45  71 110 142 188 240 306 359 418
#     4  12  25  47  75 102 144 194 237 294 356 437
#     4  11  26  45  74 105 143 197 237 295 354 433
#     4  11  26  48  70 106 147 183 239 294 370 423
#     4  12  24  46  75 102 147 186 246 290 359 426
#     4  12  27  47  73 108 149 186 244 295 364 421
#
# _framework density 22.062495999999999
#
# number of rings (size 3 to 8) (size 9 to 14) (size 15 to 20)
#    0.000    0.500    3.750    4.500    5.250    2.500 
#    2.250    0.000    0.000    0.000    0.000    0.000 
#    0.000    0.000    0.000    0.000    0.000    0.000 
#
# Total GULP energy -89105.685811 kJ/mol
# GULP energy per Si atom -5569.105363 kJ/mol
# Density = 2.201228 g / cm^3
# Si number density = 22.062496 Si / 1000 Ang^3
#
#
#
# Elastic Constant Matrix: (Units=GPa)
#
#
# Indices 1 2 3 4 5 6 
#
# 1 54.5096 -3.5286 44.5645 0.6513 3.1807 -9.5745
# 2 -3.5286 102.4075 45.0661 24.9100 -5.7847 -4.7640
# 3 44.5645 45.0661 119.2589 6.5850 -3.8016 8.8437
# 4 0.6513 24.9100 6.5850 39.1680 -10.8861 -2.2292
# 5 3.1807 -5.7847 -3.8016 -10.8861 35.2355 -4.6965
# 6 -9.5745 -4.7640 8.8437 -2.2292 -4.6965 28.7840
#
#
#
# Elastic Compliance Matrix: (Units=1/GPa)
#
#
# Indices 1 2 3 4 5 6 
#
# 1 0.040739 0.012874 -0.021502 -0.004712 -0.002471 0.021520
# 2 0.012874 0.018176 -0.011934 -0.009489 -0.001058 0.010050
# 3 -0.021502 -0.011934 0.021903 0.003804 0.001478 -0.015321
# 4 -0.004712 -0.009489 0.003804 0.033685 0.009669 -0.000120
# 5 -0.002471 -0.001058 0.001478 0.009669 0.032183 0.004549
# 6 0.021520 0.010050 -0.015321 -0.000120 0.004549 0.049003
#
#
# Mechanical properties :
#
#
# Convention : Reuss Voigt Hill
#
# Bulk Modulus (GPa) = 25.19367 49.81999 37.50683
# Shear Modulus (GPa) = 19.99632 33.30911 26.65271
#
# Velocity S-wave (km/s) = 3.01383 3.88978 3.47948
# Velocity P-wave (km/s) = 4.85334 6.54249 5.76017
#
# Compressibility (1/GPa) = 0.03969251
#
# Stress axis : x y z
#
# Youngs Moduli (GPa) = 24.54676 55.01646 45.65561
#
# Poissons Ratio (x) = -0.70827 0.98170
# Poissons Ratio (y) = -0.31601 0.54487
# Poissons Ratio (z) = 0.52781 0.65658
#
# Static dielectric constant tensor:
#      x y z
#    x 1.882450 0.028660 0.029530 
#    y 0.028660 1.767590 -0.011850 
#    z 0.029530 -0.011850 1.909230 
# 
# From -- ./inp_files/190012.got.cif
#   From: 2010.05.17/outbox.ucp.g08.bks.cvg/sg2_96_cif.got.tgz:190012.got - 2010.06.11 11:32:03.
