data_PCOD9075550
_publ_section_title
;
Structure prediction by ZEFSAII (Michael W. Deem and Ramdas Pophale) SiO2 
 PCOD9075550
Probable space group: P -1
;
_chemical_formula_sum "Si O2"
_cell_formula_units_Z 16
_cell_length_a 10.002007
_cell_length_b 25.171172
_cell_length_c 10.304991
_cell_angle_alpha 27.973641
_cell_angle_beta 31.730286
_cell_angle_gamma 34.026317
_cell_volume 607.510814
_symmetry_space_group_name_H-M "P -1"
_symmetry_group_IT_number 2
_symmetry_cell_setting 'triclinic'
loop_
_space_group_symop_operation_xyz
x,y,z
-x,-y,-z
loop_
_atom_site_type_symbol
_atom_site_label
_atom_site_fract_x
_atom_site_fract_y
_atom_site_fract_z
Si Si1 0.576163 0.556923 0.439724
Si Si2 0.650916 0.727321 0.334769
Si Si3 0.829414 0.952073 0.347911
Si Si4 0.949695 0.667787 0.481171
Si Si5 0.122547 0.794022 0.750145
Si Si6 0.351308 0.515656 0.224506
Si Si7 0.209984 0.876099 0.770159
Si Si8 0.743173 0.740014 0.759217
O O1 0.500000 0.500000 0.500000
O O2 0.861005 0.459812 0.451989
O O3 0.424192 0.533549 0.741354
O O4 0.599542 0.681426 0.109977
O O5 0.329838 0.781906 0.487829
O O6 0.754106 0.600183 0.450495
O O7 0.722536 0.709123 0.469400
O O8 0.806105 0.811426 0.961978
O O9 0.897210 0.813697 0.552449
O O10 0.500000 0.000000 0.500000
O O11 0.895020 0.002586 0.322679
O O12 0.000000 0.000000 0.000000
O O13 0.900391 0.649687 0.713184
O O14 0.082102 0.774940 0.143059
O O15 0.170364 0.877093 0.646813
O O16 0.210675 0.658304 0.032336
O O17 0.500000 0.500000 0.000000
O O18 0.519345 0.825618 0.664684
#
# Coordination Sequence:
#
# PCOD9075550 Si02
#       8
#     2   2   2   2   2   2   2   2
#     4  12  23  37  57  85 127 163 192 242 309 366
#     4  10  20  33  55  79 110 148 195 238 271 342
#     4  10  21  34  57  79 114 155 198 248 290 350
#     4  11  20  34  57  80 120 154 193 238 299 357
#     4  10  18  32  54  78 107 139 191 242 282 327
#     4  10  21  36  55  81 116 158 202 237 285 357
#     4  10  18  34  54  78 114 148 196 240 292 343
#     4  11  21  36  52  83 120 153 195 241 309 354
#
# _framework density 26.336980000000001
#
# number of rings (size 3 to 8) (size 9 to 14) (size 15 to 20)
#    0.000    1.500    6.250    0.750    1.750    0.000 
#    0.000    0.000    0.000    0.000    0.000    7.000 
#    0.000    0.000    0.000    0.000    0.000    0.000 
#
# Total GULP energy -89273.316388 kJ/mol
# GULP energy per Si atom -5579.582274 kJ/mol
# Density = 2.627704 g / cm^3
# Si number density = 26.336980 Si / 1000 Ang^3
#
#
#
# Elastic Constant Matrix: (Units=GPa)
#
#
# Indices 1 2 3 4 5 6 
#
# 1 80.0621 27.1528 26.0262 -13.5525 -16.5742 25.6665
# 2 27.1528 100.1667 29.8055 -15.2437 -12.7840 14.6186
# 3 26.0262 29.8055 112.7704 2.0414 -18.4028 9.5625
# 4 -13.5525 -15.2437 2.0414 40.6669 6.1803 -15.0471
# 5 -16.5742 -12.7840 -18.4028 6.1803 42.9107 -5.9617
# 6 25.6665 14.6186 9.5625 -15.0471 -5.9617 46.1729
#
#
#
# Elastic Compliance Matrix: (Units=1/GPa)
#
#
# Indices 1 2 3 4 5 6 
#
# 1 0.017450 -0.002227 -0.002210 0.001743 0.003839 -0.007474
# 2 -0.002227 0.012114 -0.002509 0.003463 0.001062 -0.000813
# 3 -0.002210 -0.002509 0.010699 -0.002991 0.003315 -0.000740
# 4 0.001743 0.003463 -0.002991 0.029991 -0.002791 0.007968
# 5 0.003839 0.001062 0.003315 -0.002791 0.026844 -0.000600
# 6 -0.007474 -0.000813 -0.000740 0.007968 -0.000600 0.028742
#
#
# Mechanical properties :
#
#
# Convention : Reuss Voigt Hill
#
# Bulk Modulus (GPa) = 37.91849 50.99646 44.45747
# Shear Modulus (GPa) = 33.66543 39.95108 36.80826
#
# Velocity S-wave (km/s) = 3.57915 3.89899 3.74249
# Velocity P-wave (km/s) = 5.61330 6.29878 5.96589
#
# Compressibility (1/GPa) = 0.02637236
#
# Stress axis : x y z
#
# Youngs Moduli (GPa) = 57.30806 82.54591 93.47089
#
# Poissons Ratio (x) = 0.18380 0.20657
# Poissons Ratio (y) = 0.12760 0.23447
# Poissons Ratio (z) = 0.12665 0.20707
#
# Static dielectric constant tensor:
#      x y z
#    x 2.272930 -0.032440 0.036030 
#    y -0.032440 2.419190 0.184520 
#    z 0.036030 0.184520 2.212380 
# 
# From -- ./inp_files/439454.got.cif
#   From: 2010.05.17/outbox.cif.g08.bks.cpg/sg2_220_cif.got.tgz:439454.got - 2010.06.03 11:33:40.
