data_PCOD9075105
_publ_section_title
;
Structure prediction by ZEFSAII (Michael W. Deem and Ramdas Pophale) SiO2 
 PCOD9075105
Probable space group: P -1
;
_chemical_formula_sum "Si O2"
_cell_formula_units_Z 16
_cell_length_a 9.000000
_cell_length_b 15.000000
_cell_length_c 12.000000
_cell_angle_alpha 90.000000
_cell_angle_beta 80.000000
_cell_angle_gamma 150.000000
_cell_volume 759.581896
_symmetry_space_group_name_H-M "P -1"
_symmetry_group_IT_number 2
_symmetry_cell_setting 'triclinic'
loop_
_space_group_symop_operation_xyz
x,y,z
-x,-y,-z
loop_
_atom_site_type_symbol
_atom_site_label
_atom_site_fract_x
_atom_site_fract_y
_atom_site_fract_z
Si Si1 0.395607 0.652237 0.823584
Si Si2 0.412411 0.446733 0.879188
Si Si3 0.639553 0.505477 0.628404
Si Si4 0.002546 0.753951 0.375658
Si Si5 0.716569 0.915469 0.576412
Si Si6 0.269108 0.737511 0.186033
Si Si7 0.357174 0.692882 0.410116
Si Si8 0.831720 0.993443 0.952742
O O1 0.414493 0.554815 0.846590
O O2 0.522393 0.752718 0.687556
O O3 0.011441 0.456562 0.849811
O O4 0.616026 0.827938 0.882492
O O5 0.666738 0.536320 0.757700
O O6 0.500000 0.500000 0.000000
O O7 0.104177 0.216067 0.900248
O O8 0.522160 0.345475 0.614602
O O9 0.936208 0.678645 0.508073
O O10 0.349161 0.416561 0.628407
O O11 0.166612 0.776000 0.262228
O O12 0.175466 0.937752 0.376212
O O13 0.536092 0.840048 0.483238
O O14 0.000000 0.000000 0.500000
O O15 0.364631 0.731056 0.283213
O O16 0.566248 0.900508 0.065631
O O17 0.000000 0.500000 0.500000
O O18 0.000000 0.000000 0.000000
#
# Coordination Sequence:
#
# PCOD9075105 Si02
#       8
#     2   2   2   2   2   2   2   2
#     4  12  26  50  74 109 149 201 250 306 383 435
#     4  12  26  48  77 109 145 196 253 310 369 441
#     4  11  22  45  74 102 149 190 246 296 377 444
#     4  11  23  44  76 111 141 196 243 312 371 444
#     4  12  25  43  76 111 147 197 251 304 374 457
#     4  12  27  50  75 109 156 193 253 316 377 443
#     4  12  24  46  70 107 149 192 240 307 376 442
#     4  12  28  51  77 110 146 203 259 305 370 459
#
# _framework density 21.064219999999999
#
# number of rings (size 3 to 8) (size 9 to 14) (size 15 to 20)
#    0.000    0.250    6.250    2.625    1.750    2.000 
#    4.500    0.000    0.000    0.000    0.000    0.000 
#    0.000    0.000    0.000    0.000    0.000    0.000 
#
# Total GULP energy -89129.154292 kJ/mol
# GULP energy per Si atom -5570.572143 kJ/mol
# Density = 2.101628 g / cm^3
# Si number density = 21.064220 Si / 1000 Ang^3
#
#
#
# Elastic Constant Matrix: (Units=GPa)
#
#
# Indices 1 2 3 4 5 6 
#
# 1 74.9627 23.7089 25.5789 -2.3163 -4.9894 -18.1946
# 2 23.7089 135.4565 33.0321 16.7603 -0.1811 -18.9623
# 3 25.5789 33.0321 108.5517 15.9926 -9.6253 -6.8271
# 4 -2.3163 16.7603 15.9926 49.9057 -1.1715 5.1998
# 5 -4.9894 -0.1811 -9.6253 -1.1715 46.5606 -0.4692
# 6 -18.1946 -18.9623 -6.8271 5.1998 -0.4692 43.4913
#
#
#
# Elastic Compliance Matrix: (Units=1/GPa)
#
#
# Indices 1 2 3 4 5 6 
#
# 1 0.016383 -0.001535 -0.003202 0.001758 0.001187 0.005484
# 2 -0.001535 0.008894 -0.001765 -0.002848 -0.000533 0.003294
# 3 -0.003202 -0.001765 0.011125 -0.003080 0.001873 0.000025
# 4 0.001758 -0.002848 -0.003080 0.022447 0.000068 -0.003673
# 5 0.001187 -0.000533 0.001873 0.000068 0.021999 0.000787
# 6 0.005484 0.003294 0.000025 -0.003673 0.000787 0.027175
#
#
# Mechanical properties :
#
#
# Convention : Reuss Voigt Hill
#
# Bulk Modulus (GPa) = 42.73971 53.73451 48.23711
# Shear Modulus (GPa) = 38.81156 43.76826 41.28991
#
# Velocity S-wave (km/s) = 4.29713 4.56329 4.43221
# Velocity P-wave (km/s) = 6.70483 7.30274 7.01016
#
# Compressibility (1/GPa) = 0.02339745
#
# Stress axis : x y z
#
# Youngs Moduli (GPa) = 61.04065 112.43095 89.88497
#
# Poissons Ratio (x) = 0.17256 0.28783
# Poissons Ratio (y) = 0.09368 0.15868
# Poissons Ratio (z) = 0.19546 0.19849
#
# Static dielectric constant tensor:
#      x y z
#    x 1.872220 0.051200 0.075610 
#    y 0.051200 1.792930 0.029590 
#    z 0.075610 0.029590 1.868410 
# 
# From -- ./inp_files/399115.got.cif
#   From: 2010.05.17/outbox.ucp.g08.bks.cvg/sg2_200_cif.got.tgz:399115.got - 2010.06.11 11:32:03.
