data_PCOD9075505
_publ_section_title
;
Structure prediction by ZEFSAII (Michael W. Deem and Ramdas Pophale) SiO2 
 PCOD9075505
Probable space group: P -1
;
_chemical_formula_sum "Si O2"
_cell_formula_units_Z 13
_cell_length_a 12.000000
_cell_length_b 9.000000
_cell_length_c 9.000000
_cell_angle_alpha 100.000000
_cell_angle_beta 140.000000
_cell_angle_gamma 70.000000
_cell_volume 580.795013
_symmetry_space_group_name_H-M "P -1"
_symmetry_group_IT_number 2
_symmetry_cell_setting 'triclinic'
loop_
_space_group_symop_operation_xyz
x,y,z
-x,-y,-z
loop_
_atom_site_type_symbol
_atom_site_label
_atom_site_fract_x
_atom_site_fract_y
_atom_site_fract_z
Si Si1 0.702812 0.298246 0.588481
Si Si2 0.000000 0.000000 0.000000
Si Si3 0.250115 0.106626 0.063611
Si Si4 0.629112 0.329487 0.168499
Si Si5 0.601154 0.842872 0.275596
Si Si6 0.326345 0.358008 0.389373
Si Si7 0.951498 0.838112 0.441004
O O1 0.857516 0.137561 0.770275
O O2 0.635853 0.309126 0.350393
O O3 0.529131 0.325442 0.523425
O O4 0.770132 0.452877 0.694394
O O5 0.834045 0.011470 0.954411
O O6 0.236003 0.250436 0.185449
O O7 0.465153 0.009075 0.232429
O O8 0.140448 0.177133 0.813528
O O9 0.845945 0.289982 0.340488
O O10 0.500000 0.500000 0.000000
O O11 0.533884 0.206079 0.984592
O O12 0.656758 0.708376 0.437477
O O13 0.790072 0.850386 0.397464
O O14 0.000000 0.000000 0.500000
#
# Coordination Sequence:
#
# PCOD9075505 Si02
#       7
#     2   1   2   2   2   2   2
#     4  11  25  50  74 114 150 203 257 320 389 461
#     4  12  26  44  80 110 156 198 264 316 388 460
#     4  12  26  46  77 116 153 207 256 331 382 470
#     4  12  26  50  78 111 158 203 258 327 388 463
#     4  12  26  48  78 117 154 208 260 324 392 463
#     4  11  26  47  78 107 154 203 255 319 394 460
#     4  12  28  47  78 112 153 206 266 317 389 468
#
# _framework density 22.383112000000001
#
# number of rings (size 3 to 8) (size 9 to 14) (size 15 to 20)
#    0.000    0.308    6.154    1.846    4.308    1.231 
#    0.000    0.000    0.000    0.000    0.000    0.000 
#    0.000    0.000    0.000    0.000    0.000    0.000 
#
# Total GULP energy -72538.014547 kJ/mol
# GULP energy per Si atom -5579.847273 kJ/mol
# Density = 2.233217 g / cm^3
# Si number density = 22.383112 Si / 1000 Ang^3
#
#
#
# Elastic Constant Matrix: (Units=GPa)
#
#
# Indices 1 2 3 4 5 6 
#
# 1 201.4019 28.6143 62.8281 -19.4059 12.0777 11.6050
# 2 28.6143 64.0047 58.3921 -22.6260 -15.1414 -0.5655
# 3 62.8281 58.3921 126.5073 -41.2301 -3.0992 1.8712
# 4 -19.4059 -22.6260 -41.2301 50.2403 -4.3295 -2.5521
# 5 12.0777 -15.1414 -3.0992 -4.3295 49.0395 -8.5894
# 6 11.6050 -0.5655 1.8712 -2.5521 -8.5894 22.5114
#
#
#
# Elastic Compliance Matrix: (Units=1/GPa)
#
#
# Indices 1 2 3 4 5 6 
#
# 1 0.006392 -0.001310 -0.002899 -0.000980 -0.003010 -0.004347
# 2 -0.001310 0.031876 -0.012219 0.005153 0.011130 0.007323
# 3 -0.002899 -0.012219 0.017418 0.007568 -0.001270 0.000113
# 4 -0.000980 0.005153 0.007568 0.028838 0.005819 0.005495
# 5 -0.003010 0.011130 -0.001270 0.005819 0.027281 0.013006
# 6 -0.004347 0.007323 0.000113 0.005495 0.013006 0.052423
#
#
# Mechanical properties :
#
#
# Convention : Reuss Voigt Hill
#
# Bulk Modulus (GPa) = 43.79950 76.84256 60.32103
# Shear Modulus (GPa) = 24.42685 40.49687 32.46186
#
# Velocity S-wave (km/s) = 3.30708 4.25815 3.81239
# Velocity P-wave (km/s) = 5.84747 7.65382 6.81080
#
# Compressibility (1/GPa) = 0.02283131
#
# Stress axis : x y z
#
# Youngs Moduli (GPa) = 156.44273 31.37144 57.41276
#
# Poissons Ratio (x) = 0.04110 0.16642
# Poissons Ratio (y) = 0.20494 0.70150
# Poissons Ratio (z) = 0.45348 0.38332
#
# Static dielectric constant tensor:
#      x y z
#    x 1.907260 -0.081950 0.066600 
#    y -0.081950 1.918460 0.013560 
#    z 0.066600 0.013560 1.866440 
# 
# From -- ./inp_files/240072.got.cif
#   From: 2010.05.17/outbox.ucp.g08.bks.cvg/sg2_121_cif.got.tgz:240072.got - 2010.06.11 11:32:03.
