data_PCOD9075329
_publ_section_title
;
Structure prediction by ZEFSAII (Michael W. Deem and Ramdas Pophale) SiO2 
 PCOD9075329
Probable space group: P -1
;
_chemical_formula_sum "Si O2"
_cell_formula_units_Z 14
_cell_length_a 9.969556
_cell_length_b 9.882371
_cell_length_c 11.225286
_cell_angle_alpha 142.450557
_cell_angle_beta 58.838760
_cell_angle_gamma 120.227242
_cell_volume 567.482624
_symmetry_space_group_name_H-M "P -1"
_symmetry_group_IT_number 2
_symmetry_cell_setting 'triclinic'
loop_
_space_group_symop_operation_xyz
x,y,z
-x,-y,-z
loop_
_atom_site_type_symbol
_atom_site_label
_atom_site_fract_x
_atom_site_fract_y
_atom_site_fract_z
Si Si1 0.144159 0.488824 0.652537
Si Si2 0.635700 0.721776 0.447919
Si Si3 0.402904 0.000987 0.668255
Si Si4 0.842150 0.179629 0.684042
Si Si5 0.957170 0.181318 0.246593
Si Si6 0.702592 0.584564 0.067287
Si Si7 0.069867 0.853469 0.108220
O O1 0.305528 0.391580 0.540119
O O2 0.057228 0.584030 0.645993
O O3 0.006313 0.301018 0.639518
O O4 0.167567 0.715290 0.881418
O O5 0.626455 0.573090 0.227211
O O6 0.485560 0.850252 0.616175
O O7 0.774240 0.933803 0.497256
O O8 0.380187 0.259760 0.873348
O O9 0.500000 0.000000 0.500000
O O10 0.219569 0.881475 0.661814
O O11 0.133034 0.838948 0.200202
O O12 0.715952 0.344136 0.839669
O O13 0.073473 0.111805 0.245879
O O14 0.000000 0.000000 0.000000
O O15 0.888813 0.710595 0.082370
#
# Coordination Sequence:
#
# PCOD9075329 Si02
#       7
#     2   2   2   2   2   2   2
#     4  10  18  32  53  86 110 145 189 234 280 327
#     4  11  20  31  54  84 113 145 187 231 281 337
#     4   9  20  36  57  83 114 151 189 230 283 343
#     4  11  19  31  58  84 110 146 193 230 272 339
#     4   9  19  35  60  83 109 152 192 232 284 332
#     4   9  17  34  52  76 108 144 186 231 267 321
#     4   9  16  32  55  77 107 147 188 225 274 331
#
# _framework density 24.670356999999999
#
# number of rings (size 3 to 8) (size 9 to 14) (size 15 to 20)
#    0.000    2.286    2.857    2.143    0.000    1.143 
#    0.000    0.714    0.000    3.429    0.000    0.000 
#    0.000    0.000    0.000    0.000    0.000    0.000 
#
# Total GULP energy -78084.615931 kJ/mol
# GULP energy per Si atom -5577.472567 kJ/mol
# Density = 2.461421 g / cm^3
# Si number density = 24.670357 Si / 1000 Ang^3
#
#
#
# Elastic Constant Matrix: (Units=GPa)
#
#
# Indices 1 2 3 4 5 6 
#
# 1 102.5218 7.8518 27.4612 7.5145 -42.8721 -30.3376
# 2 7.8518 50.9951 10.6718 14.9163 -9.0165 -22.8874
# 3 27.4612 10.6718 115.0095 17.7655 -30.7531 -16.1674
# 4 7.5145 14.9163 17.7655 38.2599 -14.4249 -10.9220
# 5 -42.8721 -9.0165 -30.7531 -14.4249 50.2982 8.2899
# 6 -30.3376 -22.8874 -16.1674 -10.9220 8.2899 41.8991
#
#
#
# Elastic Compliance Matrix: (Units=1/GPa)
#
#
# Indices 1 2 3 4 5 6 
#
# 1 0.021313 0.005814 0.000875 0.004802 0.018392 0.016559
# 2 0.005814 0.029264 0.000932 -0.005527 0.006240 0.017880
# 3 0.000875 0.000932 0.010945 -0.002200 0.006392 0.003528
# 4 0.004802 -0.005527 -0.002200 0.034165 0.010494 0.006438
# 5 0.018392 0.006240 0.006392 0.010494 0.041328 0.013750
# 6 0.016559 0.017880 0.003528 0.006438 0.013750 0.045942
#
#
# Mechanical properties :
#
#
# Convention : Reuss Voigt Hill
#
# Bulk Modulus (GPa) = 13.02674 40.05512 26.54093
# Shear Modulus (GPa) = 25.86625 40.92755 33.39690
#
# Velocity S-wave (km/s) = 3.24153 4.07747 3.68329
# Velocity P-wave (km/s) = 4.39338 6.19993 5.37312
#
# Compressibility (1/GPa) = 0.07676519
#
# Stress axis : x y z
#
# Youngs Moduli (GPa) = 46.91896 34.17159 91.36992
#
# Poissons Ratio (x) = -0.19868 -0.07998
# Poissons Ratio (y) = -0.27280 -0.08515
# Poissons Ratio (z) = -0.04107 -0.03184
#
# Static dielectric constant tensor:
#      x y z
#    x 2.087750 -0.037980 -0.014080 
#    y -0.037980 1.992630 0.033510 
#    z -0.014080 0.033510 2.010810 
# 
# From -- ./inp_files/518372.got.cif
#   From: 2010.05.17/outbox.cif.g08.bks.cpg/sg2_260_cif.got.tgz:518372.got - 2010.06.03 11:33:40.
