data_PCOD9075162
_publ_section_title
;
Structure prediction by ZEFSAII (Michael W. Deem and Ramdas Pophale) SiO2 
 PCOD9075162
Probable space group: P -1
;
_chemical_formula_sum "Si O2"
_cell_formula_units_Z 16
_cell_length_a 9.000000
_cell_length_b 9.000000
_cell_length_c 12.000000
_cell_angle_alpha 50.000000
_cell_angle_beta 80.000000
_cell_angle_gamma 90.000000
_cell_volume 725.212580
_symmetry_space_group_name_H-M "P -1"
_symmetry_group_IT_number 2
_symmetry_cell_setting 'triclinic'
loop_
_space_group_symop_operation_xyz
x,y,z
-x,-y,-z
loop_
_atom_site_type_symbol
_atom_site_label
_atom_site_fract_x
_atom_site_fract_y
_atom_site_fract_z
Si Si1 0.028907 0.221884 0.435503
Si Si2 0.623028 0.690177 0.892520
Si Si3 0.085452 0.505311 0.103395
Si Si4 0.470374 0.946176 0.401766
Si Si5 0.776530 0.298163 0.588856
Si Si6 0.336721 0.023922 0.052533
Si Si7 0.128833 0.966953 0.912478
Si Si8 0.237566 0.249796 0.576074
O O1 0.993317 0.383087 0.273380
O O2 0.199036 0.247573 0.450592
O O3 0.941913 0.270005 0.536269
O O4 0.000000 0.000000 0.500000
O O5 0.775101 0.617955 0.863890
O O6 0.553349 0.855111 0.753460
O O7 0.662814 0.789527 0.958683
O O8 0.500000 0.500000 0.000000
O O9 0.132328 0.735588 0.009931
O O10 0.000000 0.500000 0.000000
O O11 0.322895 0.797488 0.456288
O O12 0.606216 0.839253 0.390041
O O13 0.500000 0.000000 0.500000
O O14 0.733602 0.164949 0.770220
O O15 0.757531 0.524817 0.496407
O O16 0.266901 0.058379 0.925979
O O17 0.500000 0.000000 0.000000
O O18 0.126791 0.088450 0.741296
O O19 0.000000 0.000000 0.000000
#
# Coordination Sequence:
#
# PCOD9075162 Si02
#       8
#     2   2   2   2   2   2   2   2
#     4  12  24  43  68  97 133 173 214 271 327 385
#     4  11  24  43  65  94 129 167 214 266 320 382
#     4  12  25  44  68  98 130 171 218 269 326 387
#     4  11  24  42  64  93 127 167 212 263 318 381
#     4  11  24  43  64  95 131 173 219 267 324 386
#     4  11  23  42  64  92 129 172 215 266 320 379
#     4  12  24  41  64  95 128 167 215 266 319 384
#     4  12  24  42  66  96 131 172 216 266 323 386
#
# _framework density 22.062495999999999
#
# number of rings (size 3 to 8) (size 9 to 14) (size 15 to 20)
#    0.000    0.500    0.000   10.500    0.000    3.000 
#    0.000    0.000    0.000    0.000    0.000    0.000 
#    0.000    0.000    0.000    0.000    0.000    0.000 
#
# Total GULP energy -89271.986303 kJ/mol
# GULP energy per Si atom -5579.499144 kJ/mol
# Density = 2.201228 g / cm^3
# Si number density = 22.062496 Si / 1000 Ang^3
#
#
#
# Elastic Constant Matrix: (Units=GPa)
#
#
# Indices 1 2 3 4 5 6 
#
# 1 64.9189 7.2357 17.6707 -0.7026 23.1605 -9.9179
# 2 7.2357 161.6129 55.4606 -34.0467 20.7995 0.7129
# 3 17.6707 55.4606 144.6476 -10.1951 21.6892 4.0823
# 4 -0.7026 -34.0467 -10.1951 45.6422 -0.3181 4.2132
# 5 23.1605 20.7995 21.6892 -0.3181 37.2987 10.6264
# 6 -9.9179 0.7129 4.0823 4.2132 10.6264 46.2408
#
#
#
# Elastic Compliance Matrix: (Units=1/GPa)
#
#
# Indices 1 2 3 4 5 6 
#
# 1 0.022958 0.001567 -0.001078 0.000343 -0.017028 0.008877
# 2 0.001567 0.008813 -0.002480 0.005924 -0.004666 0.000952
# 3 -0.001078 -0.002480 0.008420 0.000023 -0.002756 -0.000305
# 4 0.000343 0.005924 0.000023 0.026485 -0.002794 -0.001791
# 5 -0.017028 -0.004666 -0.002756 -0.002794 0.045417 -0.013519
# 6 0.008877 0.000952 -0.000305 -0.001791 -0.013519 0.026812
#
#
# Mechanical properties :
#
#
# Convention : Reuss Voigt Hill
#
# Bulk Modulus (GPa) = 27.61923 59.10149 43.36036
# Shear Modulus (GPa) = 32.26733 45.22383 38.74558
#
# Velocity S-wave (km/s) = 3.82847 4.53239 4.19522
# Velocity P-wave (km/s) = 5.66469 7.36454 6.56982
#
# Compressibility (1/GPa) = 0.03620666
#
# Stress axis : x y z
#
# Youngs Moduli (GPa) = 43.55858 113.47134 118.77147
#
# Poissons Ratio (x) = -0.17780 0.12808
# Poissons Ratio (y) = -0.06825 0.29457
# Poissons Ratio (z) = 0.04697 0.28142
#
# Static dielectric constant tensor:
#      x y z
#    x 1.829660 0.076980 -0.155360 
#    y 0.076980 1.686740 0.046800 
#    z -0.155360 0.046800 1.910260 
# 
# From -- ./inp_files/243508.got.cif
#   From: 2010.05.17/outbox.ucp.g08.bks.cvg/sg2_122_cif.got.tgz:243508.got - 2010.06.11 11:32:03.
