data_PCOD9075610
_publ_section_title
;
Structure prediction by ZEFSAII (Michael W. Deem and Ramdas Pophale) SiO2 
 PCOD9075610
Probable space group: P -1
;
_chemical_formula_sum "Si O2"
_cell_formula_units_Z 16
_cell_length_a 9.000000
_cell_length_b 15.000000
_cell_length_c 12.000000
_cell_angle_alpha 30.000000
_cell_angle_beta 80.000000
_cell_angle_gamma 70.000000
_cell_volume 734.803614
_symmetry_space_group_name_H-M "P -1"
_symmetry_group_IT_number 2
_symmetry_cell_setting 'triclinic'
loop_
_space_group_symop_operation_xyz
x,y,z
-x,-y,-z
loop_
_atom_site_type_symbol
_atom_site_label
_atom_site_fract_x
_atom_site_fract_y
_atom_site_fract_z
Si Si1 0.181138 0.849904 0.599463
Si Si2 0.319162 0.015673 0.025427
Si Si3 0.633197 0.176321 0.160925
Si Si4 0.796732 0.333905 0.565465
Si Si5 0.269173 0.450239 0.881489
Si Si6 0.140454 0.183104 0.079129
Si Si7 0.196205 0.600545 0.236866
Si Si8 0.822202 0.805596 0.383232
O O1 0.290391 0.823876 0.725450
O O2 0.210501 0.638969 0.767567
O O3 0.207541 0.980724 0.355438
O O4 0.000000 0.000000 0.500000
O O5 0.258419 0.153341 0.990847
O O6 0.285873 0.822215 0.257722
O O7 0.224845 0.097140 0.836114
O O8 0.500000 0.000000 0.000000
O O9 0.719812 0.962541 0.321406
O O10 0.435722 0.274617 0.089773
O O11 0.672455 0.324160 0.912899
O O12 0.703336 0.487322 0.315588
O O13 0.805549 0.392554 0.632938
O O14 0.981806 0.250319 0.580128
O O15 0.139303 0.350037 0.983785
O O16 0.968467 0.247153 0.966574
O O17 0.212159 0.391365 0.413082
#
# Coordination Sequence:
#
# PCOD9075610 Si02
#       8
#     2   2   2   2   2   2   2   2
#     4  12  27  50  79 103 140 195 250 301 358 428
#     4  12  25  42  73 111 151 188 236 298 372 436
#     4  12  28  47  71 108 146 195 243 306 361 422
#     4  12  23  46  74 105 151 196 236 300 363 441
#     4  12  28  47  73 108 148 184 242 304 373 424
#     4  12  25  47  75 109 145 189 244 301 357 438
#     4  12  25  43  76 109 147 192 247 292 361 443
#     4  12  24  45  72 105 150 194 242 292 364 438
#
# _framework density 21.774525000000001
#
# number of rings (size 3 to 8) (size 9 to 14) (size 15 to 20)
#    0.000    0.000    6.250    4.125    1.750    3.500 
#    0.000    0.000    0.000    0.000    0.000    0.000 
#    0.000    0.000    0.000    0.000    0.000    0.000 
#
# Total GULP energy -89373.091426 kJ/mol
# GULP energy per Si atom -5585.818214 kJ/mol
# Density = 2.172497 g / cm^3
# Si number density = 21.774525 Si / 1000 Ang^3
#
#
#
# Elastic Constant Matrix: (Units=GPa)
#
#
# Indices 1 2 3 4 5 6 
#
# 1 89.4329 30.0976 11.8498 -12.6808 21.9542 10.5698
# 2 30.0976 165.8120 19.3466 -15.3058 9.9407 35.6110
# 3 11.8498 19.3466 62.9087 -3.9846 9.0965 24.3055
# 4 -12.6808 -15.3058 -3.9846 45.8278 24.0787 -2.3146
# 5 21.9542 9.9407 9.0965 24.0787 43.4890 -0.1108
# 6 10.5698 35.6110 24.3055 -2.3146 -0.1108 37.5792
#
#
#
# Elastic Compliance Matrix: (Units=1/GPa)
#
#
# Indices 1 2 3 4 5 6 
#
# 1 0.017665 0.000029 0.002150 0.013729 -0.016990 -0.005592
# 2 0.000029 0.008577 0.002009 0.005440 -0.005431 -0.009116
# 3 0.002150 0.002009 0.023725 0.008311 -0.011153 -0.017374
# 4 0.013729 0.005440 0.008311 0.046250 -0.035550 -0.011649
# 5 -0.016990 -0.005431 -0.011153 -0.035550 0.054867 0.015111
# 6 -0.005592 -0.009116 -0.017374 -0.011649 0.015111 0.047386
#
#
# Mechanical properties :
#
#
# Convention : Reuss Voigt Hill
#
# Bulk Modulus (GPa) = 17.13976 48.97131 33.05553
# Shear Modulus (GPa) = 23.86167 42.50317 33.18242
#
# Velocity S-wave (km/s) = 3.31396 4.42290 3.90796
# Velocity P-wave (km/s) = 4.74675 6.97293 5.96462
#
# Compressibility (1/GPa) = 0.05834389
#
# Stress axis : x y z
#
# Youngs Moduli (GPa) = 56.60901 116.59316 42.14928
#
# Poissons Ratio (x) = -0.00343 -0.09063
# Poissons Ratio (y) = -0.00167 -0.08467
# Poissons Ratio (z) = -0.12172 -0.23421
#
# Static dielectric constant tensor:
#      x y z
#    x 1.855770 -0.044630 -0.026800 
#    y -0.044630 1.775460 -0.021940 
#    z -0.026800 -0.021940 1.842680 
# 
# From -- ./inp_files/382307.got.cif
#   From: 2010.05.17/outbox.ucp.g08.bks.cvg/sg2_192_cif.got.tgz:382307.got - 2010.06.11 11:32:03.
