data_PCOD9075513
_publ_section_title
;
Structure prediction by ZEFSAII (Michael W. Deem and Ramdas Pophale) SiO2 
 PCOD9075513
Probable space group: P -1
;
_chemical_formula_sum "Si O2"
_cell_formula_units_Z 14
_cell_length_a 15.000000
_cell_length_b 15.000000
_cell_length_c 27.000000
_cell_angle_alpha 20.000000
_cell_angle_beta 160.000000
_cell_angle_gamma 160.000000
_cell_volume 621.679612
_symmetry_space_group_name_H-M "P -1"
_symmetry_group_IT_number 2
_symmetry_cell_setting 'triclinic'
loop_
_space_group_symop_operation_xyz
x,y,z
-x,-y,-z
loop_
_atom_site_type_symbol
_atom_site_label
_atom_site_fract_x
_atom_site_fract_y
_atom_site_fract_z
Si Si1 0.048976 0.838240 0.731473
Si Si2 0.745326 0.145133 0.911863
Si Si3 0.762940 0.619518 0.834105
Si Si4 0.859754 0.215512 0.819862
Si Si5 0.105787 0.245007 0.643025
Si Si6 0.732984 0.183824 0.340722
Si Si7 0.706483 0.531317 0.243490
O O1 0.882173 0.474152 0.838283
O O2 0.386697 0.967702 0.821677
O O3 0.079735 0.019856 0.703102
O O4 0.877678 0.974521 0.539046
O O5 0.831534 0.243035 0.849190
O O6 0.826406 0.881358 0.107552
O O7 0.458557 0.462402 0.723665
O O8 0.583435 0.542807 0.834179
O O9 0.939015 0.981932 0.734185
O O10 0.000000 0.500000 0.000000
O O11 0.049151 0.531062 0.727133
O O12 0.548966 0.032820 0.725362
O O13 0.000000 0.000000 0.000000
O O14 0.930996 0.433442 0.440974
O O15 0.649493 0.327364 0.270311
#
# Coordination Sequence:
#
# PCOD9075513 Si02
#       7
#     2   2   2   2   2   2   2
#     4  11  26  46  70 108 146 187 240 296 364 421
#     4  12  26  44  73 106 144 189 242 299 357 425
#     4  12  26  48  77 112 146 186 240 304 362 429
#     4  12  25  45  72 105 144 185 249 295 356 416
#     4  11  26  50  74 107 150 190 240 296 361 438
#     4  11  26  47  72 102 146 194 237 301 355 429
#     4  11  27  47  77 107 146 195 245 293 365 433
#
# _framework density 22.519638
#
# number of rings (size 3 to 8) (size 9 to 14) (size 15 to 20)
#    0.000    0.571    1.429    5.143    2.000   11.429 
#    0.000    0.000    0.000    0.000    0.000    0.000 
#    0.000    0.000    0.000    0.000    0.000    0.000 
#
# Total GULP energy -78195.117193 kJ/mol
# GULP energy per Si atom -5585.365514 kJ/mol
# Density = 2.246838 g / cm^3
# Si number density = 22.519638 Si / 1000 Ang^3
#
#
#
# Elastic Constant Matrix: (Units=GPa)
#
#
# Indices 1 2 3 4 5 6 
#
# 1 145.4136 27.7566 41.2581 2.6909 2.4797 1.8843
# 2 27.7566 165.7043 65.4401 -8.5964 -3.0999 -0.2755
# 3 41.2581 65.4401 184.5183 -12.2439 11.4173 -3.3998
# 4 2.6909 -8.5964 -12.2439 54.8781 -1.2244 4.1975
# 5 2.4797 -3.0999 11.4173 -1.2244 41.0429 -1.7222
# 6 1.8843 -0.2755 -3.3998 4.1975 -1.7222 44.7859
#
#
#
# Elastic Compliance Matrix: (Units=1/GPa)
#
#
# Indices 1 2 3 4 5 6 
#
# 1 0.007450 -0.000714 -0.001462 -0.000779 -0.000136 -0.000361
# 2 -0.000714 0.007168 -0.002420 0.000656 0.001272 -0.000122
# 3 -0.001462 -0.002420 0.006807 0.001139 -0.001938 0.000382
# 4 -0.000779 0.000656 0.001139 0.018747 0.000271 -0.001623
# 5 -0.000136 0.001272 -0.001938 0.000271 0.025050 0.000804
# 6 -0.000361 -0.000122 0.000382 -0.001623 0.000804 0.022555
#
#
# Mechanical properties :
#
#
# Convention : Reuss Voigt Hill
#
# Bulk Modulus (GPa) = 81.75210 84.94954 83.35082
# Shear Modulus (GPa) = 49.48206 52.22013 50.85110
#
# Velocity S-wave (km/s) = 4.69261 4.82069 4.75708
# Velocity P-wave (km/s) = 8.10815 8.29396 8.20158
#
# Compressibility (1/GPa) = 0.01223210
#
# Stress axis : x y z
#
# Youngs Moduli (GPa) = 134.23642 139.51499 146.90129
#
# Poissons Ratio (x) = 0.09959 0.21484
# Poissons Ratio (y) = 0.09582 0.35549
# Poissons Ratio (z) = 0.19632 0.33761
#
# Static dielectric constant tensor:
#      x y z
#    x 1.970470 -0.033160 -0.092320 
#    y -0.033160 1.811750 0.066670 
#    z -0.092320 0.066670 1.915820 
# 
# From -- ./inp_files/619632.got.cif
#   From: 2010.05.17/outbox.ucp.g08.bks.cvg/sg2_310_cif.got.tgz:619632.got - 2010.06.11 11:32:03.
