data_PCOD9075864
_publ_section_title
;
Structure prediction by ZEFSAII (Michael W. Deem and Ramdas Pophale) SiO2 
 PCOD9075864
Probable space group: P -1
;
_chemical_formula_sum "Si O2"
_cell_formula_units_Z 13
_cell_length_a 8.379389
_cell_length_b 7.515243
_cell_length_c 12.291783
_cell_angle_alpha 115.305589
_cell_angle_beta 134.093470
_cell_angle_gamma 92.300883
_cell_volume 429.313256
_symmetry_space_group_name_H-M "P -1"
_symmetry_group_IT_number 2
_symmetry_cell_setting 'triclinic'
loop_
_space_group_symop_operation_xyz
x,y,z
-x,-y,-z
loop_
_atom_site_type_symbol
_atom_site_label
_atom_site_fract_x
_atom_site_fract_y
_atom_site_fract_z
Si Si1 0.488603 0.964896 0.213953
Si Si2 0.193297 0.173904 0.790299
Si Si3 0.283199 0.781714 0.407208
Si Si4 0.000000 0.500000 0.000000
Si Si5 0.877759 0.666870 0.605034
Si Si6 0.913896 0.726846 0.893060
Si Si7 0.385408 0.660059 0.793911
O O1 0.572088 0.162788 0.394643
O O2 0.480080 0.084543 0.130201
O O3 0.696410 0.887577 0.281122
O O4 0.209596 0.744499 0.053638
O O5 0.991342 0.253035 0.697098
O O6 0.458393 0.329324 0.023523
O O7 0.012162 0.926789 0.697040
O O8 0.204889 0.586031 0.228181
O O9 0.500000 0.000000 0.500000
O O10 0.105746 0.315705 0.992300
O O11 0.655546 0.510221 0.370387
O O12 0.815282 0.656797 0.700581
O O13 0.100844 0.604634 0.679883
O O14 0.000000 0.000000 0.000000
#
# Coordination Sequence:
#
# PCOD9075864 Si02
#       7
#     2   2   2   1   2   2   2
#     4  11  19  34  61  85 109 151 174 220 290 337
#     4  11  21  33  55  94 116 133 180 233 276 329
#     4  10  23  38  54  80 119 140 190 232 262 323
#     4   8  22  42  54  72 110 154 194 220 270 320
#     4  10  18  33  57  80 115 151 174 219 275 341
#     4  10  19  38  58  76 107 151 189 220 267 332
#     4  10  18  32  56  84 118 145 177 211 283 346
#
# _framework density 30.280916999999999
#
# number of rings (size 3 to 8) (size 9 to 14) (size 15 to 20)
#    0.923    0.923    4.615    1.385    0.000    2.462 
#    0.000    0.769    0.000    1.846    0.000    0.000 
#    0.000    0.000    0.000    0.000    0.000    0.000 
#
# Total GULP energy -72619.647699 kJ/mol
# GULP energy per Si atom -5586.126746 kJ/mol
# Density = 3.021200 g / cm^3
# Si number density = 30.280917 Si / 1000 Ang^3
#
#
#
# Elastic Constant Matrix: (Units=GPa)
#
#
# Indices 1 2 3 4 5 6 
#
# 1 124.6066 15.1143 38.2760 -5.7290 5.1197 -22.2455
# 2 15.1143 158.6765 36.1082 -1.2720 -12.2792 20.6721
# 3 38.2760 36.1082 207.5752 21.3509 -23.7999 8.0058
# 4 -5.7290 -1.2720 21.3509 47.6888 -1.0651 -7.2162
# 5 5.1197 -12.2792 -23.7999 -1.0651 66.0522 -1.0287
# 6 -22.2455 20.6721 8.0058 -7.2162 -1.0287 47.6297
#
#
#
# Elastic Compliance Matrix: (Units=1/GPa)
#
#
# Indices 1 2 3 4 5 6 
#
# 1 0.010268 -0.001349 -0.002431 0.003190 -0.001774 0.006235
# 2 -0.001349 0.007148 -0.000709 -0.000176 0.001119 -0.003616
# 3 -0.002431 -0.000709 0.006067 -0.003328 0.002153 -0.002305
# 4 0.003190 -0.000176 -0.003328 0.023676 -0.001009 0.005691
# 5 -0.001774 0.001119 0.002153 -0.001009 0.016222 -0.001478
# 6 0.006235 -0.003616 -0.002305 0.005691 -0.001478 0.026694
#
#
# Mechanical properties :
#
#
# Convention : Reuss Voigt Hill
#
# Bulk Modulus (GPa) = 68.93442 74.42835 71.68138
# Shear Modulus (GPa) = 48.12881 59.03146 53.58014
#
# Velocity S-wave (km/s) = 3.99107 4.42006 4.21103
# Velocity P-wave (km/s) = 6.63721 7.11912 6.88238
#
# Compressibility (1/GPa) = 0.01450654
#
# Stress axis : x y z
#
# Youngs Moduli (GPa) = 97.38904 139.89629 164.82253
#
# Poissons Ratio (x) = 0.18870 0.40063
# Poissons Ratio (y) = 0.13137 0.11683
# Poissons Ratio (z) = 0.23672 0.09917
#
# Static dielectric constant tensor:
#      x y z
#    x 1.898380 -0.740680 0.146190 
#    y -0.740680 1.907880 0.111090 
#    z 0.146190 0.111090 2.257800 
# 
# From -- ./inp_files/239910.got.cif
#   From: 2010.05.17/outbox.cif.g08.bks.cpg/sg2_120_cif.got.tgz:239910.got - 2010.06.03 11:33:40.
