data_PCOD9075010
_publ_section_title
;
Structure prediction by ZEFSAII (Michael W. Deem and Ramdas Pophale) SiO2 
 PCOD9075010
Probable space group: P -1
;
_chemical_formula_sum "Si O2"
_cell_formula_units_Z 16
_cell_length_a 27.000000
_cell_length_b 12.000000
_cell_length_c 9.000000
_cell_angle_alpha 140.000000
_cell_angle_beta 30.000000
_cell_angle_gamma 150.000000
_cell_volume 727.497153
_symmetry_space_group_name_H-M "P -1"
_symmetry_group_IT_number 2
_symmetry_cell_setting 'triclinic'
loop_
_space_group_symop_operation_xyz
x,y,z
-x,-y,-z
loop_
_atom_site_type_symbol
_atom_site_label
_atom_site_fract_x
_atom_site_fract_y
_atom_site_fract_z
Si Si1 0.597805 0.404089 0.309280
Si Si2 0.245807 0.615172 0.903757
Si Si3 0.325911 0.983114 0.605012
Si Si4 0.702016 0.907677 0.543594
Si Si5 0.569849 0.292117 0.926027
Si Si6 0.637782 0.582377 0.774010
Si Si7 0.023347 0.819060 0.745268
Si Si8 0.187916 0.891717 0.154605
O O1 0.686575 0.342488 0.069219
O O2 0.456132 0.227183 0.566034
O O3 0.664281 0.663922 0.417872
O O4 0.573772 0.362400 0.154770
O O5 0.318610 0.540033 0.553706
O O6 0.248488 0.792995 0.982148
O O7 0.097603 0.406464 0.098909
O O8 0.294641 0.021266 0.562289
O O9 0.369020 0.830412 0.351445
O O10 0.208226 0.879291 0.915588
O O11 0.843437 0.083411 0.421197
O O12 0.580030 0.871967 0.895468
O O13 0.637245 0.505394 0.863116
O O14 0.734563 0.844054 0.755573
O O15 0.500000 0.500000 0.000000
O O16 0.049901 0.780194 0.469173
O O17 0.000000 0.000000 0.000000
#
# Coordination Sequence:
#
# PCOD9075010 Si02
#       8
#     2   2   2   2   2   2   2   2
#     4  11  22  39  69  99 138 172 221 264 346 401
#     4  12  26  45  68 101 132 182 227 275 330 403
#     4  11  24  41  67 104 136 173 218 278 344 402
#     4  11  22  43  70  97 135 182 219 272 337 400
#     4  11  23  42  66 104 140 170 218 277 341 407
#     4  12  24  42  69 104 139 170 218 284 339 400
#     4  12  25  48  68  95 132 182 234 275 326 395
#     4  12  25  44  69  95 138 176 227 275 336 397
#
# _framework density 21.993213000000001
#
# number of rings (size 3 to 8) (size 9 to 14) (size 15 to 20)
#    0.000    0.500    3.750    7.125    5.250    1.000 
#    0.000    2.500    0.000    0.000    0.000    0.000 
#    0.000    0.000    0.000    0.000    0.000    0.000 
#
# Total GULP energy -89419.334939 kJ/mol
# GULP energy per Si atom -5588.708434 kJ/mol
# Density = 2.194316 g / cm^3
# Si number density = 21.993213 Si / 1000 Ang^3
#
#
#
# Elastic Constant Matrix: (Units=GPa)
#
#
# Indices 1 2 3 4 5 6 
#
# 1 96.3255 35.5606 18.3169 -5.6657 -4.2844 -35.8668
# 2 35.5606 83.5906 13.9348 7.1191 -1.5533 -29.2675
# 3 18.3169 13.9348 114.8789 0.1100 2.5834 -11.8572
# 4 -5.6657 7.1191 0.1100 37.8274 -7.1166 -11.6231
# 5 -4.2844 -1.5533 2.5834 -7.1166 34.8042 -0.7062
# 6 -35.8668 -29.2675 -11.8572 -11.6231 -0.7062 46.4991
#
#
#
# Elastic Compliance Matrix: (Units=1/GPa)
#
#
# Indices 1 2 3 4 5 6 
#
# 1 0.017292 -0.003189 -0.001115 0.007963 0.003963 0.013097
# 2 -0.003189 0.016055 -0.000705 -0.001248 0.000266 0.007157
# 3 -0.001115 -0.000705 0.009092 0.000104 -0.000801 0.001028
# 4 0.007963 -0.001248 0.000104 0.033661 0.008082 0.013921
# 5 0.003963 0.000266 -0.000801 0.008082 0.031056 0.005512
# 6 0.013097 0.007157 0.001028 0.013921 0.005512 0.039939
#
#
# Mechanical properties :
#
#
# Convention : Reuss Voigt Hill
#
# Bulk Modulus (GPa) = 30.84492 47.82442 39.33467
# Shear Modulus (GPa) = 29.77590 38.95830 34.36710
#
# Velocity S-wave (km/s) = 3.68349 4.21334 3.95729
# Velocity P-wave (km/s) = 5.66974 6.74255 6.22928
#
# Compressibility (1/GPa) = 0.03242025
#
# Stress axis : x y z
#
# Youngs Moduli (GPa) = 57.82869 62.28742 109.98404
#
# Poissons Ratio (x) = 0.19866 0.12266
# Poissons Ratio (y) = 0.18443 0.07753
# Poissons Ratio (z) = 0.06449 0.04391
#
# Static dielectric constant tensor:
#      x y z
#    x 1.838720 0.035610 0.092810 
#    y 0.035610 1.831130 0.053510 
#    z 0.092810 0.053510 1.870470 
# 
# From -- ./inp_files/357077.got.cif
#   From: 2010.05.17/outbox.ucp.g08.bks.cvg/sg2_179_cif.got.tgz:357077.got - 2010.06.11 11:32:03.
