data_PCOD9075336
_publ_section_title
;
Structure prediction by ZEFSAII (Michael W. Deem and Ramdas Pophale) SiO2 
 PCOD9075336
Probable space group: P -1
;
_chemical_formula_sum "Si O2"
_cell_formula_units_Z 16
_cell_length_a 9.000000
_cell_length_b 18.000000
_cell_length_c 12.000000
_cell_angle_alpha 40.000000
_cell_angle_beta 80.000000
_cell_angle_gamma 50.000000
_cell_volume 729.599496
_symmetry_space_group_name_H-M "P -1"
_symmetry_group_IT_number 2
_symmetry_cell_setting 'triclinic'
loop_
_space_group_symop_operation_xyz
x,y,z
-x,-y,-z
loop_
_atom_site_type_symbol
_atom_site_label
_atom_site_fract_x
_atom_site_fract_y
_atom_site_fract_z
Si Si1 0.826482 0.918822 0.845269
Si Si2 0.048585 0.806247 0.697169
Si Si3 0.694304 0.524474 0.449427
Si Si4 0.529145 0.110402 0.321379
Si Si5 0.451033 0.373369 0.166028
Si Si6 0.790504 0.678988 0.104814
Si Si7 0.348416 0.372951 0.407472
Si Si8 0.872803 0.186443 0.864605
O O1 0.913504 0.869390 0.761977
O O2 0.565042 0.145064 0.637902
O O3 0.781076 0.813592 0.000680
O O4 0.021953 0.858825 0.973273
O O5 0.255107 0.778725 0.720366
O O6 0.235765 0.584984 0.897016
O O7 0.831566 0.949470 0.467926
O O8 0.746584 0.610896 0.281706
O O9 0.672402 0.562483 0.541013
O O10 0.897424 0.295367 0.673698
O O11 0.427397 0.649714 0.287795
O O12 0.411717 0.270135 0.243766
O O13 0.500000 0.000000 0.500000
O O14 0.390523 0.213781 0.102537
O O15 0.426117 0.414374 0.253875
O O16 0.088423 0.483072 0.265181
O O17 0.000000 0.000000 0.000000
#
# Coordination Sequence:
#
# PCOD9075336 Si02
#       8
#     2   2   2   2   2   2   2   2
#     4  12  24  44  73  99 143 183 235 287 357 414
#     4  11  24  45  70 104 136 186 234 291 352 417
#     4  11  26  46  73 101 143 182 236 288 351 418
#     4  12  24  45  69 103 146 182 232 289 346 417
#     4  11  24  43  75 100 135 184 235 293 351 413
#     4  12  27  45  69 104 144 190 231 289 346 425
#     4  12  23  44  71 100 137 187 231 289 350 411
#     4  11  24  46  73 106 136 181 234 297 348 413
#
# _framework density 21.929839999999999
#
# number of rings (size 3 to 8) (size 9 to 14) (size 15 to 20)
#    0.000    0.500    6.250    0.750    1.750    4.500 
#    2.250    0.000    0.000    0.000    0.000    0.000 
#    0.000    0.000    0.000    0.000    0.000    0.000 
#
# Total GULP energy -89300.481371 kJ/mol
# GULP energy per Si atom -5581.280086 kJ/mol
# Density = 2.187993 g / cm^3
# Si number density = 21.929840 Si / 1000 Ang^3
#
#
#
# Elastic Constant Matrix: (Units=GPa)
#
#
# Indices 1 2 3 4 5 6 
#
# 1 96.3520 41.3793 59.5896 -5.7815 4.9344 19.4810
# 2 41.3793 43.8994 82.3221 -25.4866 -18.9378 32.9414
# 3 59.5896 82.3221 43.2889 45.1912 88.9484 -41.8540
# 4 -5.7815 -25.4866 45.1912 -6.8306 -40.7688 33.6593
# 5 4.9344 -18.9378 88.9484 -40.7688 9.6200 37.1988
# 6 19.4810 32.9414 -41.8540 33.6593 37.1988 0.5061
#
#
#
# Elastic Compliance Matrix: (Units=1/GPa)
#
#
# Indices 1 2 3 4 5 6 
#
# 1 0.016990 -0.010346 -0.002626 -0.001819 -0.001004 -0.002975
# 2 -0.010346 0.021340 -0.000023 -0.008022 -0.006317 0.005134
# 3 -0.002626 -0.000023 0.007448 0.009679 0.001115 -0.007153
# 4 -0.001819 -0.008022 0.009679 0.029249 -0.007615 0.007040
# 5 -0.001004 -0.006317 0.001115 -0.007615 0.014141 0.009130
# 6 -0.002975 0.005134 -0.007153 0.007040 0.009130 0.025467
#
#
# Mechanical properties :
#
#
# Convention : Reuss Voigt Hill
#
# Bulk Modulus (GPa) = 50.53896 61.12468 55.83182
# Shear Modulus (GPa) = 33.96204 0.67572 17.31888
#
# Velocity S-wave (km/s) = 3.93958 0.55570 2.81328
# Velocity P-wave (km/s) = 6.61736 5.32401 6.00561
#
# Compressibility (1/GPa) = 0.01978671
#
# Stress axis : x y z
#
# Youngs Moduli (GPa) = 58.85799 46.85929 134.26548
#
# Poissons Ratio (x) = 0.48483 0.35263
# Poissons Ratio (y) = 0.60897 0.00310
# Poissons Ratio (z) = 0.15458 0.00108
#
# Static dielectric constant tensor:
#      x y z
#    x 1.901460 -0.081320 -0.055600 
#    y -0.081320 1.794150 -0.001520 
#    z -0.055600 -0.001520 1.893290 
# 
# From -- ./inp_files/402831.got.cif
#   From: 2010.05.17/outbox.ucp.g08.bks.cvg/sg2_202_cif.got.tgz:402831.got - 2010.06.11 11:32:03.
