data_PCOD9075750
_publ_section_title
;
Structure prediction by ZEFSAII (Michael W. Deem and Ramdas Pophale) SiO2 
 PCOD9075750
Probable space group: P -1
;
_chemical_formula_sum "Si O2"
_cell_formula_units_Z 14
_cell_length_a 9.548363
_cell_length_b 11.413674
_cell_length_c 11.336344
_cell_angle_alpha 40.672339
_cell_angle_beta 110.981836
_cell_angle_gamma 136.974481
_cell_volume 492.917138
_symmetry_space_group_name_H-M "P -1"
_symmetry_group_IT_number 2
_symmetry_cell_setting 'triclinic'
loop_
_space_group_symop_operation_xyz
x,y,z
-x,-y,-z
loop_
_atom_site_type_symbol
_atom_site_label
_atom_site_fract_x
_atom_site_fract_y
_atom_site_fract_z
Si Si1 0.167129 0.777093 0.473425
Si Si2 0.477005 0.775976 0.123008
Si Si3 0.701928 0.201102 0.259013
Si Si4 0.250671 0.277134 0.317470
Si Si5 0.041138 0.807795 0.177603
Si Si6 0.868248 0.756486 0.930846
Si Si7 0.347032 0.152235 0.651289
O O1 0.189959 0.824719 0.584205
O O2 0.063432 0.829370 0.310832
O O3 0.033153 0.468138 0.653818
O O4 0.429168 0.978155 0.361909
O O5 0.287436 0.518512 0.179759
O O6 0.459169 0.667143 0.329579
O O7 0.500000 0.000000 0.000000
O O8 0.708651 0.948705 0.989429
O O9 0.719877 0.108228 0.214490
O O10 0.807674 0.491735 0.089853
O O11 0.288423 0.286530 0.182418
O O12 0.411514 0.312594 0.428393
O O13 0.000000 0.000000 0.500000
O O14 0.880167 0.776348 0.062125
O O15 0.121731 0.012836 0.758095
#
# Coordination Sequence:
#
# PCOD9075750 Si02
#       7
#     2   2   2   2   2   2   2
#     4   9  18  31  51  79 107 140 184 229 263 304
#     4  11  21  35  59  85 109 139 178 223 270 325
#     4  10  18  32  55  79 107 142 185 225 263 317
#     4  10  21  35  52  80 117 144 170 214 276 333
#     4   9  18  32  52  77 106 138 179 225 266 308
#     4   9  18  32  53  79 107 142 179 221 268 323
#     4  10  20  33  52  81 111 139 175 221 278 322
#
# _framework density 28.402338
#
# number of rings (size 3 to 8) (size 9 to 14) (size 15 to 20)
#    0.000    2.286    0.000    3.429    0.000    5.714 
#    0.000    0.000    0.000   15.429    0.000    0.000 
#    0.000    0.000    0.000    0.000    0.000    0.000 
#
# Total GULP energy -78332.251007 kJ/mol
# GULP energy per Si atom -5595.160786 kJ/mol
# Density = 2.833769 g / cm^3
# Si number density = 28.402338 Si / 1000 Ang^3
#
#
#
# Elastic Constant Matrix: (Units=GPa)
#
#
# Indices 1 2 3 4 5 6 
#
# 1 93.7434 24.3895 26.3226 -8.7205 -13.3452 -17.7592
# 2 24.3895 218.4235 74.3284 46.5507 -2.7457 -39.0453
# 3 26.3226 74.3284 156.9757 31.5485 7.5579 18.4869
# 4 -8.7205 46.5507 31.5485 77.2622 14.8507 -0.9854
# 5 -13.3452 -2.7457 7.5579 14.8507 45.0463 2.8984
# 6 -17.7592 -39.0453 18.4869 -0.9854 2.8984 33.8610
#
#
#
# Elastic Compliance Matrix: (Units=1/GPa)
#
#
# Indices 1 2 3 4 5 6 
#
# 1 0.014996 0.002299 -0.005790 0.002072 0.004009 0.013394
# 2 0.002299 0.010253 -0.006576 -0.003509 0.002517 0.016301
# 3 -0.005790 -0.006576 0.012992 -0.001720 -0.002600 -0.017540
# 4 0.002072 -0.003509 -0.001720 0.016904 -0.004812 -0.001116
# 5 0.004009 0.002517 -0.002600 -0.004812 0.025298 0.004119
# 6 0.013394 0.016301 -0.017540 -0.001116 0.004119 0.064545
#
#
# Mechanical properties :
#
#
# Convention : Reuss Voigt Hill
#
# Bulk Modulus (GPa) = 55.22913 79.91373 67.57143
# Shear Modulus (GPa) = 29.21284 54.17402 41.69343
#
# Velocity S-wave (km/s) = 3.21056 4.37209 3.83555
# Velocity P-wave (km/s) = 5.76464 7.32696 6.59225
#
# Compressibility (1/GPa) = 0.01810639
#
# Stress axis : x y z
#
# Youngs Moduli (GPa) = 66.68396 97.53595 76.97233
#
# Poissons Ratio (x) = -0.22425 0.44568
# Poissons Ratio (y) = -0.15331 0.50617
# Poissons Ratio (z) = 0.38611 0.64139
#
# Static dielectric constant tensor:
#      x y z
#    x 2.207940 0.038750 0.197580 
#    y 0.038750 2.324050 0.081610 
#    z 0.197580 0.081610 2.251840 
# 
# From -- ./inp_files/167462.got.cif
#   From: 2010.05.17/outbox.cif.g08.bks.cpg/sg2_84_cif.got.tgz:167462.got - 2010.06.03 11:33:40.
