data_PCOD9075992
_publ_section_title
;
Structure prediction by ZEFSAII (Michael W. Deem and Ramdas Pophale) SiO2 
 PCOD9075992
Probable space group: P -1
;
_chemical_formula_sum "Si O2"
_cell_formula_units_Z 15
_cell_length_a 12.247628
_cell_length_b 9.020663
_cell_length_c 12.826178
_cell_angle_alpha 102.588548
_cell_angle_beta 101.496397
_cell_angle_gamma 140.129383
_cell_volume 718.451396
_symmetry_space_group_name_H-M "P -1"
_symmetry_group_IT_number 2
_symmetry_cell_setting 'triclinic'
loop_
_space_group_symop_operation_xyz
x,y,z
-x,-y,-z
loop_
_atom_site_type_symbol
_atom_site_label
_atom_site_fract_x
_atom_site_fract_y
_atom_site_fract_z
Si Si1 0.000000 0.000000 0.500000
Si Si2 0.246352 0.761682 0.097423
Si Si3 0.418409 0.288298 0.583308
Si Si4 0.489713 0.753419 0.194132
Si Si5 0.141016 0.271068 0.792737
Si Si6 0.177404 0.136923 0.979452
Si Si7 0.700296 0.898539 0.694327
Si Si8 0.387819 0.069271 0.976425
O O1 0.205343 0.137754 0.524545
O O2 0.120479 0.188287 0.659970
O O3 0.312648 0.679429 0.148718
O O4 0.337855 0.006538 0.220604
O O5 0.336813 0.874880 0.015223
O O6 0.000000 0.500000 0.000000
O O7 0.424946 0.179475 0.664184
O O8 0.606450 0.629602 0.675939
O O9 0.413587 0.207592 0.455162
O O10 0.386391 0.475277 0.096476
O O11 0.640705 0.977216 0.161240
O O12 0.114649 0.103839 0.844441
O O13 0.372570 0.603253 0.907354
O O14 0.950571 0.166313 0.766720
O O15 0.234705 0.027819 0.980649
O O16 0.000000 0.000000 0.000000
#
# Coordination Sequence:
#
# PCOD9075992 Si02
#       8
#     1   2   2   2   2   2   2   2
#     4  10  18  32  58  84 112 142 192 246 292 338
#     4  12  24  39  59  86 122 160 195 240 300 356
#     4  10  21  40  63  89 115 155 202 247 293 343
#     4  11  22  36  58  86 118 153 196 243 292 350
#     4  10  19  33  57  85 112 149 192 243 293 341
#     4  11  20  34  57  84 114 149 194 245 290 344
#     4  10  22  39  62  86 119 156 198 243 291 353
#     4  11  22  38  58  83 118 156 199 243 293 352
#
# _framework density 20.878239000000001
#
# number of rings (size 3 to 8) (size 9 to 14) (size 15 to 20)
#    0.000    1.333    0.000    9.200    0.000    0.533 
#    0.000    1.333    0.000   12.800    0.000    0.000 
#    0.000    0.000    0.000    0.000    0.000    0.000 
#
# Total GULP energy -83563.267845 kJ/mol
# GULP energy per Si atom -5570.884523 kJ/mol
# Density = 2.083072 g / cm^3
# Si number density = 20.878239 Si / 1000 Ang^3
#
#
#
# Elastic Constant Matrix: (Units=GPa)
#
#
# Indices 1 2 3 4 5 6 
#
# 1 75.4638 14.3437 28.5649 -0.3781 -7.4335 4.7478
# 2 14.3437 77.5758 42.7103 -17.8613 7.5378 7.8642
# 3 28.5649 42.7103 114.2229 -23.2989 -9.4483 -4.7864
# 4 -0.3781 -17.8613 -23.2989 28.1545 8.2591 2.5925
# 5 -7.4335 7.5378 -9.4483 8.2591 30.3068 0.9360
# 6 4.7478 7.8642 -4.7864 2.5925 0.9360 28.3186
#
#
#
# Elastic Compliance Matrix: (Units=1/GPa)
#
#
# Indices 1 2 3 4 5 6 
#
# 1 0.015776 -0.002295 -0.003951 -0.005720 0.004839 -0.002312
# 2 -0.002295 0.021303 -0.006087 0.012315 -0.010889 -0.007328
# 3 -0.003951 -0.006087 0.013693 0.006165 0.003010 0.004003
# 4 -0.005720 0.012315 0.006165 0.053891 -0.017051 -0.005789
# 5 0.004839 -0.010889 0.003010 -0.017051 0.042387 0.002881
# 6 -0.002312 -0.007328 0.004003 -0.005789 0.002881 0.038846
#
#
# Mechanical properties :
#
#
# Convention : Reuss Voigt Hill
#
# Bulk Modulus (GPa) = 38.30413 48.72225 43.51319
# Shear Modulus (GPa) = 22.80346 29.46556 26.13451
#
# Velocity S-wave (km/s) = 3.30845 3.76081 3.54186
# Velocity P-wave (km/s) = 5.74288 6.49964 6.13294
#
# Compressibility (1/GPa) = 0.02610684
#
# Stress axis : x y z
#
# Youngs Moduli (GPa) = 63.38578 46.94237 73.02839
#
# Poissons Ratio (x) = 0.10772 0.28851
# Poissons Ratio (y) = 0.14545 0.44455
# Poissons Ratio (z) = 0.25042 0.28576
#
# Static dielectric constant tensor:
#      x y z
#    x 1.778020 0.017590 -0.003360 
#    y 0.017590 1.789850 -0.033040 
#    z -0.003360 -0.033040 1.753210 
# 
# From -- ./inp_files/260476.got.cif
#   From: 2010.05.17/outbox.cif.g08.bks.cpg/sg2_131_cif.got.tgz:260476.got - 2010.06.03 11:33:40.
