data_PCOD9075075
_publ_section_title
;
Structure prediction by ZEFSAII (Michael W. Deem and Ramdas Pophale) SiO2 
 PCOD9075075
Probable space group: P -1
;
_chemical_formula_sum "Si O2"
_cell_formula_units_Z 14
_cell_length_a 30.000000
_cell_length_b 12.000000
_cell_length_c 15.000000
_cell_angle_alpha 150.000000
_cell_angle_beta 20.000000
_cell_angle_gamma 160.000000
_cell_volume 624.976433
_symmetry_space_group_name_H-M "P -1"
_symmetry_group_IT_number 2
_symmetry_cell_setting 'triclinic'
loop_
_space_group_symop_operation_xyz
x,y,z
-x,-y,-z
loop_
_atom_site_type_symbol
_atom_site_label
_atom_site_fract_x
_atom_site_fract_y
_atom_site_fract_z
Si Si1 0.977636 0.085608 0.859624
Si Si2 0.703151 0.167788 0.272134
Si Si3 0.208025 0.736298 0.318852
Si Si4 0.178968 0.186386 0.727421
Si Si5 0.151290 0.143821 0.241176
Si Si6 0.607354 0.880529 0.436435
Si Si7 0.399298 0.828302 0.195450
O O1 0.111879 0.470189 0.860583
O O2 0.083174 0.096346 0.748255
O O3 0.976346 0.975637 0.689941
O O4 0.752495 0.855034 0.138802
O O5 0.500000 0.000000 0.500000
O O6 0.684324 0.144484 0.398413
O O7 0.751167 0.973964 0.024679
O O8 0.280653 0.669710 0.216402
O O9 0.000000 0.500000 0.500000
O O10 0.245793 0.019044 0.489194
O O11 0.372145 0.898456 0.051483
O O12 0.379206 0.567596 0.630850
O O13 0.000000 0.000000 0.000000
O O14 0.326216 0.532109 0.184616
O O15 0.000000 0.000000 0.500000
O O16 0.645788 0.011347 0.553259
#
# Coordination Sequence:
#
# PCOD9075075 Si02
#       7
#     2   2   2   2   2   2   2
#     4  11  23  42  69  93 131 172 214 271 323 391
#     4  11  22  43  69  96 131 169 221 272 324 394
#     4  11  24  43  64  93 132 169 217 269 322 379
#     4  12  25  41  66  97 128 173 225 263 321 391
#     4  11  23  43  68  97 133 173 215 269 340 390
#     4  11  23  43  67  94 132 171 219 267 327 391
#     4  11  24  42  65  94 131 170 212 269 326 384
#
# _framework density 22.400845
#
# number of rings (size 3 to 8) (size 9 to 14) (size 15 to 20)
#    0.000    0.857    1.429    7.714    0.000    4.571 
#    5.143    1.429    0.000    0.000    0.000    0.000 
#    0.000    0.000    0.000    0.000    0.000    0.000 
#
# Total GULP energy -77961.694918 kJ/mol
# GULP energy per Si atom -5568.692494 kJ/mol
# Density = 2.234986 g / cm^3
# Si number density = 22.400845 Si / 1000 Ang^3
#
#
#
# Elastic Constant Matrix: (Units=GPa)
#
#
# Indices 1 2 3 4 5 6 
#
# 1 110.4645 75.8144 76.5599 -23.5856 -4.0974 19.7078
# 2 75.8144 20.1492 45.4606 8.7807 3.8348 -14.8866
# 3 76.5599 45.4606 81.0258 -20.7499 21.9753 -8.7037
# 4 -23.5856 8.7807 -20.7499 13.7512 12.2533 -0.3477
# 5 -4.0974 3.8348 21.9753 12.2533 35.8530 -3.7297
# 6 19.7078 -14.8866 -8.7037 -0.3477 -3.7297 22.9643
#
#
#
# Elastic Compliance Matrix: (Units=1/GPa)
#
#
# Indices 1 2 3 4 5 6 
#
# 1 -0.014729 0.010543 0.024784 0.028388 -0.025079 0.025225
# 2 0.010543 -0.003397 -0.002028 0.022346 -0.006144 -0.012678
# 3 0.024784 -0.002028 -0.042607 -0.063730 0.047620 -0.031963
# 4 0.028388 0.022346 -0.063730 -0.032773 0.048341 -0.026676
# 5 -0.025079 -0.006144 0.047620 0.048341 -0.016527 0.033636
# 6 0.025225 -0.012678 -0.031963 -0.026676 0.033636 0.006624
#
#
# Mechanical properties :
#
#
# Convention : Reuss Voigt Hill
#
# Bulk Modulus (GPa) = 170.58271 67.47880 119.03076
# Shear Modulus (GPa) = -29.75294 15.43399 -7.15948
#
# Velocity S-wave (km/s) = -3.64841 2.62771 -1.78970
# Velocity P-wave (km/s) = 7.65295 6.27656 6.99867
#
# Compressibility (1/GPa) = 0.00586226
#
# Stress axis : x y z
#
# Youngs Moduli (GPa) = -67.89261 -294.33797 -23.47037
#
# Poissons Ratio (x) = 3.10308 0.58168
# Poissons Ratio (y) = 0.71576 -0.04760
# Poissons Ratio (z) = 1.68262 -0.59699
#
# Static dielectric constant tensor:
#      x y z
#    x -16.113640 14.713150 -7.914750 
#    y 14.713150 -10.247660 6.548100 
#    z -7.914750 6.548100 -1.754320 
# 
# From -- ./inp_files/255874.got.cif
#   From: 2010.05.17/outbox.ucp.g08.bks.cvg/sg2_128_cif.got.tgz:255874.got - 2010.06.11 11:32:03.
