data_PCOD9075884
_publ_section_title
;
Structure prediction by ZEFSAII (Michael W. Deem and Ramdas Pophale) SiO2 
 PCOD9075884
Probable space group: P -1
;
_chemical_formula_sum "Si O2"
_cell_formula_units_Z 16
_cell_length_a 12.218687
_cell_length_b 19.313133
_cell_length_c 11.758318
_cell_angle_alpha 140.535301
_cell_angle_beta 48.124570
_cell_angle_gamma 150.473255
_cell_volume 869.091271
_symmetry_space_group_name_H-M "P -1"
_symmetry_group_IT_number 2
_symmetry_cell_setting 'triclinic'
loop_
_space_group_symop_operation_xyz
x,y,z
-x,-y,-z
loop_
_atom_site_type_symbol
_atom_site_label
_atom_site_fract_x
_atom_site_fract_y
_atom_site_fract_z
Si Si1 0.369173 0.756419 0.897649
Si Si2 0.595370 0.524962 0.591340
Si Si3 0.137180 0.990362 0.525223
Si Si4 0.436984 0.660303 0.955278
Si Si5 0.996146 0.387211 0.628835
Si Si6 0.486341 0.865243 0.374156
Si Si7 0.299965 0.147974 0.366607
Si Si8 0.959811 0.302203 0.808198
O O1 0.447946 0.719412 0.897211
O O2 0.162534 0.581249 0.758739
O O3 0.567074 0.872519 0.818144
O O4 0.258168 0.794238 0.089088
O O5 0.500000 0.500000 0.500000
O O6 0.563135 0.614986 0.803446
O O7 0.851370 0.629193 0.536878
O O8 0.453550 0.341277 0.496318
O O9 0.322640 0.060446 0.575987
O O10 0.252283 0.095850 0.464478
O O11 0.005214 0.806249 0.354773
O O12 0.941681 0.963926 0.663209
O O13 0.178438 0.485101 0.932424
O O14 0.508196 0.790480 0.161347
O O15 0.766885 0.283292 0.593095
O O16 0.933226 0.328316 0.730015
O O17 0.500000 0.000000 0.500000
#
# Coordination Sequence:
#
# PCOD9075884 Si02
#       8
#     2   2   2   2   2   2   2   2
#     4  10  18  32  60  89 109 143 204 248 267 338
#     4  11  18  34  65  89 108 149 206 244 269 335
#     4  11  23  39  58  81 121 161 185 237 300 345
#     4  11  19  33  61  91 111 150 197 241 285 341
#     4  10  18  32  56  87 115 143 189 239 285 337
#     4  12  23  37  57  89 127 152 182 239 310 345
#     4  10  22  39  59  84 114 154 202 236 285 342
#     4  11  17  34  60  86 112 151 197 234 281 347
#
# _framework density 18.410032999999999
#
# number of rings (size 3 to 8) (size 9 to 14) (size 15 to 20)
#    0.000    1.250    8.750    0.750    0.000    0.500 
#    0.000    6.875    0.000    0.000    0.000    0.000 
#    0.000    0.000    0.000    0.000    0.000    0.000 
#
# Total GULP energy -89190.785882 kJ/mol
# GULP energy per Si atom -5574.424118 kJ/mol
# Density = 1.836813 g / cm^3
# Si number density = 18.410033 Si / 1000 Ang^3
#
#
#
# Elastic Constant Matrix: (Units=GPa)
#
#
# Indices 1 2 3 4 5 6 
#
# 1 69.2833 27.4269 26.4965 -0.9858 7.1618 23.3643
# 2 27.4269 80.6735 26.8572 -19.6817 7.4369 15.8720
# 3 26.4965 26.8572 85.9568 -14.6767 -4.7242 14.9677
# 4 -0.9858 -19.6817 -14.6767 34.9603 11.9963 -16.8055
# 5 7.1618 7.4369 -4.7242 11.9963 15.1457 -4.2915
# 6 23.3643 15.8720 14.9677 -16.8055 -4.2915 32.3210
#
#
#
# Elastic Compliance Matrix: (Units=1/GPa)
#
#
# Indices 1 2 3 4 5 6 
#
# 1 0.026352 -0.005096 -0.005281 -0.011713 -0.008364 -0.021302
# 2 -0.005096 0.022321 -0.003598 0.020400 -0.025370 0.001627
# 3 -0.005281 -0.003598 0.015010 0.001752 0.007720 0.000569
# 4 -0.011713 0.020400 0.001752 0.072288 -0.053210 0.028160
# 5 -0.008364 -0.025370 0.007720 -0.053210 0.128205 0.004285
# 6 -0.021302 0.001627 0.000569 0.028160 0.004285 0.060487
#
#
# Mechanical properties :
#
#
# Convention : Reuss Voigt Hill
#
# Bulk Modulus (GPa) = 27.98534 44.16388 36.07461
# Shear Modulus (GPa) = 13.71644 26.82760 20.27202
#
# Velocity S-wave (km/s) = 2.73253 3.82151 3.32194
# Velocity P-wave (km/s) = 5.01894 6.59644 5.86100
#
# Compressibility (1/GPa) = 0.03573300
#
# Stress axis : x y z
#
# Youngs Moduli (GPa) = 37.94740 44.79990 66.62190
#
# Poissons Ratio (x) = 0.22832 0.35184
# Poissons Ratio (y) = 0.19340 0.23970
# Poissons Ratio (z) = 0.20040 0.16118
#
# Static dielectric constant tensor:
#      x y z
#    x 1.639980 0.025370 -0.026340 
#    y 0.025370 1.662840 -0.013070 
#    z -0.026340 -0.013070 1.671150 
# 
# From -- ./inp_files/436947.got.cif
#   From: 2010.05.17/outbox.cif.g08.bks.cpg/sg2_219_cif.got.tgz:436947.got - 2010.06.03 11:33:40.
