data_PCOD9075872
_publ_section_title
;
Structure prediction by ZEFSAII (Michael W. Deem and Ramdas Pophale) SiO2 
 PCOD9075872
Probable space group: P -1
;
_chemical_formula_sum "Si O2"
_cell_formula_units_Z 16
_cell_length_a 12.905007
_cell_length_b 14.204540
_cell_length_c 11.435920
_cell_angle_alpha 57.686584
_cell_angle_beta 32.834927
_cell_angle_gamma 75.829693
_cell_volume 859.839772
_symmetry_space_group_name_H-M "P -1"
_symmetry_group_IT_number 2
_symmetry_cell_setting 'triclinic'
loop_
_space_group_symop_operation_xyz
x,y,z
-x,-y,-z
loop_
_atom_site_type_symbol
_atom_site_label
_atom_site_fract_x
_atom_site_fract_y
_atom_site_fract_z
Si Si1 0.251865 0.692091 0.141349
Si Si2 0.030000 0.397041 0.765841
Si Si3 0.516653 0.422189 0.862370
Si Si4 0.938877 0.613290 0.712157
Si Si5 0.664322 0.038846 0.164948
Si Si6 0.808498 0.119058 0.230184
Si Si7 0.036718 0.012149 0.260789
Si Si8 0.805173 0.797887 0.808327
O O1 0.100772 0.632034 0.213382
O O2 0.407894 0.630665 0.063578
O O3 0.102398 0.666479 0.414364
O O4 0.370741 0.839135 0.908187
O O5 0.980696 0.503585 0.800314
O O6 0.280297 0.458799 0.456674
O O7 0.946103 0.267418 0.997894
O O8 0.304055 0.439004 0.070981
O O9 0.431620 0.308981 0.923219
O O10 0.949326 0.722865 0.714566
O O11 0.436338 0.921772 0.474810
O O12 0.791609 0.068049 0.147541
O O13 0.802293 0.021650 0.943199
O O14 0.907687 0.055425 0.265103
O O15 0.161478 0.123973 0.158885
O O16 0.882186 0.894400 0.563230
#
# Coordination Sequence:
#
# PCOD9075872 Si02
#       8
#     2   2   2   2   2   2   2   2
#     4  10  18  32  56  86 109 141 181 233 280 325
#     4  10  21  34  54  81 116 143 186 223 271 333
#     4   9  18  34  53  79 113 144 175 229 272 325
#     4   9  18  35  53  80 113 140 178 229 273 325
#     4  10  20  38  59  82 115 142 185 232 278 322
#     4  10  23  37  57  86 110 150 185 224 273 340
#     4  11  20  41  58  83 112 146 183 235 274 327
#     4   9  21  37  60  84 109 142 191 227 277 328
#
# _framework density 18.608117
#
# number of rings (size 3 to 8) (size 9 to 14) (size 15 to 20)
#    0.750    1.500    1.250    2.625    0.000    3.000 
#    4.500    5.625    0.000    0.000    0.000    0.000 
#    0.000    0.000    0.000    0.000    0.000    0.000 
#
# Total GULP energy -89180.961798 kJ/mol
# GULP energy per Si atom -5573.810112 kJ/mol
# Density = 1.856576 g / cm^3
# Si number density = 18.608117 Si / 1000 Ang^3
#
#
#
# Elastic Constant Matrix: (Units=GPa)
#
#
# Indices 1 2 3 4 5 6 
#
# 1 8.1276 9.1917 16.0015 4.1002 8.8299 9.4273
# 2 9.1917 52.1017 12.3456 -9.6883 15.8207 4.6776
# 3 16.0015 12.3456 61.0525 -14.0723 7.4672 11.3387
# 4 4.1002 -9.6883 -14.0723 28.1220 -1.0725 -7.3038
# 5 8.8299 15.8207 7.4672 -1.0725 18.0646 -3.9640
# 6 9.4273 4.6776 11.3387 -7.3038 -3.9640 12.4694
#
#
#
# Elastic Compliance Matrix: (Units=1/GPa)
#
#
# Indices 1 2 3 4 5 6 
#
# 1 -0.069807 -0.009959 0.002886 0.035369 0.064630 0.095152
# 2 -0.009959 0.030213 0.003468 0.010447 -0.024283 -0.008558
# 3 0.002886 0.003468 0.023827 0.004364 -0.020420 -0.029084
# 4 0.035369 0.010447 0.004364 0.027373 -0.032999 -0.029085
# 5 0.064630 -0.024283 -0.020420 -0.032999 0.045821 -0.025947
# 6 0.095152 -0.008558 -0.029084 -0.029085 -0.025947 0.012631
#
#
# Mechanical properties :
#
#
# Convention : Reuss Voigt Hill
#
# Bulk Modulus (GPa) = -43.52091 21.81772 -10.85160
# Shear Modulus (GPa) = 71.83134 17.31407 44.57270
#
# Velocity S-wave (km/s) = 6.21980 3.05365 4.89953
# Velocity P-wave (km/s) = 5.30494 4.91765 5.11496
#
# Compressibility (1/GPa) = -0.02297746
#
# Stress axis : x y z
#
# Youngs Moduli (GPa) = -14.32511 33.09825 41.96978
#
# Poissons Ratio (x) = 0.32963 -0.12112
# Poissons Ratio (y) = -0.14267 -0.14556
# Poissons Ratio (z) = 0.04134 -0.11479
#
# Static dielectric constant tensor:
#      x y z
#    x 1.633430 -0.000930 -0.008340 
#    y -0.000930 1.666630 -0.023510 
#    z -0.008340 -0.023510 1.630620 
# 
# From -- ./inp_files/453693.got.cif
#   From: 2010.05.17/outbox.cif.g08.bks.cpg/sg2_227_cif.got.tgz:453693.got - 2010.06.03 11:33:40.
