data_PCOD9075195
_publ_section_title
;
Structure prediction by ZEFSAII (Michael W. Deem and Ramdas Pophale) SiO2 
 PCOD9075195
Probable space group: P -1
;
_chemical_formula_sum "Si O2"
_cell_formula_units_Z 16
_cell_length_a 12.000000
_cell_length_b 9.000000
_cell_length_c 9.000000
_cell_angle_alpha 90.000000
_cell_angle_beta 80.000000
_cell_angle_gamma 50.000000
_cell_volume 725.212580
_symmetry_space_group_name_H-M "P -1"
_symmetry_group_IT_number 2
_symmetry_cell_setting 'triclinic'
loop_
_space_group_symop_operation_xyz
x,y,z
-x,-y,-z
loop_
_atom_site_type_symbol
_atom_site_label
_atom_site_fract_x
_atom_site_fract_y
_atom_site_fract_z
Si Si1 0.289570 0.901136 0.389553
Si Si2 0.022618 0.316150 0.445742
Si Si3 0.927279 0.148607 0.684724
Si Si4 0.269001 0.870500 0.701555
Si Si5 0.236589 0.677741 0.973811
Si Si6 0.992462 0.660220 0.903472
Si Si7 0.322964 0.072375 0.895533
Si Si8 0.469969 0.241185 0.915853
O O1 0.145628 0.923009 0.386638
O O2 0.355594 0.778860 0.526796
O O3 0.407981 0.820545 0.233995
O O4 0.198556 0.130996 0.430890
O O5 0.924269 0.294971 0.577902
O O6 0.986174 0.349958 0.278512
O O7 0.000000 0.500000 0.500000
O O8 0.831999 0.214895 0.856179
O O9 0.096078 0.995289 0.701476
O O10 0.289547 0.749467 0.838853
O O11 0.298460 0.012317 0.747279
O O12 0.107108 0.681827 0.939745
O O13 0.379548 0.460921 0.980520
O O14 0.000000 0.500000 0.000000
O O15 0.820553 0.847127 0.973568
O O16 0.355057 0.218621 0.875395
O O17 0.461314 0.887393 0.952613
#
# Coordination Sequence:
#
# PCOD9075195 Si02
#       8
#     2   2   2   2   2   2   2   2
#     4  11  24  45  65  94 144 176 209 272 345 391
#     4  11  24  39  67 101 131 169 219 275 330 387
#     4  11  23  43  68 100 135 174 219 279 332 382
#     4  11  24  41  68 101 128 174 227 276 325 385
#     4  12  24  40  71 102 127 173 232 270 322 393
#     4  12  22  41  69 100 129 168 227 281 310 385
#     4  11  24  44  67  94 134 175 221 269 331 394
#     4  11  26  44  66  95 137 182 211 269 340 401
#
# _framework density 22.062495999999999
#
# number of rings (size 3 to 8) (size 9 to 14) (size 15 to 20)
#    0.000    0.750    3.750    4.875    1.750    3.000 
#    0.000    1.250    0.000    0.000    0.000    0.000 
#    0.000    0.000    0.000    0.000    0.000    0.000 
#
# Total GULP energy -89198.385836 kJ/mol
# GULP energy per Si atom -5574.899115 kJ/mol
# Density = 2.201228 g / cm^3
# Si number density = 22.062496 Si / 1000 Ang^3
#
#
#
# Elastic Constant Matrix: (Units=GPa)
#
#
# Indices 1 2 3 4 5 6 
#
# 1 36.8942 -41.3395 -39.0949 0.1114 12.4027 -8.7498
# 2 -41.3395 -9.8039 -44.8283 -28.9834 24.3824 -18.2156
# 3 -39.0949 -44.8283 16.4975 -49.5536 27.9566 -21.7333
# 4 0.1114 -28.9834 -49.5536 12.8488 11.6547 -20.3213
# 5 12.4027 24.3824 27.9566 11.6547 25.6624 4.0499
# 6 -8.7498 -18.2156 -21.7333 -20.3213 4.0499 7.9082
#
#
#
# Elastic Compliance Matrix: (Units=1/GPa)
#
#
# Indices 1 2 3 4 5 6 
#
# 1 0.030277 0.011352 -0.005029 -0.027663 -0.003689 -0.023368
# 2 0.011352 0.026326 -0.011877 -0.026207 -0.001557 -0.025987
# 3 -0.005029 -0.011877 0.009748 0.001380 0.003130 -0.004189
# 4 -0.027663 -0.026207 0.001380 0.044536 0.013313 0.020446
# 5 -0.003689 -0.001557 0.003130 0.013313 0.029622 0.019974
# 6 -0.023368 -0.025987 -0.004189 0.020446 0.019974 0.071534
#
#
# Mechanical properties :
#
#
# Convention : Reuss Voigt Hill
#
# Bulk Modulus (GPa) = 18.10197 -22.99305 -2.44554
# Shear Modulus (GPa) = 20.69843 20.54060 20.61952
#
# Velocity S-wave (km/s) = 3.06628 3.05457 3.06043
# Velocity P-wave (km/s) = 4.55618 1.41285 3.37305
#
# Compressibility (1/GPa) = 0.05524261
#
# Stress axis : x y z
#
# Youngs Moduli (GPa) = 33.02833 37.98539 102.59006
#
# Poissons Ratio (x) = -0.43121 0.51593
# Poissons Ratio (y) = -0.37494 1.21846
# Poissons Ratio (z) = 0.16610 0.45115
#
# Static dielectric constant tensor:
#      x y z
#    x 1.839210 0.046250 0.067580 
#    y 0.046250 1.870280 0.026310 
#    z 0.067580 0.026310 1.884920 
# 
# From -- ./inp_files/180382.got.cif
#   From: 2010.05.17/outbox.ucp.g08.bks.cvg/sg2_91_cif.got.tgz:180382.got - 2010.06.11 11:32:03.
