data_PCOD9075236
_publ_section_title
;
Structure prediction by ZEFSAII (Michael W. Deem and Ramdas Pophale) SiO2 
 PCOD9075236
Probable space group: P -1
;
_chemical_formula_sum "Si O2"
_cell_formula_units_Z 13
_cell_length_a 9.000000
_cell_length_b 9.000000
_cell_length_c 12.000000
_cell_angle_alpha 70.000000
_cell_angle_beta 130.000000
_cell_angle_gamma 130.000000
_cell_volume 566.184258
_symmetry_space_group_name_H-M "P -1"
_symmetry_group_IT_number 2
_symmetry_cell_setting 'triclinic'
loop_
_space_group_symop_operation_xyz
x,y,z
-x,-y,-z
loop_
_atom_site_type_symbol
_atom_site_label
_atom_site_fract_x
_atom_site_fract_y
_atom_site_fract_z
Si Si1 0.589809 0.186457 0.245120
Si Si2 0.087653 0.406512 0.655386
Si Si3 0.214439 0.022565 0.296848
Si Si4 0.254442 0.076454 0.554335
Si Si5 0.000000 0.500000 0.000000
Si Si6 0.540198 0.693973 0.204212
Si Si7 0.795013 0.052188 0.067587
O O1 0.756700 0.411072 0.232858
O O2 0.437579 0.147718 0.292421
O O3 0.737482 0.104881 0.371800
O O4 0.401790 0.049311 0.096968
O O5 0.279207 0.367394 0.712386
O O6 0.000000 0.500000 0.500000
O O7 0.882205 0.203367 0.669002
O O8 0.272710 0.115885 0.423209
O O9 0.002332 0.026498 0.145243
O O10 0.456439 0.260397 0.675115
O O11 0.000000 0.000000 0.500000
O O12 0.261751 0.543106 0.080327
O O13 0.901245 0.279654 0.062007
O O14 0.666247 0.905078 0.149041
#
# Coordination Sequence:
#
# PCOD9075236 Si02
#       7
#     2   2   2   2   1   2   2
#     4  12  25  44  70 105 139 185 233 289 351 420
#     4  11  23  44  73 101 141 184 238 288 355 418
#     4  11  25  46  72 102 144 181 233 296 349 418
#     4  12  22  46  73  99 144 187 231 293 353 408
#     4  12  24  44  70 108 142 186 238 288 354 432
#     4  11  25  46  71 107 143 187 234 296 351 419
#     4  11  25  46  72  99 145 181 237 291 352 414
#
# _framework density 22.960723000000002
#
# number of rings (size 3 to 8) (size 9 to 14) (size 15 to 20)
#    0.000    0.615    6.154    2.308    0.000    3.692 
#    0.000    4.615    0.000    0.000    0.000    0.000 
#    0.000    0.000    0.000    0.000    0.000    0.000 
#
# Total GULP energy -72382.483203 kJ/mol
# GULP energy per Si atom -5567.883323 kJ/mol
# Density = 2.290846 g / cm^3
# Si number density = 22.960723 Si / 1000 Ang^3
#
#
#
# Elastic Constant Matrix: (Units=GPa)
#
#
# Indices 1 2 3 4 5 6 
#
# 1 73.1238 -11.4884 37.3186 3.9337 14.6802 2.9383
# 2 -11.4884 80.1240 18.9817 -7.6029 16.3888 4.0155
# 3 37.3186 18.9817 77.4174 -15.3069 19.2184 -2.8056
# 4 3.9337 -7.6029 -15.3069 24.2772 -12.8604 5.9229
# 5 14.6802 16.3888 19.2184 -12.8604 21.4572 -4.6381
# 6 2.9383 4.0155 -2.8056 5.9229 -4.6381 29.8809
#
#
#
# Elastic Compliance Matrix: (Units=1/GPa)
#
#
# Indices 1 2 3 4 5 6 
#
# 1 0.034186 0.014305 -0.016522 -0.030660 -0.039378 -0.006870
# 2 0.014305 0.021324 -0.008025 -0.014420 -0.028970 -0.006664
# 3 -0.016522 -0.008025 0.024962 0.019031 0.006993 0.002360
# 4 -0.030660 -0.014420 0.019031 0.090281 0.068958 -0.000452
# 5 -0.039378 -0.028970 0.006993 0.068958 0.134104 0.015569
# 6 -0.006870 -0.006664 0.002360 -0.000452 0.015569 0.037765
#
#
# Mechanical properties :
#
#
# Convention : Reuss Voigt Hill
#
# Bulk Modulus (GPa) = 16.67025 35.58766 26.12896
# Shear Modulus (GPa) = 13.05135 27.51330 20.28232
#
# Velocity S-wave (km/s) = 2.38674 3.46537 2.97534
# Velocity P-wave (km/s) = 3.85636 5.61647 4.81748
#
# Compressibility (1/GPa) = 0.05998710
#
# Stress axis : x y z
#
# Youngs Moduli (GPa) = 29.25172 46.89495 40.06156
#
# Poissons Ratio (x) = -0.67085 0.66191
# Poissons Ratio (y) = -0.41846 0.32151
# Poissons Ratio (z) = 0.48331 0.37635
#
# Static dielectric constant tensor:
#      x y z
#    x 2.092460 0.017240 -0.248250 
#    y 0.017240 1.862800 -0.052360 
#    z -0.248250 -0.052360 2.165190 
# 
# From -- ./inp_files/174655.got.cif
#   From: 2010.05.17/outbox.ucp.g08.bks.cvg/sg2_88_cif.got.tgz:174655.got - 2010.06.11 11:32:03.
