data_PCOD9075659
_publ_section_title
;
Structure prediction by ZEFSAII (Michael W. Deem and Ramdas Pophale) SiO2 
 PCOD9075659
Probable space group: P -1
;
_chemical_formula_sum "Si O2"
_cell_formula_units_Z 15
_cell_length_a 9.000000
_cell_length_b 9.000000
_cell_length_c 18.000000
_cell_angle_alpha 60.000000
_cell_angle_beta 120.000000
_cell_angle_gamma 150.000000
_cell_volume 623.732165
_symmetry_space_group_name_H-M "P -1"
_symmetry_group_IT_number 2
_symmetry_cell_setting 'triclinic'
loop_
_space_group_symop_operation_xyz
x,y,z
-x,-y,-z
loop_
_atom_site_type_symbol
_atom_site_label
_atom_site_fract_x
_atom_site_fract_y
_atom_site_fract_z
Si Si1 0.142152 0.744231 0.145240
Si Si2 0.229430 0.138796 0.588297
Si Si3 0.265143 0.721545 0.569152
Si Si4 0.519267 0.376811 0.100264
Si Si5 0.354792 0.407717 0.703000
Si Si6 0.122644 0.459608 0.343246
Si Si7 0.000000 0.500000 0.000000
Si Si8 0.892243 0.795431 0.831797
O O1 0.195838 0.654336 0.247938
O O2 0.868408 0.633460 0.136469
O O3 0.410288 0.100198 0.115985
O O4 0.071751 0.615336 0.076996
O O5 0.273432 0.312320 0.620335
O O6 0.559958 0.349014 0.592682
O O7 0.000000 0.000000 0.500000
O O8 0.066389 0.849420 0.661802
O O9 0.380182 0.635167 0.653771
O O10 0.000000 0.500000 0.500000
O O11 0.103997 0.672247 0.613992
O O12 0.500000 0.000000 0.500000
O O13 0.321306 0.285096 0.141084
O O14 0.500000 0.500000 0.000000
O O15 0.663700 0.570770 0.763218
O O16 0.123422 0.122373 0.772248
O O17 0.015147 0.721675 0.919911
#
# Coordination Sequence:
#
# PCOD9075659 Si02
#       8
#     2   2   2   2   2   2   1   2
#     4  12  27  47  76 110 155 195 259 313 379 458
#     4  12  26  48  75 107 152 200 252 308 394 466
#     4  12  26  47  78 111 147 191 251 311 382 464
#     4  12  25  48  72 107 144 205 250 302 381 452
#     4  12  27  50  74 112 152 198 246 322 384 452
#     4  12  26  48  74 114 149 199 252 320 382 454
#     4  12  28  46  76 114 148 206 258 314 372 444
#     4  12  27  47  75 107 155 197 257 309 381 451
#
# _framework density 24.048784000000001
#
# number of rings (size 3 to 8) (size 9 to 14) (size 15 to 20)
#    0.000    0.000    1.333    8.800    1.867    4.267 
#    0.000    0.000    0.000    0.000    0.000    0.000 
#    0.000    0.000    0.000    0.000    0.000    0.000 
#
# Total GULP energy -83571.033242 kJ/mol
# GULP energy per Si atom -5571.402216 kJ/mol
# Density = 2.399405 g / cm^3
# Si number density = 24.048784 Si / 1000 Ang^3
#
#
#
# Elastic Constant Matrix: (Units=GPa)
#
#
# Indices 1 2 3 4 5 6 
#
# 1 60.0264 -19.4008 40.4540 23.1461 -10.7964 17.5848
# 2 -19.4008 75.3791 23.8390 3.3487 3.6485 34.6349
# 3 40.4540 23.8390 161.1391 -16.8435 2.4216 19.4067
# 4 23.1461 3.3487 -16.8435 33.5680 -7.7134 -9.5554
# 5 -10.7964 3.6485 2.4216 -7.7134 56.4100 2.1651
# 6 17.5848 34.6349 19.4067 -9.5554 2.1651 31.0459
#
#
#
# Elastic Compliance Matrix: (Units=1/GPa)
#
#
# Indices 1 2 3 4 5 6 
#
# 1 -0.011774 -0.021323 0.004271 0.022403 0.000676 0.034635
# 2 -0.021323 -0.004838 0.006040 0.023877 -0.001575 0.021158
# 3 0.004271 0.006040 0.005427 -0.004801 0.000076 -0.014033
# 4 0.022403 0.023877 -0.004801 0.000142 0.004373 -0.036587
# 5 0.000676 -0.001575 0.000076 0.004373 0.018500 0.001382
# 6 0.034635 0.021158 -0.014033 -0.036587 0.001382 -0.013596
#
#
# Mechanical properties :
#
#
# Convention : Reuss Voigt Hill
#
# Bulk Modulus (GPa) = -30.11265 42.92543 6.40639
# Shear Modulus (GPa) = 1038.18199 40.98160 539.58179
#
# Velocity S-wave (km/s) = 20.79989 4.13256 14.99522
# Velocity P-wave (km/s) = 23.75497 6.37642 17.39192
#
# Compressibility (1/GPa) = -0.03320864
#
# Stress axis : x y z
#
# Youngs Moduli (GPa) = -84.93597 -206.69423 184.25856
#
# Poissons Ratio (x) = -4.40730 -0.78689
# Poissons Ratio (y) = -1.81107 -1.11295
# Poissons Ratio (z) = 0.36272 1.24847
#
# Static dielectric constant tensor:
#      x y z
#    x 2.008730 -0.031390 -0.002880 
#    y -0.031390 1.934050 0.032660 
#    z -0.002880 0.032660 1.836150 
# 
# From -- ./inp_files/218143.got.cif
#   From: 2010.05.17/outbox.ucp.g08.bks.cvg/sg2_110_cif.got.tgz:218143.got - 2010.06.11 11:32:03.
