data_PCOD9075238
_publ_section_title
;
Structure prediction by ZEFSAII (Michael W. Deem and Ramdas Pophale) SiO2 
 PCOD9075238
Probable space group: P -1
;
_chemical_formula_sum "Si O2"
_cell_formula_units_Z 16
_cell_length_a 12.000000
_cell_length_b 21.000000
_cell_length_c 9.000000
_cell_angle_alpha 130.000000
_cell_angle_beta 140.000000
_cell_angle_gamma 30.000000
_cell_volume 727.418465
_symmetry_space_group_name_H-M "P -1"
_symmetry_group_IT_number 2
_symmetry_cell_setting 'triclinic'
loop_
_space_group_symop_operation_xyz
x,y,z
-x,-y,-z
loop_
_atom_site_type_symbol
_atom_site_label
_atom_site_fract_x
_atom_site_fract_y
_atom_site_fract_z
Si Si1 0.648804 0.491005 0.001765
Si Si2 0.913296 0.704752 0.233184
Si Si3 0.214947 0.348551 0.270281
Si Si4 0.294523 0.894711 0.410578
Si Si5 0.163812 0.785723 0.923401
Si Si6 0.421005 0.433688 0.482710
Si Si7 0.663876 0.858345 0.500428
Si Si8 0.090981 0.823468 0.560166
O O1 0.457139 0.639200 0.999697
O O2 0.607712 0.434251 0.751627
O O3 0.500000 0.500000 0.000000
O O4 0.953570 0.412598 0.191371
O O5 0.734443 0.776194 0.306227
O O6 0.203273 0.565049 0.366873
O O7 0.935925 0.792404 0.336119
O O8 0.817636 0.679693 0.968264
O O9 0.490788 0.216023 0.419715
O O10 0.252613 0.434375 0.420995
O O11 0.480460 0.875386 0.452279
O O12 0.157552 0.865469 0.147430
O O13 0.076229 0.038549 0.465961
O O14 0.104591 0.834029 0.766775
O O15 0.946600 0.792740 0.749627
O O16 0.616982 0.302072 0.393554
O O17 0.500000 0.000000 0.500000
#
# Coordination Sequence:
#
# PCOD9075238 Si02
#       8
#     2   2   2   2   2   2   2   2
#     4  12  25  46  71 101 147 185 234 296 356 419
#     4  11  23  47  72 104 139 186 241 289 349 421
#     4  12  29  43  70 111 141 191 232 290 365 417
#     4  12  27  46  69 108 149 184 236 289 355 425
#     4  11  24  43  73 102 138 185 235 293 345 416
#     4  12  25  47  73 103 142 186 243 295 351 418
#     4  11  23  44  73 106 134 184 238 287 350 416
#     4  11  23  46  74 101 139 191 237 290 350 417
#
# _framework density 21.995591999999998
#
# number of rings (size 3 to 8) (size 9 to 14) (size 15 to 20)
#    0.000    0.500    6.250    3.375    3.500    2.000 
#    0.000    0.000    0.000    0.000    0.000    0.000 
#    0.000    0.000    0.000    0.000    0.000    0.000 
#
# Total GULP energy -89510.809631 kJ/mol
# GULP energy per Si atom -5594.425602 kJ/mol
# Density = 2.194553 g / cm^3
# Si number density = 21.995592 Si / 1000 Ang^3
#
#
#
# Elastic Constant Matrix: (Units=GPa)
#
#
# Indices 1 2 3 4 5 6 
#
# 1 63.1702 1.7617 -4.3967 8.6199 9.3187 -4.3327
# 2 1.7617 122.9183 6.2433 13.7588 -4.7691 -5.7804
# 3 -4.3967 6.2433 11.0747 12.1713 8.7565 4.2471
# 4 8.6199 13.7588 12.1713 21.6270 4.8235 0.8180
# 5 9.3187 -4.7691 8.7565 4.8235 25.0366 4.6091
# 6 -4.3327 -5.7804 4.2471 0.8180 4.6091 40.0016
#
#
#
# Elastic Compliance Matrix: (Units=1/GPa)
#
#
# Indices 1 2 3 4 5 6 
#
# 1 0.090536 -0.001129 0.384963 -0.224095 -0.123084 -0.012465
# 2 -0.001129 0.009044 -0.007693 -0.002139 0.004975 0.001472
# 3 0.384963 -0.007693 2.034751 -1.152439 -0.619553 -0.080499
# 4 -0.224095 -0.002139 -1.152439 0.707631 0.341644 0.043941
# 5 -0.123084 0.004975 -0.619553 0.341644 0.234031 0.019215
# 6 -0.012465 0.001472 -0.080499 0.043941 0.019215 0.029296
#
#
# Mechanical properties :
#
#
# Convention : Reuss Voigt Hill
#
# Bulk Modulus (GPa) = 0.34643 22.70888 11.52765
# Shear Modulus (GPa) = 1.50820 30.23670 15.87245
#
# Velocity S-wave (km/s) = 0.82896 3.71168 2.68921
# Velocity P-wave (km/s) = 1.03637 5.35868 3.85937
#
# Compressibility (1/GPa) = 2.88661388
#
# Stress axis : x y z
#
# Youngs Moduli (GPa) = 11.04531 110.56869 0.49146
#
# Poissons Ratio (x) = 0.12479 -0.18919
# Poissons Ratio (y) = 0.01247 0.00378
# Poissons Ratio (z) = -4.25204 0.85064
#
# Static dielectric constant tensor:
#      x y z
#    x 1.874730 0.011020 -0.031860 
#    y 0.011020 1.808770 -0.016360 
#    z -0.031860 -0.016360 1.798810 
# 
# From -- ./inp_files/282843.got.cif
#   From: 2010.05.17/outbox.ucp.g08.bks.cvg/sg2_142_cif.got.tgz:282843.got - 2010.06.11 11:32:03.
