data_PCOD9075107
_publ_section_title
;
Structure prediction by ZEFSAII (Michael W. Deem and Ramdas Pophale) SiO2 
 PCOD9075107
Probable space group: P -1
;
_chemical_formula_sum "Si O2"
_cell_formula_units_Z 16
_cell_length_a 15.000000
_cell_length_b 12.000000
_cell_length_c 9.000000
_cell_angle_alpha 70.000000
_cell_angle_beta 110.000000
_cell_angle_gamma 50.000000
_cell_volume 728.972637
_symmetry_space_group_name_H-M "P -1"
_symmetry_group_IT_number 2
_symmetry_cell_setting 'triclinic'
loop_
_space_group_symop_operation_xyz
x,y,z
-x,-y,-z
loop_
_atom_site_type_symbol
_atom_site_label
_atom_site_fract_x
_atom_site_fract_y
_atom_site_fract_z
Si Si1 0.646387 0.835033 0.297072
Si Si2 0.144519 0.922649 0.521528
Si Si3 0.535102 0.538190 0.263114
Si Si4 0.407193 0.997966 0.338211
Si Si5 0.588714 0.566830 0.623195
Si Si6 0.732421 0.990838 0.250440
Si Si7 0.072116 0.286703 0.815892
Si Si8 0.997868 0.132232 0.016740
O O1 0.659366 0.955170 0.312398
O O2 0.860060 0.558660 0.543758
O O3 0.540275 0.863747 0.333592
O O4 0.500000 0.000000 0.000000
O O5 0.319429 0.652427 0.697273
O O6 0.173293 0.012051 0.591045
O O7 0.000000 0.000000 0.500000
O O8 0.091386 0.016286 0.281336
O O9 0.581128 0.530781 0.462347
O O10 0.424665 0.535479 0.235197
O O11 0.426083 0.764969 0.031754
O O12 0.500000 0.000000 0.500000
O O13 0.443565 0.821266 0.483301
O O14 0.198531 0.226028 0.036708
O O15 0.794455 0.395738 0.825279
O O16 0.844602 0.811579 0.258059
O O17 0.078342 0.145275 0.947615
O O18 0.000000 0.000000 0.000000
#
# Coordination Sequence:
#
# PCOD9075107 Si02
#       8
#     2   2   2   2   2   2   2   2
#     4  12  27  51  74 107 149 207 256 310 381 453
#     4  12  27  44  69 116 153 191 243 313 387 448
#     4  11  23  45  73 104 146 193 251 302 380 446
#     4  12  28  48  76 110 147 201 255 317 377 445
#     4  11  22  45  75 105 140 196 250 311 367 445
#     4  12  27  45  73 106 150 199 247 317 378 446
#     4  12  26  51  76 108 150 203 266 303 378 463
#     4  12  24  43  75 107 147 194 246 311 375 456
#
# _framework density 21.948698
#
# number of rings (size 3 to 8) (size 9 to 14) (size 15 to 20)
#    0.000    0.250    5.000    3.750    3.500    1.500 
#    0.000    0.000    0.000    0.000    0.000    0.000 
#    0.000    0.000    0.000    0.000    0.000    0.000 
#
# Total GULP energy -89166.736995 kJ/mol
# GULP energy per Si atom -5572.921062 kJ/mol
# Density = 2.189874 g / cm^3
# Si number density = 21.948698 Si / 1000 Ang^3
#
#
#
# Elastic Constant Matrix: (Units=GPa)
#
#
# Indices 1 2 3 4 5 6 
#
# 1 97.7417 14.2778 4.7708 -6.7686 -6.5316 11.1279
# 2 14.2778 78.5172 30.4764 13.2984 10.9039 11.5644
# 3 4.7708 30.4764 100.2606 -18.3435 8.8308 6.9038
# 4 -6.7686 13.2984 -18.3435 23.1091 6.7563 2.6471
# 5 -6.5316 10.9039 8.8308 6.7563 39.4358 2.2575
# 6 11.1279 11.5644 6.9038 2.6471 2.2575 41.7045
#
#
#
# Elastic Compliance Matrix: (Units=1/GPa)
#
#
# Indices 1 2 3 4 5 6 
#
# 1 0.011620 -0.003872 0.001991 0.007105 0.001497 -0.002889
# 2 -0.003872 0.021129 -0.009846 -0.020715 -0.000624 -0.001847
# 3 0.001991 -0.009846 0.017314 0.021486 -0.004403 -0.001793
# 4 0.007105 -0.020715 0.021486 0.078023 -0.011042 -0.004063
# 5 0.001497 -0.000624 -0.004403 -0.011042 0.028676 -0.000349
# 6 -0.002889 -0.001847 -0.001793 -0.004063 -0.000349 0.025835
#
#
# Mechanical properties :
#
#
# Convention : Reuss Voigt Hill
#
# Bulk Modulus (GPa) = 37.57989 41.72995 39.65492
# Shear Modulus (GPa) = 23.26429 35.98285 29.62357
#
# Velocity S-wave (km/s) = 3.25920 4.05335 3.67778
# Velocity P-wave (km/s) = 5.59661 6.40000 6.01174
#
# Compressibility (1/GPa) = 0.02660997
#
# Stress axis : x y z
#
# Youngs Moduli (GPa) = 86.05553 47.32826 57.75511
#
# Poissons Ratio (x) = 0.18324 -0.11498
# Poissons Ratio (y) = 0.33318 0.56866
# Poissons Ratio (z) = -0.17133 0.46600
#
# Static dielectric constant tensor:
#      x y z
#    x 1.776330 0.296460 0.004280 
#    y 0.296460 0.655820 0.036740 
#    z 0.004280 0.036740 1.945640 
# 
# From -- ./inp_files/307100.got.cif
#   From: 2010.05.17/outbox.ucp.g08.bks.cvg/sg2_154_cif.got.tgz:307100.got - 2010.06.11 11:32:03.
