data_PCOD9075198
_publ_section_title
;
Structure prediction by ZEFSAII (Michael W. Deem and Ramdas Pophale) SiO2 
 PCOD9075198
Probable space group: P -1
;
_chemical_formula_sum "Si O2"
_cell_formula_units_Z 16
_cell_length_a 12.000000
_cell_length_b 9.000000
_cell_length_c 12.000000
_cell_angle_alpha 50.000000
_cell_angle_beta 90.000000
_cell_angle_gamma 60.000000
_cell_volume 752.153660
_symmetry_space_group_name_H-M "P -1"
_symmetry_group_IT_number 2
_symmetry_cell_setting 'triclinic'
loop_
_space_group_symop_operation_xyz
x,y,z
-x,-y,-z
loop_
_atom_site_type_symbol
_atom_site_label
_atom_site_fract_x
_atom_site_fract_y
_atom_site_fract_z
Si Si1 0.658690 0.842750 0.140155
Si Si2 0.672542 0.306116 0.141798
Si Si3 0.344392 0.763305 0.411473
Si Si4 0.622404 0.940430 0.350377
Si Si5 0.795153 0.060266 0.913934
Si Si6 0.858161 0.311417 0.953977
Si Si7 0.667568 0.829550 0.656451
Si Si8 0.173912 0.732260 0.614805
O O1 0.623255 0.850864 0.269057
O O2 0.787149 0.540965 0.257543
O O3 0.500000 0.000000 0.000000
O O4 0.727635 0.971776 0.038784
O O5 0.713124 0.331306 0.254734
O O6 0.708189 0.039571 0.279222
O O7 0.500000 0.500000 0.000000
O O8 0.790616 0.282122 0.075883
O O9 0.500000 0.500000 0.500000
O O10 0.272874 0.895209 0.229135
O O11 0.237656 0.746904 0.491961
O O12 0.369178 0.916132 0.421302
O O13 0.679218 0.793301 0.540237
O O14 0.455631 0.162169 0.286619
O O15 0.772371 0.292918 0.863721
O O16 0.969729 0.877215 0.979508
O O17 0.816391 0.583905 0.826057
O O18 0.000000 0.000000 0.500000
#
# Coordination Sequence:
#
# PCOD9075198 Si02
#       8
#     2   2   2   2   2   2   2   2
#     4  12  26  48  76 109 145 196 253 305 370 449
#     4  12  23  45  73 103 140 193 248 303 355 444
#     4  12  27  47  72 105 147 191 242 303 368 443
#     4  11  23  43  69 105 137 183 243 301 352 432
#     4  11  27  46  70 105 146 191 237 302 370 439
#     4  11  26  46  71 104 146 186 242 300 369 436
#     4  11  25  42  72 104 138 186 237 298 371 423
#     4  12  29  48  72 110 152 195 245 313 381 441
#
# _framework density 21.272248999999999
#
# number of rings (size 3 to 8) (size 9 to 14) (size 15 to 20)
#    0.000    0.500    3.750    3.750   10.500    0.500 
#    0.000    1.250    0.000    0.000    0.000    0.000 
#    0.000    0.000    0.000    0.000    0.000    0.000 
#
# Total GULP energy -89068.927812 kJ/mol
# GULP energy per Si atom -5566.807988 kJ/mol
# Density = 2.122383 g / cm^3
# Si number density = 21.272249 Si / 1000 Ang^3
#
#
#
# Elastic Constant Matrix: (Units=GPa)
#
#
# Indices 1 2 3 4 5 6 
#
# 1 97.7124 32.0521 47.6906 -1.3635 -3.8051 -19.9870
# 2 32.0521 98.9144 69.0844 11.7637 -11.4394 -13.0504
# 3 47.6906 69.0844 96.5068 11.0933 -5.4454 -7.8741
# 4 -1.3635 11.7637 11.0933 51.2851 -2.3956 1.9666
# 5 -3.8051 -11.4394 -5.4454 -2.3956 27.3411 8.4209
# 6 -19.9870 -13.0504 -7.8741 1.9666 8.4209 43.4934
#
#
#
# Elastic Compliance Matrix: (Units=1/GPa)
#
#
# Indices 1 2 3 4 5 6 
#
# 1 0.014929 0.001285 -0.008039 0.001587 -0.000647 0.005844
# 2 0.001285 0.021659 -0.015408 -0.001498 0.004993 0.003401
# 3 -0.008039 -0.015408 0.025238 -0.002090 -0.001698 -0.003325
# 4 0.001587 -0.001498 -0.002090 0.020450 0.001366 -0.001288
# 5 -0.000647 0.004993 -0.001698 0.001366 0.040516 -0.007012
# 6 0.005844 0.003401 -0.003325 -0.001288 -0.007012 0.027512
#
#
# Mechanical properties :
#
#
# Convention : Reuss Voigt Hill
#
# Bulk Modulus (GPa) = 57.14082 65.64308 61.39195
# Shear Modulus (GPa) = 24.94242 34.04436 29.49339
#
# Velocity S-wave (km/s) = 3.42794 4.00485 3.72758
# Velocity P-wave (km/s) = 6.52593 7.23261 6.88834
#
# Compressibility (1/GPa) = 0.01750062
#
# Stress axis : x y z
#
# Youngs Moduli (GPa) = 66.98547 46.16941 39.62323
#
# Poissons Ratio (x) = -0.05931 0.31853
# Poissons Ratio (y) = -0.08606 0.61052
# Poissons Ratio (z) = 0.53850 0.71139
#
# Static dielectric constant tensor:
#      x y z
#    x 1.806610 0.076830 -0.003420 
#    y 0.076830 1.838170 -0.026900 
#    z -0.003420 -0.026900 1.831210 
# 
# From -- ./inp_files/418916.got.cif
#   From: 2010.05.17/outbox.ucp.g08.bks.cvg/sg2_210_cif.got.tgz:418916.got - 2010.06.11 11:32:03.
