data_PCOD9075411
_publ_section_title
;
Structure prediction by ZEFSAII (Michael W. Deem and Ramdas Pophale) SiO2 
 PCOD9075411
Probable space group: P -1
;
_chemical_formula_sum "Si O2"
_cell_formula_units_Z 16
_cell_length_a 18.000000
_cell_length_b 9.000000
_cell_length_c 12.000000
_cell_angle_alpha 40.000000
_cell_angle_beta 40.000000
_cell_angle_gamma 40.000000
_cell_volume 723.717541
_symmetry_space_group_name_H-M "P -1"
_symmetry_group_IT_number 2
_symmetry_cell_setting 'triclinic'
loop_
_space_group_symop_operation_xyz
x,y,z
-x,-y,-z
loop_
_atom_site_type_symbol
_atom_site_label
_atom_site_fract_x
_atom_site_fract_y
_atom_site_fract_z
Si Si1 0.666525 0.681395 0.744313
Si Si2 0.052552 0.604366 0.480660
Si Si3 0.011855 0.815351 0.789470
Si Si4 0.359699 0.043118 0.605690
Si Si5 0.223350 0.286294 0.842690
Si Si6 0.522312 0.749534 0.297810
Si Si7 0.345671 0.524061 0.904754
Si Si8 0.948124 0.294081 0.929675
O O1 0.811229 0.464785 0.693922
O O2 0.664517 0.742157 0.581447
O O3 0.600463 0.978144 0.695550
O O4 0.611999 0.548027 0.973887
O O5 0.000000 0.500000 0.500000
O O6 0.027346 0.445097 0.702778
O O7 0.992297 0.910154 0.392253
O O8 0.135984 0.577721 0.735042
O O9 0.876515 0.800820 0.929813
O O10 0.037720 0.744162 0.932002
O O11 0.273042 0.120869 0.769635
O O12 0.500000 0.000000 0.500000
O O13 0.351438 0.789851 0.715716
O O14 0.350717 0.259198 0.778781
O O15 0.500000 0.500000 0.500000
O O16 0.560216 0.699859 0.153812
O O17 0.200694 0.562456 0.021660
O O18 0.000000 0.000000 0.000000
#
# Coordination Sequence:
#
# PCOD9075411 Si02
#       8
#     2   2   2   2   2   2   2   2
#     4  12  25  45  72 103 143 177 241 297 349 421
#     4  12  24  41  70 110 137 185 241 287 359 418
#     4  11  25  46  72 102 150 189 236 297 358 430
#     4  12  25  48  69 101 143 192 238 285 362 430
#     4  11  24  47  74 103 147 197 233 295 368 422
#     4  12  25  46  76 105 143 189 244 298 357 424
#     4  12  25  44  73 105 138 187 242 296 357 416
#     4  12  22  40  73 105 141 182 234 303 348 423
#
# _framework density 22.108073000000001
#
# number of rings (size 3 to 8) (size 9 to 14) (size 15 to 20)
#    0.000    0.250    6.250    3.375    1.750    0.500 
#    2.250    6.875    2.750    0.000    0.000    0.000 
#    0.000    0.000    0.000    0.000    0.000    0.000 
#
# Total GULP energy -89092.993274 kJ/mol
# GULP energy per Si atom -5568.312080 kJ/mol
# Density = 2.205775 g / cm^3
# Si number density = 22.108073 Si / 1000 Ang^3
#
#
#
# Elastic Constant Matrix: (Units=GPa)
#
#
# Indices 1 2 3 4 5 6 
#
# 1 14.5033 -31.4532 10.8471 -16.4664 0.7007 30.3264
# 2 -31.4532 117.5173 8.8413 -8.2162 -10.9201 20.0554
# 3 10.8471 8.8413 101.2456 -18.4970 5.4309 -2.1642
# 4 -16.4664 -8.2162 -18.4970 39.2691 5.4268 9.9804
# 5 0.7007 -10.9201 5.4309 5.4268 29.4728 -4.0217
# 6 30.3264 20.0554 -2.1642 9.9804 -4.0217 7.1009
#
#
#
# Elastic Compliance Matrix: (Units=1/GPa)
#
#
# Indices 1 2 3 4 5 6 
#
# 1 0.000116 -0.004315 -0.000725 -0.007845 0.003302 0.024368
# 2 -0.004315 0.006363 -0.000751 -0.003209 0.004157 0.007093
# 3 -0.000725 -0.000751 0.011213 0.005640 -0.003543 -0.001298
# 4 -0.007845 -0.003209 0.005640 0.022131 -0.004680 0.010531
# 5 0.003302 0.004157 -0.003543 -0.004680 0.036988 0.000604
# 6 0.024368 0.007093 -0.001298 0.010531 0.000604 0.001871
#
#
# Mechanical properties :
#
#
# Convention : Reuss Voigt Hill
#
# Bulk Modulus (GPa) = 163.67595 23.30409 93.49002
# Shear Modulus (GPa) = 54.17116 31.50395 42.83756
#
# Velocity S-wave (km/s) = 4.95541 3.77901 4.40664
# Velocity P-wave (km/s) = 10.34102 5.44106 8.26262
#
# Compressibility (1/GPa) = 0.00610963
#
# Stress axis : x y z
#
# Youngs Moduli (GPa) = 8641.82831 157.16905 89.18265
#
# Poissons Ratio (x) = 0.67814 0.06467
# Poissons Ratio (y) = 37.28696 0.06697
# Poissons Ratio (z) = 6.26639 0.11803
#
# Static dielectric constant tensor:
#      x y z
#    x 1.865390 0.009880 0.049260 
#    y 0.009880 1.827360 0.035540 
#    z 0.049260 0.035540 1.823580 
# 
# From -- ./inp_files/461786.got.cif
#   From: 2010.05.17/outbox.ucp.g08.bks.cvg/sg2_231_cif.got.tgz:461786.got - 2010.06.11 11:32:03.
