data_PCOD9075187
_publ_section_title
;
Structure prediction by ZEFSAII (Michael W. Deem and Ramdas Pophale) SiO2 
 PCOD9075187
Probable space group: P -1
;
_chemical_formula_sum "Si O2"
_cell_formula_units_Z 15
_cell_length_a 9.000000
_cell_length_b 12.000000
_cell_length_c 21.000000
_cell_angle_alpha 30.000000
_cell_angle_beta 140.000000
_cell_angle_gamma 120.000000
_cell_volume 627.666119
_symmetry_space_group_name_H-M "P -1"
_symmetry_group_IT_number 2
_symmetry_cell_setting 'triclinic'
loop_
_space_group_symop_operation_xyz
x,y,z
-x,-y,-z
loop_
_atom_site_type_symbol
_atom_site_label
_atom_site_fract_x
_atom_site_fract_y
_atom_site_fract_z
Si Si1 0.951137 0.334277 0.319628
Si Si2 0.935599 0.829653 0.017843
Si Si3 0.721461 0.211410 0.966216
Si Si4 0.573411 0.617205 0.821365
Si Si5 0.323851 0.120438 0.652328
Si Si6 0.895545 0.219030 0.214999
Si Si7 0.500000 0.000000 0.500000
Si Si8 0.100125 0.375639 0.663463
O O1 0.943611 0.600533 0.174197
O O2 0.710769 0.360777 0.270358
O O3 0.920373 0.249072 0.282665
O O4 0.225230 0.129552 0.543973
O O5 0.151237 0.725761 0.083439
O O6 0.633605 0.019864 0.802300
O O7 0.000000 0.000000 0.000000
O O8 0.870661 0.904020 0.178702
O O9 0.739838 0.368223 0.953512
O O10 0.404253 0.317850 0.799991
O O11 0.542581 0.856101 0.654501
O O12 0.741239 0.511349 0.993256
O O13 0.120809 0.408641 0.468926
O O14 0.273100 0.925387 0.775245
O O15 0.193155 0.049390 0.370710
O O16 0.000000 0.500000 0.500000
#
# Coordination Sequence:
#
# PCOD9075187 Si02
#       8
#     2   2   2   2   2   2   1   2
#     4  12  26  47  76 106 154 200 255 308 388 448
#     4  12  28  46  73 110 151 203 257 317 373 453
#     4  11  25  45  68 104 147 188 250 309 371 440
#     4  12  25  47  73 109 150 198 248 309 382 458
#     4  12  25  45  75 109 151 198 253 309 381 450
#     4  12  26  46  76 111 150 202 246 316 382 458
#     4  12  26  44  74 108 148 186 260 304 370 458
#     4  11  23  42  74 100 139 197 245 310 371 440
#
# _framework density 23.898056
#
# number of rings (size 3 to 8) (size 9 to 14) (size 15 to 20)
#    0.000    0.267    4.000    4.400    1.867    4.267 
#    0.000    0.000    0.000    0.000    0.000    0.000 
#    0.000    0.000    0.000    0.000    0.000    0.000 
#
# Total GULP energy -83746.627479 kJ/mol
# GULP energy per Si atom -5583.108499 kJ/mol
# Density = 2.384366 g / cm^3
# Si number density = 23.898056 Si / 1000 Ang^3
#
#
#
# Elastic Constant Matrix: (Units=GPa)
#
#
# Indices 1 2 3 4 5 6 
#
# 1 143.9918 37.7188 22.7777 -5.8234 -13.1140 4.6270
# 2 37.7188 55.6530 15.5891 2.2373 -0.6779 -3.1843
# 3 22.7777 15.5891 102.7587 18.0800 -22.1471 -8.3419
# 4 -5.8234 2.2373 18.0800 40.0575 0.2424 -0.9709
# 5 -13.1140 -0.6779 -22.1471 0.2424 40.5661 12.6870
# 6 4.6270 -3.1843 -8.3419 -0.9709 12.6870 16.0205
#
#
#
# Elastic Compliance Matrix: (Units=1/GPa)
#
#
# Indices 1 2 3 4 5 6 
#
# 1 0.009728 -0.006807 -0.001078 0.002040 0.005143 -0.008673
# 2 -0.006807 0.023833 -0.002483 -0.000908 -0.006416 0.010436
# 3 -0.001078 -0.002483 0.012818 -0.005813 0.006277 0.001169
# 4 0.002040 -0.000908 -0.005813 0.027952 -0.002710 0.000044
# 5 0.005143 -0.006416 0.006277 -0.002710 0.039267 -0.030753
# 6 -0.008673 0.010436 0.001169 0.000044 -0.030753 0.091965
#
#
# Mechanical properties :
#
#
# Convention : Reuss Voigt Hill
#
# Bulk Modulus (GPa) = 38.99672 50.50830 44.75251
# Shear Modulus (GPa) = 21.29057 34.41670 27.85363
#
# Velocity S-wave (km/s) = 2.98802 3.79904 3.41767
# Velocity P-wave (km/s) = 5.31580 6.35802 5.86012
#
# Compressibility (1/GPa) = 0.02564318
#
# Stress axis : x y z
#
# Youngs Moduli (GPa) = 102.79640 41.95940 78.01732
#
# Poissons Ratio (x) = 0.28560 0.08413
# Poissons Ratio (y) = 0.69970 0.19368
# Poissons Ratio (z) = 0.11084 0.10417
#
# Static dielectric constant tensor:
#      x y z
#    x 1.820260 -0.060140 0.041820 
#    y -0.060140 1.979660 0.012530 
#    z 0.041820 0.012530 1.893960 
# 
# From -- ./inp_files/389320.got.cif
#   From: 2010.05.17/outbox.ucp.g08.bks.cvg/sg2_195_cif.got.tgz:389320.got - 2010.06.11 11:32:03.
