data_PCOD9075489
_publ_section_title
;
Structure prediction by ZEFSAII (Michael W. Deem and Ramdas Pophale) SiO2 
 PCOD9075489
Probable space group: P -1
;
_chemical_formula_sum "Si O2"
_cell_formula_units_Z 16
_cell_length_a 9.000000
_cell_length_b 15.000000
_cell_length_c 9.000000
_cell_angle_alpha 140.000000
_cell_angle_beta 90.000000
_cell_angle_gamma 80.000000
_cell_volume 751.948787
_symmetry_space_group_name_H-M "P -1"
_symmetry_group_IT_number 2
_symmetry_cell_setting 'triclinic'
loop_
_space_group_symop_operation_xyz
x,y,z
-x,-y,-z
loop_
_atom_site_type_symbol
_atom_site_label
_atom_site_fract_x
_atom_site_fract_y
_atom_site_fract_z
Si Si1 0.345680 0.182880 0.138972
Si Si2 0.158832 0.775147 0.954122
Si Si3 0.164114 0.508834 0.077083
Si Si4 0.816320 0.913318 0.232443
Si Si5 0.375556 0.201289 0.668766
Si Si6 0.835093 0.503963 0.578854
Si Si7 0.677162 0.998233 0.836070
Si Si8 0.277690 0.769605 0.265666
O O1 0.281392 0.345721 0.288200
O O2 0.286813 0.147814 0.253987
O O3 0.280178 0.072230 0.899628
O O4 0.530205 0.121036 0.054810
O O5 0.197322 0.642108 0.670998
O O6 0.263218 0.734770 0.048579
O O7 0.984291 0.812115 0.063157
O O8 0.189269 0.922113 0.079013
O O9 0.161182 0.502494 0.249772
O O10 0.220306 0.648602 0.202884
O O11 0.281061 0.362213 0.828937
O O12 0.000000 0.500000 0.000000
O O13 0.718880 0.833675 0.234363
O O14 0.824820 0.067536 0.490317
O O15 0.372553 0.062489 0.393596
O O16 0.549266 0.214978 0.694963
O O17 0.000000 0.500000 0.500000
#
# Coordination Sequence:
#
# PCOD9075489 Si02
#       8
#     2   2   2   2   2   2   2   2
#     4  11  25  48  71 100 145 185 238 290 355 424
#     4  12  27  43  71 109 141 185 236 290 366 415
#     4  12  29  46  73 107 143 185 241 291 353 425
#     4  12  23  45  72 102 141 184 239 302 344 420
#     4  12  24  48  72  99 143 186 238 298 350 417
#     4  12  26  48  70 102 147 188 227 293 359 421
#     4  11  27  45  74 106 136 192 237 296 354 419
#     4  12  26  45  72 106 140 187 240 292 355 418
#
# _framework density 21.278044999999999
#
# number of rings (size 3 to 8) (size 9 to 14) (size 15 to 20)
#    0.000    0.250    5.000    3.375    7.000    1.000 
#    0.000    0.000    0.000    0.000    0.000    0.000 
#    0.000    0.000    0.000    0.000    0.000    0.000 
#
# Total GULP energy -89359.207139 kJ/mol
# GULP energy per Si atom -5584.950446 kJ/mol
# Density = 2.122962 g / cm^3
# Si number density = 21.278045 Si / 1000 Ang^3
#
#
#
# Elastic Constant Matrix: (Units=GPa)
#
#
# Indices 1 2 3 4 5 6 
#
# 1 89.8200 41.3709 38.5835 4.3335 13.1171 19.5293
# 2 41.3709 108.6255 47.1377 12.0277 -1.8735 17.2601
# 3 38.5835 47.1377 131.9636 17.9671 12.1376 3.1743
# 4 4.3335 12.0277 17.9671 37.5716 -0.8394 0.3478
# 5 13.1171 -1.8735 12.1376 -0.8394 28.9643 4.4866
# 6 19.5293 17.2601 3.1743 0.3478 4.4866 36.0856
#
#
#
# Elastic Compliance Matrix: (Units=1/GPa)
#
#
# Indices 1 2 3 4 5 6 
#
# 1 0.016322 -0.004302 -0.002673 0.000701 -0.005624 -0.005848
# 2 -0.004302 0.013406 -0.003621 -0.001913 0.004953 -0.004363
# 3 -0.002673 -0.003621 0.010444 -0.003640 -0.003937 0.002785
# 4 0.000701 -0.001913 -0.003640 0.028927 0.001869 0.000344
# 5 -0.005624 0.004953 -0.003937 0.001869 0.039706 -0.003934
# 6 -0.005848 -0.004363 0.002785 0.000344 -0.003934 0.033205
#
#
# Mechanical properties :
#
#
# Convention : Reuss Voigt Hill
#
# Bulk Modulus (GPa) = 52.68797 64.95481 58.82139
# Shear Modulus (GPa) = 29.49366 34.07877 31.78621
#
# Velocity S-wave (km/s) = 3.72709 4.00633 3.86923
# Velocity P-wave (km/s) = 6.58308 7.21068 6.90402
#
# Compressibility (1/GPa) = 0.01897967
#
# Stress axis : x y z
#
# Youngs Moduli (GPa) = 61.26678 74.59241 95.75140
#
# Poissons Ratio (x) = 0.32088 0.25597
# Poissons Ratio (y) = 0.26355 0.34673
# Poissons Ratio (z) = 0.16378 0.27011
#
# Static dielectric constant tensor:
#      x y z
#    x 1.796170 -0.008550 -0.021950 
#    y -0.008550 1.885140 -0.084080 
#    z -0.021950 -0.084080 1.791650 
# 
# From -- ./inp_files/186767.got.cif
#   From: 2010.05.17/outbox.ucp.g08.bks.cvg/sg2_94_cif.got.tgz:186767.got - 2010.06.11 11:32:03.
