data_PCOD9075994
_publ_section_title
;
Structure prediction by ZEFSAII (Michael W. Deem and Ramdas Pophale) SiO2 
 PCOD9075994
Probable space group: P -1
;
_chemical_formula_sum "Si O2"
_cell_formula_units_Z 16
_cell_length_a 8.265755
_cell_length_b 8.984340
_cell_length_c 14.845328
_cell_angle_alpha 60.978388
_cell_angle_beta 89.684292
_cell_angle_gamma 132.807965
_cell_volume 603.027649
_symmetry_space_group_name_H-M "P -1"
_symmetry_group_IT_number 2
_symmetry_cell_setting 'triclinic'
loop_
_space_group_symop_operation_xyz
x,y,z
-x,-y,-z
loop_
_atom_site_type_symbol
_atom_site_label
_atom_site_fract_x
_atom_site_fract_y
_atom_site_fract_z
Si Si1 0.787499 0.713397 0.748019
Si Si2 0.546982 0.180595 0.872989
Si Si3 0.393751 0.536280 0.907602
Si Si4 0.880112 0.776181 0.186434
Si Si5 0.869964 0.311909 0.691337
Si Si6 0.033305 0.784113 0.893730
Si Si7 0.655601 0.670621 0.567723
Si Si8 0.638463 0.327073 0.541176
O O1 0.560616 0.382509 0.851649
O O2 0.665697 0.775379 0.781108
O O3 0.827068 0.798501 0.620235
O O4 0.001532 0.804866 0.783887
O O5 0.806636 0.387099 0.751774
O O6 0.313697 0.963013 0.869268
O O7 0.500000 0.000000 0.000000
O O8 0.217839 0.373978 0.864106
O O9 0.500000 0.500000 0.000000
O O10 0.212109 0.513320 0.975055
O O11 0.635730 0.589763 0.311032
O O12 0.099427 0.833747 0.208170
O O13 0.993822 0.057276 0.099987
O O14 0.658029 0.187028 0.652597
O O15 0.141700 0.542053 0.570611
O O16 0.707497 0.554474 0.534139
O O17 0.611109 0.810153 0.472586
#
# Coordination Sequence:
#
# PCOD9075994 Si02
#       8
#     2   2   2   2   2   2   2   2
#     4  10  21  37  58  89 116 150 207 236 288 358
#     4  12  24  38  59  86 125 158 189 243 294 352
#     4   9  18  32  54  84 109 150 204 238 274 337
#     4  10  18  32  58  84 117 152 193 246 293 346
#     4  10  20  33  57  92 118 152 197 237 304 349
#     4  11  21  36  61  79 118 163 196 240 283 350
#     4   9  16  34  61  88 109 149 200 243 294 344
#     4   9  17  32  62  90 111 152 198 245 293 353
#
# _framework density 26.532782000000001
#
# number of rings (size 3 to 8) (size 9 to 14) (size 15 to 20)
#    0.000    2.000    3.750    1.125    1.750    0.500 
#    0.000    0.000    5.500   13.500    0.000    0.000 
#    0.000    0.000    0.000    0.000    0.000    0.000 
#
# Total GULP energy -89093.889110 kJ/mol
# GULP energy per Si atom -5568.368069 kJ/mol
# Density = 2.647239 g / cm^3
# Si number density = 26.532782 Si / 1000 Ang^3
#
#
#
# Elastic Constant Matrix: (Units=GPa)
#
#
# Indices 1 2 3 4 5 6 
#
# 1 108.0764 42.5047 46.9652 16.3455 10.8599 22.5667
# 2 42.5047 128.5324 34.7891 45.6239 17.2914 32.8615
# 3 46.9652 34.7891 161.2264 39.4551 -13.2846 18.4350
# 4 16.3455 45.6239 39.4551 40.6054 8.4063 11.6539
# 5 10.8599 17.2914 -13.2846 8.4063 57.6479 11.0540
# 6 22.5667 32.8615 18.4350 11.6539 11.0540 34.3390
#
#
#
# Elastic Compliance Matrix: (Units=1/GPa)
#
#
# Indices 1 2 3 4 5 6 
#
# 1 0.012509 -0.003162 -0.003536 0.003465 -0.001994 -0.003831
# 2 -0.003162 0.016666 0.002760 -0.017506 0.000629 -0.009614
# 3 -0.003536 0.002760 0.010229 -0.011598 0.004525 -0.003329
# 4 0.003465 -0.017506 -0.011598 0.054304 -0.006852 0.004477
# 5 -0.001994 0.000629 0.004525 -0.006852 0.020740 -0.006072
# 6 -0.003831 -0.009614 -0.003329 0.004477 -0.006072 0.043062
#
#
# Mechanical properties :
#
#
# Convention : Reuss Voigt Hill
#
# Bulk Modulus (GPa) = 31.71804 71.81704 51.76754
# Shear Modulus (GPa) = 28.42619 44.75686 36.59153
#
# Velocity S-wave (km/s) = 3.27672 4.11159 3.71766
# Velocity P-wave (km/s) = 5.12797 7.04743 6.16288
#
# Compressibility (1/GPa) = 0.03152780
#
# Stress axis : x y z
#
# Youngs Moduli (GPa) = 79.94324 60.00269 97.76458
#
# Poissons Ratio (x) = 0.18973 0.34568
# Poissons Ratio (y) = 0.25278 -0.26983
# Poissons Ratio (z) = 0.28266 -0.16561
#
# Static dielectric constant tensor:
#      x y z
#    x 2.101120 0.012710 0.016150 
#    y 0.012710 2.206650 -0.109310 
#    z 0.016150 -0.109310 2.148660 
# 
# From -- ./inp_files/337672.got.cif
#   From: 2010.05.17/outbox.cif.g08.bks.cpg/sg2_169_cif.got.tgz:337672.got - 2010.06.03 11:33:40.
