data_PCOD9075687
_publ_section_title
;
Structure prediction by ZEFSAII (Michael W. Deem and Ramdas Pophale) SiO2 
 PCOD9075687
Probable space group: P -1
;
_chemical_formula_sum "Si O2"
_cell_formula_units_Z 16
_cell_length_a 11.291904
_cell_length_b 11.002267
_cell_length_c 15.978067
_cell_angle_alpha 93.023773
_cell_angle_beta 127.938746
_cell_angle_gamma 40.257776
_cell_volume 583.235715
_symmetry_space_group_name_H-M "P -1"
_symmetry_group_IT_number 2
_symmetry_cell_setting 'triclinic'
loop_
_space_group_symop_operation_xyz
x,y,z
-x,-y,-z
loop_
_atom_site_type_symbol
_atom_site_label
_atom_site_fract_x
_atom_site_fract_y
_atom_site_fract_z
Si Si1 0.215522 0.039024 0.495998
Si Si2 0.785139 0.696289 0.499717
Si Si3 0.415623 0.165265 0.073344
Si Si4 0.577628 0.381917 0.939562
Si Si5 0.411005 0.415430 0.164222
Si Si6 0.260893 0.698768 0.542081
Si Si7 0.633053 0.590380 0.524451
Si Si8 0.468445 0.856106 0.068912
O O1 0.416485 0.020916 0.585731
O O2 0.843201 0.320529 0.280776
O O3 0.010161 0.171977 0.501911
O O4 0.522163 0.715968 0.573234
O O5 0.515751 0.789023 0.419213
O O6 0.000000 0.500000 0.500000
O O7 0.135304 0.444341 0.711861
O O8 0.258605 0.143862 0.012139
O O9 0.889307 0.790176 0.284856
O O10 0.266895 0.389900 0.073136
O O11 0.405197 0.219034 0.975099
O O12 0.780990 0.333460 0.967479
O O13 0.730692 0.127618 0.004921
O O14 0.500000 0.500000 0.000000
O O15 0.468730 0.423927 0.283231
O O16 0.901598 0.033848 0.346057
O O17 0.517853 0.419574 0.583798
#
# Coordination Sequence:
#
# PCOD9075687 Si02
#       8
#     2   2   2   2   2   2   2   2
#     4  10  20  33  55  84 109 147 186 231 281 332
#     4  10  18  32  54  85 112 151 184 227 279 332
#     4   9  17  32  52  82 107 144 187 231 273 331
#     4  10  18  32  54  81 108 147 188 225 277 335
#     4   9  17  31  53  74 108 144 179 229 277 322
#     4   9  18  33  51  80 108 140 184 229 281 325
#     4  10  19  33  55  82 115 142 185 235 278 329
#     4   9  18  30  53  83 105 143 196 220 273 344
#
# _framework density 27.433161999999999
#
# number of rings (size 3 to 8) (size 9 to 14) (size 15 to 20)
#    0.000    2.500    2.500    0.375    0.000    0.000 
#    0.000   15.625    0.000    5.250    0.000    0.000 
#    0.000    0.000    0.000    0.000    0.000    0.000 
#
# Total GULP energy -89401.499750 kJ/mol
# GULP energy per Si atom -5587.593734 kJ/mol
# Density = 2.737072 g / cm^3
# Si number density = 27.433162 Si / 1000 Ang^3
#
#
#
# Elastic Constant Matrix: (Units=GPa)
#
#
# Indices 1 2 3 4 5 6 
#
# 1 151.9565 95.9582 26.4397 8.5295 -30.1571 49.2074
# 2 95.9582 245.7375 25.2132 32.8110 -12.9164 34.1819
# 3 26.4397 25.2132 82.7662 14.8030 -10.9421 6.3140
# 4 8.5295 32.8110 14.8030 34.5179 -8.7408 3.4633
# 5 -30.1571 -12.9164 -10.9421 -8.7408 37.7827 7.5025
# 6 49.2074 34.1819 6.3140 3.4633 7.5025 59.8630
#
#
#
# Elastic Compliance Matrix: (Units=1/GPa)
#
#
# Indices 1 2 3 4 5 6 
#
# 1 0.016798 -0.004528 -0.002063 0.006258 0.015349 -0.013290
# 2 -0.004528 0.006333 0.000102 -0.005761 -0.002910 0.000793
# 3 -0.002063 0.000102 0.013766 -0.005251 0.001091 0.000352
# 4 0.006258 -0.005761 -0.005251 0.038538 0.011405 -0.004960
# 5 0.015349 -0.002910 0.001091 0.011405 0.044105 -0.017258
# 6 -0.013290 0.000793 0.000352 -0.004960 -0.017258 0.029589
#
#
# Mechanical properties :
#
#
# Convention : Reuss Voigt Hill
#
# Bulk Modulus (GPa) = 41.80505 86.18694 63.99600
# Shear Modulus (GPa) = 29.39805 48.62264 39.01035
#
# Velocity S-wave (km/s) = 3.27712 4.21456 3.77505
# Velocity P-wave (km/s) = 5.43979 7.42756 6.50999
#
# Compressibility (1/GPa) = 0.02392055
#
# Stress axis : x y z
#
# Youngs Moduli (GPa) = 59.53224 157.90414 72.64064
#
# Poissons Ratio (x) = 0.71496 0.14985
# Poissons Ratio (y) = 0.26955 -0.00744
# Poissons Ratio (z) = 0.12281 -0.01618
#
# Static dielectric constant tensor:
#      x y z
#    x 2.395490 0.104560 0.052000 
#    y 0.104560 2.151420 -0.028510 
#    z 0.052000 -0.028510 2.094480 
# 
# From -- ./inp_files/358533.got.cif
#   From: 2010.05.17/outbox.cif.g08.bks.cpg/sg2_180_cif.got.tgz:358533.got - 2010.06.03 11:33:40.
