data_PCOD9075806
_publ_section_title
;
Structure prediction by ZEFSAII (Michael W. Deem and Ramdas Pophale) SiO2 
 PCOD9075806
Probable space group: P -1
;
_chemical_formula_sum "Si O2"
_cell_formula_units_Z 16
_cell_length_a 12.158064
_cell_length_b 13.298363
_cell_length_c 15.610132
_cell_angle_alpha 132.179823
_cell_angle_beta 155.100051
_cell_angle_gamma 36.379062
_cell_volume 612.552277
_symmetry_space_group_name_H-M "P -1"
_symmetry_group_IT_number 2
_symmetry_cell_setting 'triclinic'
loop_
_space_group_symop_operation_xyz
x,y,z
-x,-y,-z
loop_
_atom_site_type_symbol
_atom_site_label
_atom_site_fract_x
_atom_site_fract_y
_atom_site_fract_z
Si Si1 0.737385 0.160113 0.333778
Si Si2 0.149790 0.689497 0.344802
Si Si3 0.374609 0.353452 0.764383
Si Si4 0.034273 0.111072 0.020391
Si Si5 0.169040 0.697991 0.785560
Si Si6 0.266877 0.440967 0.035847
Si Si7 0.282078 0.067503 0.531387
Si Si8 0.851522 0.821329 0.028929
O O1 0.855854 0.184153 0.520550
O O2 0.448965 0.356506 0.206438
O O3 0.517267 0.096289 0.151637
O O4 0.027923 0.074567 0.419139
O O5 0.500000 0.500000 0.500000
O O6 0.883222 0.655269 0.152885
O O7 0.086600 0.757673 0.241341
O O8 0.101030 0.561324 0.679607
O O9 0.257108 0.238891 0.631556
O O10 0.621071 0.315292 0.994311
O O11 0.642004 0.276642 0.831748
O O12 0.158129 0.057814 0.979618
O O13 0.334898 0.098476 0.271638
O O14 0.000000 0.000000 0.000000
O O15 0.440648 0.616244 0.854942
O O16 0.851510 0.885457 0.633651
O O17 0.989317 0.647178 0.971487
#
# Coordination Sequence:
#
# PCOD9075806 Si02
#       8
#     2   2   2   2   2   2   2   2
#     4  10  20  35  57  87 118 146 189 242 292 352
#     4  11  18  31  56  90 119 148 186 239 299 348
#     4  10  20  38  60  85 115 150 199 249 292 339
#     4  10  23  43  61  80 121 164 198 239 288 345
#     4  10  20  35  61  89 111 150 197 249 295 337
#     4  10  18  32  55  88 123 143 182 243 298 346
#     4  10  22  39  58  83 118 158 193 238 292 348
#     4  11  20  36  57  85 118 155 192 237 291 344
#
# _framework density 26.12022
#
# number of rings (size 3 to 8) (size 9 to 14) (size 15 to 20)
#    0.000    1.750    3.750    1.875    0.000    1.000 
#    0.000    8.125    0.000    0.000    0.000    0.000 
#    0.000    0.000    0.000    0.000    0.000    0.000 
#
# Total GULP energy -89443.920091 kJ/mol
# GULP energy per Si atom -5590.245006 kJ/mol
# Density = 2.606077 g / cm^3
# Si number density = 26.120220 Si / 1000 Ang^3
#
#
#
# Elastic Constant Matrix: (Units=GPa)
#
#
# Indices 1 2 3 4 5 6 
#
# 1 124.1285 26.4706 42.2282 2.9021 10.8541 22.9789
# 2 26.4706 75.6903 30.7372 7.0193 3.2521 15.9053
# 3 42.2282 30.7372 134.0823 -4.8497 2.7907 9.0290
# 4 2.9021 7.0193 -4.8497 49.6198 -8.3473 1.2151
# 5 10.8541 3.2521 2.7907 -8.3473 39.5521 -1.5408
# 6 22.9789 15.9053 9.0290 1.2151 -1.5408 32.9177
#
#
#
# Elastic Compliance Matrix: (Units=1/GPa)
#
#
# Indices 1 2 3 4 5 6 
#
# 1 0.010656 -0.001090 -0.002657 -0.001100 -0.003124 -0.006289
# 2 -0.001090 0.016495 -0.003074 -0.002693 -0.001656 -0.006345
# 3 -0.002657 -0.003074 0.008984 0.001567 0.000712 0.000852
# 4 -0.001100 -0.002693 0.001567 0.021568 0.005007 0.001078
# 5 -0.003124 -0.001656 0.000712 0.005007 0.027434 0.003885
# 6 -0.006289 -0.006345 0.000852 0.001078 0.003885 0.037743
#
#
# Mechanical properties :
#
#
# Convention : Reuss Voigt Hill
#
# Bulk Modulus (GPa) = 44.45789 59.19702 51.82745
# Shear Modulus (GPa) = 34.71748 40.04892 37.38320
#
# Velocity S-wave (km/s) = 3.64970 3.91993 3.78722
# Velocity P-wave (km/s) = 5.90066 6.57269 6.24572
#
# Compressibility (1/GPa) = 0.02249320
#
# Stress axis : x y z
#
# Youngs Moduli (GPa) = 93.84670 60.62358 111.30598
#
# Poissons Ratio (x) = 0.06606 0.29579
# Poissons Ratio (y) = 0.10226 0.34215
# Poissons Ratio (z) = 0.24939 0.18635
#
# Static dielectric constant tensor:
#      x y z
#    x 2.036560 -0.001050 -0.043870 
#    y -0.001050 2.221060 -0.030090 
#    z -0.043870 -0.030090 2.082390 
# 
# From -- ./inp_files/436813.got.cif
#   From: 2010.05.17/outbox.cif.g08.bks.cpg/sg2_219_cif.got.tgz:436813.got - 2010.06.03 11:33:40.
