data_PCOD9075475
_publ_section_title
;
Structure prediction by ZEFSAII (Michael W. Deem and Ramdas Pophale) SiO2 
 PCOD9075475
Probable space group: P -1
;
_chemical_formula_sum "Si O2"
_cell_formula_units_Z 12
_cell_length_a 15.000000
_cell_length_b 12.000000
_cell_length_c 6.000000
_cell_angle_alpha 70.000000
_cell_angle_beta 70.000000
_cell_angle_gamma 30.000000
_cell_volume 505.015089
_symmetry_space_group_name_H-M "P -1"
_symmetry_group_IT_number 2
_symmetry_cell_setting 'triclinic'
loop_
_space_group_symop_operation_xyz
x,y,z
-x,-y,-z
loop_
_atom_site_type_symbol
_atom_site_label
_atom_site_fract_x
_atom_site_fract_y
_atom_site_fract_z
Si Si1 0.093273 0.922599 0.222973
Si Si2 0.243621 0.991206 0.855568
Si Si3 0.358912 0.292485 0.715477
Si Si4 0.725515 0.856232 0.903441
Si Si5 0.970407 0.402351 0.489490
Si Si6 0.443638 0.448730 0.427280
O O1 0.277616 0.653995 0.268041
O O2 0.166336 0.979092 0.106149
O O3 0.000000 0.000000 0.500000
O O4 0.000000 0.000000 0.000000
O O5 0.393985 0.772484 0.715295
O O6 0.075208 0.203795 0.698883
O O7 0.315615 0.028132 0.911142
O O8 0.369118 0.421305 0.666741
O O9 0.234755 0.409451 0.522534
O O10 0.569926 0.036620 0.727444
O O11 0.271038 0.287855 0.955294
O O12 0.909943 0.714586 0.755770
O O13 0.000000 0.500000 0.500000
O O14 0.500000 0.500000 0.500000
#
# Coordination Sequence:
#
# PCOD9075475 Si02
#       6
#     2   2   2   2   2   2
#     4  12  29  50  80 117 159 219 284 333 411 497
#     4  12  27  51  78 111 167 207 269 350 401 493
#     4  11  25  46  79 111 159 208 264 333 411 489
#     4  11  26  47  75 118 160 205 270 340 417 484
#     4  12  26  48  77 119 160 208 268 337 417 492
#     4  12  27  52  82 115 167 222 278 338 413 497
#
# _framework density 23.761666000000002
#
# number of rings (size 3 to 8) (size 9 to 14) (size 15 to 20)
#    0.000    0.333    3.333    4.000    4.667    5.333 
#    0.000    0.000    0.000    0.000    0.000    0.000 
#    0.000    0.000    0.000    0.000    0.000    0.000 
#
# Total GULP energy -67045.874270 kJ/mol
# GULP energy per Si atom -5587.156189 kJ/mol
# Density = 2.370758 g / cm^3
# Si number density = 23.761666 Si / 1000 Ang^3
#
#
#
# Elastic Constant Matrix: (Units=GPa)
#
#
# Indices 1 2 3 4 5 6 
#
# 1 160.6747 48.5915 49.4738 -12.5157 3.0762 5.2817
# 2 48.5915 138.2950 58.6343 -33.0819 24.6221 -17.4826
# 3 49.4738 58.6343 124.9646 -13.7289 -11.0530 8.4442
# 4 -12.5157 -33.0819 -13.7289 55.9130 9.1140 12.1320
# 5 3.0762 24.6221 -11.0530 9.1140 60.3933 -15.2817
# 6 5.2817 -17.4826 8.4442 12.1320 -15.2817 49.2005
#
#
#
# Elastic Compliance Matrix: (Units=1/GPa)
#
#
# Indices 1 2 3 4 5 6 
#
# 1 0.007466 -0.001717 -0.002044 0.000520 -0.000471 -0.001335
# 2 -0.001717 0.013295 -0.005558 0.006787 -0.006853 0.002060
# 3 -0.002044 -0.005558 0.011823 -0.001026 0.004119 -0.002252
# 4 0.000520 0.006787 -0.001026 0.024409 -0.008191 -0.006031
# 5 -0.000471 -0.006853 0.004119 -0.008191 0.022894 0.006039
# 6 -0.001335 0.002060 -0.002252 -0.006031 0.006039 0.024950
#
#
# Mechanical properties :
#
#
# Convention : Reuss Voigt Hill
#
# Bulk Modulus (GPa) = 71.70973 81.92594 76.81784
# Shear Modulus (GPa) = 39.02473 50.91702 44.97087
#
# Velocity S-wave (km/s) = 4.05698 4.63408 4.35510
# Velocity P-wave (km/s) = 7.22424 7.94896 7.59525
#
# Compressibility (1/GPa) = 0.01394511
#
# Stress axis : x y z
#
# Youngs Moduli (GPa) = 133.94185 75.21757 84.57878
#
# Poissons Ratio (x) = 0.12916 0.17291
# Poissons Ratio (y) = 0.22999 0.47008
# Poissons Ratio (z) = 0.27383 0.41805
#
# Static dielectric constant tensor:
#      x y z
#    x 1.881500 0.046880 -0.027190 
#    y 0.046880 1.988300 -0.021680 
#    z -0.027190 -0.021680 1.973220 
# 
# From -- ./inp_files/94555.got.cif
#   From: 2010.05.17/outbox.ucp.g08.bks.cvg/sg2_48_cif.got.tgz:94555.got - 2010.06.11 11:32:03.
