data_PCOD9075808
_publ_section_title
;
Structure prediction by ZEFSAII (Michael W. Deem and Ramdas Pophale) SiO2 
 PCOD9075808
Probable space group: P -1
;
_chemical_formula_sum "Si O2"
_cell_formula_units_Z 16
_cell_length_a 7.345414
_cell_length_b 11.820495
_cell_length_c 10.421055
_cell_angle_alpha 69.668082
_cell_angle_beta 56.763541
_cell_angle_gamma 90.113158
_cell_volume 687.967814
_symmetry_space_group_name_H-M "P -1"
_symmetry_group_IT_number 2
_symmetry_cell_setting 'triclinic'
loop_
_space_group_symop_operation_xyz
x,y,z
-x,-y,-z
loop_
_atom_site_type_symbol
_atom_site_label
_atom_site_fract_x
_atom_site_fract_y
_atom_site_fract_z
Si Si1 0.324616 0.042115 0.961717
Si Si2 0.095800 0.030850 0.663811
Si Si3 0.796483 0.314225 0.633003
Si Si4 0.698996 0.757958 0.294714
Si Si5 0.330735 0.436759 0.419866
Si Si6 0.037438 0.817798 0.587956
Si Si7 0.549330 0.637005 0.864123
Si Si8 0.798106 0.217693 0.953716
O O1 0.397316 0.171882 0.809404
O O2 0.110133 0.031653 0.138782
O O3 0.500000 0.000000 0.000000
O O4 0.267381 0.927980 0.927938
O O5 0.156079 0.914497 0.613433
O O6 0.248493 0.137818 0.651587
O O7 0.018011 0.104431 0.544913
O O8 0.654289 0.417478 0.652230
O O9 0.762108 0.234016 0.808318
O O10 0.064143 0.380076 0.521129
O O11 0.802170 0.258709 0.509560
O O12 0.606215 0.628140 0.452579
O O13 0.935222 0.741670 0.149911
O O14 0.456640 0.390435 0.273207
O O15 0.799097 0.726719 0.760764
O O16 0.500000 0.500000 0.000000
O O17 0.359278 0.706600 0.948916
#
# Coordination Sequence:
#
# PCOD9075808 Si02
#       8
#     2   2   2   2   2   2   2   2
#     4  11  22  38  62  90 118 157 207 262 315 367
#     4  10  18  35  59  88 125 160 200 249 301 375
#     4   9  15  30  53  84 116 161 208 236 291 371
#     4  10  20  38  62  87 124 160 205 250 312 373
#     4   9  17  31  53  85 124 158 203 248 300 356
#     4  10  19  31  56  89 127 168 204 242 300 367
#     4  11  19  30  53  94 133 164 209 254 293 360
#     4  10  18  32  55  90 117 160 201 243 302 360
#
# _framework density 23.256902
#
# number of rings (size 3 to 8) (size 9 to 14) (size 15 to 20)
#    0.000    2.000    6.250    2.250    1.750    0.000 
#    0.000    0.625    5.500    1.500    3.250    0.000 
#    0.000    0.000    0.000    0.000    0.000    0.000 
#
# Total GULP energy -89281.776600 kJ/mol
# GULP energy per Si atom -5580.111037 kJ/mol
# Density = 2.320397 g / cm^3
# Si number density = 23.256902 Si / 1000 Ang^3
#
#
#
# Elastic Constant Matrix: (Units=GPa)
#
#
# Indices 1 2 3 4 5 6 
#
# 1 55.9575 -0.1332 23.4877 3.5984 16.3035 -13.8548
# 2 -0.1332 152.5475 71.5876 7.6430 -1.9818 -1.6109
# 3 23.4877 71.5876 106.1293 -17.7172 -0.7123 -14.7053
# 4 3.5984 7.6430 -17.7172 54.8379 -7.5607 -0.8463
# 5 16.3035 -1.9818 -0.7123 -7.5607 16.7577 -7.8167
# 6 -13.8548 -1.6109 -14.7053 -0.8463 -7.8167 28.8440
#
#
#
# Elastic Compliance Matrix: (Units=1/GPa)
#
#
# Indices 1 2 3 4 5 6 
#
# 1 0.039239 0.008572 -0.017837 -0.015979 -0.046445 -0.002823
# 2 0.008572 0.012752 -0.012795 -0.008472 -0.013855 -0.005697
# 3 -0.017837 -0.012795 0.026659 0.015932 0.030208 0.012963
# 4 -0.015979 -0.008472 0.015932 0.030396 0.033585 0.009967
# 5 -0.046445 -0.013855 0.030208 0.033585 0.133397 0.029453
# 6 -0.002823 -0.005697 0.012963 0.009967 0.029453 0.047878
#
#
# Mechanical properties :
#
#
# Convention : Reuss Voigt Hill
#
# Bulk Modulus (GPa) = 28.96010 56.05761 42.50885
# Shear Modulus (GPa) = 14.45293 34.73408 24.59350
#
# Velocity S-wave (km/s) = 2.49559 3.86877 3.25541
# Velocity P-wave (km/s) = 4.55886 6.64172 5.69630
#
# Compressibility (1/GPa) = 0.03453027
#
# Stress axis : x y z
#
# Youngs Moduli (GPa) = 25.48507 78.42121 37.51051
#
# Poissons Ratio (x) = -0.67223 0.66906
# Poissons Ratio (y) = -0.21846 0.47995
# Poissons Ratio (z) = 0.45456 1.00341
#
# Static dielectric constant tensor:
#      x y z
#    x 2.007750 0.067250 -0.040250 
#    y 0.067250 1.906470 -0.018960 
#    z -0.040250 -0.018960 1.846120 
# 
# From -- ./inp_files/186566.got.cif
#   From: 2010.05.17/outbox.cif.g08.bks.cpg/sg2_94_cif.got.tgz:186566.got - 2010.06.03 11:33:40.
