data_PCOD9075211
_publ_section_title
;
Structure prediction by ZEFSAII (Michael W. Deem and Ramdas Pophale) SiO2 
 PCOD9075211
Probable space group: P -1
;
_chemical_formula_sum "Si O2"
_cell_formula_units_Z 16
_cell_length_a 12.000000
_cell_length_b 18.000000
_cell_length_c 15.000000
_cell_angle_alpha 150.000000
_cell_angle_beta 50.000000
_cell_angle_gamma 150.000000
_cell_volume 731.734496
_symmetry_space_group_name_H-M "P -1"
_symmetry_group_IT_number 2
_symmetry_cell_setting 'triclinic'
loop_
_space_group_symop_operation_xyz
x,y,z
-x,-y,-z
loop_
_atom_site_type_symbol
_atom_site_label
_atom_site_fract_x
_atom_site_fract_y
_atom_site_fract_z
Si Si1 0.757676 0.125946 0.010694
Si Si2 0.207968 0.291796 0.212081
Si Si3 0.276047 0.110643 0.700465
Si Si4 0.758827 0.776530 0.683186
Si Si5 0.853443 0.458988 0.610024
Si Si6 0.565152 0.516928 0.126038
Si Si7 0.008800 0.326070 0.900239
Si Si8 0.316474 0.882421 0.320641
O O1 0.968842 0.374972 0.223189
O O2 0.849705 0.207132 0.946663
O O3 0.500000 0.000000 0.000000
O O4 0.735577 0.938168 0.865928
O O5 0.199343 0.291651 0.321463
O O6 0.184798 0.412528 0.284416
O O7 0.458647 0.430364 0.189763
O O8 0.000000 0.000000 0.000000
O O9 0.430695 0.327110 0.770267
O O10 0.266089 0.931662 0.489168
O O11 0.411342 0.272954 0.890669
O O12 0.999185 0.942910 0.673725
O O13 0.500000 0.500000 0.500000
O O14 0.000000 0.500000 0.500000
O O15 0.604513 0.157828 0.441775
O O16 0.842799 0.700286 0.187635
O O17 0.844295 0.186004 0.750572
O O18 0.211741 0.627861 0.110156
#
# Coordination Sequence:
#
# PCOD9075211 Si02
#       8
#     2   2   2   2   2   2   2   2
#     4  12  27  49  71 104 148 187 235 300 355 420
#     4  12  25  47  72 106 143 189 235 294 354 425
#     4  11  23  45  70 103 133 182 237 289 347 418
#     4  12  29  45  73 107 146 186 238 291 360 422
#     4  12  27  47  74 104 143 189 241 291 355 428
#     4  11  23  43  75  98 139 178 234 294 348 411
#     4  11  27  46  69 102 143 184 234 295 355 418
#     4  11  27  46  70 103 139 187 239 287 356 423
#
# _framework density 21.865853999999999
#
# number of rings (size 3 to 8) (size 9 to 14) (size 15 to 20)
#    0.000    0.500    5.000    1.500    8.750    3.500 
#    0.000    0.000    0.000    0.000    0.000    0.000 
#    0.000    0.000    0.000    0.000    0.000    0.000 
#
# Total GULP energy -89214.028232 kJ/mol
# GULP energy per Si atom -5575.876765 kJ/mol
# Density = 2.181609 g / cm^3
# Si number density = 21.865854 Si / 1000 Ang^3
#
#
#
# Elastic Constant Matrix: (Units=GPa)
#
#
# Indices 1 2 3 4 5 6 
#
# 1 52.8675 12.8102 0.5893 16.7699 -2.2181 2.3795
# 2 12.8102 128.8036 12.8135 18.3825 -12.8747 10.5078
# 3 0.5893 12.8135 66.8704 15.9335 17.3939 8.6576
# 4 16.7699 18.3825 15.9335 25.9216 10.4358 3.4207
# 5 -2.2181 -12.8747 17.3939 10.4358 15.9014 7.6262
# 6 2.3795 10.5078 8.6576 3.4207 7.6262 32.0201
#
#
#
# Elastic Compliance Matrix: (Units=1/GPa)
#
#
# Indices 1 2 3 4 5 6 
#
# 1 0.034288 0.010016 -0.003257 -0.047136 0.053458 -0.012651
# 2 0.010016 0.019777 -0.008188 -0.036685 0.057543 -0.014807
# 3 -0.003257 -0.008188 0.024804 0.009208 -0.042873 0.005450
# 4 -0.047136 -0.036685 0.009208 0.149855 -0.161755 0.035568
# 5 0.053458 0.057543 -0.042873 -0.161755 0.301548 -0.065804
# 6 -0.012651 -0.014807 0.005450 0.035568 -0.065804 0.047429
#
#
# Mechanical properties :
#
#
# Convention : Reuss Voigt Hill
#
# Bulk Modulus (GPa) = 13.15573 33.44082 23.29827
# Shear Modulus (GPa) = 8.25224 29.59052 18.92138
#
# Velocity S-wave (km/s) = 1.94479 3.68268 2.94486
# Velocity P-wave (km/s) = 3.32755 5.78011 4.71605
#
# Compressibility (1/GPa) = 0.07601250
#
# Stress axis : x y z
#
# Youngs Moduli (GPa) = 29.16437 50.56266 40.31596
#
# Poissons Ratio (x) = -0.50646 0.13133
# Poissons Ratio (y) = -0.29212 0.33010
# Poissons Ratio (z) = 0.09500 0.41399
#
# Static dielectric constant tensor:
#      x y z
#    x 1.624360 0.066880 -0.102990 
#    y 0.066880 1.709770 -0.054600 
#    z -0.102990 -0.054600 1.808600 
# 
# From -- ./inp_files/209380.got.cif
#   From: 2010.05.17/outbox.ucp.g08.bks.cvg/sg2_105_cif.got.tgz:209380.got - 2010.06.11 11:32:03.
