data_PCOD9075134
_publ_section_title
;
Structure prediction by ZEFSAII (Michael W. Deem and Ramdas Pophale) SiO2 
 PCOD9075134
Probable space group: P -1
;
_chemical_formula_sum "Si O2"
_cell_formula_units_Z 12
_cell_length_a 27.000000
_cell_length_b 9.000000
_cell_length_c 27.000000
_cell_angle_alpha 30.000000
_cell_angle_beta 170.000000
_cell_angle_gamma 150.000000
_cell_volume 563.074451
_symmetry_space_group_name_H-M "P -1"
_symmetry_group_IT_number 2
_symmetry_cell_setting 'triclinic'
loop_
_space_group_symop_operation_xyz
x,y,z
-x,-y,-z
loop_
_atom_site_type_symbol
_atom_site_label
_atom_site_fract_x
_atom_site_fract_y
_atom_site_fract_z
Si Si1 0.168605 0.870828 0.157161
Si Si2 0.053734 0.298001 0.658213
Si Si3 0.650736 0.465268 0.768978
Si Si4 0.481408 0.597975 0.717368
Si Si5 0.921098 0.333994 0.179351
Si Si6 0.476222 0.768671 0.779165
O O1 0.395735 0.665965 0.460686
O O2 0.330210 0.118853 0.207493
O O3 0.912568 0.648228 0.942895
O O4 0.000000 0.000000 0.000000
O O5 0.000000 0.500000 0.500000
O O6 0.843120 0.323648 0.489015
O O7 0.984872 0.969861 0.659913
O O8 0.348721 0.330320 0.971441
O O9 0.553055 0.132034 0.749015
O O10 0.780510 0.434956 0.960459
O O11 0.485913 0.656797 0.763954
O O12 0.181973 0.527799 0.411426
O O13 0.651362 0.316599 0.955897
#
# Coordination Sequence:
#
# PCOD9075134 Si02
#       6
#     2   2   2   2   2   2
#     4  12  24  35  63  95 131 170 233 253 294 372
#     4  11  24  47  73  94 120 168 216 260 321 412
#     4  11  23  40  62  91 126 181 221 257 297 378
#     4  12  25  40  62 100 134 170 208 274 318 359
#     4  11  23  41  67  92 127 171 219 256 324 380
#     4  11  25  44  66  95 136 162 209 270 335 367
#
# _framework density 21.311568999999999
#
# number of rings (size 3 to 8) (size 9 to 14) (size 15 to 20)
#    0.000    0.667    1.667    8.000    0.000    1.333 
#    0.000    5.000    0.000    0.000    0.000    0.000 
#    0.000    0.000    0.000    0.000    0.000    0.000 
#
# Total GULP energy -66861.488436 kJ/mol
# GULP energy per Si atom -5571.790703 kJ/mol
# Density = 2.126306 g / cm^3
# Si number density = 21.311569 Si / 1000 Ang^3
#
#
#
# Elastic Constant Matrix: (Units=GPa)
#
#
# Indices 1 2 3 4 5 6 
#
# 1 149.1177 37.0238 15.8327 -13.9926 1.3863 -24.9921
# 2 37.0238 11.8428 10.2547 -2.6887 1.1225 7.1405
# 3 15.8327 10.2547 107.5819 1.8421 -1.8408 0.0109
# 4 -13.9926 -2.6887 1.8421 23.9326 -0.7566 -14.9556
# 5 1.3863 1.1225 -1.8408 -0.7566 30.5211 4.0534
# 6 -24.9921 7.1405 0.0109 -14.9556 4.0534 19.6019
#
#
#
# Elastic Compliance Matrix: (Units=1/GPa)
#
#
# Indices 1 2 3 4 5 6 
#
# 1 -0.003050 0.020480 -0.001252 -0.012724 0.001841 -0.021437
# 2 0.020480 -0.007923 -0.003422 0.058078 -0.009400 0.075255
# 3 -0.001252 -0.003422 0.009899 -0.004235 0.001183 -0.003831
# 4 -0.012724 0.058078 -0.004235 0.033989 0.000564 -0.011560
# 5 0.001841 -0.009400 0.001183 0.000564 0.033200 -0.000663
# 6 -0.021437 0.075255 -0.003831 -0.011560 -0.000663 -0.012411
#
#
# Mechanical properties :
#
#
# Convention : Reuss Voigt Hill
#
# Bulk Modulus (GPa) = 32.74437 43.86277 38.30357
# Shear Modulus (GPa) = 154.94027 28.50653 91.72340
#
# Velocity S-wave (km/s) = 8.53582 3.66130 6.56755
# Velocity P-wave (km/s) = 10.60872 6.20482 8.69036
#
# Compressibility (1/GPa) = 0.03053960
#
# Stress axis : x y z
#
# Youngs Moduli (GPa) = -327.88999 -126.21421 101.02251
#
# Poissons Ratio (x) = 2.58492 0.12646
# Poissons Ratio (y) = 6.71532 0.34567
# Poissons Ratio (z) = -0.41046 -0.43187
#
# Static dielectric constant tensor:
#      x y z
#    x 1.725350 0.020920 0.037910 
#    y 0.020920 1.909080 -0.005320 
#    z 0.037910 -0.005320 1.846680 
# 
# From -- ./inp_files/201240.got.cif
#   From: 2010.05.17/outbox.ucp.g08.bks.cvg/sg2_101_cif.got.tgz:201240.got - 2010.06.11 11:32:03.
