data_PCOD9075727
_publ_section_title
;
Structure prediction by ZEFSAII (Michael W. Deem and Ramdas Pophale) SiO2 
 PCOD9075727
Probable space group: P -1
;
_chemical_formula_sum "Si O2"
_cell_formula_units_Z 14
_cell_length_a 7.701529
_cell_length_b 11.015121
_cell_length_c 12.201014
_cell_angle_alpha 50.028534
_cell_angle_beta 132.519254
_cell_angle_gamma 127.367417
_cell_volume 556.630859
_symmetry_space_group_name_H-M "P -1"
_symmetry_group_IT_number 2
_symmetry_cell_setting 'triclinic'
loop_
_space_group_symop_operation_xyz
x,y,z
-x,-y,-z
loop_
_atom_site_type_symbol
_atom_site_label
_atom_site_fract_x
_atom_site_fract_y
_atom_site_fract_z
Si Si1 0.817578 0.052025 0.312409
Si Si2 0.831342 0.571991 0.521534
Si Si3 0.221146 0.265043 0.202193
Si Si4 0.648902 0.903514 0.835214
Si Si5 0.274839 0.761872 0.458433
Si Si6 0.643141 0.107550 0.899396
Si Si7 0.703122 0.458740 0.768884
O O1 0.980152 0.136313 0.229011
O O2 0.647030 0.157839 0.228479
O O3 0.587960 0.889161 0.279578
O O4 0.000000 0.000000 0.500000
O O5 0.820634 0.383960 0.589153
O O6 0.806958 0.574678 0.640508
O O7 0.592418 0.591646 0.345455
O O8 0.073240 0.705174 0.501007
O O9 0.460371 0.237374 0.382423
O O10 0.231815 0.446663 0.144196
O O11 0.261850 0.232403 0.111353
O O12 0.702869 0.058630 0.684266
O O13 0.761695 0.989345 0.948855
O O14 0.780643 0.293075 0.885203
O O15 0.500000 0.000000 0.000000
#
# Coordination Sequence:
#
# PCOD9075727 Si02
#       7
#     2   2   2   2   2   2   2
#     4  10  22  38  65  92 130 164 205 259 311 365
#     4   9  19  31  55  90 127 161 196 264 308 358
#     4  11  22  34  57  96 123 163 201 261 318 366
#     4  10  22  36  59  91 131 159 206 257 309 371
#     4  10  18  32  54  92 131 154 200 253 320 358
#     4  10  23  45  66  86 124 172 212 253 306 377
#     4  10  21  37  59  89 129 162 214 252 314 374
#
# _framework density 25.151319000000001
#
# number of rings (size 3 to 8) (size 9 to 14) (size 15 to 20)
#    0.857    1.143    2.857    0.429    8.000    0.000 
#    0.000    2.143    0.000    0.000    0.000    0.000 
#    0.000    0.000    0.000    0.000    0.000    0.000 
#
# Total GULP energy -78268.725447 kJ/mol
# GULP energy per Si atom -5590.623246 kJ/mol
# Density = 2.509407 g / cm^3
# Si number density = 25.151319 Si / 1000 Ang^3
#
#
#
# Elastic Constant Matrix: (Units=GPa)
#
#
# Indices 1 2 3 4 5 6 
#
# 1 202.3918 66.9195 25.2103 -2.3410 -16.7329 -13.1035
# 2 66.9195 115.4932 2.9281 10.5061 -8.2765 -33.9722
# 3 25.2103 2.9281 40.8566 5.0788 -0.2698 -5.6740
# 4 -2.3410 10.5061 5.0788 19.1205 2.2228 -7.7174
# 5 -16.7329 -8.2765 -0.2698 2.2228 33.9755 3.1506
# 6 -13.1035 -33.9722 -5.6740 -7.7174 3.1506 71.8958
#
#
#
# Elastic Compliance Matrix: (Units=1/GPa)
#
#
# Indices 1 2 3 4 5 6 
#
# 1 0.007193 -0.004505 -0.004718 0.004004 0.002225 -0.000858
# 2 -0.004505 0.013347 0.003378 -0.006900 0.001050 0.004965
# 3 -0.004718 0.003378 0.028554 -0.009089 -0.000870 0.002052
# 4 0.004004 -0.006900 -0.009089 0.060869 -0.004085 0.003465
# 5 0.002225 0.001050 -0.000870 -0.004085 0.031135 -0.000970
# 6 -0.000858 0.004965 0.002052 0.003465 -0.000970 0.016675
#
#
# Mechanical properties :
#
#
# Convention : Reuss Voigt Hill
#
# Bulk Modulus (GPa) = 26.73574 60.98416 43.85995
# Shear Modulus (GPa) = 27.48289 42.57728 35.03009
#
# Velocity S-wave (km/s) = 3.30919 4.11888 3.73604
# Velocity P-wave (km/s) = 5.02534 6.84980 6.00724
#
# Compressibility (1/GPa) = 0.03740312
#
# Stress axis : x y z
#
# Youngs Moduli (GPa) = 139.02508 74.92378 35.02155
#
# Poissons Ratio (x) = 0.33755 0.16522
# Poissons Ratio (y) = 0.62635 -0.11829
# Poissons Ratio (z) = 0.65588 -0.25307
#
# Static dielectric constant tensor:
#      x y z
#    x 2.028500 -0.087790 0.028980 
#    y -0.087790 2.084320 0.061350 
#    z 0.028980 0.061350 1.965510 
# 
# From -- ./inp_files/496359.got.cif
#   From: 2010.05.17/outbox.cif.g08.bks.cpg/sg2_249_cif.got.tgz:496359.got - 2010.06.03 11:33:40.
