data_PCOD9075700
_publ_section_title
;
Structure prediction by ZEFSAII (Michael W. Deem and Ramdas Pophale) SiO2 
 PCOD9075700
Probable space group: P -1
;
_chemical_formula_sum "Si O2"
_cell_formula_units_Z 14
_cell_length_a 15.647399
_cell_length_b 5.082527
_cell_length_c 9.247970
_cell_angle_alpha 102.298197
_cell_angle_beta 132.126338
_cell_angle_gamma 75.197221
_cell_volume 526.485254
_symmetry_space_group_name_H-M "P -1"
_symmetry_group_IT_number 2
_symmetry_cell_setting 'triclinic'
loop_
_space_group_symop_operation_xyz
x,y,z
-x,-y,-z
loop_
_atom_site_type_symbol
_atom_site_label
_atom_site_fract_x
_atom_site_fract_y
_atom_site_fract_z
Si Si1 0.601402 0.188738 0.153431
Si Si2 0.821326 0.560903 0.182058
Si Si3 0.180857 0.187427 0.504468
Si Si4 0.619342 0.970052 0.865620
Si Si5 0.770614 0.958949 0.749757
Si Si6 0.421296 0.665244 0.555461
Si Si7 0.059066 0.032189 0.825380
O O1 0.574465 0.412968 0.276938
O O2 0.716834 0.013185 0.326356
O O3 0.500000 0.000000 0.000000
O O4 0.626823 0.218913 0.015041
O O5 0.840939 0.571935 0.377246
O O6 0.857018 0.253761 0.139268
O O7 0.907939 0.744598 0.222960
O O8 0.694803 0.709206 0.002133
O O9 0.069862 0.034200 0.343028
O O10 0.222448 0.249443 0.399649
O O11 0.487689 0.929782 0.677355
O O12 0.682800 0.953026 0.781926
O O13 0.710295 0.243995 0.640640
O O14 0.897900 0.900635 0.958949
O O15 0.500000 0.500000 0.500000
#
# Coordination Sequence:
#
# PCOD9075700 Si02
#       7
#     2   2   2   2   2   2   2
#     4   8  17  34  57  79 112 157 199 244 299 360
#     4  10  22  40  64  89 121 161 205 250 299 359
#     4  10  20  37  59  87 118 158 202 251 302 359
#     4   9  18  36  56  80 114 159 200 245 299 359
#     4  10  21  36  57  85 121 159 201 252 304 358
#     4  10  18  32  54  82 115 154 199 251 301 354
#     4  11  22  41  62  90 123 162 202 249 302 361
#
# _framework density 26.591436999999999
#
# number of rings (size 3 to 8) (size 9 to 14) (size 15 to 20)
#    0.000    2.286    0.000    2.571    0.000    0.000 
#    0.000   18.571    0.000    0.000    0.000    0.000 
#    0.000    0.000    0.000    0.000    0.000    0.000 
#
# Total GULP energy -78164.578947 kJ/mol
# GULP energy per Si atom -5583.184211 kJ/mol
# Density = 2.653091 g / cm^3
# Si number density = 26.591437 Si / 1000 Ang^3
#
#
#
# Elastic Constant Matrix: (Units=GPa)
#
#
# Indices 1 2 3 4 5 6 
#
# 1 95.5504 15.0037 43.5138 -0.3490 -12.2497 2.8918
# 2 15.0037 61.6905 31.2417 -2.7782 -18.3498 11.0321
# 3 43.5138 31.2417 183.1594 -0.2665 -21.8175 -10.5853
# 4 -0.3490 -2.7782 -0.2665 34.0763 -20.8761 6.6695
# 5 -12.2497 -18.3498 -21.8175 -20.8761 87.6545 3.2723
# 6 2.8918 11.0321 -10.5853 6.6695 3.2723 21.2970
#
#
#
# Elastic Compliance Matrix: (Units=1/GPa)
#
#
# Indices 1 2 3 4 5 6 
#
# 1 0.012122 -0.000349 -0.002856 0.001667 0.001443 -0.003629
# 2 -0.000349 0.024437 -0.004324 0.010010 0.007083 -0.018984
# 3 -0.002856 -0.004324 0.007246 -0.001765 -0.000175 0.006809
# 4 0.001667 0.010010 -0.001765 0.042163 0.012732 -0.021450
# 5 0.001443 0.007083 -0.000175 0.012732 0.016472 -0.010471
# 6 -0.003629 -0.018984 0.006809 -0.021450 -0.010471 0.068992
#
#
# Mechanical properties :
#
#
# Convention : Reuss Voigt Hill
#
# Bulk Modulus (GPa) = 34.78571 57.76875 46.27723
# Shear Modulus (GPa) = 25.50077 45.31498 35.40787
#
# Velocity S-wave (km/s) = 3.10011 4.13258 3.65300
# Velocity P-wave (km/s) = 5.09158 6.67403 5.93577
#
# Compressibility (1/GPa) = 0.02874743
#
# Stress axis : x y z
#
# Youngs Moduli (GPa) = 82.49582 40.92097 138.01090
#
# Poissons Ratio (x) = 0.01427 0.39412
# Poissons Ratio (y) = 0.02877 0.59679
# Poissons Ratio (z) = 0.23559 0.17695
#
# Static dielectric constant tensor:
#      x y z
#    x 2.237660 0.006710 -0.078440 
#    y 0.006710 2.065100 0.018120 
#    z -0.078440 0.018120 2.076050 
# 
# From -- ./inp_files/52203.got.cif
#   From: 2010.05.17/outbox.cif.g08.bks.cpg/sg2_27_cif.got.tgz:52203.got - 2010.06.03 11:33:40.
