data_PCOD9075874
_publ_section_title
;
Structure prediction by ZEFSAII (Michael W. Deem and Ramdas Pophale) SiO2 
 PCOD9075874
Probable space group: P -1
;
_chemical_formula_sum "Si O2"
_cell_formula_units_Z 14
_cell_length_a 10.413654
_cell_length_b 12.268843
_cell_length_c 10.523187
_cell_angle_alpha 69.232699
_cell_angle_beta 34.461178
_cell_angle_gamma 65.698372
_cell_volume 693.056331
_symmetry_space_group_name_H-M "P -1"
_symmetry_group_IT_number 2
_symmetry_cell_setting 'triclinic'
loop_
_space_group_symop_operation_xyz
x,y,z
-x,-y,-z
loop_
_atom_site_type_symbol
_atom_site_label
_atom_site_fract_x
_atom_site_fract_y
_atom_site_fract_z
Si Si1 0.601244 0.558588 0.696823
Si Si2 0.679450 0.085319 0.835721
Si Si3 0.068107 0.304197 0.698259
Si Si4 0.182088 0.927313 0.549191
Si Si5 0.530909 0.913077 0.630659
Si Si6 0.207323 0.773974 0.845970
Si Si7 0.579249 0.332823 0.942063
O O1 0.837596 0.575293 0.432878
O O2 0.396675 0.648635 0.751140
O O3 0.560127 0.427234 0.804172
O O4 0.594020 0.610069 0.826683
O O5 0.761428 0.126555 0.614672
O O6 0.564729 0.202426 0.961667
O O7 0.921197 0.010395 0.729664
O O8 0.500000 0.000000 0.000000
O O9 0.264359 0.201691 0.517178
O O10 0.832599 0.322531 0.803035
O O11 0.022711 0.255836 0.894572
O O12 0.198129 0.835288 0.691273
O O13 0.371915 0.009210 0.377455
O O14 0.296939 0.862431 0.837901
O O15 0.500000 0.000000 0.500000
#
# Coordination Sequence:
#
# PCOD9075874 Si02
#       7
#     2   2   2   2   2   2   2
#     4   9  20  35  60  87 111 141 190 248 280 331
#     4  11  25  37  59  79 114 163 187 226 276 341
#     4  10  18  32  56  86 110 147 178 237 296 324
#     4  10  22  39  52  82 116 151 194 225 276 349
#     4   9  18  31  53  80 114 142 178 233 279 333
#     4   9  20  35  57  86 114 142 185 241 291 329
#     4  10  20  38  56  83 115 149 193 233 281 332
#
# _framework density 20.200377
#
# number of rings (size 3 to 8) (size 9 to 14) (size 15 to 20)
#    0.000    2.286    1.429    0.429    6.000    5.714 
#    0.000    0.714    0.000    1.714    0.000    0.000 
#    0.000    0.000    0.000    0.000    0.000    0.000 
#
# Total GULP energy -78048.166147 kJ/mol
# GULP energy per Si atom -5574.869011 kJ/mol
# Density = 2.015440 g / cm^3
# Si number density = 20.200377 Si / 1000 Ang^3
#
#
#
# Elastic Constant Matrix: (Units=GPa)
#
#
# Indices 1 2 3 4 5 6 
#
# 1 70.6048 28.5806 18.0389 -13.4989 15.3240 -17.1104
# 2 28.5806 89.2593 25.1168 -23.0112 9.4203 -12.1436
# 3 18.0389 25.1168 83.9727 -31.6689 13.9796 -4.6770
# 4 -13.4989 -23.0112 -31.6689 34.0344 -3.2161 11.1348
# 5 15.3240 9.4203 13.9796 -3.2161 24.7903 -12.8025
# 6 -17.1104 -12.1436 -4.6770 11.1348 -12.8025 23.5017
#
#
#
# Elastic Compliance Matrix: (Units=1/GPa)
#
#
# Indices 1 2 3 4 5 6 
#
# 1 0.019482 -0.004009 -0.001652 0.000039 -0.004880 0.009107
# 2 -0.004009 0.014826 -0.000113 0.008251 -0.002231 -0.000405
# 3 -0.001652 -0.000113 0.024466 0.026599 -0.019379 -0.019551
# 4 0.000039 0.008251 0.026599 0.069900 -0.029560 -0.039636
# 5 -0.004880 -0.002231 -0.019379 -0.029560 0.075286 0.046455
# 6 0.009107 -0.000405 -0.019551 -0.039636 0.046455 0.089165
#
#
# Mechanical properties :
#
#
# Convention : Reuss Voigt Hill
#
# Bulk Modulus (GPa) = 21.17472 43.03437 32.10455
# Shear Modulus (GPa) = 15.60472 27.93865 21.77169
#
# Velocity S-wave (km/s) = 2.78240 3.72301 3.28653
# Velocity P-wave (km/s) = 4.56371 6.31118 5.50720
#
# Compressibility (1/GPa) = 0.04722612
#
# Stress axis : x y z
#
# Youngs Moduli (GPa) = 51.33029 67.44809 40.87327
#
# Poissons Ratio (x) = 0.27042 0.06750
# Poissons Ratio (y) = 0.20580 0.00462
# Poissons Ratio (z) = 0.08477 0.00762
#
# Static dielectric constant tensor:
#      x y z
#    x 1.742870 -0.004140 0.007250 
#    y -0.004140 1.738180 -0.027500 
#    z 0.007250 -0.027500 1.777640 
# 
# From -- ./inp_files/186269.got.cif
#   From: 2010.05.17/outbox.cif.g08.bks.cpg/sg2_94_cif.got.tgz:186269.got - 2010.06.03 11:33:40.
