data_PCOD9075743
_publ_section_title
;
Structure prediction by ZEFSAII (Michael W. Deem and Ramdas Pophale) SiO2 
 PCOD9075743
Probable space group: P -1
;
_chemical_formula_sum "Si O2"
_cell_formula_units_Z 16
_cell_length_a 20.758041
_cell_length_b 16.467002
_cell_length_c 10.663788
_cell_angle_alpha 154.154553
_cell_angle_beta 34.633397
_cell_angle_gamma 143.667607
_cell_volume 871.384096
_symmetry_space_group_name_H-M "P -1"
_symmetry_group_IT_number 2
_symmetry_cell_setting 'triclinic'
loop_
_space_group_symop_operation_xyz
x,y,z
-x,-y,-z
loop_
_atom_site_type_symbol
_atom_site_label
_atom_site_fract_x
_atom_site_fract_y
_atom_site_fract_z
Si Si1 0.838295 0.060991 0.826298
Si Si2 0.072975 0.881444 0.947417
Si Si3 0.772980 0.731450 0.784140
Si Si4 0.842056 0.675470 0.158388
Si Si5 0.943837 0.632093 0.185592
Si Si6 0.436038 0.077442 0.595362
Si Si7 0.676710 0.332051 0.519754
Si Si8 0.270064 0.692038 0.304522
O O1 0.955106 0.168766 0.713084
O O2 0.801318 0.846585 0.531592
O O3 0.875192 0.071253 0.927772
O O4 0.746151 0.189720 0.147081
O O5 0.143940 0.741619 0.578275
O O6 0.937065 0.776286 0.040346
O O7 0.118309 0.089656 0.096746
O O8 0.826494 0.649866 0.465732
O O9 0.727089 0.549446 0.694552
O O10 0.664736 0.823999 0.060959
O O11 0.910089 0.581888 0.025402
O O12 0.742015 0.504058 0.022762
O O13 0.000000 0.500000 0.000000
O O14 0.538789 0.235768 0.582776
O O15 0.500000 0.000000 0.500000
O O16 0.365377 0.882739 0.367325
O O17 0.698783 0.331790 0.633266
#
# Coordination Sequence:
#
# PCOD9075743 Si02
#       8
#     2   2   2   2   2   2   2   2
#     4  10  18  32  55  78 108 144 181 212 257 335
#     4   9  17  32  51  77 105 146 178 209 261 328
#     4  11  18  33  59  83 106 135 186 229 263 312
#     4  11  19  33  55  79 114 146 176 221 266 323
#     4  11  20  33  54  86 113 142 179 216 272 331
#     4   9  20  37  59  77 101 144 194 227 257 320
#     4  10  20  35  58  80 105 141 188 228 265 313
#     4   9  20  35  53  79 106 145 185 223 267 316
#
# _framework density 18.361592999999999
#
# number of rings (size 3 to 8) (size 9 to 14) (size 15 to 20)
#    0.000    2.000    3.750    2.250    0.000    0.000 
#    0.000    3.750    0.000    0.750    0.000    0.000 
#    0.000    0.000    0.000    0.000    0.000    0.000 
#
# Total GULP energy -89087.802871 kJ/mol
# GULP energy per Si atom -5567.987679 kJ/mol
# Density = 1.831980 g / cm^3
# Si number density = 18.361593 Si / 1000 Ang^3
#
#
#
# Elastic Constant Matrix: (Units=GPa)
#
#
# Indices 1 2 3 4 5 6 
#
# 1 30.3259 25.2890 32.1521 9.6489 -1.4977 4.4989
# 2 25.2890 118.1205 32.3955 14.1644 -2.4434 -0.7702
# 3 32.1521 32.3955 93.2300 15.3776 0.7708 10.3431
# 4 9.6489 14.1644 15.3776 32.2912 6.4382 -5.5255
# 5 -1.4977 -2.4434 0.7708 6.4382 26.7973 6.1195
# 6 4.4989 -0.7702 10.3431 -5.5255 6.1195 24.8664
#
#
#
# Elastic Compliance Matrix: (Units=1/GPa)
#
#
# Indices 1 2 3 4 5 6 
#
# 1 0.060892 -0.007342 -0.015785 -0.010531 0.007757 -0.008927
# 2 -0.007342 0.010558 -0.001005 -0.001838 0.000681 0.001497
# 3 -0.015785 -0.001005 0.017917 -0.004570 0.000951 -0.005877
# 4 -0.010531 -0.001838 -0.004570 0.042949 -0.014812 0.016938
# 5 0.007757 0.000681 0.000951 -0.014812 0.045033 -0.016151
# 6 -0.008927 0.001497 -0.005877 0.016938 -0.016151 0.052060
#
#
# Mechanical properties :
#
#
# Convention : Reuss Voigt Hill
#
# Bulk Modulus (GPa) = 24.32971 46.81662 35.57316
# Shear Modulus (GPa) = 17.16009 26.91365 22.03687
#
# Velocity S-wave (km/s) = 3.06038 3.83267 3.46809
# Velocity P-wave (km/s) = 5.07612 6.71850 5.95421
#
# Compressibility (1/GPa) = 0.04110201
#
# Stress axis : x y z
#
# Youngs Moduli (GPa) = 16.42255 94.71685 55.81234
#
# Poissons Ratio (x) = 0.69544 0.88100
# Poissons Ratio (y) = 0.12058 0.05609
# Poissons Ratio (z) = 0.25923 0.09520
#
# Static dielectric constant tensor:
#      x y z
#    x 1.637720 -0.013960 -0.027060 
#    y -0.013960 1.689690 0.015960 
#    z -0.027060 0.015960 1.669220 
# 
# From -- ./inp_files/180366.got.cif
#   From: 2010.05.17/outbox.cif.g08.bks.cpg/sg2_91_cif.got.tgz:180366.got - 2010.06.03 11:33:40.
