data_PCOD9075531
_publ_section_title
;
Structure prediction by ZEFSAII (Michael W. Deem and Ramdas Pophale) SiO2 
 PCOD9075531
Probable space group: P -1
;
_chemical_formula_sum "Si O2"
_cell_formula_units_Z 16
_cell_length_a 9.000000
_cell_length_b 18.000000
_cell_length_c 21.000000
_cell_angle_alpha 20.000000
_cell_angle_beta 40.000000
_cell_angle_gamma 40.000000
_cell_volume 731.217405
_symmetry_space_group_name_H-M "P -1"
_symmetry_group_IT_number 2
_symmetry_cell_setting 'triclinic'
loop_
_space_group_symop_operation_xyz
x,y,z
-x,-y,-z
loop_
_atom_site_type_symbol
_atom_site_label
_atom_site_fract_x
_atom_site_fract_y
_atom_site_fract_z
Si Si1 0.885444 0.371060 0.988433
Si Si2 0.355236 0.890991 0.819850
Si Si3 0.466165 0.707366 0.296411
Si Si4 0.602751 0.797788 0.042823
Si Si5 0.974584 0.633111 0.466888
Si Si6 0.142960 0.121521 0.402910
Si Si7 0.365724 0.586571 0.179417
Si Si8 0.636424 0.189220 0.325548
O O1 0.798724 0.261117 0.043643
O O2 0.690781 0.343449 0.126907
O O3 0.929379 0.618125 0.768373
O O4 0.131400 0.228756 0.047085
O O5 0.598406 0.888421 0.704895
O O6 0.221787 0.144913 0.658162
O O7 0.382272 0.784795 0.966248
O O8 0.500000 0.500000 0.500000
O O9 0.618403 0.694386 0.192165
O O10 0.203205 0.718511 0.346210
O O11 0.498542 0.938073 0.131802
O O12 0.464364 0.659321 0.154802
O O13 0.887786 0.472655 0.676242
O O14 0.000000 0.500000 0.500000
O O15 0.141658 0.972932 0.585504
O O16 0.000000 0.000000 0.500000
O O17 0.514538 0.360190 0.281737
O O18 0.500000 0.000000 0.500000
#
# Coordination Sequence:
#
# PCOD9075531 Si02
#       8
#     2   2   2   2   2   2   2   2
#     4  12  25  46  71 101 147 192 234 290 353 422
#     4  12  26  47  69 104 146 187 238 288 355 422
#     4  11  27  51  74 101 142 186 235 296 364 416
#     4  11  27  47  69 109 143 179 240 297 350 425
#     4  12  26  48  74 104 139 184 239 297 350 428
#     4  12  26  42  69 103 142 189 237 288 348 418
#     4  12  26  43  73 102 143 184 235 292 353 413
#     4  12  24  45  70 101 143 190 238 286 345 423
#
# _framework density 21.881316999999999
#
# number of rings (size 3 to 8) (size 9 to 14) (size 15 to 20)
#    0.000    0.250    6.250    1.875    5.250    2.500 
#    0.000    0.000    0.000    0.000    0.000    0.000 
#    0.000    0.000    0.000    0.000    0.000    0.000 
#
# Total GULP energy -89346.852373 kJ/mol
# GULP energy per Si atom -5584.178273 kJ/mol
# Density = 2.183151 g / cm^3
# Si number density = 21.881317 Si / 1000 Ang^3
#
#
#
# Elastic Constant Matrix: (Units=GPa)
#
#
# Indices 1 2 3 4 5 6 
#
# 1 69.1852 14.7914 21.9001 -18.5509 -20.3099 15.5798
# 2 14.7914 81.8270 37.3673 -14.7077 -6.1150 15.0265
# 3 21.9001 37.3673 97.3184 -2.9251 6.4683 3.8320
# 4 -18.5509 -14.7077 -2.9251 34.4930 4.8489 -6.9684
# 5 -20.3099 -6.1150 6.4683 4.8489 53.8860 0.3135
# 6 15.5798 15.0265 3.8320 -6.9684 0.3135 25.0174
#
#
#
# Elastic Compliance Matrix: (Units=1/GPa)
#
#
# Indices 1 2 3 4 5 6 
#
# 1 0.024361 0.003679 -0.006692 0.009989 0.009583 -0.013693
# 2 0.003679 0.018365 -0.007529 0.006529 0.003847 -0.010398
# 3 -0.006692 -0.007529 0.014665 -0.003786 -0.004828 0.005450
# 4 0.009989 0.006529 -0.003786 0.036725 0.001652 0.000646
# 5 0.009583 0.003847 -0.004828 0.001652 0.023080 -0.007369
# 6 -0.013693 -0.010398 0.005450 0.000646 -0.007369 0.054183
#
#
# Mechanical properties :
#
#
# Convention : Reuss Voigt Hill
#
# Bulk Modulus (GPa) = 27.54416 44.04978 35.79697
# Shear Modulus (GPa) = 24.44193 34.29741 29.36967
#
# Velocity S-wave (km/s) = 3.34581 3.96337 3.66761
# Velocity P-wave (km/s) = 5.24798 6.41244 5.85921
#
# Compressibility (1/GPa) = 0.03630534
#
# Stress axis : x y z
#
# Youngs Moduli (GPa) = 41.04892 54.45190 68.18914
#
# Poissons Ratio (x) = -0.20031 0.45633
# Poissons Ratio (y) = -0.15101 0.51342
# Poissons Ratio (z) = 0.27471 0.40999
#
# Static dielectric constant tensor:
#      x y z
#    x 1.596100 -0.113710 0.045010 
#    y -0.113710 1.821250 -0.004690 
#    z 0.045010 -0.004690 1.727380 
# 
# From -- ./inp_files/187083.got.cif
#   From: 2010.05.17/outbox.ucp.g08.bks.cvg/sg2_94_cif.got.tgz:187083.got - 2010.06.11 11:32:03.
