data_PCOD9075176
_publ_section_title
;
Structure prediction by ZEFSAII (Michael W. Deem and Ramdas Pophale) SiO2 
 PCOD9075176
Probable space group: P -1
;
_chemical_formula_sum "Si O2"
_cell_formula_units_Z 16
_cell_length_a 9.000000
_cell_length_b 12.000000
_cell_length_c 30.000000
_cell_angle_alpha 30.000000
_cell_angle_beta 30.000000
_cell_angle_gamma 50.000000
_cell_volume 731.734496
_symmetry_space_group_name_H-M "P -1"
_symmetry_group_IT_number 2
_symmetry_cell_setting 'triclinic'
loop_
_space_group_symop_operation_xyz
x,y,z
-x,-y,-z
loop_
_atom_site_type_symbol
_atom_site_label
_atom_site_fract_x
_atom_site_fract_y
_atom_site_fract_z
Si Si1 0.260181 0.524613 0.517494
Si Si2 0.601219 0.829277 0.245264
Si Si3 0.843341 0.301446 0.236202
Si Si4 0.379252 0.703245 0.130553
Si Si5 0.882388 0.759986 0.581323
Si Si6 0.885544 0.313375 0.889789
Si Si7 0.802325 0.039932 0.761790
Si Si8 0.042579 0.650376 0.982860
O O1 0.500000 0.500000 0.500000
O O2 0.473313 0.598638 0.391095
O O3 0.124876 0.733361 0.489976
O O4 0.978113 0.249407 0.680031
O O5 0.298511 0.825476 0.297565
O O6 0.881205 0.818417 0.142430
O O7 0.712879 0.070744 0.164376
O O8 0.463528 0.251045 0.343203
O O9 0.932145 0.450166 0.208038
O O10 0.963221 0.083917 0.274417
O O11 0.053647 0.484946 0.078425
O O12 0.150770 0.487869 0.297711
O O13 0.233825 0.621827 0.147835
O O14 0.706841 0.674275 0.063032
O O15 0.500000 0.000000 0.000000
O O16 0.000000 0.000000 0.500000
O O17 0.550962 0.146302 0.061327
O O18 0.000000 0.500000 0.000000
#
# Coordination Sequence:
#
# PCOD9075176 Si02
#       8
#     2   2   2   2   2   2   2   2
#     4  12  28  47  73 103 148 194 243 295 366 444
#     4  12  27  45  70 107 144 192 238 300 367 433
#     4  11  26  46  72 108 141 191 237 305 362 432
#     4  11  23  42  71 105 138 189 249 299 359 430
#     4  11  26  48  72 104 150 198 243 303 375 438
#     4  12  24  44  75 108 144 184 246 305 363 434
#     4  12  26  46  72 105 145 188 243 295 369 436
#     4  11  25  41  69 102 144 179 241 296 360 421
#
# _framework density 21.865853999999999
#
# number of rings (size 3 to 8) (size 9 to 14) (size 15 to 20)
#    0.000    0.500    2.500    4.875   10.500    0.000 
#    0.000    1.875    0.000    0.000    0.000    0.000 
#    0.000    0.000    0.000    0.000    0.000    0.000 
#
# Total GULP energy -89196.152891 kJ/mol
# GULP energy per Si atom -5574.759556 kJ/mol
# Density = 2.181609 g / cm^3
# Si number density = 21.865854 Si / 1000 Ang^3
#
#
#
# Elastic Constant Matrix: (Units=GPa)
#
#
# Indices 1 2 3 4 5 6 
#
# 1 134.2899 25.3600 39.5444 -8.7945 -8.3467 3.8137
# 2 25.3600 137.0091 36.2171 -11.8364 -7.4636 13.4116
# 3 39.5444 36.2171 55.6064 -1.0514 -20.1129 7.2967
# 4 -8.7945 -11.8364 -1.0514 30.3986 10.0912 -7.6963
# 5 -8.3467 -7.4636 -20.1129 10.0912 37.3875 -8.6125
# 6 3.8137 13.4116 7.2967 -7.6963 -8.6125 48.4381
#
#
#
# Elastic Compliance Matrix: (Units=1/GPa)
#
#
# Indices 1 2 3 4 5 6 
#
# 1 0.009911 0.000557 -0.008570 0.003975 -0.003266 0.000407
# 2 0.000557 0.009548 -0.007648 0.004444 -0.003623 -0.001474
# 3 -0.008570 -0.007648 0.035626 -0.010567 0.018349 -0.000991
# 4 0.003975 0.004444 -0.010567 0.041114 -0.014067 0.004080
# 5 -0.003266 -0.003623 0.018349 -0.014067 0.039729 0.003325
# 6 0.000407 -0.001474 -0.000991 0.004080 0.003325 0.022410
#
#
# Mechanical properties :
#
#
# Convention : Reuss Voigt Hill
#
# Bulk Modulus (GPa) = 42.08181 58.79424 50.43803
# Shear Modulus (GPa) = 25.30612 38.29708 31.80160
#
# Velocity S-wave (km/s) = 3.40565 4.18958 3.81779
# Velocity P-wave (km/s) = 5.89507 7.09580 6.52312
#
# Compressibility (1/GPa) = 0.02376323
#
# Stress axis : x y z
#
# Youngs Moduli (GPa) = 100.89923 104.73261 28.06912
#
# Poissons Ratio (x) = -0.05829 0.24056
# Poissons Ratio (y) = -0.05616 0.21466
# Poissons Ratio (z) = 0.86472 0.80094
#
# Static dielectric constant tensor:
#      x y z
#    x 1.811740 0.025630 0.123420 
#    y 0.025630 1.826060 0.025750 
#    z 0.123420 0.025750 1.814040 
# 
# From -- ./inp_files/573640.got.cif
#   From: 2010.05.17/outbox.ucp.g08.bks.cvg/sg2_287_cif.got.tgz:573640.got - 2010.06.11 11:32:03.
