data_PCOD9075665
_publ_section_title
;
Structure prediction by ZEFSAII (Michael W. Deem and Ramdas Pophale) SiO2 
 PCOD9075665
Probable space group: P -1
;
_chemical_formula_sum "Si O2"
_cell_formula_units_Z 16
_cell_length_a 12.000000
_cell_length_b 9.000000
_cell_length_c 9.000000
_cell_angle_alpha 90.000000
_cell_angle_beta 80.000000
_cell_angle_gamma 50.000000
_cell_volume 725.212580
_symmetry_space_group_name_H-M "P -1"
_symmetry_group_IT_number 2
_symmetry_cell_setting 'triclinic'
loop_
_space_group_symop_operation_xyz
x,y,z
-x,-y,-z
loop_
_atom_site_type_symbol
_atom_site_label
_atom_site_fract_x
_atom_site_fract_y
_atom_site_fract_z
Si Si1 0.935069 0.708485 0.461136
Si Si2 0.411308 0.461352 0.117369
Si Si3 0.046114 0.820987 0.677809
Si Si4 0.605335 0.039081 0.930457
Si Si5 0.073778 0.767609 0.168070
Si Si6 0.050734 0.297622 0.057254
Si Si7 0.391048 0.984693 0.430936
Si Si8 0.649166 0.330897 0.546946
O O1 0.000000 0.500000 0.500000
O O2 0.944657 0.836735 0.573968
O O3 0.028693 0.688600 0.303313
O O4 0.765160 0.814401 0.480979
O O5 0.245100 0.585472 0.087726
O O6 0.369794 0.572608 0.286734
O O7 0.500000 0.500000 0.000000
O O8 0.528931 0.227198 0.059573
O O9 0.201487 0.737864 0.568534
O O10 0.058042 0.673094 0.789272
O O11 0.961314 0.035648 0.767990
O O12 0.587974 0.051590 0.753413
O O13 0.779383 0.855763 0.923489
O O14 0.500000 0.000000 0.000000
O O15 0.964718 0.818320 0.060880
O O16 0.000000 0.500000 0.000000
O O17 0.363910 0.834689 0.471156
O O18 0.500000 0.000000 0.500000
O O19 0.500000 0.500000 0.500000
#
# Coordination Sequence:
#
# PCOD9075665 Si02
#       8
#     2   2   2   2   2   2   2   2
#     4  12  26  47  78 111 151 201 259 321 383 451
#     4  12  26  48  75 110 158 198 251 316 388 458
#     4  12  25  50  78 109 153 200 270 321 378 463
#     4  12  29  48  76 111 159 205 251 316 394 463
#     4  12  26  46  78 111 147 204 259 319 384 457
#     4  12  28  50  77 113 156 203 260 318 390 463
#     4  12  29  53  78 114 157 204 257 322 391 465
#     4  12  29  48  79 117 153 204 262 322 392 457
#
# _framework density 22.062495999999999
#
# number of rings (size 3 to 8) (size 9 to 14) (size 15 to 20)
#    0.000    0.000    5.000    3.750   10.500    1.000 
#    0.000    0.000    0.000    0.000    0.000    0.000 
#    0.000    0.000    0.000    0.000    0.000    0.000 
#
# Total GULP energy -89087.101433 kJ/mol
# GULP energy per Si atom -5567.943840 kJ/mol
# Density = 2.201228 g / cm^3
# Si number density = 22.062496 Si / 1000 Ang^3
#
#
#
# Elastic Constant Matrix: (Units=GPa)
#
#
# Indices 1 2 3 4 5 6 
#
# 1 175.8064 71.8635 69.6631 9.4417 5.1232 -23.8935
# 2 71.8635 138.0441 49.0703 22.2525 -8.3479 -18.3800
# 3 69.6631 49.0703 98.0296 -1.6710 -25.1645 7.0431
# 4 9.4417 22.2525 -1.6710 9.6087 -12.4143 19.9857
# 5 5.1232 -8.3479 -25.1645 -12.4143 41.0410 15.9400
# 6 -23.8935 -18.3800 7.0431 19.9857 15.9400 4.6813
#
#
#
# Elastic Compliance Matrix: (Units=1/GPa)
#
#
# Indices 1 2 3 4 5 6 
#
# 1 0.008110 -0.004715 -0.003209 0.007588 -0.000543 -0.002836
# 2 -0.004715 0.009161 0.000335 0.000134 0.004680 -0.005103
# 3 -0.003209 0.000335 0.011897 -0.010714 0.001363 0.008136
# 4 0.007588 0.000134 -0.010714 0.017016 -0.013535 0.028818
# 5 -0.000543 0.004680 0.001363 -0.013535 0.017304 0.012416
# 6 -0.002836 -0.005103 0.008136 0.028818 0.012416 0.001559
#
#
# Mechanical properties :
#
#
# Convention : Reuss Voigt Hill
#
# Bulk Modulus (GPa) = 71.48291 88.11933 79.80112
# Shear Modulus (GPa) = 58.90037 25.81840 42.35938
#
# Velocity S-wave (km/s) = 5.17252 3.42459 4.38650
# Velocity P-wave (km/s) = 8.25493 7.46087 7.86792
#
# Compressibility (1/GPa) = 0.01398936
#
# Stress axis : x y z
#
# Youngs Moduli (GPa) = 123.30616 109.15367 84.05578
#
# Poissons Ratio (x) = 0.51461 0.26977
# Poissons Ratio (y) = 0.58133 -0.02813
# Poissons Ratio (z) = 0.39575 -0.03652
#
# Static dielectric constant tensor:
#      x y z
#    x 1.855970 0.083520 -0.027390 
#    y 0.083520 1.886740 -0.106040 
#    z -0.027390 -0.106040 1.861490 
# 
# From -- ./inp_files/243966.got.cif
#   From: 2010.05.17/outbox.ucp.g08.bks.cvg/sg2_122_cif.got.tgz:243966.got - 2010.06.11 11:32:03.
