data_PCOD9075435
_publ_section_title
;
Structure prediction by ZEFSAII (Michael W. Deem and Ramdas Pophale) SiO2 
 PCOD9075435
Probable space group: P -1
;
_chemical_formula_sum "Si O2"
_cell_formula_units_Z 14
_cell_length_a 9.000000
_cell_length_b 9.000000
_cell_length_c 12.000000
_cell_angle_alpha 110.000000
_cell_angle_beta 60.000000
_cell_angle_gamma 70.000000
_cell_volume 614.029152
_symmetry_space_group_name_H-M "P -1"
_symmetry_group_IT_number 2
_symmetry_cell_setting 'triclinic'
loop_
_space_group_symop_operation_xyz
x,y,z
-x,-y,-z
loop_
_atom_site_type_symbol
_atom_site_label
_atom_site_fract_x
_atom_site_fract_y
_atom_site_fract_z
Si Si1 0.701748 0.767526 0.330132
Si Si2 0.872206 0.343135 0.245331
Si Si3 0.329480 0.149867 0.897259
Si Si4 0.589266 0.255950 0.194656
Si Si5 0.160245 0.723098 0.500635
Si Si6 0.945296 0.883149 0.391268
Si Si7 0.385328 0.734238 0.074098
O O1 0.718489 0.586677 0.337617
O O2 0.708455 0.764257 0.192351
O O3 0.903982 0.754851 0.298938
O O4 0.500000 0.000000 0.500000
O O5 0.761385 0.254527 0.205619
O O6 0.905234 0.282222 0.348506
O O7 0.100604 0.254832 0.076049
O O8 0.475095 0.196878 0.917680
O O9 0.434151 0.911604 0.797633
O O10 0.362719 0.486877 0.342390
O O11 0.657644 0.219988 0.029690
O O12 0.989729 0.801802 0.480508
O O13 0.227912 0.870521 0.496472
O O14 0.158590 0.849149 0.255093
O O15 0.500000 0.500000 0.000000
#
# Coordination Sequence:
#
# PCOD9075435 Si02
#       7
#     2   2   2   2   2   2   2
#     4  12  26  46  74 106 139 179 238 289 353 416
#     4  12  25  46  73 104 143 185 230 294 349 415
#     4  12  27  46  71 106 140 185 236 288 349 419
#     4  12  24  46  72 104 143 183 236 289 350 412
#     4  11  25  44  73 102 141 184 236 283 355 407
#     4  11  25  47  71 102 143 186 229 289 353 414
#     4  12  24  46  71 101 141 185 234 283 346 414
#
# _framework density 22.800219999999999
#
# number of rings (size 3 to 8) (size 9 to 14) (size 15 to 20)
#    0.000    0.286    1.429    7.714    4.000    0.571 
#    0.000    0.000    0.000    0.000    0.000    0.000 
#    0.000    0.000    0.000    0.000    0.000    0.000 
#
# Total GULP energy -78392.161394 kJ/mol
# GULP energy per Si atom -5599.440100 kJ/mol
# Density = 2.274833 g / cm^3
# Si number density = 22.800220 Si / 1000 Ang^3
#
#
#
# Elastic Constant Matrix: (Units=GPa)
#
#
# Indices 1 2 3 4 5 6 
#
# 1 136.4857 51.9659 40.8873 -11.3354 20.2897 14.2387
# 2 51.9659 193.3524 37.8582 -9.9908 20.1599 -4.4104
# 3 40.8873 37.8582 110.5786 -15.6767 12.8945 -19.7098
# 4 -11.3354 -9.9908 -15.6767 60.3833 -11.8266 19.9124
# 5 20.2897 20.1599 12.8945 -11.8266 34.2654 -5.3610
# 6 14.2387 -4.4104 -19.7098 19.9124 -5.3610 51.0499
#
#
#
# Elastic Compliance Matrix: (Units=1/GPa)
#
#
# Indices 1 2 3 4 5 6 
#
# 1 0.010349 -0.001707 -0.003499 0.001772 -0.004056 -0.005502
# 2 -0.001707 0.006079 -0.001155 -0.000161 -0.002125 0.000395
# 3 -0.003499 -0.001155 0.011799 0.000348 -0.000753 0.005217
# 4 0.001772 -0.000161 0.000348 0.020481 0.004753 -0.007864
# 5 -0.004056 -0.002125 -0.000753 0.004753 0.035150 0.002494
# 6 -0.005502 0.000395 0.005217 -0.007864 0.002494 0.026501
#
#
# Mechanical properties :
#
#
# Convention : Reuss Voigt Hill
#
# Bulk Modulus (GPa) = 64.48981 77.98216 71.23598
# Shear Modulus (GPa) = 38.98656 49.78676 44.38666
#
# Velocity S-wave (km/s) = 4.13960 4.67798 4.41700
# Velocity P-wave (km/s) = 7.15504 7.96584 7.57130
#
# Compressibility (1/GPa) = 0.01550633
#
# Stress axis : x y z
#
# Youngs Moduli (GPa) = 96.62714 164.49806 84.75143
#
# Poissons Ratio (x) = 0.28087 0.29651
# Poissons Ratio (y) = 0.16499 0.09785
# Poissons Ratio (z) = 0.33806 0.18991
#
# Static dielectric constant tensor:
#      x y z
#    x 1.886630 -0.029360 -0.029370 
#    y -0.029360 1.837410 0.108720 
#    z -0.029370 0.108720 1.946830 
# 
# From -- ./inp_files/382839.got.cif
#   From: 2010.05.17/outbox.ucp.g08.bks.cvg/sg2_192_cif.got.tgz:382839.got - 2010.06.11 11:32:03.
