data_PCOD9075889
_publ_section_title
;
Structure prediction by ZEFSAII (Michael W. Deem and Ramdas Pophale) SiO2 
 PCOD9075889
Probable space group: P -1
;
_chemical_formula_sum "Si O2"
_cell_formula_units_Z 10
_cell_length_a 10.118408
_cell_length_b 12.716033
_cell_length_c 11.726503
_cell_angle_alpha 133.046261
_cell_angle_beta 134.856447
_cell_angle_gamma 23.140811
_cell_volume 417.183188
_symmetry_space_group_name_H-M "P -1"
_symmetry_group_IT_number 2
_symmetry_cell_setting 'triclinic'
loop_
_space_group_symop_operation_xyz
x,y,z
-x,-y,-z
loop_
_atom_site_type_symbol
_atom_site_label
_atom_site_fract_x
_atom_site_fract_y
_atom_site_fract_z
Si Si1 0.763302 0.463894 0.614422
Si Si2 0.989833 0.271794 0.354466
Si Si3 0.280917 0.043394 0.813175
Si Si4 0.307180 0.592504 0.100762
Si Si5 0.420235 0.319834 0.783431
O O1 0.500000 0.500000 0.500000
O O2 0.939303 0.346284 0.509816
O O3 0.072188 0.256976 0.742433
O O4 0.523773 0.760095 0.702522
O O5 0.687622 0.348018 0.208169
O O6 0.862945 0.471800 0.333292
O O7 0.356511 0.966947 0.313303
O O8 0.972901 0.185157 0.811004
O O9 0.500000 0.000000 0.000000
O O10 0.311853 0.720987 0.108574
O O11 0.258244 0.472757 0.918429
#
# Coordination Sequence:
#
# PCOD9075889 Si02
#       5
#     2   2   2   2   2
#     4  12  22  40  64  87 118 159 206 250 283 346
#     4  10  18  32  56  88 108 138 199 251 284 323
#     4  12  26  40  58  90 128 161 189 240 312 363
#     4   9  20  32  58  82 119 146 195 242 289 343
#     4   9  18  31  55  91 108 143 194 258 279 326
#
# _framework density 23.970286000000002
#
# number of rings (size 3 to 8) (size 9 to 14) (size 15 to 20)
#    1.200    0.400    2.000    4.200    0.000    0.000 
#    0.000    0.000    0.000    7.200    0.000    0.000 
#    0.000    0.000    0.000    0.000    0.000    0.000 
#
# Total GULP energy -55891.549314 kJ/mol
# GULP energy per Si atom -5589.154931 kJ/mol
# Density = 2.391573 g / cm^3
# Si number density = 23.970286 Si / 1000 Ang^3
#
#
#
# Elastic Constant Matrix: (Units=GPa)
#
#
# Indices 1 2 3 4 5 6 
#
# 1 17.1413 13.0782 4.6011 -56.0623 8.5153 -52.7899
# 2 13.0782 179.6546 47.5238 -11.1880 -2.0662 -11.0262
# 3 4.6011 47.5238 118.0722 -28.3524 -14.9914 -31.5343
# 4 -56.0623 -11.1880 -28.3524 -33.9028 27.8172 -73.8423
# 5 8.5153 -2.0662 -14.9914 27.8172 31.3392 20.7525
# 6 -52.7899 -11.0262 -31.5343 -73.8423 20.7525 -27.3375
#
#
#
# Elastic Compliance Matrix: (Units=1/GPa)
#
#
# Indices 1 2 3 4 5 6 
#
# 1 0.016324 -0.001171 -0.002942 -0.006666 0.004251 -0.006425
# 2 -0.001171 0.006335 -0.002450 0.000559 -0.001071 0.000210
# 3 -0.002942 -0.002450 0.010379 -0.000797 0.005588 0.001090
# 4 -0.006666 0.000559 -0.000797 0.009894 0.000931 -0.012452
# 5 0.004251 -0.001071 0.005588 0.000931 0.029024 0.005295
# 6 -0.006425 0.000210 0.001090 -0.012452 0.005295 0.012139
#
#
# Mechanical properties :
#
#
# Convention : Reuss Voigt Hill
#
# Bulk Modulus (GPa) = 50.21723 49.47492 49.84607
# Shear Modulus (GPa) = 48.14313 10.66411 29.40362
#
# Velocity S-wave (km/s) = 4.48644 2.11153 3.50618
# Velocity P-wave (km/s) = 6.91612 5.16039 6.10174
#
# Compressibility (1/GPa) = 0.01991348
#
# Stress axis : x y z
#
# Youngs Moduli (GPa) = 61.26104 157.85589 96.34386
#
# Poissons Ratio (x) = 0.18480 0.28340
# Poissons Ratio (y) = 0.07172 0.23604
# Poissons Ratio (z) = 0.18020 0.38674
#
# Static dielectric constant tensor:
#      x y z
#    x 1.932900 -0.104400 0.040340 
#    y -0.104400 1.694950 -0.067020 
#    z 0.040340 -0.067020 1.989140 
# 
# From -- ./inp_files/18251.got.cif
#   From: 2010.05.17/outbox.cif.g08.bks.cpg/sg2_10_cif.got.tgz:18251.got - 2010.06.03 11:33:40.
