data_PCOD9075072
_publ_section_title
;
Structure prediction by ZEFSAII (Michael W. Deem and Ramdas Pophale) SiO2 
 PCOD9075072
Probable space group: P -1
;
_chemical_formula_sum "Si O2"
_cell_formula_units_Z 14
_cell_length_a 21.000000
_cell_length_b 9.000000
_cell_length_c 15.000000
_cell_angle_alpha 130.000000
_cell_angle_beta 30.000000
_cell_angle_gamma 150.000000
_cell_volume 640.267684
_symmetry_space_group_name_H-M "P -1"
_symmetry_group_IT_number 2
_symmetry_cell_setting 'triclinic'
loop_
_space_group_symop_operation_xyz
x,y,z
-x,-y,-z
loop_
_atom_site_type_symbol
_atom_site_label
_atom_site_fract_x
_atom_site_fract_y
_atom_site_fract_z
Si Si1 0.011943 0.177663 0.476442
Si Si2 0.465587 0.122640 0.661846
Si Si3 0.513709 0.308022 0.959197
Si Si4 0.198058 0.664471 0.969523
Si Si5 0.527900 0.337188 0.348839
Si Si6 0.576240 0.679292 0.725684
Si Si7 0.172333 0.628890 0.592009
O O1 0.242605 0.457411 0.259408
O O2 0.008316 0.368295 0.612837
O O3 0.000000 0.000000 0.500000
O O4 0.828963 0.945587 0.534992
O O5 0.449759 0.322033 0.727567
O O6 0.688677 0.383447 0.548615
O O7 0.500000 0.000000 0.500000
O O8 0.270665 0.830027 0.849661
O O9 0.357460 0.969460 0.964654
O O10 0.500000 0.500000 0.000000
O O11 0.478143 0.293888 0.102234
O O12 0.244638 0.493216 0.850588
O O13 0.959478 0.434276 0.194366
O O14 0.500000 0.500000 0.500000
O O15 0.472014 0.269437 0.286284
O O16 0.354060 0.987989 0.472051
#
# Coordination Sequence:
#
# PCOD9075072 Si02
#       7
#     2   2   2   2   2   2   2
#     4  12  20  38  66 100 134 159 207 276 334 387
#     4  11  23  41  65  97 131 177 221 266 320 389
#     4  12  20  38  66 100 134 159 207 276 334 387
#     4  11  22  43  68  92 132 173 214 276 330 377
#     4  11  27  49  63  89 139 183 223 263 310 394
#     4  12  24  38  70  98 130 174 217 266 336 385
#     4  11  22  43  68  92 132 173 214 276 330 377
#
# _framework density 21.865853999999999
#
# number of rings (size 3 to 8) (size 9 to 14) (size 15 to 20)
#    0.000    0.571    8.571    1.714    0.000    3.429 
#    0.000    2.857    0.000    0.000    0.000    0.000 
#    0.000    0.000    0.000    0.000    0.000    0.000 
#
# Total GULP energy -78125.198795 kJ/mol
# GULP energy per Si atom -5580.371343 kJ/mol
# Density = 2.181609 g / cm^3
# Si number density = 21.865854 Si / 1000 Ang^3
#
#
#
# Elastic Constant Matrix: (Units=GPa)
#
#
# Indices 1 2 3 4 5 6 
#
# 1 29.8254 -9.0149 24.6407 -17.5862 6.8634 0.6201
# 2 -9.0149 44.4181 -3.7496 19.5658 2.8076 5.5109
# 3 24.6407 -3.7496 132.2801 0.4197 24.7157 -13.6761
# 4 -17.5862 19.5658 0.4197 22.9727 5.0358 1.7796
# 5 6.8634 2.8076 24.7157 5.0358 27.8467 13.3825
# 6 0.6201 5.5109 -13.6761 1.7796 13.3825 21.7725
#
#
#
# Elastic Compliance Matrix: (Units=1/GPa)
#
#
# Indices 1 2 3 4 5 6 
#
# 1 0.122132 -0.032157 -0.015282 0.129489 -0.041516 0.009995
# 2 -0.032157 0.047194 0.001025 -0.068590 0.024067 -0.019572
# 3 -0.015282 0.001025 0.017162 -0.010045 -0.021873 0.025221
# 4 0.129489 -0.068590 -0.010045 0.214207 -0.070884 0.033423
# 5 -0.041516 0.024067 -0.021873 -0.070884 0.116555 -0.084495
# 6 0.009995 -0.019572 0.025221 0.033423 -0.084495 0.115644
#
#
# Mechanical properties :
#
#
# Convention : Reuss Voigt Hill
#
# Bulk Modulus (GPa) = 10.67710 25.58621 18.13166
# Shear Modulus (GPa) = 6.60553 27.49487 17.05020
#
# Velocity S-wave (km/s) = 1.73997 3.54988 2.79545
# Velocity P-wave (km/s) = 2.98835 5.34126 4.32778
#
# Compressibility (1/GPa) = 0.09365836
#
# Stress axis : x y z
#
# Youngs Moduli (GPa) = 8.18788 21.18917 58.26937
#
# Poissons Ratio (x) = 0.68139 0.89049
# Poissons Ratio (y) = 0.26330 -0.05974
# Poissons Ratio (z) = 0.12513 -0.02172
#
# Static dielectric constant tensor:
#      x y z
#    x 1.786640 -0.007130 -0.025500 
#    y -0.007130 1.804880 0.057960 
#    z -0.025500 0.057960 1.819910 
# 
# From -- ./inp_files/251410.got.cif
#   From: 2010.05.17/outbox.ucp.g08.bks.cvg/sg2_126_cif.got.tgz:251410.got - 2010.06.11 11:32:03.
