data_PCOD9075767
_publ_section_title
;
Structure prediction by ZEFSAII (Michael W. Deem and Ramdas Pophale) SiO2 
 PCOD9075767
Probable space group: P -1
;
_chemical_formula_sum "Si O2"
_cell_formula_units_Z 12
_cell_length_a 7.810165
_cell_length_b 15.614832
_cell_length_c 8.714389
_cell_angle_alpha 35.027679
_cell_angle_beta 78.653135
_cell_angle_gamma 103.137073
_cell_volume 432.794045
_symmetry_space_group_name_H-M "P -1"
_symmetry_group_IT_number 2
_symmetry_cell_setting 'triclinic'
loop_
_space_group_symop_operation_xyz
x,y,z
-x,-y,-z
loop_
_atom_site_type_symbol
_atom_site_label
_atom_site_fract_x
_atom_site_fract_y
_atom_site_fract_z
Si Si1 0.811345 0.209691 0.444835
Si Si2 0.747218 0.761501 0.411900
Si Si3 0.611530 0.873269 0.536186
Si Si4 0.749538 0.409404 0.386864
Si Si5 0.887554 0.658183 0.281753
Si Si6 0.749886 0.864666 0.834464
O O1 0.616008 0.183424 0.416939
O O2 0.781762 0.258667 0.547241
O O3 0.765701 0.008864 0.737859
O O4 0.063633 0.393172 0.047572
O O5 0.677540 0.757774 0.605500
O O6 0.513286 0.688992 0.471774
O O7 0.806297 0.638359 0.500988
O O8 0.000000 0.000000 0.000000
O O9 0.571815 0.812155 0.809945
O O10 0.836776 0.121235 0.111893
O O11 0.825225 0.480977 0.444765
O O12 0.737073 0.698747 0.158131
O O13 0.000000 0.000000 0.500000
#
# Coordination Sequence:
#
# PCOD9075767 Si02
#       6
#     2   2   2   2   2   2
#     4  10  19  33  54  81 110 138 175 214 265 317
#     4   9  19  35  54  77 106 142 180 213 258 318
#     4   9  18  33  55  80 104 143 174 209 260 321
#     4  10  19  32  55  81 105 138 181 218 256 310
#     4  10  19  34  58  81 107 136 178 219 261 306
#     4  10  18  32  55  82 107 138 172 219 266 307
#
# _framework density 27.726814999999998
#
# number of rings (size 3 to 8) (size 9 to 14) (size 15 to 20)
#    0.000    2.333    3.333    1.000    0.000    0.000 
#    0.000    6.667    3.667    1.000    0.000    0.000 
#    0.000    0.000    0.000    0.000    0.000    0.000 
#
# Total GULP energy -67222.750187 kJ/mol
# GULP energy per Si atom -5601.895849 kJ/mol
# Density = 2.766371 g / cm^3
# Si number density = 27.726815 Si / 1000 Ang^3
#
#
#
# Elastic Constant Matrix: (Units=GPa)
#
#
# Indices 1 2 3 4 5 6 
#
# 1 125.6911 31.6087 42.0093 -5.2801 -35.3397 14.9496
# 2 31.6087 213.7902 39.6442 -30.4979 -15.2277 -30.6127
# 3 42.0093 39.6442 131.8841 -15.6184 -43.2477 -3.3293
# 4 -5.2801 -30.4979 -15.6184 46.9004 -3.1337 -0.5932
# 5 -35.3397 -15.2277 -43.2477 -3.1337 36.6812 -5.6605
# 6 14.9496 -30.6127 -3.3293 -0.5932 -5.6605 32.6147
#
#
#
# Elastic Compliance Matrix: (Units=1/GPa)
#
#
# Indices 1 2 3 4 5 6 
#
# 1 0.011841 -0.001672 -0.000057 0.000822 0.009904 -0.005269
# 2 -0.001672 0.006908 0.000256 0.004702 0.003182 0.007914
# 3 -0.000057 0.000256 0.014408 0.006248 0.018349 0.005035
# 4 0.000822 0.004702 0.006248 0.027558 0.013628 0.007540
# 5 0.009904 0.003182 0.018349 0.013628 0.062688 0.011447
# 6 -0.005269 0.007914 0.005035 0.007540 0.011447 0.043142
#
#
# Mechanical properties :
#
#
# Convention : Reuss Voigt Hill
#
# Bulk Modulus (GPa) = 33.10129 77.54331 55.32230
# Shear Modulus (GPa) = 27.84552 47.11280 37.47916
#
# Velocity S-wave (km/s) = 3.17248 4.12658 3.68058
# Velocity P-wave (km/s) = 5.03823 7.12268 6.16913
#
# Compressibility (1/GPa) = 0.03021030
#
# Stress axis : x y z
#
# Youngs Moduli (GPa) = 84.44918 144.76572 69.40762
#
# Poissons Ratio (x) = 0.24204 0.00398
# Poissons Ratio (y) = 0.14119 -0.01777
# Poissons Ratio (z) = 0.00484 -0.03706
#
# Static dielectric constant tensor:
#      x y z
#    x 2.092930 0.012470 -0.019990 
#    y 0.012470 2.242240 -0.032600 
#    z -0.019990 -0.032600 2.166830 
# 
# From -- ./inp_files/165418.got.cif
#   From: 2010.05.17/outbox.cif.g08.bks.cpg/sg2_83_cif.got.tgz:165418.got - 2010.06.03 11:33:40.
