data_PCOD9075273
_publ_section_title
;
Structure prediction by ZEFSAII (Michael W. Deem and Ramdas Pophale) SiO2 
 PCOD9075273
Probable space group: P -1
;
_chemical_formula_sum "Si O2"
_cell_formula_units_Z 16
_cell_length_a 6.000000
_cell_length_b 24.000000
_cell_length_c 18.000000
_cell_angle_alpha 20.000000
_cell_angle_beta 80.000000
_cell_angle_gamma 70.000000
_cell_volume 739.811505
_symmetry_space_group_name_H-M "P -1"
_symmetry_group_IT_number 2
_symmetry_cell_setting 'triclinic'
loop_
_space_group_symop_operation_xyz
x,y,z
-x,-y,-z
loop_
_atom_site_type_symbol
_atom_site_label
_atom_site_fract_x
_atom_site_fract_y
_atom_site_fract_z
Si Si1 0.334517 0.387663 0.128600
Si Si2 0.993019 0.693272 0.446924
Si Si3 0.679380 0.074370 0.071556
Si Si4 0.056825 0.641280 0.088509
Si Si5 0.239713 0.297433 0.707751
Si Si6 0.595317 0.439936 0.687870
Si Si7 0.444884 0.995977 0.669445
Si Si8 0.260542 0.851429 0.721032
O O1 0.417765 0.202747 0.407983
O O2 0.473717 0.272101 0.188946
O O3 0.500000 0.500000 0.000000
O O4 0.000000 0.500000 0.000000
O O5 0.866813 0.751470 0.298279
O O6 0.886707 0.574004 0.646829
O O7 0.301885 0.522559 0.633955
O O8 0.916127 0.888377 0.249062
O O9 0.672147 0.017115 0.228648
O O10 0.406369 0.139923 0.958474
O O11 0.676803 0.271961 0.833870
O O12 0.175474 0.647485 0.153796
O O13 0.208693 0.692232 0.956331
O O14 0.750106 0.814383 0.880523
O O15 0.433734 0.365251 0.582762
O O16 0.000000 0.500000 0.500000
O O17 0.306265 0.961096 0.649353
O O18 0.000000 0.000000 0.500000
#
# Coordination Sequence:
#
# PCOD9075273 Si02
#       8
#     2   2   2   2   2   2   2   2
#     4  12  30  49  76 118 155 192 259 330 389 466
#     4  11  25  44  71 108 145 193 244 307 367 444
#     4  12  24  45  72 105 148 188 247 306 369 451
#     4  11  23  46  73 103 146 192 254 301 378 449
#     4  11  23  46  72 100 146 195 240 299 373 445
#     4  11  23  47  68 103 146 194 241 306 370 446
#     4  12  26  49  76 104 149 201 250 306 391 452
#     4  12  25  48  80 103 143 203 253 309 390 471
#
# _framework density 21.627130999999999
#
# number of rings (size 3 to 8) (size 9 to 14) (size 15 to 20)
#    0.000    0.500    5.000    2.625    3.500    1.500 
#    9.000    0.000    0.000    0.000    0.000    0.000 
#    0.000    0.000    0.000    0.000    0.000    0.000 
#
# Total GULP energy -89306.225336 kJ/mol
# GULP energy per Si atom -5581.639084 kJ/mol
# Density = 2.157791 g / cm^3
# Si number density = 21.627131 Si / 1000 Ang^3
#
#
#
# Elastic Constant Matrix: (Units=GPa)
#
#
# Indices 1 2 3 4 5 6 
#
# 1 95.5402 34.0077 34.6034 0.4442 12.0533 16.7833
# 2 34.0077 111.0770 31.5001 -4.5232 4.3893 13.6463
# 3 34.6034 31.5001 88.8266 -7.1641 19.4247 15.2983
# 4 0.4442 -4.5232 -7.1641 49.0341 4.5792 2.1142
# 5 12.0533 4.3893 19.4247 4.5792 40.4812 6.3567
# 6 16.7833 13.6463 15.2983 2.1142 6.3567 37.8426
#
#
#
# Elastic Compliance Matrix: (Units=1/GPa)
#
#
# Indices 1 2 3 4 5 6 
#
# 1 0.013443 -0.002700 -0.003433 -0.000592 -0.001474 -0.003320
# 2 -0.002700 0.010789 -0.002655 0.000606 0.001129 -0.001843
# 3 -0.003433 -0.002655 0.015584 0.002753 -0.006014 -0.002964
# 4 -0.000592 0.000606 0.002753 0.021243 -0.003347 -0.001693
# 5 -0.001474 0.001129 -0.006014 -0.003347 0.028588 -0.001937
# 6 -0.003320 -0.001843 -0.002964 -0.001693 -0.001937 0.030181
#
#
# Mechanical properties :
#
#
# Convention : Reuss Voigt Hill
#
# Bulk Modulus (GPa) = 44.96250 55.07402 50.01826
# Shear Modulus (GPa) = 34.52633 38.49374 36.51003
#
# Velocity S-wave (km/s) = 3.99988 4.22344 4.11318
# Velocity P-wave (km/s) = 6.49361 7.02167 6.76280
#
# Compressibility (1/GPa) = 0.02224076
#
# Stress axis : x y z
#
# Youngs Moduli (GPa) = 74.38667 92.68858 64.16749
#
# Poissons Ratio (x) = 0.25029 0.22028
# Poissons Ratio (y) = 0.20086 0.17034
# Poissons Ratio (z) = 0.25536 0.24605
#
# Static dielectric constant tensor:
#      x y z
#    x 1.896110 -0.053670 -0.058070 
#    y -0.053670 1.846610 0.062710 
#    z -0.058070 0.062710 1.795010 
# 
# From -- ./inp_files/138901.got.cif
#   From: 2010.05.17/outbox.ucp.g08.bks.cvg/sg2_70_cif.got.tgz:138901.got - 2010.06.11 11:32:03.
