data_PCOD9075291
_publ_section_title
;
Structure prediction by ZEFSAII (Michael W. Deem and Ramdas Pophale) SiO2 
 PCOD9075291
Probable space group: P -1
;
_chemical_formula_sum "Si O2"
_cell_formula_units_Z 16
_cell_length_a 9.000000
_cell_length_b 12.000000
_cell_length_c 18.000000
_cell_angle_alpha 40.000000
_cell_angle_beta 140.000000
_cell_angle_gamma 140.000000
_cell_volume 723.717541
_symmetry_space_group_name_H-M "P -1"
_symmetry_group_IT_number 2
_symmetry_cell_setting 'triclinic'
loop_
_space_group_symop_operation_xyz
x,y,z
-x,-y,-z
loop_
_atom_site_type_symbol
_atom_site_label
_atom_site_fract_x
_atom_site_fract_y
_atom_site_fract_z
Si Si1 0.207534 0.902429 0.096384
Si Si2 0.263920 0.036681 0.770604
Si Si3 0.300127 0.684065 0.565184
Si Si4 0.586443 0.515524 0.419667
Si Si5 0.988600 0.808279 0.635415
Si Si6 0.327809 0.262678 0.071139
Si Si7 0.762980 0.944333 0.704861
Si Si8 0.027025 0.505578 0.316949
O O1 0.460169 0.956405 0.116975
O O2 0.111798 0.725012 0.210775
O O3 0.282871 0.106108 0.065973
O O4 0.971623 0.789904 0.008101
O O5 0.344034 0.260373 0.667701
O O6 0.139295 0.897421 0.723153
O O7 0.052720 0.976332 0.784600
O O8 0.273243 0.525063 0.576311
O O9 0.588966 0.808000 0.642256
O O10 0.151869 0.576425 0.637822
O O11 0.238450 0.848720 0.417494
O O12 0.301349 0.350753 0.383126
O O13 0.705035 0.479309 0.558347
O O14 0.084050 0.668330 0.697525
O O15 0.000000 0.000000 0.500000
O O16 0.363609 0.162479 0.211924
O O17 0.500000 0.500000 0.000000
#
# Coordination Sequence:
#
# PCOD9075291 Si02
#       8
#     2   2   2   2   2   2   2   2
#     4  11  27  46  74 105 133 184 246 284 352 409
#     4  12  25  44  67 107 143 186 228 290 348 423
#     4  11  24  40  70 111 143 190 225 277 356 426
#     4  12  23  41  61 105 152 182 230 273 357 421
#     4  12  23  39  61 100 151 187 227 276 345 420
#     4  11  27  53  75  99 135 184 241 301 345 417
#     4  11  24  46  70 102 146 186 231 285 355 413
#     4  12  23  41  70 106 142 188 228 289 343 423
#
# _framework density 22.108073000000001
#
# number of rings (size 3 to 8) (size 9 to 14) (size 15 to 20)
#    0.000    0.500    5.000    3.000    7.000    0.500 
#    0.000    0.625    0.000    0.000    0.000    0.000 
#    0.000    0.000    0.000    0.000    0.000    0.000 
#
# Total GULP energy -89077.133415 kJ/mol
# GULP energy per Si atom -5567.320838 kJ/mol
# Density = 2.205775 g / cm^3
# Si number density = 22.108073 Si / 1000 Ang^3
#
#
#
# Elastic Constant Matrix: (Units=GPa)
#
#
# Indices 1 2 3 4 5 6 
#
# 1 92.8013 51.3771 20.6150 -4.8513 -1.6886 25.0809
# 2 51.3771 181.1759 17.8972 -9.4160 14.2504 6.6017
# 3 20.6150 17.8972 17.3336 -6.3921 -4.2851 21.1556
# 4 -4.8513 -9.4160 -6.3921 44.4686 8.4484 5.2988
# 5 -1.6886 14.2504 -4.2851 8.4484 17.7038 4.0758
# 6 25.0809 6.6017 21.1556 5.2988 4.0758 55.6926
#
#
#
# Elastic Compliance Matrix: (Units=1/GPa)
#
#
# Indices 1 2 3 4 5 6 
#
# 1 0.016080 -0.003392 -0.013249 -0.001022 0.001971 -0.001854
# 2 -0.003392 0.009412 -0.020732 0.000430 -0.015279 0.009364
# 3 -0.013249 -0.020732 0.227612 0.021960 0.079829 -0.085969
# 4 -0.001022 0.000430 0.021960 0.028002 -0.006155 -0.010146
# 5 0.001971 -0.015279 0.079829 -0.006155 0.099542 -0.036100
# 6 -0.001854 0.009364 -0.085969 -0.010146 -0.036100 0.053944
#
#
# Mechanical properties :
#
#
# Convention : Reuss Voigt Hill
#
# Bulk Modulus (GPa) = 5.60671 52.34328 28.97500
# Shear Modulus (GPa) = 8.79055 37.00110 22.89583
#
# Velocity S-wave (km/s) = 1.99620 4.09546 3.22161
# Velocity P-wave (km/s) = 2.80261 6.78905 5.19355
#
# Compressibility (1/GPa) = 0.17835778
#
# Stress axis : x y z
#
# Youngs Moduli (GPa) = 62.18857 106.24516 4.39343
#
# Poissons Ratio (x) = 0.36036 0.05821
# Poissons Ratio (y) = 0.21093 0.09109
# Poissons Ratio (z) = 0.82396 2.20271
#
# Static dielectric constant tensor:
#      x y z
#    x 1.928120 0.046890 0.119370 
#    y 0.046890 1.798860 0.061200 
#    z 0.119370 0.061200 1.985080 
# 
# From -- ./inp_files/559726.got.cif
#   From: 2010.05.17/outbox.ucp.g08.bks.cvg/sg2_280_cif.got.tgz:559726.got - 2010.06.11 11:32:03.
