data_PCOD9075576
_publ_section_title
;
Structure prediction by ZEFSAII (Michael W. Deem and Ramdas Pophale) SiO2 
 PCOD9075576
Probable space group: P -1
;
_chemical_formula_sum "Si O2"
_cell_formula_units_Z 16
_cell_length_a 18.000000
_cell_length_b 9.000000
_cell_length_c 9.000000
_cell_angle_alpha 30.000000
_cell_angle_beta 90.000000
_cell_angle_gamma 90.000000
_cell_volume 729.000000
_symmetry_space_group_name_H-M "P -1"
_symmetry_group_IT_number 2
_symmetry_cell_setting 'triclinic'
loop_
_space_group_symop_operation_xyz
x,y,z
-x,-y,-z
loop_
_atom_site_type_symbol
_atom_site_label
_atom_site_fract_x
_atom_site_fract_y
_atom_site_fract_z
Si Si1 0.544210 0.003661 0.246296
Si Si2 0.935318 0.324049 0.552349
Si Si3 0.779534 0.545875 0.889091
Si Si4 0.432015 0.503168 0.745927
Si Si5 0.935234 0.676054 0.947412
Si Si6 0.669814 0.932380 0.070063
Si Si7 0.669807 0.065007 0.433190
Si Si8 0.779588 0.449871 0.615183
O O1 0.602746 0.955436 0.421236
O O2 0.489405 0.721821 0.469174
O O3 0.603113 0.050786 0.072859
O O4 0.489318 0.285338 0.022816
O O5 0.919960 0.500261 0.249780
O O6 0.858846 0.350819 0.627493
O O7 0.000000 0.500000 0.500000
O O8 0.953792 0.000131 0.749683
O O9 0.788797 0.496249 0.753659
O O10 0.715672 0.781192 0.732997
O O11 0.858624 0.648831 0.872958
O O12 0.738575 0.245375 0.202973
O O13 0.376799 0.282129 0.851086
O O14 0.376283 0.723089 0.641204
O O15 0.000000 0.500000 0.000000
O O16 0.737788 0.750270 0.303613
O O17 0.716705 0.211879 0.771866
#
# Coordination Sequence:
#
# PCOD9075576 Si02
#       8
#     2   2   2   2   2   2   2   2
#     4  12  22  46  64 100 138 190 244 300 372 428
#     4  12  28  50  81 116 153 192 240 296 362 439
#     4  12  25  47  72 104 146 192 238 295 357 433
#     4  12  26  40  68 100 140 184 246 312 358 434
#     4  12  28  50  81 116 153 192 240 296 362 439
#     4  12  25  43  70 101 141 188 243 297 369 423
#     4  12  25  43  70 101 141 188 243 297 369 423
#     4  12  25  47  72 104 146 192 238 295 357 433
#
# _framework density 21.947873999999999
#
# number of rings (size 3 to 8) (size 9 to 14) (size 15 to 20)
#    0.000    0.000    2.500    7.500    5.250    2.000 
#    0.000    0.000    0.000    0.000    0.000    0.000 
#    0.000    0.000    0.000    0.000    0.000    0.000 
#
# Total GULP energy -89219.130950 kJ/mol
# GULP energy per Si atom -5576.195684 kJ/mol
# Density = 2.189792 g / cm^3
# Si number density = 21.947874 Si / 1000 Ang^3
#
#
#
# Elastic Constant Matrix: (Units=GPa)
#
#
# Indices 1 2 3 4 5 6 
#
# 1 246.0788 136.3737 86.4141 -40.5282 496.9063 -70.3565
# 2 136.3737 211.6871 82.9050 -57.9574 563.7862 -79.7173
# 3 86.4141 82.9050 161.9567 -61.7822 583.9558 -82.1836
# 4 -40.5282 -57.9574 -61.7822 59.2024 -302.7021 42.6400
# 5 496.9063 563.7862 583.9558 -302.7021 3817.4706 -533.0520
# 6 -70.3565 -79.7173 -82.1836 42.6400 -533.0520 127.5131
#
#
#
# Elastic Compliance Matrix: (Units=1/GPa)
#
#
# Indices 1 2 3 4 5 6 
#
# 1 0.006831 -0.003575 -0.001525 -0.001799 -0.000263 0.000052
# 2 -0.003575 0.010058 0.001939 0.004524 -0.000942 0.000115
# 3 -0.001525 0.001939 0.015693 0.007580 -0.001867 0.000145
# 4 -0.001799 0.004524 0.007580 0.033389 0.001041 -0.000091
# 5 -0.000263 -0.000942 -0.001867 0.001041 0.001164 0.002578
# 6 0.000052 0.000115 0.000145 -0.000091 0.002578 0.018845
#
#
# Mechanical properties :
#
#
# Convention : Reuss Voigt Hill
#
# Bulk Modulus (GPa) = 38.08171 136.78981 87.43576
# Shear Modulus (GPa) = 49.47815 821.77255 435.62535
#
# Velocity S-wave (km/s) = 4.75315 19.37093 14.10364
# Velocity P-wave (km/s) = 6.89289 23.72279 17.46829
#
# Compressibility (1/GPa) = 0.02625933
#
# Stress axis : x y z
#
# Youngs Moduli (GPa) = 146.39753 99.42024 63.72342
#
# Poissons Ratio (x) = 0.35544 0.09721
# Poissons Ratio (y) = 0.52339 -0.12358
# Poissons Ratio (z) = 0.22333 -0.19281
#
# Static dielectric constant tensor:
#      x y z
#    x 1.740470 0.000510 0.000520 
#    y 0.000510 1.862760 -0.002550 
#    z 0.000520 -0.002550 1.956990 
# 
# From -- ./inp_files/328284.got.cif
#   From: 2010.05.17/outbox.ucp.g08.bks.cvg/sg2_165_cif.got.tgz:328284.got - 2010.06.11 11:32:03.
