data_PCOD9075479
_publ_section_title
;
Structure prediction by ZEFSAII (Michael W. Deem and Ramdas Pophale) SiO2 
 PCOD9075479
Probable space group: P -1
;
_chemical_formula_sum "Si O2"
_cell_formula_units_Z 16
_cell_length_a 15.000000
_cell_length_b 15.000000
_cell_length_c 9.000000
_cell_angle_alpha 140.000000
_cell_angle_beta 40.000000
_cell_angle_gamma 140.000000
_cell_volume 753.872439
_symmetry_space_group_name_H-M "P -1"
_symmetry_group_IT_number 2
_symmetry_cell_setting 'triclinic'
loop_
_space_group_symop_operation_xyz
x,y,z
-x,-y,-z
loop_
_atom_site_type_symbol
_atom_site_label
_atom_site_fract_x
_atom_site_fract_y
_atom_site_fract_z
Si Si1 0.655838 0.524320 0.977064
Si Si2 0.861038 0.768603 0.256298
Si Si3 0.960840 0.645397 0.259606
Si Si4 0.312827 0.320543 0.176930
Si Si5 0.194009 0.970313 0.005948
Si Si6 0.710128 0.171948 0.795680
Si Si7 0.834450 0.338033 0.523634
Si Si8 0.614025 0.897308 0.782163
O O1 0.663221 0.635266 0.972054
O O2 0.708779 0.393133 0.693809
O O3 0.790049 0.636406 0.055902
O O4 0.486782 0.435607 0.155277
O O5 0.912420 0.695121 0.232099
O O6 0.718708 0.806561 0.523316
O O7 0.014495 0.922211 0.214046
O O8 0.822668 0.635636 0.533647
O O9 0.126274 0.771592 0.260564
O O10 0.000000 0.500000 0.000000
O O11 0.262846 0.138904 0.049465
O O12 0.173879 0.813406 0.745934
O O13 0.304759 0.994640 0.038969
O O14 0.769968 0.260293 0.671838
O O15 0.633399 0.990841 0.720662
O O16 0.566913 0.204600 0.078362
O O17 0.000000 0.500000 0.500000
#
# Coordination Sequence:
#
# PCOD9075479 Si02
#       8
#     2   2   2   2   2   2   2   2
#     4  11  27  48  71 110 148 198 242 310 365 451
#     4  12  25  46  76 104 153 190 248 304 376 440
#     4  12  26  44  74 105 145 196 242 307 366 443
#     4  11  27  48  73 109 149 191 258 298 378 438
#     4  12  25  48  76 108 147 199 245 315 366 452
#     4  11  26  45  72 109 148 190 253 304 373 440
#     4  12  26  48  74 108 150 197 251 304 377 448
#     4  11  25  47  72 113 147 192 250 310 374 445
#
# _framework density 21.223749999999999
#
# number of rings (size 3 to 8) (size 9 to 14) (size 15 to 20)
#    0.000    0.500    3.750    3.375    5.250    3.000 
#    4.500    0.000    0.000    0.000    0.000    0.000 
#    0.000    0.000    0.000    0.000    0.000    0.000 
#
# Total GULP energy -89157.341446 kJ/mol
# GULP energy per Si atom -5572.333840 kJ/mol
# Density = 2.117544 g / cm^3
# Si number density = 21.223750 Si / 1000 Ang^3
#
#
#
# Elastic Constant Matrix: (Units=GPa)
#
#
# Indices 1 2 3 4 5 6 
#
# 1 91.3957 36.1534 19.2638 -7.9675 -17.7476 -11.5277
# 2 36.1534 162.7716 46.8046 -21.7648 -3.3177 -11.4114
# 3 19.2638 46.8046 98.3595 -6.3277 -24.6496 0.8773
# 4 -7.9675 -21.7648 -6.3277 42.3538 4.0446 -15.4269
# 5 -17.7476 -3.3177 -24.6496 4.0446 40.2357 -5.0590
# 6 -11.5277 -11.4114 0.8773 -15.4269 -5.0590 53.6984
#
#
#
# Elastic Compliance Matrix: (Units=1/GPa)
#
#
# Indices 1 2 3 4 5 6 
#
# 1 0.013707 -0.002421 0.000113 0.002075 0.006160 0.003603
# 2 -0.002421 0.008562 -0.004089 0.004485 -0.003020 0.002370
# 3 0.000113 -0.004089 0.014138 -0.000976 0.008401 -0.000565
# 4 0.002075 0.004485 -0.000976 0.029866 -0.001071 0.009894
# 5 0.006160 -0.003020 0.008401 -0.001071 0.032996 0.003344
# 6 0.003603 0.002370 -0.000565 0.009894 0.003344 0.023066
#
#
# Mechanical properties :
#
#
# Convention : Reuss Voigt Hill
#
# Bulk Modulus (GPa) = 42.35313 61.88558 52.11936
# Shear Modulus (GPa) = 34.96465 43.94457 39.45461
#
# Velocity S-wave (km/s) = 4.06326 4.55525 4.31627
# Velocity P-wave (km/s) = 6.48169 7.54248 7.03212
#
# Compressibility (1/GPa) = 0.02361101
#
# Stress axis : x y z
#
# Youngs Moduli (GPa) = 72.95599 116.80097 70.72999
#
# Poissons Ratio (x) = 0.28281 -0.00797
# Poissons Ratio (y) = 0.17665 0.28924
# Poissons Ratio (z) = -0.00822 0.47764
#
# Static dielectric constant tensor:
#      x y z
#    x 1.800880 -0.011800 0.004080 
#    y -0.011800 1.805450 0.029200 
#    z 0.004080 0.029200 1.985640 
# 
# From -- ./inp_files/316035.got.cif
#   From: 2010.05.17/outbox.ucp.g08.bks.cvg/sg2_159_cif.got.tgz:316035.got - 2010.06.11 11:32:03.
