data_PCOD9075693
_publ_section_title
;
Structure prediction by ZEFSAII (Michael W. Deem and Ramdas Pophale) SiO2 
 PCOD9075693
Probable space group: P -1
;
_chemical_formula_sum "Si O2"
_cell_formula_units_Z 16
_cell_length_a 17.956552
_cell_length_b 5.657800
_cell_length_c 14.295413
_cell_angle_alpha 98.348655
_cell_angle_beta 146.610080
_cell_angle_gamma 81.406487
_cell_volume 789.739249
_symmetry_space_group_name_H-M "P -1"
_symmetry_group_IT_number 2
_symmetry_cell_setting 'triclinic'
loop_
_space_group_symop_operation_xyz
x,y,z
-x,-y,-z
loop_
_atom_site_type_symbol
_atom_site_label
_atom_site_fract_x
_atom_site_fract_y
_atom_site_fract_z
Si Si1 0.933997 0.837509 0.498985
Si Si2 0.869312 0.181516 0.000568
Si Si3 0.907349 0.517646 0.811006
Si Si4 0.517452 0.917483 0.667241
Si Si5 0.709215 0.894238 0.684556
Si Si6 0.836913 0.556755 0.224918
Si Si7 0.998952 0.854565 0.258873
Si Si8 0.375032 0.563538 0.150285
O O1 0.822355 0.704065 0.315232
O O2 0.057173 0.658593 0.650258
O O3 0.000000 0.000000 0.500000
O O4 0.901269 0.992865 0.565203
O O5 0.750117 0.382070 0.904734
O O6 0.834356 0.036618 0.863398
O O7 0.014517 0.288732 0.155683
O O8 0.879079 0.008086 0.089597
O O9 0.762099 0.633037 0.691819
O O10 0.921481 0.287132 0.747808
O O11 0.000000 0.500000 0.000000
O O12 0.368418 0.959201 0.469591
O O13 0.552474 0.181881 0.758887
O O14 0.613158 0.878606 0.673467
O O15 0.543790 0.680472 0.744699
O O16 0.918966 0.696740 0.239685
O O17 0.699333 0.482690 0.028547
#
# Coordination Sequence:
#
# PCOD9075693 Si02
#       8
#     2   2   2   2   2   2   2   2
#     4   9  19  30  51  82 115 143 173 224 293 351
#     4  11  21  34  54  78 113 151 187 236 287 335
#     4  12  22  32  54  81 110 154 194 228 292 340
#     4  10  24  39  55  78 109 157 199 242 275 314
#     4  10  22  38  51  77 110 150 202 239 269 331
#     4  10  18  32  54  81 114 143 181 228 285 355
#     4  11  19  34  49  81 118 149 181 222 288 352
#     4  11  20  36  60  78 111 149 187 233 285 333
#
# _framework density 20.259851000000001
#
# number of rings (size 3 to 8) (size 9 to 14) (size 15 to 20)
#    0.000    1.500    3.750    2.625    1.750    5.500 
#    0.000    0.000    0.000    0.000    0.000    1.750 
#    0.000    0.000    0.000    0.000    0.000    0.000 
#
# Total GULP energy -89232.192821 kJ/mol
# GULP energy per Si atom -5577.012051 kJ/mol
# Density = 2.021374 g / cm^3
# Si number density = 20.259851 Si / 1000 Ang^3
#
#
#
# Elastic Constant Matrix: (Units=GPa)
#
#
# Indices 1 2 3 4 5 6 
#
# 1 28.1982 34.3997 32.1195 5.0414 -18.2534 -11.3511
# 2 34.3997 124.9399 69.2437 0.7370 -29.8910 -18.1827
# 3 32.1195 69.2437 121.1990 -5.7859 -38.1084 -9.7861
# 4 5.0414 0.7370 -5.7859 45.6884 -1.5430 -20.7292
# 5 -18.2534 -29.8910 -38.1084 -1.5430 28.1042 2.9524
# 6 -11.3511 -18.1827 -9.7861 -20.7292 2.9524 43.3287
#
#
#
# Elastic Compliance Matrix: (Units=1/GPa)
#
#
# Indices 1 2 3 4 5 6 
#
# 1 0.079453 -0.009664 -0.003643 -0.002225 0.034952 0.012490
# 2 -0.009664 0.014151 -0.004361 0.001778 0.002633 0.003093
# 3 -0.003643 -0.004361 0.017194 0.004081 0.016331 0.001938
# 4 -0.002225 0.001778 0.004081 0.029543 0.006046 0.014807
# 5 0.034952 0.002633 0.016331 0.006046 0.082380 0.011229
# 6 0.012490 0.003093 0.001938 0.014807 0.011229 0.034406
#
#
# Mechanical properties :
#
#
# Convention : Reuss Voigt Hill
#
# Bulk Modulus (GPa) = 13.25164 60.65143 36.95153
# Shear Modulus (GPa) = 15.74216 32.66252 24.20234
#
# Velocity S-wave (km/s) = 2.79052 4.01955 3.46004
# Velocity P-wave (km/s) = 4.11554 7.17943 5.85157
#
# Compressibility (1/GPa) = 0.07546238
#
# Stress axis : x y z
#
# Youngs Moduli (GPa) = 12.58602 70.66450 58.15939
#
# Poissons Ratio (x) = 0.68291 0.21186
# Poissons Ratio (y) = 0.12163 0.25365
# Poissons Ratio (z) = 0.04585 0.30819
#
# Static dielectric constant tensor:
#      x y z
#    x 1.745420 0.022820 -0.001760 
#    y 0.022820 1.846080 0.036940 
#    z -0.001760 0.036940 1.737890 
# 
# From -- ./inp_files/85251.got.cif
#   From: 2010.05.17/outbox.cif.g08.bks.cpg/sg2_43_cif.got.tgz:85251.got - 2010.06.03 11:33:40.
