data_PCOD9075833
_publ_section_title
;
Structure prediction by ZEFSAII (Michael W. Deem and Ramdas Pophale) SiO2 
 PCOD9075833
Probable space group: P -1
;
_chemical_formula_sum "Si O2"
_cell_formula_units_Z 14
_cell_length_a 11.435561
_cell_length_b 7.651002
_cell_length_c 14.002486
_cell_angle_alpha 44.807357
_cell_angle_beta 130.408686
_cell_angle_gamma 139.439464
_cell_volume 545.230203
_symmetry_space_group_name_H-M "P -1"
_symmetry_group_IT_number 2
_symmetry_cell_setting 'triclinic'
loop_
_space_group_symop_operation_xyz
x,y,z
-x,-y,-z
loop_
_atom_site_type_symbol
_atom_site_label
_atom_site_fract_x
_atom_site_fract_y
_atom_site_fract_z
Si Si1 0.813985 0.039457 0.053011
Si Si2 0.641712 0.774846 0.868748
Si Si3 0.263236 0.493892 0.121807
Si Si4 0.422931 0.019461 0.636936
Si Si5 0.086652 0.149709 0.648948
Si Si6 0.777500 0.670517 0.548011
Si Si7 0.750294 0.028439 0.624996
O O1 0.778767 0.860598 0.201823
O O2 0.038907 0.268869 0.078361
O O3 0.712881 0.211722 0.942122
O O4 0.753584 0.867627 0.988790
O O5 0.638451 0.500587 0.926232
O O6 0.738797 0.018683 0.737461
O O7 0.460948 0.780191 0.789337
O O8 0.322744 0.325378 0.289481
O O9 0.609450 0.349259 0.615162
O O10 0.275319 0.082010 0.576606
O O11 0.365127 0.926476 0.531454
O O12 0.953151 0.825181 0.651830
O O13 0.957590 0.203805 0.626082
O O14 0.175214 0.362776 0.522649
#
# Coordination Sequence:
#
# PCOD9075833 Si02
#       7
#     2   2   2   2   2   2   2
#     4  10  18  32  56  80 110 147 177 225 274 320
#     4  10  20  31  55  88 110 141 182 228 267 326
#     4   8  19  30  51  82 112 136 188 218 262 323
#     4  10  19  32  58  78 109 146 184 223 272 322
#     4   9  18  36  54  79 116 137 183 233 269 317
#     4   9  20  34  56  84 104 146 189 223 270 328
#     4   8  18  34  53  80 112 137 182 231 258 319
#
# _framework density 25.677226000000001
#
# number of rings (size 3 to 8) (size 9 to 14) (size 15 to 20)
#    0.857    2.000    0.000    0.857   10.000    0.000 
#    0.000    1.429    0.000    5.143    0.000    0.000 
#    0.000    0.000    0.000    0.000    0.000    0.000 
#
# Total GULP energy -78133.946683 kJ/mol
# GULP energy per Si atom -5580.996192 kJ/mol
# Density = 2.561878 g / cm^3
# Si number density = 25.677226 Si / 1000 Ang^3
#
#
#
# Elastic Constant Matrix: (Units=GPa)
#
#
# Indices 1 2 3 4 5 6 
#
# 1 113.7593 21.9137 21.2158 4.4594 -11.8444 -22.0529
# 2 21.9137 71.3802 32.1970 9.7987 -9.5431 -7.7631
# 3 21.2158 32.1970 93.8401 21.4897 -30.1619 6.3906
# 4 4.4594 9.7987 21.4897 31.0407 -7.7539 -3.0976
# 5 -11.8444 -9.5431 -30.1619 -7.7539 42.4577 3.6092
# 6 -22.0529 -7.7631 6.3906 -3.0976 3.6092 19.7125
#
#
#
# Elastic Compliance Matrix: (Units=1/GPa)
#
#
# Indices 1 2 3 4 5 6 
#
# 1 0.012710 -0.000529 -0.004731 0.003041 -0.000752 0.016160
# 2 -0.000529 0.018289 -0.007459 -0.000134 -0.002160 0.009404
# 3 -0.004731 -0.007459 0.022122 -0.011137 0.012335 -0.019410
# 4 0.003041 -0.000134 -0.011137 0.040676 -0.000813 0.013500
# 5 -0.000752 -0.002160 0.012335 -0.000813 0.032472 -0.011764
# 6 0.016160 0.009404 -0.019410 0.013500 -0.011764 0.083079
#
#
# Mechanical properties :
#
#
# Convention : Reuss Voigt Hill
#
# Bulk Modulus (GPa) = 36.12228 47.73693 41.92961
# Shear Modulus (GPa) = 20.49073 32.21906 26.35489
#
# Velocity S-wave (km/s) = 2.82797 3.54612 3.20721
# Velocity P-wave (km/s) = 4.97611 5.94963 5.48451
#
# Compressibility (1/GPa) = 0.02768374
#
# Stress axis : x y z
#
# Youngs Moduli (GPa) = 78.67991 54.67840 45.20314
#
# Poissons Ratio (x) = 0.02890 0.21385
# Poissons Ratio (y) = 0.04158 0.33718
# Poissons Ratio (z) = 0.37222 0.40786
#
# Static dielectric constant tensor:
#      x y z
#    x 2.124230 0.028830 0.006530 
#    y 0.028830 2.088440 -0.073490 
#    z 0.006530 -0.073490 2.031650 
# 
# From -- ./inp_files/515093.got.cif
#   From: 2010.05.17/outbox.cif.g08.bks.cpg/sg2_258_cif.got.tgz:515093.got - 2010.06.03 11:33:40.
