data_PCOD9075058
_publ_section_title
;
Structure prediction by ZEFSAII (Michael W. Deem and Ramdas Pophale) SiO2 
 PCOD9075058
Probable space group: P -1
;
_chemical_formula_sum "Si O2"
_cell_formula_units_Z 16
_cell_length_a 12.000000
_cell_length_b 21.000000
_cell_length_c 18.000000
_cell_angle_alpha 20.000000
_cell_angle_beta 140.000000
_cell_angle_gamma 150.000000
_cell_volume 744.844803
_symmetry_space_group_name_H-M "P -1"
_symmetry_group_IT_number 2
_symmetry_cell_setting 'triclinic'
loop_
_space_group_symop_operation_xyz
x,y,z
-x,-y,-z
loop_
_atom_site_type_symbol
_atom_site_label
_atom_site_fract_x
_atom_site_fract_y
_atom_site_fract_z
Si Si1 0.303108 0.609748 0.344103
Si Si2 0.742665 0.383298 0.514740
Si Si3 0.716408 0.138816 0.403636
Si Si4 0.636347 0.122414 0.210792
Si Si5 0.059857 0.965759 0.257079
Si Si6 0.940276 0.689860 0.882242
Si Si7 0.816069 0.064509 0.116735
Si Si8 0.528538 0.617211 0.096860
O O1 0.278530 0.650590 0.371598
O O2 0.139534 0.314542 0.569482
O O3 0.579515 0.782523 0.288269
O O4 0.235882 0.751185 0.111155
O O5 0.664993 0.539217 0.285117
O O6 0.000000 0.500000 0.500000
O O7 0.565151 0.123246 0.667011
O O8 0.646489 0.060377 0.368877
O O9 0.868474 0.084237 0.575244
O O10 0.500000 0.000000 0.500000
O O11 0.846582 0.428872 0.154041
O O12 0.876780 0.241074 0.163202
O O13 0.572293 0.296765 0.993068
O O14 0.980127 0.114070 0.079145
O O15 0.281970 0.144847 0.120179
O O16 0.705395 0.614370 0.812367
O O17 0.071717 0.893873 0.790883
#
# Coordination Sequence:
#
# PCOD9075058 Si02
#       8
#     2   2   2   2   2   2   2   2
#     4  11  25  47  64  99 144 184 235 284 348 421
#     4  12  27  45  72 102 144 189 234 293 353 430
#     4  11  22  42  71 102 141 179 225 291 352 414
#     4  11  25  47  70 106 147 186 233 296 356 418
#     4  12  24  42  71 102 136 185 236 290 350 416
#     4  11  23  47  71 106 149 182 237 297 354 418
#     4  11  25  43  70 102 137 186 237 288 347 424
#     4  11  26  44  70 107 138 186 236 292 356 421
#
# _framework density 21.480985
#
# number of rings (size 3 to 8) (size 9 to 14) (size 15 to 20)
#    0.000    0.750    5.000    3.375    1.750    7.000 
#    0.000    0.000    0.000    0.000    0.000    0.000 
#    0.000    0.000    0.000    0.000    0.000    0.000 
#
# Total GULP energy -89397.156720 kJ/mol
# GULP energy per Si atom -5587.322295 kJ/mol
# Density = 2.143209 g / cm^3
# Si number density = 21.480985 Si / 1000 Ang^3
#
#
#
# Elastic Constant Matrix: (Units=GPa)
#
#
# Indices 1 2 3 4 5 6 
#
# 1 209.5067 -0.8806 -4.8571 -9.1528 -24.2198 17.6492
# 2 -0.8806 164.9989 39.4231 -24.6081 -0.6075 -11.0364
# 3 -4.8571 39.4231 37.4631 -2.4965 -2.9477 2.9244
# 4 -9.1528 -24.6081 -2.4965 30.7472 -1.1776 -0.8065
# 5 -24.2198 -0.6075 -2.9477 -1.1776 34.4605 -11.3972
# 6 17.6492 -11.0364 2.9244 -0.8065 -11.3972 39.2773
#
#
#
# Elastic Compliance Matrix: (Units=1/GPa)
#
#
# Indices 1 2 3 4 5 6 
#
# 1 0.005408 -0.000125 0.001338 0.001711 0.003468 -0.001523
# 2 -0.000125 0.009801 -0.010102 0.007119 0.000764 0.003930
# 3 0.001338 -0.010102 0.037788 -0.004697 0.001918 -0.005793
# 4 0.001711 0.007119 -0.004697 0.038565 0.003351 0.003345
# 5 0.003468 0.000764 0.001918 0.003351 0.034600 0.008622
# 6 -0.001523 0.003930 -0.005793 0.003345 0.008622 0.030251
#
#
# Mechanical properties :
#
#
# Convention : Reuss Voigt Hill
#
# Bulk Modulus (GPa) = 28.39432 53.25994 40.82713
# Shear Modulus (GPa) = 26.89195 46.11589 36.50392
#
# Velocity S-wave (km/s) = 3.54205 4.63841 4.12680
# Velocity P-wave (km/s) = 5.47496 7.31671 6.46179
#
# Compressibility (1/GPa) = 0.03521831
#
# Stress axis : x y z
#
# Youngs Moduli (GPa) = 184.92611 102.02845 26.46376
#
# Poissons Ratio (x) = 0.01273 -0.03541
# Poissons Ratio (y) = 0.02307 0.26735
# Poissons Ratio (z) = -0.24746 1.03073
#
# Static dielectric constant tensor:
#      x y z
#    x 1.771650 0.040300 0.003620 
#    y 0.040300 1.834530 0.028630 
#    z 0.003620 0.028630 1.781960 
# 
# From -- ./inp_files/570693.got.cif
#   From: 2010.05.17/outbox.ucp.g08.bks.cvg/sg2_286_cif.got.tgz:570693.got - 2010.06.11 11:32:03.
