data_PCOD9075709
_publ_section_title
;
Structure prediction by ZEFSAII (Michael W. Deem and Ramdas Pophale) SiO2 
 PCOD9075709
Probable space group: P -1
;
_chemical_formula_sum "Si O2"
_cell_formula_units_Z 16
_cell_length_a 13.873984
_cell_length_b 7.787756
_cell_length_c 14.046861
_cell_angle_alpha 122.752038
_cell_angle_beta 51.087784
_cell_angle_gamma 81.776017
_cell_volume 670.361430
_symmetry_space_group_name_H-M "P -1"
_symmetry_group_IT_number 2
_symmetry_cell_setting 'triclinic'
loop_
_space_group_symop_operation_xyz
x,y,z
-x,-y,-z
loop_
_atom_site_type_symbol
_atom_site_label
_atom_site_fract_x
_atom_site_fract_y
_atom_site_fract_z
Si Si1 0.052688 0.662622 0.553705
Si Si2 0.636974 0.353474 0.460231
Si Si3 0.464339 0.804100 0.848311
Si Si4 0.712148 0.567102 0.836751
Si Si5 0.324541 0.644369 0.027036
Si Si6 0.985803 0.317475 0.020522
Si Si7 0.931172 0.654305 0.812730
Si Si8 0.403482 0.314321 0.698670
O O1 0.064378 0.595513 0.636848
O O2 0.000000 0.500000 0.500000
O O3 0.213797 0.547942 0.351339
O O4 0.883304 0.022978 0.755103
O O5 0.500000 0.500000 0.500000
O O6 0.609512 0.587470 0.610260
O O7 0.550669 0.302881 0.574732
O O8 0.841032 0.040229 0.212647
O O9 0.443648 0.069796 0.958928
O O10 0.443705 0.686037 0.919942
O O11 0.267322 0.997684 0.975572
O O12 0.658821 0.446484 0.901566
O O13 0.881256 0.481546 0.761871
O O14 0.365613 0.398589 0.859440
O O15 0.997757 0.392199 0.141113
O O16 0.795657 0.434955 0.152007
O O17 0.000000 0.500000 0.000000
O O18 0.500000 0.000000 0.500000
#
# Coordination Sequence:
#
# PCOD9075709 Si02
#       8
#     2   2   2   2   2   2   2   2
#     4   9  16  32  52  84 120 150 203 261 308 365
#     4  11  21  39  60  84 127 166 208 254 310 370
#     4   8  18  32  51  82 121 149 200 253 295 369
#     4   9  16  30  57  82 118 157 199 256 316 361
#     4  10  18  32  54  84 119 154 209 250 301 382
#     4  12  22  38  63  89 127 172 207 256 315 369
#     4   8  17  32  52  81 119 155 203 245 305 367
#     4  11  25  39  58  93 129 160 211 259 297 377
#
# _framework density 23.867721
#
# number of rings (size 3 to 8) (size 9 to 14) (size 15 to 20)
#    0.750    1.500    3.750    1.125    1.750    0.500 
#    0.000    0.000    0.000    0.000    0.000   13.125 
#    0.000    0.000    0.000    0.000    0.000    0.000 
#
# Total GULP energy -89292.340811 kJ/mol
# GULP energy per Si atom -5580.771301 kJ/mol
# Density = 2.381340 g / cm^3
# Si number density = 23.867721 Si / 1000 Ang^3
#
#
#
# Elastic Constant Matrix: (Units=GPa)
#
#
# Indices 1 2 3 4 5 6 
#
# 1 60.2657 21.8824 38.9188 -12.4136 -11.2315 -3.5073
# 2 21.8824 129.1534 39.8031 -33.4129 13.2743 -12.1978
# 3 38.9188 39.8031 161.5001 -7.5826 8.8091 1.1804
# 4 -12.4136 -33.4129 -7.5826 40.5051 -4.5842 12.7406
# 5 -11.2315 13.2743 8.8091 -4.5842 46.8151 -7.7908
# 6 -3.5073 -12.1978 1.1804 12.7406 -7.7908 34.1831
#
#
#
# Elastic Compliance Matrix: (Units=1/GPa)
#
#
# Indices 1 2 3 4 5 6 
#
# 1 0.023307 -0.001582 -0.005430 0.005114 0.007880 0.001904
# 2 -0.001582 0.010841 -0.001804 0.007748 -0.002296 0.000357
# 3 -0.005430 -0.001804 0.008035 -0.001467 -0.002704 -0.001548
# 4 0.005114 0.007748 -0.001467 0.035537 0.001182 -0.009636
# 5 0.007880 -0.002296 -0.002704 0.001182 0.025432 0.005438
# 6 0.001904 0.000357 -0.001548 -0.009636 0.005438 0.034461
#
#
# Mechanical properties :
#
#
# Convention : Reuss Voigt Hill
#
# Bulk Modulus (GPa) = 40.73366 61.34753 51.04060
# Shear Modulus (GPa) = 30.59411 40.98832 35.79121
#
# Velocity S-wave (km/s) = 3.58413 4.14854 3.87662
# Velocity P-wave (km/s) = 5.85077 6.97898 6.43963
#
# Compressibility (1/GPa) = 0.02454972
#
# Stress axis : x y z
#
# Youngs Moduli (GPa) = 42.90501 92.24250 124.45356
#
# Poissons Ratio (x) = 0.14597 0.67582
# Poissons Ratio (y) = 0.06789 0.22453
# Poissons Ratio (z) = 0.23299 0.16642
#
# Static dielectric constant tensor:
#      x y z
#    x 2.222120 0.091790 0.201770 
#    y 0.091790 1.899370 0.055880 
#    z 0.201770 0.055880 2.119860 
# 
# From -- ./inp_files/350051.got.cif
#   From: 2010.05.17/outbox.cif.g08.bks.cpg/sg2_176_cif.got.tgz:350051.got - 2010.06.03 11:33:40.
