data_PCOD9075061
_publ_section_title
;
Structure prediction by ZEFSAII (Michael W. Deem and Ramdas Pophale) SiO2 
 PCOD9075061
Probable space group: P -1
;
_chemical_formula_sum "Si O2"
_cell_formula_units_Z 16
_cell_length_a 9.000000
_cell_length_b 21.000000
_cell_length_c 12.000000
_cell_angle_alpha 160.000000
_cell_angle_beta 100.000000
_cell_angle_gamma 80.000000
_cell_volume 763.547719
_symmetry_space_group_name_H-M "P -1"
_symmetry_group_IT_number 2
_symmetry_cell_setting 'triclinic'
loop_
_space_group_symop_operation_xyz
x,y,z
-x,-y,-z
loop_
_atom_site_type_symbol
_atom_site_label
_atom_site_fract_x
_atom_site_fract_y
_atom_site_fract_z
Si Si1 0.226378 0.114374 0.970219
Si Si2 0.388186 0.360972 0.203130
Si Si3 0.706250 0.629651 0.198245
Si Si4 0.914950 0.804842 0.683877
Si Si5 0.631861 0.251848 0.678986
Si Si6 0.137992 0.446847 0.132822
Si Si7 0.370367 0.852702 0.247312
Si Si8 0.057995 0.023309 0.420827
O O1 0.305131 0.910839 0.659551
O O2 0.323585 0.225583 0.071317
O O3 0.195768 0.195030 0.222182
O O4 0.059816 0.077785 0.839034
O O5 0.500000 0.500000 0.500000
O O6 0.240736 0.426834 0.223599
O O7 0.515060 0.307798 0.039205
O O8 0.822610 0.764583 0.493096
O O9 0.548515 0.737092 0.332916
O O10 0.684807 0.455770 0.991704
O O11 0.761121 0.539932 0.942477
O O12 0.028888 0.627100 0.421919
O O13 0.000000 0.000000 0.000000
O O14 0.684528 0.188953 0.704860
O O15 0.062630 0.246326 0.773154
O O16 0.500000 0.000000 0.500000
O O17 0.226438 0.927253 0.280462
O O18 0.000000 0.000000 0.500000
#
# Coordination Sequence:
#
# PCOD9075061 Si02
#       8
#     2   2   2   2   2   2   2   2
#     4  12  26  45  68 107 141 177 227 288 357 410
#     4  12  28  42  69 109 143 182 217 293 360 417
#     4  11  25  43  72  96 125 189 239 281 326 408
#     4  12  29  46  66 100 145 187 224 288 351 408
#     4  11  22  42  72  97 129 177 244 281 329 406
#     4  12  24  47  70  99 138 179 239 277 344 414
#     4  12  21  44  71 102 141 178 232 284 349 414
#     4  12  22  41  76 103 132 180 231 288 343 414
#
# _framework density 20.954813000000001
#
# number of rings (size 3 to 8) (size 9 to 14) (size 15 to 20)
#    0.000    0.250    6.250    2.625    3.500    2.000 
#    0.000    0.000    0.000    0.000    0.000    0.000 
#    0.000    0.000    0.000    0.000    0.000    0.000 
#
# Total GULP energy -89182.583512 kJ/mol
# GULP energy per Si atom -5573.911469 kJ/mol
# Density = 2.090712 g / cm^3
# Si number density = 20.954813 Si / 1000 Ang^3
#
#
#
# Elastic Constant Matrix: (Units=GPa)
#
#
# Indices 1 2 3 4 5 6 
#
# 1 102.6135 12.6910 37.1911 7.6579 -12.7816 -7.7626
# 2 12.6910 56.8144 48.1536 -3.7812 -11.1921 7.4002
# 3 37.1911 48.1536 37.4521 8.4067 14.8832 -30.0209
# 4 7.6579 -3.7812 8.4067 26.2858 -1.5929 -1.1643
# 5 -12.7816 -11.1921 14.8832 -1.5929 43.2836 4.2082
# 6 -7.7626 7.4002 -30.0209 -1.1643 4.2082 25.9465
#
#
#
# Elastic Compliance Matrix: (Units=1/GPa)
#
#
# Indices 1 2 3 4 5 6 
#
# 1 0.010528 -0.004962 0.001861 -0.004065 0.000408 0.006469
# 2 -0.004962 0.004281 0.013304 -0.001974 -0.006330 0.013626
# 3 0.001861 0.013304 -0.010938 0.004688 0.009599 -0.017240
# 4 -0.004065 -0.001974 0.004688 0.037591 -0.002608 0.006881
# 5 0.000408 -0.006330 0.009599 -0.002608 0.017206 0.010126
# 6 0.006469 0.013626 -0.017240 0.006881 0.010126 0.015309
#
#
# Mechanical properties :
#
#
# Convention : Reuss Voigt Hill
#
# Bulk Modulus (GPa) = 41.19282 43.66127 42.42704
# Shear Modulus (GPa) = 81.08545 25.69280 53.38912
#
# Velocity S-wave (km/s) = 6.22731 3.50538 5.05307
# Velocity P-wave (km/s) = 8.45023 6.10448 7.37127
#
# Compressibility (1/GPa) = 0.02427608
#
# Stress axis : x y z
#
# Youngs Moduli (GPa) = 94.98425 233.60585 -91.42262
#
# Poissons Ratio (x) = 1.15907 0.17011
# Poissons Ratio (y) = 0.47128 1.21626
# Poissons Ratio (z) = -0.17674 -3.10782
#
# Static dielectric constant tensor:
#      x y z
#    x 1.733620 0.006010 0.017880 
#    y 0.006010 1.755770 0.012400 
#    z 0.017880 0.012400 1.702380 
# 
# From -- ./inp_files/405772.got.cif
#   From: 2010.05.17/outbox.ucp.g08.bks.cvg/sg2_203_cif.got.tgz:405772.got - 2010.06.11 11:32:03.
