data_PCOD9075408
_publ_section_title
;
Structure prediction by ZEFSAII (Michael W. Deem and Ramdas Pophale) SiO2 
 PCOD9075408
Probable space group: P -1
;
_chemical_formula_sum "Si O2"
_cell_formula_units_Z 14
_cell_length_a 9.000000
_cell_length_b 9.000000
_cell_length_c 21.000000
_cell_angle_alpha 130.000000
_cell_angle_beta 30.000000
_cell_angle_gamma 130.000000
_cell_volume 634.839654
_symmetry_space_group_name_H-M "P -1"
_symmetry_group_IT_number 2
_symmetry_cell_setting 'triclinic'
loop_
_space_group_symop_operation_xyz
x,y,z
-x,-y,-z
loop_
_atom_site_type_symbol
_atom_site_label
_atom_site_fract_x
_atom_site_fract_y
_atom_site_fract_z
Si Si1 0.253694 0.557469 0.974496
Si Si2 0.136882 0.801709 0.204093
Si Si3 0.782822 0.670596 0.418757
Si Si4 0.181406 0.872907 0.613443
Si Si5 0.489877 0.963518 0.345338
Si Si6 0.800985 0.475445 0.677309
Si Si7 0.295907 0.141394 0.900035
O O1 0.567558 0.595016 0.828095
O O2 0.239100 0.355750 0.963145
O O3 0.179861 0.717379 0.095301
O O4 0.000000 0.500000 0.000000
O O5 0.442538 0.817088 0.133497
O O6 0.863989 0.674639 0.314841
O O7 0.072485 0.020163 0.287818
O O8 0.500000 0.500000 0.500000
O O9 0.054481 0.615615 0.341770
O O10 0.736990 0.887862 0.517372
O O11 0.061214 0.635140 0.587836
O O12 0.500000 0.000000 0.500000
O O13 0.229712 0.927617 0.685065
O O14 0.367391 0.733393 0.350945
O O15 0.594448 0.951610 0.230664
O O16 0.000000 0.000000 0.000000
#
# Coordination Sequence:
#
# PCOD9075408 Si02
#       7
#     2   2   2   2   2   2   2
#     4  11  26  48  71 103 140 185 237 290 360 417
#     4  12  25  45  71 106 139 179 243 289 349 429
#     4  12  23  43  73 105 139 190 230 293 352 420
#     4  12  26  46  69 108 140 187 238 286 360 422
#     4  11  24  47  71 103 150 178 243 285 359 419
#     4  11  25  45  73  98 145 189 226 300 354 408
#     4  11  27  44  71 106 135 186 236 291 346 420
#
# _framework density 22.052813
#
# number of rings (size 3 to 8) (size 9 to 14) (size 15 to 20)
#    0.000    0.571    5.714    2.571    6.000    1.143 
#    0.000    1.429    0.000    0.000    0.000    0.000 
#    0.000    0.000    0.000    0.000    0.000    0.000 
#
# Total GULP energy -78152.834920 kJ/mol
# GULP energy per Si atom -5582.345351 kJ/mol
# Density = 2.200262 g / cm^3
# Si number density = 22.052813 Si / 1000 Ang^3
#
#
#
# Elastic Constant Matrix: (Units=GPa)
#
#
# Indices 1 2 3 4 5 6 
#
# 1 81.8861 21.0868 10.2950 -2.2479 -9.8103 -3.3603
# 2 21.0868 133.8204 48.7418 -12.3396 -0.0022 4.8772
# 3 10.2950 48.7418 106.8322 -8.0898 11.2076 -0.6735
# 4 -2.2479 -12.3396 -8.0898 43.5409 -1.0588 -5.1330
# 5 -9.8103 -0.0022 11.2076 -1.0588 39.6798 14.2364
# 6 -3.3603 4.8772 -0.6735 -5.1330 14.2364 31.9085
#
#
#
# Elastic Compliance Matrix: (Units=1/GPa)
#
#
# Indices 1 2 3 4 5 6 
#
# 1 0.013193 -0.001776 -0.000813 0.000125 0.003450 0.000125
# 2 -0.001776 0.009521 -0.004231 0.001602 0.001581 -0.002179
# 3 -0.000813 -0.004231 0.011971 0.001234 -0.004658 0.003091
# 4 0.000125 0.001602 0.001234 0.024123 -0.001181 0.004202
# 5 0.003450 0.001581 -0.004658 -0.001181 0.032621 -0.014721
# 6 0.000125 -0.002179 0.003091 0.004202 -0.014721 0.038995
#
#
# Mechanical properties :
#
#
# Convention : Reuss Voigt Hill
#
# Bulk Modulus (GPa) = 47.51554 53.64285 50.57920
# Shear Modulus (GPa) = 33.09540 39.18686 36.14113
#
# Velocity S-wave (km/s) = 3.87813 4.21997 4.05266
# Velocity P-wave (km/s) = 6.45339 6.93698 6.69955
#
# Compressibility (1/GPa) = 0.02104575
#
# Stress axis : x y z
#
# Youngs Moduli (GPa) = 75.79508 105.03359 83.53645
#
# Poissons Ratio (x) = 0.18652 0.06790
# Poissons Ratio (y) = 0.13460 0.35344
# Poissons Ratio (z) = 0.06161 0.44440
#
# Static dielectric constant tensor:
#      x y z
#    x 1.813890 0.037220 -0.046500 
#    y 0.037220 1.746730 -0.001600 
#    z -0.046500 -0.001600 1.868320 
# 
# From -- ./inp_files/398047.got.cif
#   From: 2010.05.17/outbox.ucp.g08.bks.cvg/sg2_200_cif.got.tgz:398047.got - 2010.06.11 11:32:03.
