data_PCOD9075647
_publ_section_title
;
Structure prediction by ZEFSAII (Michael W. Deem and Ramdas Pophale) SiO2 
 PCOD9075647
Probable space group: P -1
;
_chemical_formula_sum "Si O2"
_cell_formula_units_Z 14
_cell_length_a 9.000000
_cell_length_b 12.000000
_cell_length_c 15.000000
_cell_angle_alpha 30.000000
_cell_angle_beta 130.000000
_cell_angle_gamma 120.000000
_cell_volume 613.666794
_symmetry_space_group_name_H-M "P -1"
_symmetry_group_IT_number 2
_symmetry_cell_setting 'triclinic'
loop_
_space_group_symop_operation_xyz
x,y,z
-x,-y,-z
loop_
_atom_site_type_symbol
_atom_site_label
_atom_site_fract_x
_atom_site_fract_y
_atom_site_fract_z
Si Si1 0.258222 0.363352 0.163231
Si Si2 0.936530 0.268352 0.293912
Si Si3 0.313039 0.013276 0.149304
Si Si4 0.100366 0.949405 0.292665
Si Si5 0.673844 0.648656 0.595314
Si Si6 0.305438 0.554625 0.765042
Si Si7 0.676108 0.129170 0.947488
O O1 0.273556 0.311517 0.309537
O O2 0.475604 0.408391 0.195587
O O3 0.202845 0.144140 0.244625
O O4 0.120438 0.588050 0.917728
O O5 0.748980 0.332255 0.239154
O O6 0.107594 0.364302 0.350323
O O7 0.000000 0.000000 0.500000
O O8 0.177302 0.944992 0.223772
O O9 0.524442 0.859519 0.356871
O O10 0.300605 0.285497 0.953418
O O11 0.264966 0.936056 0.085769
O O12 0.168391 0.708885 0.533191
O O13 0.868572 0.042018 0.140638
O O14 0.612745 0.400395 0.738622
O O15 0.500000 0.000000 0.000000
#
# Coordination Sequence:
#
# PCOD9075647 Si02
#       7
#     2   2   2   2   2   2   2
#     4  12  24  48  74 113 155 191 245 302 389 450
#     4  12  26  40  74 115 157 191 235 306 382 450
#     4  12  27  52  77 105 153 204 252 300 371 442
#     4  12  27  49  77 110 149 196 248 312 373 447
#     4  12  26  49  76 112 151 197 245 321 369 440
#     4  12  26  46  76 115 150 195 248 299 377 462
#     4  12  29  52  77 106 148 203 260 310 363 432
#
# _framework density 22.813683000000001
#
# number of rings (size 3 to 8) (size 9 to 14) (size 15 to 20)
#    0.000    0.000    4.286    4.714    6.000    0.571 
#    2.571    0.000    0.000    0.000    0.000    0.000 
#    0.000    0.000    0.000    0.000    0.000    0.000 
#
# Total GULP energy -78351.300021 kJ/mol
# GULP energy per Si atom -5596.521430 kJ/mol
# Density = 2.276176 g / cm^3
# Si number density = 22.813683 Si / 1000 Ang^3
#
#
#
# Elastic Constant Matrix: (Units=GPa)
#
#
# Indices 1 2 3 4 5 6 
#
# 1 43.1762 4.4166 16.8571 8.3147 -11.4328 0.5374
# 2 4.4166 39.7981 44.9378 2.6520 -8.6084 -12.3507
# 3 16.8571 44.9378 227.8042 -11.0803 -2.2886 3.8863
# 4 8.3147 2.6520 -11.0803 40.0112 1.0997 -1.1770
# 5 -11.4328 -8.6084 -2.2886 1.0997 40.5208 2.9185
# 6 0.5374 -12.3507 3.8863 -1.1770 2.9185 37.9870
#
#
#
# Elastic Compliance Matrix: (Units=1/GPa)
#
#
# Indices 1 2 3 4 5 6 
#
# 1 0.027509 0.002175 -0.002710 -0.006846 0.008275 -0.000253
# 2 0.002175 0.040863 -0.008631 -0.005377 0.007991 0.013357
# 3 -0.002710 -0.008631 0.006467 0.002890 -0.002082 -0.003180
# 4 -0.006846 -0.005377 0.002890 0.027648 -0.003603 -0.000814
# 5 0.008275 0.007991 -0.002082 -0.003603 0.028664 0.000380
# 6 -0.000253 0.013357 -0.003180 -0.000814 0.000380 0.030942
#
#
# Mechanical properties :
#
#
# Convention : Reuss Voigt Hill
#
# Bulk Modulus (GPa) = 17.69694 49.24462 33.47078
# Shear Modulus (GPa) = 25.09277 40.00827 32.55052
#
# Velocity S-wave (km/s) = 3.32007 4.19226 3.78140
# Velocity P-wave (km/s) = 4.74038 6.71311 5.81107
#
# Compressibility (1/GPa) = 0.05650696
#
# Stress axis : x y z
#
# Youngs Moduli (GPa) = 36.35146 24.47188 154.63661
#
# Poissons Ratio (x) = -0.05323 0.41911
# Poissons Ratio (y) = -0.07907 1.33467
# Poissons Ratio (z) = 0.09852 0.21122
#
# Static dielectric constant tensor:
#      x y z
#    x 1.943730 0.014860 -0.008110 
#    y 0.014860 1.827630 0.030260 
#    z -0.008110 0.030260 1.818050 
# 
# From -- ./inp_files/343829.got.cif
#   From: 2010.05.17/outbox.ucp.g08.bks.cvg/sg2_172_cif.got.tgz:343829.got - 2010.06.11 11:32:03.
