data_PCOD9075583
_publ_section_title
;
Structure prediction by ZEFSAII (Michael W. Deem and Ramdas Pophale) SiO2 
 PCOD9075583
Probable space group: P -1
;
_chemical_formula_sum "Si O2"
_cell_formula_units_Z 16
_cell_length_a 27.000000
_cell_length_b 27.000000
_cell_length_c 18.000000
_cell_angle_alpha 160.000000
_cell_angle_beta 20.000000
_cell_angle_gamma 170.000000
_cell_volume 756.481449
_symmetry_space_group_name_H-M "P -1"
_symmetry_group_IT_number 2
_symmetry_cell_setting 'triclinic'
loop_
_space_group_symop_operation_xyz
x,y,z
-x,-y,-z
loop_
_atom_site_type_symbol
_atom_site_label
_atom_site_fract_x
_atom_site_fract_y
_atom_site_fract_z
Si Si1 0.382113 0.247222 0.146515
Si Si2 0.028315 0.102563 0.188450
Si Si3 0.581179 0.319501 0.473475
Si Si4 0.219939 0.843514 0.039751
Si Si5 0.656200 0.434907 0.349907
Si Si6 0.038785 0.354446 0.043853
Si Si7 0.557989 0.773805 0.142415
Si Si8 0.973713 0.392052 0.463125
O O1 0.342398 0.386673 0.408869
O O2 0.463961 0.276575 0.986550
O O3 0.621089 0.393416 0.073918
O O4 0.106108 0.905542 0.073227
O O5 0.188843 0.398374 0.396857
O O6 0.719672 0.870268 0.337550
O O7 0.232130 0.166587 0.036208
O O8 0.000000 0.000000 0.000000
O O9 0.612459 0.376954 0.420215
O O10 0.622807 0.179258 0.219514
O O11 0.955102 0.621176 0.160100
O O12 0.424345 0.149308 0.219143
O O13 0.088124 0.750714 0.010150
O O14 0.011730 0.480895 0.309520
O O15 0.236358 0.502756 0.249858
O O16 0.686598 0.042914 0.364657
O O17 0.000000 0.500000 0.500000
#
# Coordination Sequence:
#
# PCOD9075583 Si02
#       8
#     2   2   2   2   2   2   2   2
#     4  12  24  44  71 101 139 184 237 284 343 422
#     4  12  28  45  73 111 143 181 226 288 361 411
#     4  12  26  50  75 104 141 186 236 289 347 430
#     4  12  28  47  71 105 140 184 237 300 356 399
#     4  12  26  48  76  99 135 189 244 294 348 410
#     4  12  27  42  69 105 144 182 230 289 354 415
#     4  12  24  42  68  99 139 182 229 278 340 422
#     4  12  23  41  67  99 137 183 226 272 337 427
#
# _framework density 21.150552000000001
#
# number of rings (size 3 to 8) (size 9 to 14) (size 15 to 20)
#    0.000    0.000    3.750    6.000    5.250    3.000 
#    0.000    0.000    0.000    0.000    0.000    0.000 
#    0.000    0.000    0.000    0.000    0.000    0.000 
#
# Total GULP energy -89298.492839 kJ/mol
# GULP energy per Si atom -5581.155802 kJ/mol
# Density = 2.110241 g / cm^3
# Si number density = 21.150552 Si / 1000 Ang^3
#
#
#
# Elastic Constant Matrix: (Units=GPa)
#
#
# Indices 1 2 3 4 5 6 
#
# 1 120.9235 -1.8025 45.8694 -1.3642 23.3530 12.7835
# 2 -1.8025 84.3995 24.4575 -1.2461 11.8688 11.7420
# 3 45.8694 24.4575 185.5283 6.5808 24.6832 2.4397
# 4 -1.3642 -1.2461 6.5808 60.9807 8.3596 8.8408
# 5 23.3530 11.8688 24.6832 8.3596 52.9849 2.8558
# 6 12.7835 11.7420 2.4397 8.8408 2.8558 28.1340
#
#
#
# Elastic Compliance Matrix: (Units=1/GPa)
#
#
# Indices 1 2 3 4 5 6 
#
# 1 0.010633 0.002328 -0.002384 0.001943 -0.004092 -0.005792
# 2 0.002328 0.013917 -0.001968 0.001998 -0.003164 -0.007002
# 3 -0.002384 -0.001968 0.006441 -0.000842 -0.001471 0.001760
# 4 0.001943 0.001998 -0.000842 0.018048 -0.003383 -0.006972
# 5 -0.004092 -0.003164 -0.001471 -0.003383 0.022492 0.002088
# 6 -0.005792 -0.007002 0.001760 -0.006972 0.002088 0.042924
#
#
# Mechanical properties :
#
#
# Convention : Reuss Voigt Hill
#
# Bulk Modulus (GPa) = 37.11534 58.65557 47.88545
# Shear Modulus (GPa) = 39.21997 49.90840 44.56419
#
# Velocity S-wave (km/s) = 4.31086 4.86292 4.59519
# Velocity P-wave (km/s) = 6.50878 7.70216 7.13048
#
# Compressibility (1/GPa) = 0.02694303
#
# Stress axis : x y z
#
# Youngs Moduli (GPa) = 94.04533 71.85426 155.24737
#
# Poissons Ratio (x) = -0.16727 0.37014
# Poissons Ratio (y) = -0.21892 0.30552
# Poissons Ratio (z) = 0.22422 0.14140
#
# Static dielectric constant tensor:
#      x y z
#    x 1.757020 -0.007220 -0.033670 
#    y -0.007220 1.876400 0.014550 
#    z -0.033670 0.014550 1.726630 
# 
# From -- ./inp_files/579961.got.cif
#   From: 2010.05.17/outbox.ucp.g08.bks.cvg/sg2_290_cif.got.tgz:579961.got - 2010.06.11 11:32:03.
