data_PCOD9075952
_publ_section_title
;
Structure prediction by ZEFSAII (Michael W. Deem and Ramdas Pophale) SiO2 
 PCOD9075952
Probable space group: P -1
;
_chemical_formula_sum "Si O2"
_cell_formula_units_Z 16
_cell_length_a 21.384742
_cell_length_b 14.779841
_cell_length_c 10.784793
_cell_angle_alpha 132.022285
_cell_angle_beta 149.201652
_cell_angle_gamma 28.066262
_cell_volume 763.674178
_symmetry_space_group_name_H-M "P -1"
_symmetry_group_IT_number 2
_symmetry_cell_setting 'triclinic'
loop_
_space_group_symop_operation_xyz
x,y,z
-x,-y,-z
loop_
_atom_site_type_symbol
_atom_site_label
_atom_site_fract_x
_atom_site_fract_y
_atom_site_fract_z
Si Si1 0.347953 0.419035 0.921910
Si Si2 0.436050 0.983572 0.535013
Si Si3 0.376464 0.852703 0.502080
Si Si4 0.707042 0.664030 0.508444
Si Si5 0.681298 0.749794 0.066439
Si Si6 0.859334 0.157851 0.019887
Si Si7 0.855647 0.750218 0.156195
Si Si8 0.200582 0.942545 0.555765
O O1 0.335932 0.386219 0.729346
O O2 0.298839 0.341353 0.855674
O O3 0.199721 0.652765 0.909625
O O4 0.581505 0.277338 0.220216
O O5 0.305075 0.024999 0.457047
O O6 0.533012 0.802596 0.444787
O O7 0.307494 0.185532 0.426670
O O8 0.639007 0.887407 0.849707
O O9 0.263719 0.934028 0.516291
O O10 0.606260 0.705861 0.801102
O O11 0.342154 0.761877 0.277066
O O12 0.938383 0.449650 0.749551
O O13 0.860251 0.677463 0.231752
O O14 0.500000 0.000000 0.000000
O O15 0.997839 0.025208 0.257708
O O16 0.000000 0.000000 0.000000
O O17 0.855216 0.893574 0.311567
#
# Coordination Sequence:
#
# PCOD9075952 Si02
#       8
#     2   2   2   2   2   2   2   2
#     4  11  20  35  57  81 114 150 179 224 284 327
#     4  10  22  39  54  81 116 145 182 236 270 332
#     4   9  19  36  56  75 115 147 176 227 277 320
#     4  11  22  34  58  85 108 148 188 221 285 331
#     4  10  18  32  57  88 115 141 172 231 291 335
#     4  10  22  36  54  84 111 146 191 224 272 333
#     4  11  19  34  57  84 112 140 180 226 281 335
#     4  10  19  34  58  82 112 138 181 231 278 331
#
# _framework density 20.951343000000001
#
# number of rings (size 3 to 8) (size 9 to 14) (size 15 to 20)
#    0.000    1.750    5.000    1.125    0.000    7.000 
#    0.000    1.875    0.000    0.750    0.000    0.000 
#    0.000    0.000    0.000    0.000    0.000    0.000 
#
# Total GULP energy -89112.366030 kJ/mol
# GULP energy per Si atom -5569.522877 kJ/mol
# Density = 2.090366 g / cm^3
# Si number density = 20.951343 Si / 1000 Ang^3
#
#
#
# Elastic Constant Matrix: (Units=GPa)
#
#
# Indices 1 2 3 4 5 6 
#
# 1 14.4739 -6.2193 -9.5061 7.3140 -6.4515 -1.9497
# 2 -6.2193 100.1328 24.1909 4.3772 0.8568 -11.3758
# 3 -9.5061 24.1909 88.4434 16.8825 -8.3107 -2.9477
# 4 7.3140 4.3772 16.8825 34.0394 -2.9561 -2.8528
# 5 -6.4515 0.8568 -8.3107 -2.9561 15.2011 1.5976
# 6 -1.9497 -11.3758 -2.9477 -2.8528 1.5976 17.0507
#
#
#
# Elastic Compliance Matrix: (Units=1/GPa)
#
#
# Indices 1 2 3 4 5 6 
#
# 1 0.137919 0.004326 0.027181 -0.037119 0.064768 0.011077
# 2 0.004326 0.011794 -0.002480 -0.000651 -0.001145 0.007933
# 3 0.027181 -0.002480 0.019316 -0.013341 0.019565 0.000727
# 4 -0.037119 -0.000651 -0.013341 0.042898 -0.014835 0.001582
# 5 0.064768 -0.001145 0.019565 -0.014835 0.101354 -0.001954
# 6 0.011077 0.007933 0.000727 0.001582 -0.001954 0.065781
#
#
# Mechanical properties :
#
#
# Convention : Reuss Voigt Hill
#
# Bulk Modulus (GPa) = 4.40366 24.44235 14.42301
# Shear Modulus (GPa) = 12.60392 26.23056 19.41724
#
# Velocity S-wave (km/s) = 2.45537 3.54216 3.04761
# Velocity P-wave (km/s) = 3.18511 5.33112 4.39122
#
# Compressibility (1/GPa) = 0.22708376
#
# Stress axis : x y z
#
# Youngs Moduli (GPa) = 7.25065 84.78870 51.77112
#
# Poissons Ratio (x) = -0.36683 -1.40719
# Poissons Ratio (y) = -0.03137 0.12838
# Poissons Ratio (z) = -0.19708 0.21026
#
# Static dielectric constant tensor:
#      x y z
#    x 1.816410 -0.022780 0.043390 
#    y -0.022780 1.742420 -0.018520 
#    z 0.043390 -0.018520 1.893470 
# 
# From -- ./inp_files/472198.got.cif
#   From: 2010.05.17/outbox.cif.g08.bks.cpg/sg2_237_cif.got.tgz:472198.got - 2010.06.03 11:33:40.
