data_PCOD9075251
_publ_section_title
;
Structure prediction by ZEFSAII (Michael W. Deem and Ramdas Pophale) SiO2 
 PCOD9075251
Probable space group: P -1
;
_chemical_formula_sum "Si O2"
_cell_formula_units_Z 16
_cell_length_a 15.000000
_cell_length_b 24.000000
_cell_length_c 18.000000
_cell_angle_alpha 160.000000
_cell_angle_beta 150.000000
_cell_angle_gamma 20.000000
_cell_volume 749.971719
_symmetry_space_group_name_H-M "P -1"
_symmetry_group_IT_number 2
_symmetry_cell_setting 'triclinic'
loop_
_space_group_symop_operation_xyz
x,y,z
-x,-y,-z
loop_
_atom_site_type_symbol
_atom_site_label
_atom_site_fract_x
_atom_site_fract_y
_atom_site_fract_z
Si Si1 0.824409 0.261049 0.935293
Si Si2 0.872225 0.297994 0.335463
Si Si3 0.097226 0.400364 0.362119
Si Si4 0.686447 0.024585 0.336339
Si Si5 0.822514 0.293163 0.805698
Si Si6 0.184631 0.709087 0.549773
Si Si7 0.428286 0.768172 0.047009
Si Si8 0.828864 0.740431 0.224575
O O1 0.904411 0.192005 0.820328
O O2 0.500000 0.500000 0.000000
O O3 0.002224 0.999778 0.777827
O O4 0.925742 0.366829 0.168338
O O5 0.915965 0.424537 0.474444
O O6 0.826744 0.367354 0.474241
O O7 0.638379 0.335155 0.186688
O O8 0.145441 0.017638 0.179624
O O9 0.405700 0.148194 0.263584
O O10 0.000000 0.500000 0.500000
O O11 0.705134 0.207785 0.577933
O O12 0.715134 0.947591 0.344745
O O13 0.934128 0.805446 0.190815
O O14 0.596012 0.580270 0.999593
O O15 0.500000 0.500000 0.500000
O O16 0.030002 0.695861 0.366695
O O17 0.596558 0.798194 0.169293
O O18 0.000000 0.500000 0.000000
#
# Coordination Sequence:
#
# PCOD9075251 Si02
#       8
#     2   2   2   2   2   2   2   2
#     4  12  29  49  74 105 147 190 241 299 357 425
#     4  11  27  46  70 106 144 186 235 297 357 427
#     4  12  28  47  76 105 144 186 245 293 358 427
#     4  11  24  43  73 102 140 188 241 290 353 427
#     4  11  23  45  71 101 140 191 236 294 354 424
#     4  12  30  48  72 108 152 188 240 298 362 425
#     4  11  24  44  74  99 144 185 239 288 362 422
#     4  12  25  45  73 105 145 190 240 292 362 432
#
# _framework density 21.334137999999999
#
# number of rings (size 3 to 8) (size 9 to 14) (size 15 to 20)
#    0.000    0.500    3.750    3.000   12.250    1.000 
#    0.000    0.000    0.000    0.000    0.000    0.000 
#    0.000    0.000    0.000    0.000    0.000    0.000 
#
# Total GULP energy -89327.614408 kJ/mol
# GULP energy per Si atom -5582.975901 kJ/mol
# Density = 2.128558 g / cm^3
# Si number density = 21.334138 Si / 1000 Ang^3
#
#
#
# Elastic Constant Matrix: (Units=GPa)
#
#
# Indices 1 2 3 4 5 6 
#
# 1 104.9352 45.5348 16.9707 5.0226 24.0812 5.9704
# 2 45.5348 140.4352 41.9277 -9.8732 18.4531 -17.1839
# 3 16.9707 41.9277 67.1438 -12.9109 14.2047 -7.5991
# 4 5.0226 -9.8732 -12.9109 33.2720 1.2630 12.6373
# 5 24.0812 18.4531 14.2047 1.2630 24.4559 -2.4340
# 6 5.9704 -17.1839 -7.5991 12.6373 -2.4340 33.2829
#
#
#
# Elastic Compliance Matrix: (Units=1/GPa)
#
#
# Indices 1 2 3 4 5 6 
#
# 1 0.014144 -0.003887 0.000660 -0.000684 -0.011840 -0.005000
# 2 -0.003887 0.010551 -0.004880 -0.000040 -0.000801 0.004987
# 3 0.000660 -0.004880 0.021136 0.007555 -0.009773 -0.001395
# 4 -0.000684 -0.000040 0.007555 0.038378 -0.006986 -0.013256
# 5 -0.011840 -0.000801 -0.009773 -0.006986 0.059838 0.006507
# 6 -0.005000 0.004987 -0.001395 -0.013256 0.006507 0.038707
#
#
# Mechanical properties :
#
#
# Convention : Reuss Voigt Hill
#
# Bulk Modulus (GPa) = 33.76469 57.93117 45.84793
# Shear Modulus (GPa) = 23.94174 32.07422 28.00798
#
# Velocity S-wave (km/s) = 3.35360 3.88161 3.62722
# Velocity P-wave (km/s) = 5.55486 6.87767 6.25135
#
# Compressibility (1/GPa) = 0.02961674
#
# Stress axis : x y z
#
# Youngs Moduli (GPa) = 70.70128 94.78172 47.31231
#
# Poissons Ratio (x) = 0.36843 -0.03122
# Poissons Ratio (y) = 0.27483 0.23087
# Poissons Ratio (z) = -0.04665 0.46250
#
# Static dielectric constant tensor:
#      x y z
#    x 1.773350 0.048450 -0.020070 
#    y 0.048450 1.798780 0.018780 
#    z -0.020070 0.018780 1.807310 
# 
# From -- ./inp_files/574434.got.cif
#   From: 2010.05.17/outbox.ucp.g08.bks.cvg/sg2_288_cif.got.tgz:574434.got - 2010.06.11 11:32:03.
