data_PCOD9075891
_publ_section_title
;
Structure prediction by ZEFSAII (Michael W. Deem and Ramdas Pophale) SiO2 
 PCOD9075891
Probable space group: P -1
;
_chemical_formula_sum "Si O2"
_cell_formula_units_Z 16
_cell_length_a 8.031040
_cell_length_b 11.160770
_cell_length_c 15.566465
_cell_angle_alpha 129.290833
_cell_angle_beta 131.485157
_cell_angle_gamma 36.615499
_cell_volume 607.101705
_symmetry_space_group_name_H-M "P -1"
_symmetry_group_IT_number 2
_symmetry_cell_setting 'triclinic'
loop_
_space_group_symop_operation_xyz
x,y,z
-x,-y,-z
loop_
_atom_site_type_symbol
_atom_site_label
_atom_site_fract_x
_atom_site_fract_y
_atom_site_fract_z
Si Si1 0.600884 0.168769 0.867708
Si Si2 0.394346 0.105108 0.373771
Si Si3 0.997164 0.652139 0.199976
Si Si4 0.502217 0.240353 0.154233
Si Si5 0.201988 0.616447 0.604360
Si Si6 0.266355 0.464572 0.393256
Si Si7 0.185939 0.870279 0.416125
Si Si8 0.117341 0.119330 0.015098
O O1 0.311271 0.294475 0.885471
O O2 0.538456 0.095484 0.729389
O O3 0.825731 0.957152 0.902499
O O4 0.766612 0.252599 0.943348
O O5 0.399275 0.236734 0.359872
O O6 0.643210 0.047141 0.500247
O O7 0.056533 0.270114 0.363724
O O8 0.251251 0.477177 0.143609
O O9 0.110694 0.553873 0.290083
O O10 0.973230 0.849400 0.282383
O O11 0.686945 0.256477 0.294390
O O12 0.292852 0.196734 0.094341
O O13 0.726006 0.071564 0.084262
O O14 0.060571 0.607621 0.467032
O O15 0.507053 0.375855 0.604717
O O16 0.500000 0.500000 0.500000
O O17 0.000000 0.000000 0.500000
#
# Coordination Sequence:
#
# PCOD9075891 Si02
#       8
#     2   2   2   2   2   2   2   2
#     4  11  23  38  62  90 114 151 201 244 295 336
#     4  11  20  37  61  82 123 156 194 233 284 357
#     4  11  22  36  60  91 121 150 190 242 291 350
#     4  10  20  41  65  83 117 152 199 245 292 342
#     4  10  21  36  62  85 117 161 195 228 289 357
#     4  11  19  34  60  91 114 156 195 220 288 363
#     4  10  18  32  56  88 115 148 184 233 283 344
#     4  10  23  41  64  85 109 158 202 247 290 345
#
# _framework density 26.354727
#
# number of rings (size 3 to 8) (size 9 to 14) (size 15 to 20)
#    0.000    1.500    6.250    2.250    0.000    1.000 
#    0.000    0.625   16.500    0.000    0.000    0.000 
#    0.000    0.000    0.000    0.000    0.000    0.000 
#
# Total GULP energy -89089.519069 kJ/mol
# GULP energy per Si atom -5568.094942 kJ/mol
# Density = 2.629474 g / cm^3
# Si number density = 26.354727 Si / 1000 Ang^3
#
#
#
# Elastic Constant Matrix: (Units=GPa)
#
#
# Indices 1 2 3 4 5 6 
#
# 1 67.6474 26.9658 20.6854 -6.8541 33.1187 -22.5417
# 2 26.9658 105.9063 14.9190 14.9414 11.3704 -25.4163
# 3 20.6854 14.9190 133.7887 9.9126 21.7450 -12.2054
# 4 -6.8541 14.9414 9.9126 38.7324 -15.7383 0.2959
# 5 33.1187 11.3704 21.7450 -15.7383 46.0001 -5.4862
# 6 -22.5417 -25.4163 -12.2054 0.2959 -5.4862 40.9018
#
#
#
# Elastic Compliance Matrix: (Units=1/GPa)
#
#
# Indices 1 2 3 4 5 6 
#
# 1 0.029086 -0.002062 0.000244 -0.002290 -0.019878 0.012171
# 2 -0.002062 0.012829 0.000583 -0.006959 -0.003558 0.006582
# 3 0.000244 0.000583 0.008915 -0.004887 -0.005920 0.002398
# 4 -0.002290 -0.006959 -0.004887 0.036532 0.017588 -0.004950
# 5 -0.019878 -0.003558 -0.005920 0.017588 0.044664 -0.009069
# 6 0.012171 0.006582 0.002398 -0.004950 -0.009069 0.034782
#
#
# Mechanical properties :
#
#
# Convention : Reuss Voigt Hill
#
# Bulk Modulus (GPa) = 20.67904 48.05365 34.36634
# Shear Modulus (GPa) = 26.96908 41.44500 34.20704
#
# Velocity S-wave (km/s) = 3.20239 3.96988 3.60661
# Velocity P-wave (km/s) = 4.64082 6.26788 5.51469
#
# Compressibility (1/GPa) = 0.04835814
#
# Stress axis : x y z
#
# Youngs Moduli (GPa) = 34.38129 77.95071 112.17339
#
# Poissons Ratio (x) = 0.16072 -0.02735
# Poissons Ratio (y) = 0.07089 -0.06535
# Poissons Ratio (z) = -0.00838 -0.04541
#
# Static dielectric constant tensor:
#      x y z
#    x 2.203080 0.037100 -0.022980 
#    y 0.037100 2.191430 -0.062140 
#    z -0.022980 -0.062140 2.180310 
# 
# From -- ./inp_files/221710.got.cif
#   From: 2010.05.17/outbox.cif.g08.bks.cpg/sg2_111_cif.got.tgz:221710.got - 2010.06.03 11:33:40.
