data_PCOD9075430
_publ_section_title
;
Structure prediction by ZEFSAII (Michael W. Deem and Ramdas Pophale) SiO2 
 PCOD9075430
Probable space group: P -1
;
_chemical_formula_sum "Si O2"
_cell_formula_units_Z 16
_cell_length_a 16.005731
_cell_length_b 19.793904
_cell_length_c 7.382581
_cell_angle_alpha 55.808543
_cell_angle_beta 139.592636
_cell_angle_gamma 153.044891
_cell_volume 630.648275
_symmetry_space_group_name_H-M "P -1"
_symmetry_group_IT_number 2
_symmetry_cell_setting 'triclinic'
loop_
_space_group_symop_operation_xyz
x,y,z
-x,-y,-z
loop_
_atom_site_type_symbol
_atom_site_label
_atom_site_fract_x
_atom_site_fract_y
_atom_site_fract_z
Si Si1 0.683881 0.386848 0.315184
Si Si2 0.120883 0.934862 0.448534
Si Si3 0.175790 0.584107 0.897590
Si Si4 0.372045 0.525726 0.348061
Si Si5 0.097065 0.027834 0.821793
Si Si6 0.919865 0.779283 0.750172
Si Si7 0.821351 0.618268 0.402206
Si Si8 0.357547 0.834786 0.015387
O O1 0.798186 0.437581 0.227436
O O2 0.716034 0.496781 0.268136
O O3 0.877127 0.434629 0.678478
O O4 0.391357 0.204502 0.083797
O O5 0.052364 0.991800 0.266328
O O6 0.076798 0.880366 0.670344
O O7 0.930587 0.765017 0.298983
O O8 0.409498 0.085751 0.624125
O O9 0.307741 0.744393 0.901635
O O10 0.323944 0.592399 0.228455
O O11 0.629792 0.657670 0.460021
O O12 0.139436 0.349288 0.131866
O O13 0.382926 0.483556 0.620787
O O14 0.000000 0.000000 0.500000
O O15 0.052134 0.906361 0.930101
O O16 0.067992 0.705500 0.768489
O O17 0.500000 0.000000 0.000000
#
# Coordination Sequence:
#
# PCOD9075430 Si02
#       8
#     2   2   2   2   2   2   2   2
#     4  10  21  34  52  80 108 136 183 231 260 306
#     4   9  16  30  54  81 105 139 179 222 263 307
#     4  10  19  34  56  79 108 145 179 216 266 317
#     4  10  19  35  56  79 108 144 175 211 271 331
#     4  10  18  32  54  76 100 137 183 224 263 308
#     4   9  18  31  54  80 104 137 185 221 252 321
#     4   9  20  34  52  82 114 138 172 222 267 316
#     4   9  17  31  53  81 105 130 175 221 256 303
#
# _framework density 25.370718
#
# number of rings (size 3 to 8) (size 9 to 14) (size 15 to 20)
#    0.000    2.500    0.000    3.750    0.000    2.500 
#    0.000    1.250    0.000    6.000    0.000    0.000 
#    0.000    0.000    0.000    0.000    0.000    0.000 
#
# Total GULP energy -89117.655735 kJ/mol
# GULP energy per Si atom -5569.853483 kJ/mol
# Density = 2.531297 g / cm^3
# Si number density = 25.370718 Si / 1000 Ang^3
#
#
#
# Elastic Constant Matrix: (Units=GPa)
#
#
# Indices 1 2 3 4 5 6 
#
# 1 130.6054 71.4590 31.6996 4.4600 10.8450 -47.1078
# 2 71.4590 116.4134 38.0869 33.6726 -18.0746 -39.2441
# 3 31.6996 38.0869 84.3285 26.9630 3.6878 -0.6244
# 4 4.4600 33.6726 26.9630 47.2837 3.7217 -11.6206
# 5 10.8450 -18.0746 3.6878 3.7217 21.9920 5.2284
# 6 -47.1078 -39.2441 -0.6244 -11.6206 5.2284 65.1949
#
#
#
# Elastic Compliance Matrix: (Units=1/GPa)
#
#
# Indices 1 2 3 4 5 6 
#
# 1 0.034316 -0.029540 -0.006712 0.029436 -0.048888 0.016117
# 2 -0.029540 0.043706 -0.000289 -0.034126 0.057678 -0.005747
# 3 -0.006712 -0.000289 0.017962 -0.011463 0.003710 -0.007193
# 4 0.029436 -0.034126 -0.011463 0.057174 -0.053914 0.015133
# 5 -0.048888 0.057678 0.003710 -0.053914 0.130391 -0.020637
# 6 0.016117 -0.005747 -0.007193 0.015133 -0.020637 0.027809
#
#
# Mechanical properties :
#
#
# Convention : Reuss Voigt Hill
#
# Bulk Modulus (GPa) = 43.66651 68.20425 55.93538
# Shear Modulus (GPa) = 12.75272 39.56758 26.16015
#
# Velocity S-wave (km/s) = 2.24443 3.95343 3.21458
# Velocity P-wave (km/s) = 4.89544 6.91237 5.98942
#
# Compressibility (1/GPa) = 0.02290085
#
# Stress axis : x y z
#
# Youngs Moduli (GPa) = 29.14128 22.88009 55.67297
#
# Poissons Ratio (x) = 0.67587 0.37370
# Poissons Ratio (y) = 0.86083 0.01610
# Poissons Ratio (z) = 0.19561 0.00662
#
# Static dielectric constant tensor:
#      x y z
#    x 2.010460 0.000230 -0.013760 
#    y 0.000230 2.055040 -0.098810 
#    z -0.013760 -0.098810 2.196830 
# 
# From -- ./inp_files/337200.got.cif
#   From: 2010.05.17/outbox.cif.g08.bks.cpg/sg2_169_cif.got.tgz:337200.got - 2010.06.03 11:33:40.
