data_PCOD9075454
_publ_section_title
;
Structure prediction by ZEFSAII (Michael W. Deem and Ramdas Pophale) SiO2 
 PCOD9075454
Probable space group: P -1
;
_chemical_formula_sum "Si O2"
_cell_formula_units_Z 14
_cell_length_a 15.000000
_cell_length_b 6.000000
_cell_length_c 9.000000
_cell_angle_alpha 90.000000
_cell_angle_beta 50.000000
_cell_angle_gamma 90.000000
_cell_volume 620.495999
_symmetry_space_group_name_H-M "P -1"
_symmetry_group_IT_number 2
_symmetry_cell_setting 'triclinic'
loop_
_space_group_symop_operation_xyz
x,y,z
-x,-y,-z
loop_
_atom_site_type_symbol
_atom_site_label
_atom_site_fract_x
_atom_site_fract_y
_atom_site_fract_z
Si Si1 0.982787 0.746849 0.429735
Si Si2 0.401304 0.572076 0.904251
Si Si3 0.977207 0.937582 0.853004
Si Si4 0.574856 0.877561 0.546855
Si Si5 0.598181 0.246200 0.774817
Si Si6 0.832016 0.439281 0.395604
Si Si7 0.771782 0.625998 0.149625
O O1 0.000000 0.500000 0.500000
O O2 0.870901 0.654891 0.453492
O O3 0.051752 0.838305 0.210410
O O4 0.000000 0.000000 0.500000
O O5 0.494729 0.682471 0.695296
O O6 0.469718 0.354768 0.893491
O O7 0.295885 0.504449 0.908701
O O8 0.377408 0.734279 0.072479
O O9 0.085014 0.781418 0.677898
O O10 0.867327 0.775625 0.967139
O O11 0.000000 0.000000 0.000000
O O12 0.684836 0.782223 0.339577
O O13 0.500000 0.000000 0.500000
O O14 0.600300 0.027277 0.666816
O O15 0.702737 0.386343 0.589975
O O16 0.830388 0.485873 0.220466
#
# Coordination Sequence:
#
# PCOD9075454 Si02
#       7
#     2   2   2   2   2   2   2
#     4  12  28  53  78 112 159 209 265 329 397 475
#     4  11  25  47  70 109 150 198 260 322 388 462
#     4  12  27  50  79 117 157 208 269 329 397 485
#     4  12  23  46  71 106 150 205 256 317 391 466
#     4  11  25  45  74 106 151 198 257 322 391 465
#     4  12  26  49  78 113 159 211 262 330 400 483
#     4  12  25  47  76 112 156 206 266 324 394 474
#
# _framework density 22.562595000000002
#
# number of rings (size 3 to 8) (size 9 to 14) (size 15 to 20)
#    0.000    0.286    5.714    3.000    2.000    0.000 
#    2.571    0.000    0.000    0.000    0.000    0.000 
#    0.000    0.000    0.000    0.000    0.000    0.000 
#
# Total GULP energy -77983.919204 kJ/mol
# GULP energy per Si atom -5570.279943 kJ/mol
# Density = 2.251124 g / cm^3
# Si number density = 22.562595 Si / 1000 Ang^3
#
#
#
# Elastic Constant Matrix: (Units=GPa)
#
#
# Indices 1 2 3 4 5 6 
#
# 1 141.9826 54.5891 29.3417 -4.0592 21.7695 24.9860
# 2 54.5891 89.0209 19.7799 1.5608 3.9082 1.9549
# 3 29.3417 19.7799 74.1369 -6.7291 9.7039 -7.5861
# 4 -4.0592 1.5608 -6.7291 56.1757 12.7261 12.2874
# 5 21.7695 3.9082 9.7039 12.7261 47.5584 -3.1161
# 6 24.9860 1.9549 -7.5861 12.2874 -3.1161 54.1795
#
#
#
# Elastic Compliance Matrix: (Units=1/GPa)
#
#
# Indices 1 2 3 4 5 6 
#
# 1 0.012447 -0.006666 -0.002748 0.003667 -0.006033 -0.007063
# 2 -0.006666 0.015573 -0.001827 -0.002467 0.003001 0.002989
# 3 -0.002748 -0.001827 0.015782 0.001526 -0.002019 0.003081
# 4 0.003667 -0.002467 0.001526 0.021609 -0.008012 -0.006750
# 5 -0.006033 0.003001 -0.002019 -0.008012 0.026473 0.005731
# 6 -0.007063 0.002989 0.003081 -0.006750 0.005731 0.023898
#
#
# Mechanical properties :
#
#
# Convention : Reuss Voigt Hill
#
# Bulk Modulus (GPa) = 46.90756 56.95131 51.92943
# Shear Modulus (GPa) = 34.39465 45.01135 39.70300
#
# Velocity S-wave (km/s) = 3.90861 4.47134 4.19941
# Velocity P-wave (km/s) = 6.41909 7.20787 6.82488
#
# Compressibility (1/GPa) = 0.02131853
#
# Stress axis : x y z
#
# Youngs Moduli (GPa) = 80.34162 64.21290 63.36496
#
# Poissons Ratio (x) = 0.42807 0.17411
# Poissons Ratio (y) = 0.53559 0.11579
# Poissons Ratio (z) = 0.22076 0.11734
#
# Static dielectric constant tensor:
#      x y z
#    x 2.004220 -0.031450 -0.048650 
#    y -0.031450 1.943590 -0.017690 
#    z -0.048650 -0.017690 1.931030 
# 
# From -- ./inp_files/135345.got.cif
#   From: 2010.05.17/outbox.ucp.g08.bks.cvg/sg2_68_cif.got.tgz:135345.got - 2010.06.11 11:32:03.
