data_PCOD9075106
_publ_section_title
;
Structure prediction by ZEFSAII (Michael W. Deem and Ramdas Pophale) SiO2 
 PCOD9075106
Probable space group: P -1
;
_chemical_formula_sum "Si O2"
_cell_formula_units_Z 14
_cell_length_a 9.000000
_cell_length_b 9.000000
_cell_length_c 12.000000
_cell_angle_alpha 80.000000
_cell_angle_beta 100.000000
_cell_angle_gamma 140.000000
_cell_volume 614.029152
_symmetry_space_group_name_H-M "P -1"
_symmetry_group_IT_number 2
_symmetry_cell_setting 'triclinic'
loop_
_space_group_symop_operation_xyz
x,y,z
-x,-y,-z
loop_
_atom_site_type_symbol
_atom_site_label
_atom_site_fract_x
_atom_site_fract_y
_atom_site_fract_z
Si Si1 0.917632 0.511725 0.606360
Si Si2 0.056602 0.190967 0.546527
Si Si3 0.835103 0.881107 0.756147
Si Si4 0.490993 0.663998 0.933607
Si Si5 0.471279 0.592034 0.350930
Si Si6 0.088030 0.566970 0.870831
Si Si7 0.722587 0.961031 0.139397
O O1 0.041203 0.763062 0.560251
O O2 0.652682 0.374572 0.592935
O O3 0.000000 0.500000 0.500000
O O4 0.960202 0.480588 0.741708
O O5 0.329408 0.369126 0.583568
O O6 0.000000 0.000000 0.500000
O O7 0.932565 0.087725 0.663311
O O8 0.645376 0.795440 0.827482
O O9 0.721120 0.664579 0.693221
O O10 0.036973 0.949532 0.841674
O O11 0.235824 0.526891 0.890508
O O12 0.500000 0.500000 0.000000
O O13 0.593088 0.845014 0.021057
O O14 0.577014 0.766375 0.240102
O O15 0.233127 0.832232 0.853093
O O16 0.000000 0.500000 0.000000
#
# Coordination Sequence:
#
# PCOD9075106 Si02
#       7
#     2   2   2   2   2   2   2
#     4  12  27  45  71 111 147 189 246 306 359 431
#     4  11  24  43  72 101 139 194 242 288 367 439
#     4  11  23  42  73 106 142 184 250 297 358 435
#     4  12  25  42  74 109 140 192 253 304 357 435
#     4  11  22  45  75 100 146 195 233 298 370 431
#     4  12  27  49  73 104 153 194 242 300 376 437
#     4  11  23  46  74 104 146 193 241 298 375 436
#
# _framework density 22.800219999999999
#
# number of rings (size 3 to 8) (size 9 to 14) (size 15 to 20)
#    0.000    0.571    4.286    3.857    2.000    2.286 
#    0.000    2.143    0.000    0.000    0.000    0.000 
#    0.000    0.000    0.000    0.000    0.000    0.000 
#
# Total GULP energy -77960.907055 kJ/mol
# GULP energy per Si atom -5568.636218 kJ/mol
# Density = 2.274833 g / cm^3
# Si number density = 22.800220 Si / 1000 Ang^3
#
#
#
# Elastic Constant Matrix: (Units=GPa)
#
#
# Indices 1 2 3 4 5 6 
#
# 1 111.0026 9.9955 71.7736 -16.5452 -9.2922 18.6310
# 2 9.9955 45.2329 24.5628 -6.9032 0.5327 1.4272
# 3 71.7736 24.5628 168.8628 -16.8584 4.0286 18.1284
# 4 -16.5452 -6.9032 -16.8584 42.5702 2.1023 -7.2184
# 5 -9.2922 0.5327 4.0286 2.1023 52.0430 -4.7632
# 6 18.6310 1.4272 18.1284 -7.2184 -4.7632 30.9433
#
#
#
# Elastic Compliance Matrix: (Units=1/GPa)
#
#
# Indices 1 2 3 4 5 6 
#
# 1 0.013605 0.000287 -0.005181 0.002448 0.002340 -0.004238
# 2 0.000287 0.024360 -0.003535 0.002906 0.000092 0.001467
# 3 -0.005181 -0.003535 0.008976 0.000702 -0.001803 -0.002090
# 4 0.002448 0.002906 0.000702 0.025880 -0.000329 0.003967
# 5 0.002340 0.000092 -0.001803 -0.000329 0.020027 0.002649
# 6 -0.004238 0.001467 -0.002090 0.003967 0.002649 0.037359
#
#
# Mechanical properties :
#
#
# Convention : Reuss Voigt Hill
#
# Bulk Modulus (GPa) = 33.24143 59.75136 46.49639
# Shear Modulus (GPa) = 31.82827 39.69570 35.76199
#
# Velocity S-wave (km/s) = 3.74031 4.17708 3.96472
# Velocity P-wave (km/s) = 5.76752 7.03757 6.43396
#
# Compressibility (1/GPa) = 0.03008295
#
# Stress axis : x y z
#
# Youngs Moduli (GPa) = 73.50192 41.05077 111.41169
#
# Poissons Ratio (x) = -0.01177 0.57721
# Poissons Ratio (y) = -0.02107 0.39382
# Poissons Ratio (z) = 0.38080 0.14511
#
# Static dielectric constant tensor:
#      x y z
#    x 1.858130 -0.016980 -0.066160 
#    y -0.016980 1.946260 -0.035080 
#    z -0.066160 -0.035080 1.902740 
# 
# From -- ./inp_files/70244.got.cif
#   From: 2010.05.17/outbox.ucp.g08.bks.cvg/sg2_36_cif.got.tgz:70244.got - 2010.06.11 11:32:03.
