data_PCOD9075852
_publ_section_title
;
Structure prediction by ZEFSAII (Michael W. Deem and Ramdas Pophale) SiO2 
 PCOD9075852
Probable space group: P -1
;
_chemical_formula_sum "Si O2"
_cell_formula_units_Z 16
_cell_length_a 11.016910
_cell_length_b 10.569460
_cell_length_c 18.669332
_cell_angle_alpha 24.104027
_cell_angle_beta 138.913569
_cell_angle_gamma 139.497070
_cell_volume 561.854501
_symmetry_space_group_name_H-M "P -1"
_symmetry_group_IT_number 2
_symmetry_cell_setting 'triclinic'
loop_
_space_group_symop_operation_xyz
x,y,z
-x,-y,-z
loop_
_atom_site_type_symbol
_atom_site_label
_atom_site_fract_x
_atom_site_fract_y
_atom_site_fract_z
Si Si1 0.129757 0.837067 0.319746
Si Si2 0.304488 0.235721 0.328060
Si Si3 0.724757 0.691780 0.260421
Si Si4 0.780522 0.282591 0.846177
Si Si5 0.224053 0.315535 0.491884
Si Si6 0.381186 0.926655 0.870478
Si Si7 0.215156 0.766912 0.652193
Si Si8 0.777244 0.659771 0.003029
O O1 0.191946 0.532606 0.531856
O O2 0.900200 0.757417 0.248388
O O3 0.182262 0.081746 0.284685
O O4 0.248313 0.016665 0.211401
O O5 0.505782 0.471964 0.269764
O O6 0.205779 0.435885 0.234558
O O7 0.327515 0.945289 0.540857
O O8 0.718568 0.023432 0.125735
O O9 0.710106 0.382385 0.686716
O O10 0.608283 0.990350 0.947835
O O11 0.992875 0.270159 0.930090
O O12 0.346058 0.229242 0.654320
O O13 0.012010 0.319336 0.421956
O O14 0.219388 0.024645 0.584409
O O15 0.297950 0.614760 0.947924
O O16 0.284304 0.487481 0.869387
#
# Coordination Sequence:
#
# PCOD9075852 Si02
#       8
#     2   2   2   2   2   2   2   2
#     4  11  23  40  57  77 112 151 184 221 271 327
#     4  10  19  36  60  81 106 145 190 226 261 320
#     4  10  23  38  57  80 106 148 194 223 257 323
#     4   9  18  30  51  85 115 138 175 227 273 322
#     4   8  13  26  50  80 112 142 173 215 271 326
#     4  10  18  32  56  83 107 141 185 225 268 319
#     4   8  15  30  54  83 110 137 176 225 272 319
#     4  10  21  36  56  85 117 141 169 226 288 322
#
# _framework density 28.477124
#
# number of rings (size 3 to 8) (size 9 to 14) (size 15 to 20)
#    0.000    2.500    0.000    4.500    0.000    4.000 
#    0.000    3.125    0.000   12.000    0.000    0.000 
#    0.000    0.000    0.000    0.000    0.000    0.000 
#
# Total GULP energy -89601.896764 kJ/mol
# GULP energy per Si atom -5600.118548 kJ/mol
# Density = 2.841231 g / cm^3
# Si number density = 28.477124 Si / 1000 Ang^3
#
#
#
# Elastic Constant Matrix: (Units=GPa)
#
#
# Indices 1 2 3 4 5 6 
#
# 1 116.0403 41.4595 29.9672 -12.9669 2.8488 -21.5821
# 2 41.4595 88.7374 18.7908 0.6742 -4.8534 7.5452
# 3 29.9672 18.7908 88.2813 -1.9539 -38.4066 2.2895
# 4 -12.9669 0.6742 -1.9539 36.8441 14.5968 -5.2131
# 5 2.8488 -4.8534 -38.4066 14.5968 51.7121 -3.2825
# 6 -21.5821 7.5452 2.2895 -5.2131 -3.2825 38.0940
#
#
#
# Elastic Compliance Matrix: (Units=1/GPa)
#
#
# Indices 1 2 3 4 5 6 
#
# 1 0.018179 -0.008338 -0.009463 0.012475 -0.011494 0.013236
# 2 -0.008338 0.015871 0.001309 -0.005958 0.004069 -0.008411
# 3 -0.009463 0.001309 0.023137 -0.011235 0.020569 -0.006776
# 4 0.012475 -0.005958 -0.011235 0.040905 -0.020326 0.012769
# 5 -0.011494 0.004069 0.020569 -0.020326 0.040871 -0.007814
# 6 0.013236 -0.008411 -0.006776 0.012769 -0.007814 0.036897
#
#
# Mechanical properties :
#
#
# Convention : Reuss Voigt Hill
#
# Bulk Modulus (GPa) = 41.32185 52.61045 46.96615
# Shear Modulus (GPa) = 23.05077 38.85280 30.95178
#
# Velocity S-wave (km/s) = 2.84817 3.69772 3.30039
# Velocity P-wave (km/s) = 5.03568 6.06181 5.57242
#
# Compressibility (1/GPa) = 0.02420027
#
# Stress axis : x y z
#
# Youngs Moduli (GPa) = 55.00937 63.00858 43.22087
#
# Poissons Ratio (x) = 0.52539 0.40902
# Poissons Ratio (y) = 0.45869 -0.05656
# Poissons Ratio (z) = 0.52058 -0.08245
#
# Static dielectric constant tensor:
#      x y z
#    x 2.111380 -0.016170 -0.036700 
#    y -0.016170 2.156230 -0.021750 
#    z -0.036700 -0.021750 2.346660 
# 
# From -- ./inp_files/311659.got.cif
#   From: 2010.05.17/outbox.cif.g08.bks.cpg/sg2_156_cif.got.tgz:311659.got - 2010.06.03 11:33:40.
