data_PCOD9075631
_publ_section_title
;
Structure prediction by ZEFSAII (Michael W. Deem and Ramdas Pophale) SiO2 
 PCOD9075631
Probable space group: P -1
;
_chemical_formula_sum "Si O2"
_cell_formula_units_Z 16
_cell_length_a 7.065254
_cell_length_b 12.064087
_cell_length_c 13.274712
_cell_angle_alpha 34.282903
_cell_angle_beta 104.370566
_cell_angle_gamma 108.324240
_cell_volume 604.880379
_symmetry_space_group_name_H-M "P -1"
_symmetry_group_IT_number 2
_symmetry_cell_setting 'triclinic'
loop_
_space_group_symop_operation_xyz
x,y,z
-x,-y,-z
loop_
_atom_site_type_symbol
_atom_site_label
_atom_site_fract_x
_atom_site_fract_y
_atom_site_fract_z
Si Si1 0.116675 0.836515 0.277047
Si Si2 0.199856 0.411702 0.965536
Si Si3 0.753076 0.280739 0.092656
Si Si4 0.342721 0.911914 0.962797
Si Si5 0.540570 0.696892 0.425018
Si Si6 0.925224 0.736147 0.135399
Si Si7 0.754150 0.989207 0.641685
Si Si8 0.660224 0.875317 0.499602
O O1 0.327277 0.765942 0.352398
O O2 0.949689 0.703068 0.282386
O O3 0.091240 0.868446 0.370141
O O4 0.140846 0.054358 0.059952
O O5 0.286048 0.214760 0.146581
O O6 0.969629 0.365724 0.008991
O O7 0.297754 0.583865 0.925285
O O8 0.192405 0.434591 0.826563
O O9 0.609713 0.227171 0.017634
O O10 0.759658 0.070877 0.303388
O O11 0.315885 0.118530 0.751273
O O12 0.500000 0.000000 0.000000
O O13 0.151772 0.785941 0.087296
O O14 0.500000 0.500000 0.500000
O O15 0.629577 0.691571 0.554161
O O16 0.781233 0.899473 0.601676
O O17 0.563548 0.092583 0.530461
#
# Coordination Sequence:
#
# PCOD9075631 Si02
#       8
#     2   2   2   2   2   2   2   2
#     4   9  17  33  57  74 104 139 175 213 261 312
#     4   9  18  33  53  80 105 132 172 219 259 305
#     4   9  19  33  51  78 109 131 172 218 259 311
#     4  10  18  32  54  80 103 137 177 216 263 313
#     4  10  20  34  53  80 108 135 174 220 265 309
#     4   9  17  32  58  78 102 139 175 215 263 311
#     4   9  18  33  55  73 102 142 176 208 255 314
#     4   9  19  35  53  74 105 143 173 207 261 316
#
# _framework density 26.451512999999998
#
# number of rings (size 3 to 8) (size 9 to 14) (size 15 to 20)
#    0.000    2.750    1.250    0.000    0.000    2.000 
#    2.250    0.625   24.750    0.000    0.000    0.000 
#    0.000    0.000    0.000    0.000    0.000    0.000 
#
# Total GULP energy -89267.115059 kJ/mol
# GULP energy per Si atom -5579.194691 kJ/mol
# Density = 2.639131 g / cm^3
# Si number density = 26.451513 Si / 1000 Ang^3
#
#
#
# Elastic Constant Matrix: (Units=GPa)
#
#
# Indices 1 2 3 4 5 6 
#
# 1 66.8473 47.2814 3.3701 10.1011 23.3182 -0.2770
# 2 47.2814 368.3776 55.7868 55.5143 39.9219 -41.5792
# 3 3.3701 55.7868 50.2658 20.9234 5.4643 -2.7758
# 4 10.1011 55.5143 20.9234 49.5525 -1.0535 -0.8039
# 5 23.3182 39.9219 5.4643 -1.0535 47.1857 -1.6129
# 6 -0.2770 -41.5792 -2.7758 -0.8039 -1.6129 20.8977
#
#
#
# Elastic Compliance Matrix: (Units=1/GPa)
#
#
# Indices 1 2 3 4 5 6 
#
# 1 0.019716 -0.002035 0.002993 -0.003254 -0.008584 -0.004177
# 2 -0.002035 0.005665 -0.003409 -0.004391 -0.003136 0.010381
# 3 0.002993 -0.003409 0.026938 -0.008267 -0.002023 -0.003640
# 4 -0.003254 -0.004391 -0.008267 0.029262 0.006652 -0.008239
# 5 -0.008584 -0.003136 -0.002023 0.006652 0.028328 -0.004180
# 6 -0.004177 0.010381 -0.003640 -0.008239 -0.004180 0.067329
#
#
# Mechanical properties :
#
#
# Convention : Reuss Voigt Hill
#
# Bulk Modulus (GPa) = 21.08918 77.59635 49.34277
# Shear Modulus (GPa) = 25.25939 48.79733 37.02836
#
# Velocity S-wave (km/s) = 3.09355 4.29975 3.74553
# Velocity P-wave (km/s) = 4.55523 7.35184 6.11554
#
# Compressibility (1/GPa) = 0.04741768
#
# Stress axis : x y z
#
# Youngs Moduli (GPa) = 50.71897 176.50937 37.12296
#
# Poissons Ratio (x) = 0.35916 -0.11112
# Poissons Ratio (y) = 0.10320 0.12656
# Poissons Ratio (z) = -0.15182 0.60178
#
# Static dielectric constant tensor:
#      x y z
#    x 0.612870 -0.484540 0.053970 
#    y -0.484540 2.059070 0.043040 
#    z 0.053970 0.043040 2.040960 
# 
# From -- ./inp_files/200875.got.cif
#   From: 2010.05.17/outbox.cif.g08.bks.cpg/sg2_101_cif.got.tgz:200875.got - 2010.06.03 11:33:40.
