data_PCOD9075168
_publ_section_title
;
Structure prediction by ZEFSAII (Michael W. Deem and Ramdas Pophale) SiO2 
 PCOD9075168
Probable space group: P -1
;
_chemical_formula_sum "Si O2"
_cell_formula_units_Z 14
_cell_length_a 9.000000
_cell_length_b 9.000000
_cell_length_c 12.000000
_cell_angle_alpha 120.000000
_cell_angle_beta 120.000000
_cell_angle_gamma 50.000000
_cell_volume 621.029576
_symmetry_space_group_name_H-M "P -1"
_symmetry_group_IT_number 2
_symmetry_cell_setting 'triclinic'
loop_
_space_group_symop_operation_xyz
x,y,z
-x,-y,-z
loop_
_atom_site_type_symbol
_atom_site_label
_atom_site_fract_x
_atom_site_fract_y
_atom_site_fract_z
Si Si1 0.673130 0.119539 0.611274
Si Si2 0.971849 0.683273 0.635328
Si Si3 0.743145 0.475640 0.802675
Si Si4 0.503755 0.174684 0.807400
Si Si5 0.838058 0.573027 0.084835
Si Si6 0.156627 0.772969 0.941319
Si Si7 0.404656 0.234514 0.334441
O O1 0.730975 0.279707 0.729578
O O2 0.535705 0.141420 0.674536
O O3 0.558217 0.181362 0.474118
O O4 0.857436 0.889977 0.598173
O O5 0.812223 0.694082 0.668400
O O6 0.000000 0.500000 0.500000
O O7 0.133654 0.706942 0.781934
O O8 0.614824 0.599951 0.695012
O O9 0.977675 0.399897 0.851271
O O10 0.688026 0.623801 0.943623
O O11 0.275685 0.325227 0.807217
O O12 0.549092 0.962317 0.790328
O O13 0.633898 0.254590 0.946470
O O14 0.910264 0.343494 0.045752
O O15 0.000000 0.000000 0.000000
#
# Coordination Sequence:
#
# PCOD9075168 Si02
#       7
#     2   2   2   2   2   2   2
#     4  11  24  43  67  96 135 174 225 277 334 397
#     4  11  24  41  69 101 133 175 225 278 338 395
#     4  11  23  44  64  96 135 184 212 275 346 400
#     4  11  23  42  69 100 125 174 231 282 325 393
#     4  11  24  40  69  95 136 166 229 282 335 393
#     4  12  20  41  69  99 129 168 224 280 331 392
#     4  11  24  41  65  94 141 176 220 274 341 397
#
# _framework density 22.543209999999998
#
# number of rings (size 3 to 8) (size 9 to 14) (size 15 to 20)
#    0.000    0.857    5.714    2.571    4.000    1.714 
#    0.000    4.286    0.000    0.000    0.000    0.000 
#    0.000    0.000    0.000    0.000    0.000    0.000 
#
# Total GULP energy -77996.840914 kJ/mol
# GULP energy per Si atom -5571.202922 kJ/mol
# Density = 2.249190 g / cm^3
# Si number density = 22.543210 Si / 1000 Ang^3
#
#
#
# Elastic Constant Matrix: (Units=GPa)
#
#
# Indices 1 2 3 4 5 6 
#
# 1 35.4705 23.0916 -0.7732 9.0098 4.8886 8.8363
# 2 23.0916 80.5920 27.7167 18.9015 -27.3005 15.1322
# 3 -0.7732 27.7167 143.7182 -8.0786 2.6642 0.9969
# 4 9.0098 18.9015 -8.0786 43.3718 8.4895 1.2485
# 5 4.8886 -27.3005 2.6642 8.4895 17.6451 2.6525
# 6 8.8363 15.1322 0.9969 1.2485 2.6525 19.1364
#
#
#
# Elastic Compliance Matrix: (Units=1/GPa)
#
#
# Indices 1 2 3 4 5 6 
#
# 1 0.022127 0.020518 -0.005625 -0.021843 0.041556 -0.030484
# 2 0.020518 -0.035699 0.009862 0.028002 -0.080014 0.027505
# 3 -0.005625 0.009862 0.004365 -0.006054 0.020248 -0.007840
# 4 -0.021843 0.028002 -0.006054 0.004865 0.050821 -0.019103
# 5 0.041556 -0.080014 0.020248 0.050821 -0.114502 0.055583
# 6 -0.030484 0.027505 -0.007840 -0.019103 0.055583 0.038534
#
#
# Mechanical properties :
#
#
# Convention : Reuss Voigt Hill
#
# Bulk Modulus (GPa) = 24.81185 39.98345 32.39765
# Shear Modulus (GPa) = -42.96063 30.01371 -6.47346
#
# Velocity S-wave (km/s) = -4.37017 3.65277 -1.69641
# Velocity P-wave (km/s) = 3.79925 5.96366 3.25046
#
# Compressibility (1/GPa) = 0.04030332
#
# Stress axis : x y z
#
# Youngs Moduli (GPa) = 45.19326 -28.01220 229.11213
#
# Poissons Ratio (x) = 0.57476 1.28869
# Poissons Ratio (y) = -0.92729 -2.25940
# Poissons Ratio (z) = 0.25420 0.27624
#
# Static dielectric constant tensor:
#      x y z
#    x 1.816890 -0.042630 -0.028840 
#    y -0.042630 1.965080 -0.001880 
#    z -0.028840 -0.001880 1.898920 
# 
# From -- ./inp_files/185544.got.cif
#   From: 2010.05.17/outbox.ucp.g08.bks.cvg/sg2_93_cif.got.tgz:185544.got - 2010.06.11 11:32:03.
