data_PCOD9075122
_publ_section_title
;
Structure prediction by ZEFSAII (Michael W. Deem and Ramdas Pophale) SiO2 
 PCOD9075122
Probable space group: P -1
;
_chemical_formula_sum "Si O2"
_cell_formula_units_Z 14
_cell_length_a 12.144031
_cell_length_b 7.207238
_cell_length_c 10.027087
_cell_angle_alpha 110.159471
_cell_angle_beta 127.238625
_cell_angle_gamma 53.160304
_cell_volume 558.947107
_symmetry_space_group_name_H-M "P -1"
_symmetry_group_IT_number 2
_symmetry_cell_setting 'triclinic'
loop_
_space_group_symop_operation_xyz
x,y,z
-x,-y,-z
loop_
_atom_site_type_symbol
_atom_site_label
_atom_site_fract_x
_atom_site_fract_y
_atom_site_fract_z
Si Si1 0.142141 0.494881 0.829036
Si Si2 0.851926 0.458579 0.874691
Si Si3 0.857619 0.443640 0.572735
Si Si4 0.838929 0.015584 0.773529
Si Si5 0.390659 0.854502 0.113605
Si Si6 0.316365 0.638409 0.778894
Si Si7 0.389595 0.045447 0.560784
O O1 0.248863 0.530205 0.810355
O O2 0.047838 0.361706 0.691179
O O3 0.234557 0.420512 0.020036
O O4 0.987531 0.757322 0.798138
O O5 0.790919 0.511980 0.691860
O O6 0.895964 0.196262 0.855394
O O7 0.000000 0.500000 0.000000
O O8 0.804272 0.286755 0.416619
O O9 0.756541 0.687715 0.482493
O O10 0.752146 0.032977 0.854761
O O11 0.704020 0.085332 0.574850
O O12 0.507971 0.585518 0.181995
O O13 0.496274 0.975366 0.238806
O O14 0.333169 0.830169 0.919460
O O15 0.500000 0.000000 0.500000
#
# Coordination Sequence:
#
# PCOD9075122 Si02
#       7
#     2   2   2   2   2   2   2
#     4  10  19  33  59  80 101 140 186 220 254 313
#     4  10  20  33  51  82 112 134 172 224 272 308
#     4   9  19  33  51  83 110 137 171 225 270 306
#     4  10  18  34  58  81 102 139 184 221 255 312
#     4   9  18  31  54  79 105 137 179 216 256 311
#     4  10  18  32  53  81 108 136 177 216 264 319
#     4   8  16  32  53  79 100 136 182 216 248 309
#
# _framework density 25.047091999999999
#
# number of rings (size 3 to 8) (size 9 to 14) (size 15 to 20)
#    0.000    2.571    1.429    0.857    0.000    0.000 
#    0.000    7.143    0.000    0.857    0.000    0.000 
#    0.000    0.000    0.000    0.000    0.000    0.000 
#
# Total GULP energy -78093.254464 kJ/mol
# GULP energy per Si atom -5578.089605 kJ/mol
# Density = 2.499008 g / cm^3
# Si number density = 25.047092 Si / 1000 Ang^3
#
#
#
# Elastic Constant Matrix: (Units=GPa)
#
#
# Indices 1 2 3 4 5 6 
#
# 1 55.6175 8.2671 39.5126 -2.8364 10.3983 -5.4361
# 2 8.2671 44.0590 23.3127 1.6583 19.1746 -2.1525
# 3 39.5126 23.3127 246.5542 30.8401 31.8419 18.5457
# 4 -2.8364 1.6583 30.8401 32.5701 10.1551 1.9006
# 5 10.3983 19.1746 31.8419 10.1551 44.5259 12.6251
# 6 -5.4361 -2.1525 18.5457 1.9006 12.6251 21.0515
#
#
#
# Elastic Compliance Matrix: (Units=1/GPa)
#
#
# Indices 1 2 3 4 5 6 
#
# 1 0.025559 0.003146 -0.005536 0.009552 -0.010416 0.017182
# 2 0.003146 0.032797 -0.003322 0.006654 -0.019086 0.017938
# 3 -0.005536 -0.003322 0.006430 -0.006520 0.001871 -0.007967
# 4 0.009552 0.006654 -0.006520 0.040807 -0.013515 0.013312
# 5 -0.010416 -0.019086 0.001871 -0.013515 0.043728 -0.031294
# 6 0.017182 0.017938 -0.007967 0.013312 -0.031294 0.078359
#
#
# Mechanical properties :
#
#
# Convention : Reuss Voigt Hill
#
# Bulk Modulus (GPa) = 18.73962 54.26838 36.50400
# Shear Modulus (GPa) = 19.46358 37.97206 28.71782
#
# Velocity S-wave (km/s) = 2.79064 3.89784 3.38975
# Velocity P-wave (km/s) = 4.22866 6.47851 5.47050
#
# Compressibility (1/GPa) = 0.05336289
#
# Stress axis : x y z
#
# Youngs Moduli (GPa) = 39.12526 30.49103 155.51136
#
# Poissons Ratio (x) = -0.09592 0.86086
# Poissons Ratio (y) = -0.12309 0.51658
# Poissons Ratio (z) = 0.21658 0.10129
#
# Static dielectric constant tensor:
#      x y z
#    x 2.007150 0.013100 0.015060 
#    y 0.013100 1.977690 0.008170 
#    z 0.015060 0.008170 2.170890 
# 
# From -- ./inp_files/239921.got.cif
#   From: 2010.05.17/outbox.cif.g08.bks.cpg/sg2_120_cif.got.tgz:239921.got - 2010.06.03 11:33:40.
