data_PCOD9075982
_publ_section_title
;
Structure prediction by ZEFSAII (Michael W. Deem and Ramdas Pophale) SiO2 
 PCOD9075982
Probable space group: P -1
;
_chemical_formula_sum "Si O2"
_cell_formula_units_Z 14
_cell_length_a 21.477036
_cell_length_b 8.257477
_cell_length_c 18.913673
_cell_angle_alpha 141.947204
_cell_angle_beta 18.957478
_cell_angle_gamma 137.577378
_cell_volume 671.311456
_symmetry_space_group_name_H-M "P -1"
_symmetry_group_IT_number 2
_symmetry_cell_setting 'triclinic'
loop_
_space_group_symop_operation_xyz
x,y,z
-x,-y,-z
loop_
_atom_site_type_symbol
_atom_site_label
_atom_site_fract_x
_atom_site_fract_y
_atom_site_fract_z
Si Si1 0.053856 0.456472 0.228584
Si Si2 0.320801 0.535610 0.155084
Si Si3 0.012782 0.159800 0.319184
Si Si4 0.289826 0.573248 0.522918
Si Si5 0.604959 0.257937 0.002922
Si Si6 0.028018 0.553420 0.070135
Si Si7 0.206922 0.134189 0.828932
O O1 0.005552 0.316733 0.306230
O O2 0.860457 0.481038 0.398422
O O3 0.172623 0.721923 0.204344
O O4 0.195490 0.265719 0.963593
O O5 0.187459 0.787732 0.407048
O O6 0.178481 0.295857 0.232179
O O7 0.500000 0.500000 0.000000
O O8 0.392152 0.557169 0.005884
O O9 0.062711 0.857637 0.149791
O O10 0.471770 0.385605 0.250065
O O11 0.170748 0.507228 0.697758
O O12 0.340779 0.881682 0.579699
O O13 0.500000 0.000000 0.000000
O O14 0.190737 0.365325 0.867700
O O15 0.000000 0.500000 0.000000
O O16 0.000000 0.000000 0.000000
#
# Coordination Sequence:
#
# PCOD9075982 Si02
#       7
#     2   2   2   2   2   2   2
#     4   9  19  36  56  77 108 140 173 217 262 316
#     4  10  22  36  54  78 109 142 177 219 262 312
#     4  10  19  35  56  79 106 142 176 215 268 307
#     4  10  20  36  57  78 108 142 172 217 268 310
#     4  11  23  36  54  81 106 140 184 216 256 315
#     4  10  18  32  58  83 106 136 176 220 263 317
#     4   8  17  33  54  79 103 137 173 210 265 315
#
# _framework density 20.854700000000001
#
# number of rings (size 3 to 8) (size 9 to 14) (size 15 to 20)
#    0.000    2.571    0.000    4.286    0.000    3.429 
#    0.000    0.000    0.000    7.714    0.000    0.000 
#    0.000    0.000    0.000    0.000    0.000    0.000 
#
# Total GULP energy -78057.631764 kJ/mol
# GULP energy per Si atom -5575.545126 kJ/mol
# Density = 2.080723 g / cm^3
# Si number density = 20.854700 Si / 1000 Ang^3
#
#
#
# Elastic Constant Matrix: (Units=GPa)
#
#
# Indices 1 2 3 4 5 6 
#
# 1 67.3160 -0.4652 10.8557 -15.2923 15.0901 8.6348
# 2 -0.4652 96.3577 13.3981 7.1712 -3.4661 12.1087
# 3 10.8557 13.3981 54.9131 -3.0437 9.1159 -1.6059
# 4 -15.2923 7.1712 -3.0437 26.6671 8.7226 3.3370
# 5 15.0901 -3.4661 9.1159 8.7226 29.8144 -9.3189
# 6 8.6348 12.1087 -1.6059 3.3370 -9.3189 31.2202
#
#
#
# Elastic Compliance Matrix: (Units=1/GPa)
#
#
# Indices 1 2 3 4 5 6 
#
# 1 0.032241 -0.000728 0.000387 0.032176 -0.032759 -0.021832
# 2 -0.000728 0.011724 -0.003601 -0.004655 0.003235 -0.003068
# 3 0.000387 -0.003601 0.020907 0.006779 -0.009350 -0.001150
# 4 0.032176 -0.004655 0.006779 0.078616 -0.051432 -0.030500
# 5 -0.032759 0.003235 -0.009350 -0.051432 0.079862 0.036660
# 6 -0.021832 -0.003068 -0.001150 -0.030500 0.036660 0.053402
#
#
# Mechanical properties :
#
#
# Convention : Reuss Voigt Hill
#
# Bulk Modulus (GPa) = 17.54767 29.57377 23.56072
# Shear Modulus (GPa) = 16.46731 30.52689 23.49710
#
# Velocity S-wave (km/s) = 2.81307 3.83010 3.36028
# Velocity P-wave (km/s) = 4.35702 5.81130 5.13590
#
# Compressibility (1/GPa) = 0.05698764
#
# Stress axis : x y z
#
# Youngs Moduli (GPa) = 31.01612 85.29819 47.83093
#
# Poissons Ratio (x) = 0.06206 -0.01850
# Poissons Ratio (y) = 0.02256 0.17226
# Poissons Ratio (z) = -0.01200 0.30719
#
# Static dielectric constant tensor:
#      x y z
#    x 1.756170 0.019600 -0.028040 
#    y 0.019600 1.802620 0.022440 
#    z -0.028040 0.022440 1.780410 
# 
# From -- ./inp_files/577611.got.cif
#   From: 2010.05.17/outbox.cif.g08.bks.cpg/sg2_289_cif.got.tgz:577611.got - 2010.06.03 11:33:40.
