data_PCOD9076711
_publ_section_title
;
Structure prediction by ZEFSAII (Michael W. Deem and Ramdas Pophale) SiO2 
 PCOD9076711
Probable space group: P -1
;
_chemical_formula_sum "Si O2"
_cell_formula_units_Z 16
_cell_length_a 20.014240
_cell_length_b 18.088425
_cell_length_c 6.803116
_cell_angle_alpha 126.202738
_cell_angle_beta 67.553907
_cell_angle_gamma 157.087119
_cell_volume 662.613986
_symmetry_space_group_name_H-M "P -1"
_symmetry_group_IT_number 2
_symmetry_cell_setting 'triclinic'
loop_
_space_group_symop_operation_xyz
x,y,z
-x,-y,-z
loop_
_atom_site_type_symbol
_atom_site_label
_atom_site_fract_x
_atom_site_fract_y
_atom_site_fract_z
Si Si1 0.218230 0.888529 0.472577
Si Si2 0.373899 0.172946 0.389397
Si Si3 0.350794 0.630727 0.860343
Si Si4 0.030302 0.846195 0.728471
Si Si5 0.019765 0.638150 0.916488
Si Si6 0.774041 0.817751 0.300262
Si Si7 0.293419 0.836252 0.650660
Si Si8 0.165467 0.311336 0.905494
O O1 0.158300 0.905260 0.695880
O O2 0.381533 0.119391 0.494767
O O3 0.037739 0.648686 0.147665
O O4 0.269435 0.868374 0.529784
O O5 0.378270 0.285370 0.607796
O O6 0.521564 0.302426 0.271936
O O7 0.143911 0.878036 0.120314
O O8 0.149425 0.395597 0.593948
O O9 0.299464 0.541720 0.999260
O O10 0.480439 0.876841 0.088612
O O11 0.164590 0.079080 0.826374
O O12 0.930101 0.767987 0.910004
O O13 0.807991 0.378393 0.637689
O O14 0.157066 0.721570 0.792829
O O15 0.979531 0.070611 0.590584
O O16 0.717924 0.646034 0.117718
#
# Coordination Sequence:
#
# PCOD9076711 Si02
#       8
#     2   2   2   2   2   2   2   2
#     4   9  19  33  59  79 103 146 188 213 256 328
#     4   8  18  35  56  77 113 132 179 233 259 308
#     4  10  22  34  51  84 116 138 172 229 275 311
#     4  10  21  36  54  80 114 143 175 223 269 317
#     4   8  18  33  55  84 108 134 186 228 253 312
#     4   9  19  39  56  83 100 143 191 222 252 333
#     4  10  18  33  59  82 105 146 179 218 271 315
#     4  10  21  34  60  76 111 146 177 217 280 318
#
# _framework density 24.146788000000001
#
# number of rings (size 3 to 8) (size 9 to 14) (size 15 to 20)
#    0.750    2.000    0.000    0.750    5.250    0.500 
#    0.000    1.250    0.000    7.500    0.000    0.000 
#    0.000    0.000    0.000    0.000    0.000    0.000 
#
# Total GULP energy -89341.764453 kJ/mol
# GULP energy per Si atom -5583.860278 kJ/mol
# Density = 2.409183 g / cm^3
# Si number density = 24.146788 Si / 1000 Ang^3
#
#
#
# Elastic Constant Matrix: (Units=GPa)
#
#
# Indices 1 2 3 4 5 6 
#
# 1 46.3047 19.8605 10.8381 -12.8288 -7.6074 1.2595
# 2 19.8605 89.6094 35.4385 -20.7868 -8.9636 -1.0106
# 3 10.8381 35.4385 58.1213 -5.9657 -5.5330 -10.7533
# 4 -12.8288 -20.7868 -5.9657 48.6067 3.6406 1.8335
# 5 -7.6074 -8.9636 -5.5330 3.6406 26.3213 -8.0365
# 6 1.2595 -1.0106 -10.7533 1.8335 -8.0365 21.1881
#
#
#
# Elastic Compliance Matrix: (Units=1/GPa)
#
#
# Indices 1 2 3 4 5 6 
#
# 1 0.025644 -0.003285 -0.002078 0.004801 0.004784 -0.001337
# 2 -0.003285 0.017094 -0.009975 0.005323 0.000748 -0.004229
# 3 -0.002078 -0.009975 0.027089 -0.002631 0.007035 0.016292
# 4 0.004801 0.005323 -0.002631 0.024099 -0.001968 -0.004199
# 5 0.004784 0.000748 0.007035 -0.001968 0.048006 0.021700
# 6 -0.001337 -0.004229 0.016292 -0.004199 0.021700 0.063937
#
#
# Mechanical properties :
#
#
# Convention : Reuss Voigt Hill
#
# Bulk Modulus (GPa) = 25.54242 36.25663 30.89952
# Shear Modulus (GPa) = 20.03235 27.74976 23.89106
#
# Velocity S-wave (km/s) = 2.88342 3.39368 3.14890
# Velocity P-wave (km/s) = 4.65686 5.51396 5.10344
#
# Compressibility (1/GPa) = 0.03915056
#
# Stress axis : x y z
#
# Youngs Moduli (GPa) = 38.99607 58.49870 36.91506
#
# Poissons Ratio (x) = 0.19214 0.07672
# Poissons Ratio (y) = 0.12808 0.36825
# Poissons Ratio (z) = 0.08105 0.58355
#
# Static dielectric constant tensor:
#      x y z
#    x 1.942660 0.024870 0.026000 
#    y 0.024870 1.919740 0.046450 
#    z 0.026000 0.046450 1.995960 
# 
# From -- ./inp_files/355117.got.cif
#   From: 2010.05.17/outbox.cif.g08.bks.cpg/sg2_178_cif.got.tgz:355117.got - 2010.06.03 11:33:40.
