data_PCOD9076848
_publ_section_title
;
Structure prediction by ZEFSAII (Michael W. Deem and Ramdas Pophale) SiO2 
 PCOD9076848
Probable space group: P -1
;
_chemical_formula_sum "Si O2"
_cell_formula_units_Z 16
_cell_length_a 11.536830
_cell_length_b 8.014671
_cell_length_c 6.820472
_cell_angle_alpha 106.271234
_cell_angle_beta 82.780991
_cell_angle_gamma 87.222302
_cell_volume 598.266221
_symmetry_space_group_name_H-M "P -1"
_symmetry_group_IT_number 2
_symmetry_cell_setting 'triclinic'
loop_
_space_group_symop_operation_xyz
x,y,z
-x,-y,-z
loop_
_atom_site_type_symbol
_atom_site_label
_atom_site_fract_x
_atom_site_fract_y
_atom_site_fract_z
Si Si1 0.377030 0.499472 0.318408
Si Si2 0.861743 0.850969 0.815791
Si Si3 0.483329 0.123918 0.226117
Si Si4 0.271909 0.139924 0.538597
Si Si5 0.376739 0.450804 0.771074
Si Si6 0.898221 0.479068 0.683386
Si Si7 0.099351 0.853964 0.587553
Si Si8 0.269122 0.803404 0.854581
O O1 0.423989 0.300742 0.199535
O O2 0.379070 0.495093 0.552546
O O3 0.484535 0.597266 0.236786
O O4 0.243182 0.535550 0.302195
O O5 0.797500 0.781351 0.612893
O O6 0.898860 0.666476 0.857450
O O7 0.979362 0.925216 0.736711
O O8 0.782114 0.014666 0.974949
O O9 0.396986 0.071185 0.395873
O O10 0.614590 0.151547 0.273471
O O11 0.500000 0.000000 0.000000
O O12 0.301145 0.285030 0.738749
O O13 0.188081 0.997036 0.573742
O O14 0.314575 0.635103 0.922044
O O15 0.928528 0.268656 0.629838
O O16 0.000000 0.500000 0.500000
O O17 0.169087 0.745831 0.712150
#
# Coordination Sequence:
#
# PCOD9076848 Si02
#       8
#     2   2   2   2   2   2   2   2
#     4   9  15  31  54  80 101 142 196 222 259 333
#     4  11  21  39  61  80 112 155 195 226 270 347
#     4  10  18  33  61  84 107 146 191 233 273 338
#     4  11  21  38  57  85 117 147 186 234 285 333
#     4   9  18  32  58  79 108 148 188 224 271 344
#     4  10  19  35  57  79 108 151 193 225 267 341
#     4  11  24  36  56  87 118 146 186 238 287 323
#     4  11  20  37  60  86 109 144 198 234 274 330
#
# _framework density 26.743949000000001
#
# number of rings (size 3 to 8) (size 9 to 14) (size 15 to 20)
#    0.000    1.750    5.000    1.500    0.000    0.500 
#    0.000    1.875    0.000    1.500    0.000    0.000 
#    0.000    0.000    0.000    0.000    0.000    0.000 
#
# Total GULP energy -89129.291936 kJ/mol
# GULP energy per Si atom -5570.580746 kJ/mol
# Density = 2.668308 g / cm^3
# Si number density = 26.743949 Si / 1000 Ang^3
#
#
#
# Elastic Constant Matrix: (Units=GPa)
#
#
# Indices 1 2 3 4 5 6 
#
# 1 124.9468 35.1998 32.5725 -13.2659 -37.0063 32.8072
# 2 35.1998 125.6611 56.0127 19.2335 -15.6385 54.3373
# 3 32.5725 56.0127 135.9081 29.3138 -37.7798 9.4042
# 4 -13.2659 19.2335 29.3138 45.5059 -0.1170 -0.4273
# 5 -37.0063 -15.6385 -37.7798 -0.1170 49.6018 -7.6146
# 6 32.8072 54.3373 9.4042 -0.4273 -7.6146 44.5802
#
#
#
# Elastic Compliance Matrix: (Units=1/GPa)
#
#
# Indices 1 2 3 4 5 6 
#
# 1 0.013449 0.002096 -0.002256 0.004407 0.007347 -0.010679
# 2 0.002096 0.024310 -0.007737 -0.004963 -0.001251 -0.029803
# 3 -0.002256 -0.007737 0.014014 -0.006306 0.007985 0.009437
# 4 0.004407 -0.004963 -0.006306 0.029452 -0.002395 0.004010
# 5 0.007347 -0.001251 0.007985 -0.002395 0.031286 -0.000245
# 6 -0.010679 -0.029803 0.009437 0.004010 -0.000245 0.064621
#
#
# Mechanical properties :
#
#
# Convention : Reuss Voigt Hill
#
# Bulk Modulus (GPa) = 27.79354 70.45401 49.12377
# Shear Modulus (GPa) = 24.39980 45.45299 34.92640
#
# Velocity S-wave (km/s) = 3.02379 4.12705 3.61772
# Velocity P-wave (km/s) = 4.75458 7.00793 5.98820
#
# Compressibility (1/GPa) = 0.03597959
#
# Stress axis : x y z
#
# Youngs Moduli (GPa) = 74.35483 41.13483 71.35663
#
# Poissons Ratio (x) = -0.08621 0.16100
# Poissons Ratio (y) = -0.15584 0.55205
# Poissons Ratio (z) = 0.16776 0.31824
#
# Static dielectric constant tensor:
#      x y z
#    x 2.198470 -0.077730 0.077820 
#    y -0.077730 2.263520 0.044180 
#    z 0.077820 0.044180 2.220920 
# 
# From -- ./inp_files/279699.got.cif
#   From: 2010.05.17/outbox.cif.g08.bks.cpg/sg2_140_cif.got.tgz:279699.got - 2010.06.03 11:33:40.
