data_PCOD9076246
_publ_section_title
;
Structure prediction by ZEFSAII (Michael W. Deem and Ramdas Pophale) SiO2 
 PCOD9076246
Probable space group: P -1
;
_chemical_formula_sum "Si O2"
_cell_formula_units_Z 12
_cell_length_a 13.988365
_cell_length_b 8.758146
_cell_length_c 8.349428
_cell_angle_alpha 84.346990
_cell_angle_beta 64.729294
_cell_angle_gamma 39.856205
_cell_volume 544.474147
_symmetry_space_group_name_H-M "P -1"
_symmetry_group_IT_number 2
_symmetry_cell_setting 'triclinic'
loop_
_space_group_symop_operation_xyz
x,y,z
-x,-y,-z
loop_
_atom_site_type_symbol
_atom_site_label
_atom_site_fract_x
_atom_site_fract_y
_atom_site_fract_z
Si Si1 0.388228 0.473448 0.390506
Si Si2 0.147707 0.629447 0.017646
Si Si3 0.960237 0.663780 0.371695
Si Si4 0.142765 0.512889 0.686774
Si Si5 0.859182 0.031492 0.642675
Si Si6 0.736995 0.214365 0.221097
O O1 0.292912 0.419696 0.477720
O O2 0.600310 0.240680 0.272338
O O3 0.320685 0.634555 0.587936
O O4 0.320190 0.657955 0.271874
O O5 0.139749 0.531107 0.187183
O O6 0.938244 0.921663 0.127389
O O7 0.187348 0.494490 0.840201
O O8 0.257808 0.657237 0.929647
O O9 0.873626 0.649837 0.307830
O O10 0.846528 0.925949 0.515876
O O11 0.000000 0.500000 0.500000
O O12 0.956986 0.820708 0.736531
O O13 0.000000 0.000000 0.500000
#
# Coordination Sequence:
#
# PCOD9076246 Si02
#       6
#     2   2   2   2   2   2
#     4   9  16  33  51  80 101 138 172 207 254 305
#     4  10  18  33  53  81 102 132 174 216 253 298
#     4  10  19  33  54  76 103 139 171 207 255 313
#     4   9  19  31  54  77 106 134 171 207 258 305
#     4   9  17  31  54  76 100 135 172 208 245 309
#     4   9  18  29  56  78 104 131 174 217 251 293
#
# _framework density 22.039614
#
# number of rings (size 3 to 8) (size 9 to 14) (size 15 to 20)
#    0.000    2.667    1.667    0.500    2.333    0.000 
#    0.000    1.667    3.667    2.000    0.000    0.000 
#    0.000    0.000    0.000    0.000    0.000    0.000 
#
# Total GULP energy -66812.250994 kJ/mol
# GULP energy per Si atom -5567.687583 kJ/mol
# Density = 2.198945 g / cm^3
# Si number density = 22.039614 Si / 1000 Ang^3
#
#
#
# Elastic Constant Matrix: (Units=GPa)
#
#
# Indices 1 2 3 4 5 6 
#
# 1 49.9861 3.6683 11.6058 5.8517 -10.2527 11.8139
# 2 3.6683 40.8446 16.4887 -18.4879 -9.2578 9.0600
# 3 11.6058 16.4887 70.1128 -25.9293 -9.8811 0.4696
# 4 5.8517 -18.4879 -25.9293 31.1581 -0.7990 -3.2765
# 5 -10.2527 -9.2578 -9.8811 -0.7990 30.5416 -0.1335
# 6 11.8139 9.0600 0.4696 -3.2765 -0.1335 30.3626
#
#
#
# Elastic Compliance Matrix: (Units=1/GPa)
#
#
# Indices 1 2 3 4 5 6 
#
# 1 0.027770 -0.001720 -0.008727 -0.014588 0.005544 -0.011706
# 2 -0.001720 0.040024 0.002069 0.025226 0.012846 -0.008527
# 3 -0.008727 0.002069 0.025168 0.024510 0.006503 0.005063
# 4 -0.014588 0.025226 0.024510 0.071099 0.012563 0.005497
# 5 0.005544 0.012846 0.006503 0.012563 0.040910 -0.004556
# 6 -0.011706 -0.008527 0.005063 0.005497 -0.004556 0.040529
#
#
# Mechanical properties :
#
#
# Convention : Reuss Voigt Hill
#
# Bulk Modulus (GPa) = 13.12268 24.94099 19.03184
# Shear Modulus (GPa) = 17.38172 27.02450 22.20311
#
# Velocity S-wave (km/s) = 2.81135 3.50548 3.17743
# Velocity P-wave (km/s) = 4.06268 5.26550 4.70271
#
# Compressibility (1/GPa) = 0.07620392
#
# Stress axis : x y z
#
# Youngs Moduli (GPa) = 36.01042 24.98517 39.73345
#
# Poissons Ratio (x) = 0.04299 0.34676
# Poissons Ratio (y) = 0.06195 -0.08221
# Poissons Ratio (z) = 0.31427 -0.05169
#
# Static dielectric constant tensor:
#      x y z
#    x 1.953380 -0.003210 0.018460 
#    y -0.003210 1.903660 -0.074160 
#    z 0.018460 -0.074160 1.877530 
# 
# From -- ./inp_files/144722.got.cif
#   From: 2010.05.17/outbox.cif.g08.bks.cpg/sg2_73_cif.got.tgz:144722.got - 2010.06.03 11:33:40.
