data_PCOD9076538
_publ_section_title
;
Structure prediction by ZEFSAII (Michael W. Deem and Ramdas Pophale) SiO2 
 PCOD9076538
Probable space group: P -1
;
_chemical_formula_sum "Si O2"
_cell_formula_units_Z 16
_cell_length_a 14.279074
_cell_length_b 10.013257
_cell_length_c 13.567690
_cell_angle_alpha 33.774338
_cell_angle_beta 135.373572
_cell_angle_gamma 138.665309
_cell_volume 691.713673
_symmetry_space_group_name_H-M "P -1"
_symmetry_group_IT_number 2
_symmetry_cell_setting 'triclinic'
loop_
_space_group_symop_operation_xyz
x,y,z
-x,-y,-z
loop_
_atom_site_type_symbol
_atom_site_label
_atom_site_fract_x
_atom_site_fract_y
_atom_site_fract_z
Si Si1 0.835469 0.090744 0.241497
Si Si2 0.139044 0.430251 0.335186
Si Si3 0.685260 0.282764 0.533188
Si Si4 0.594296 0.291235 0.984270
Si Si5 0.332255 0.439353 0.938708
Si Si6 0.716871 0.832495 0.117887
Si Si7 0.350389 0.968559 0.537350
Si Si8 0.373454 0.464612 0.349158
O O1 0.976686 0.339154 0.230475
O O2 0.841538 0.832840 0.453649
O O3 0.828093 0.035696 0.152378
O O4 0.694047 0.132383 0.144855
O O5 0.191806 0.622021 0.350028
O O6 0.253674 0.538634 0.266629
O O7 0.682271 0.543009 0.318247
O O8 0.708001 0.110698 0.568301
O O9 0.526811 0.119037 0.563612
O O10 0.436356 0.137389 0.009045
O O11 0.568228 0.373444 0.805714
O O12 0.673928 0.547575 0.956198
O O13 0.244010 0.198976 0.946762
O O14 0.308732 0.696789 0.730123
O O15 0.500000 0.500000 0.000000
O O16 0.302193 0.164097 0.441821
O O17 0.500000 0.500000 0.500000
#
# Coordination Sequence:
#
# PCOD9076538 Si02
#       8
#     2   2   2   2   2   2   2   2
#     4  10  21  37  61  80 116 153 186 235 283 330
#     4  10  21  39  56  84 115 152 191 229 282 340
#     4   9  17  33  58  82 110 145 190 228 277 336
#     4  11  21  36  56  86 115 144 189 240 279 335
#     4   9  20  33  55  85 115 140 182 237 283 330
#     4   9  17  36  56  87 110 145 191 233 278 331
#     4  10  18  33  57  83 110 148 182 233 286 327
#     4  12  22  36  59  85 115 145 187 235 285 341
#
# _framework density 23.130958
#
# number of rings (size 3 to 8) (size 9 to 14) (size 15 to 20)
#    0.000    2.000    2.500    1.875    1.750    2.500 
#    0.000    1.250    0.000    7.500    0.000    0.000 
#    0.000    0.000    0.000    0.000    0.000    0.000 
#
# Total GULP energy -89465.807025 kJ/mol
# GULP energy per Si atom -5591.612939 kJ/mol
# Density = 2.307831 g / cm^3
# Si number density = 23.130958 Si / 1000 Ang^3
#
#
#
# Elastic Constant Matrix: (Units=GPa)
#
#
# Indices 1 2 3 4 5 6 
#
# 1 44.0199 53.1785 22.6683 12.9060 -10.9276 -24.0126
# 2 53.1785 203.0125 38.0152 28.7563 -3.2658 -37.8752
# 3 22.6683 38.0152 76.6684 -4.1636 3.1200 -4.6563
# 4 12.9060 28.7563 -4.1636 26.4976 -4.1257 -8.4770
# 5 -10.9276 -3.2658 3.1200 -4.1257 22.2334 3.1743
# 6 -24.0126 -37.8752 -4.6563 -8.4770 3.1743 38.9623
#
#
#
# Elastic Compliance Matrix: (Units=1/GPa)
#
#
# Indices 1 2 3 4 5 6 
#
# 1 0.063098 -0.006395 -0.015750 -0.014020 0.026024 0.025618
# 2 -0.006395 0.008340 -0.002262 -0.005854 -0.003097 0.002874
# 3 -0.015750 -0.002262 0.019259 0.009720 -0.007996 -0.006838
# 4 -0.014020 -0.005854 0.009720 0.051956 0.000802 -0.001931
# 5 0.026024 -0.003097 -0.007996 0.000802 0.057504 0.007562
# 6 0.025618 0.002874 -0.006838 -0.001931 0.007562 0.042395
#
#
# Mechanical properties :
#
#
# Convention : Reuss Voigt Hill
#
# Bulk Modulus (GPa) = 23.87516 61.26943 42.57230
# Shear Modulus (GPa) = 16.37583 31.52793 23.95188
#
# Velocity S-wave (km/s) = 2.66364 3.69591 3.22139
# Velocity P-wave (km/s) = 4.45018 6.69019 5.68167
#
# Compressibility (1/GPa) = 0.04188454
#
# Stress axis : x y z
#
# Youngs Moduli (GPa) = 15.84827 119.89991 51.92296
#
# Poissons Ratio (x) = 0.76678 0.81777
# Poissons Ratio (y) = 0.10135 0.11744
# Poissons Ratio (z) = 0.24960 0.27120
#
# Static dielectric constant tensor:
#      x y z
#    x 1.860800 -0.029750 -0.044980 
#    y -0.029750 1.932050 -0.031810 
#    z -0.044980 -0.031810 1.936680 
# 
# From -- ./inp_files/389710.got.cif
#   From: 2010.05.17/outbox.cif.g08.bks.cpg/sg2_195_cif.got.tgz:389710.got - 2010.06.03 11:33:40.
