data_PCOD9076381
_publ_section_title
;
Structure prediction by ZEFSAII (Michael W. Deem and Ramdas Pophale) SiO2 
 PCOD9076381
Probable space group: P -1
;
_chemical_formula_sum "Si O2"
_cell_formula_units_Z 16
_cell_length_a 10.989464
_cell_length_b 16.607664
_cell_length_c 14.939484
_cell_angle_alpha 25.056385
_cell_angle_beta 130.964907
_cell_angle_gamma 141.578227
_cell_volume 702.266291
_symmetry_space_group_name_H-M "P -1"
_symmetry_group_IT_number 2
_symmetry_cell_setting 'triclinic'
loop_
_space_group_symop_operation_xyz
x,y,z
-x,-y,-z
loop_
_atom_site_type_symbol
_atom_site_label
_atom_site_fract_x
_atom_site_fract_y
_atom_site_fract_z
Si Si1 0.596738 0.460946 0.455421
Si Si2 0.941290 0.601199 0.287919
Si Si3 0.247174 0.094571 0.001854
Si Si4 0.830476 0.750056 0.454741
Si Si5 0.621876 0.101025 0.588159
Si Si6 0.206752 0.766426 0.658843
Si Si7 0.048415 0.729227 0.010637
Si Si8 0.529702 0.036867 0.083336
O O1 0.746531 0.607784 0.463399
O O2 0.373128 0.368746 0.467417
O O3 0.566262 0.218890 0.664134
O O4 0.694132 0.645136 0.236466
O O5 0.049724 0.647845 0.195170
O O6 0.000000 0.500000 0.500000
O O7 0.720516 0.371788 0.388099
O O8 0.034220 0.872217 0.085611
O O9 0.409959 0.125959 0.976823
O O10 0.293256 0.009153 0.198838
O O11 0.999548 0.736568 0.593536
O O12 0.927107 0.027470 0.212524
O O13 0.699305 0.113703 0.512758
O O14 0.381879 0.932892 0.645279
O O15 0.148809 0.502761 0.893194
O O16 0.231481 0.793726 0.969965
O O17 0.500000 0.000000 0.000000
#
# Coordination Sequence:
#
# PCOD9076381 Si02
#       8
#     2   2   2   2   2   2   2   2
#     4  10  20  32  55  93 115 136 184 229 288 345
#     4   9  17  32  54  76 107 143 178 231 277 311
#     4  11  19  37  57  82 122 141 175 245 289 316
#     4  10  19  33  58  85 112 143 182 234 277 335
#     4   9  22  38  57  80 109 154 198 228 267 335
#     4  10  20  40  59  76 109 156 196 221 271 333
#     4  10  18  33  55  85 107 140 188 225 275 336
#     4  11  19  31  57  88 112 147 176 221 289 347
#
# _framework density 22.783380999999999
#
# number of rings (size 3 to 8) (size 9 to 14) (size 15 to 20)
#    0.000    2.000    2.500    3.000    1.750    0.000 
#    0.000   13.750    0.000    3.000    0.000    0.000 
#    0.000    0.000    0.000    0.000    0.000    0.000 
#
# Total GULP energy -89314.339542 kJ/mol
# GULP energy per Si atom -5582.146221 kJ/mol
# Density = 2.273152 g / cm^3
# Si number density = 22.783381 Si / 1000 Ang^3
#
#
#
# Elastic Constant Matrix: (Units=GPa)
#
#
# Indices 1 2 3 4 5 6 
#
# 1 42.3140 8.3922 21.6067 -10.4413 -10.1347 5.2924
# 2 8.3922 128.9010 49.7563 -34.7118 2.5175 25.1802
# 3 21.6067 49.7563 163.2422 -39.0934 -14.6062 9.7465
# 4 -10.4413 -34.7118 -39.0934 31.7676 0.1782 -3.1864
# 5 -10.1347 2.5175 -14.6062 0.1782 25.2227 1.8332
# 6 5.2924 25.1802 9.7465 -3.1864 1.8332 23.4334
#
#
#
# Elastic Compliance Matrix: (Units=1/GPa)
#
#
# Indices 1 2 3 4 5 6 
#
# 1 0.030184 0.002837 -0.000495 0.011435 0.012136 -0.009054
# 2 0.002837 0.014447 -0.000337 0.014894 0.000417 -0.014032
# 3 -0.000495 -0.000337 0.009550 0.010946 0.005465 -0.002437
# 4 0.011435 0.014894 0.010946 0.063389 0.010112 -0.015311
# 5 0.012136 0.000417 0.005465 0.010112 0.048145 -0.007854
# 6 -0.009054 -0.014032 -0.002437 -0.015311 -0.007854 0.059343
#
#
# Mechanical properties :
#
#
# Convention : Reuss Voigt Hill
#
# Bulk Modulus (GPa) = 17.18489 54.88531 36.03510
# Shear Modulus (GPa) = 20.79478 33.06486 26.92982
#
# Velocity S-wave (km/s) = 3.02440 3.81369 3.44174
# Velocity P-wave (km/s) = 4.44467 6.59808 5.62538
#
# Compressibility (1/GPa) = 0.05819065
#
# Stress axis : x y z
#
# Youngs Moduli (GPa) = 33.13055 69.21884 104.71187
#
# Poissons Ratio (x) = -0.19637 0.05182
# Poissons Ratio (y) = -0.09399 0.03529
# Poissons Ratio (z) = 0.01639 0.02333
#
# Static dielectric constant tensor:
#      x y z
#    x 1.968810 0.011040 0.024020 
#    y 0.011040 1.866100 -0.003070 
#    z 0.024020 -0.003070 1.863750 
# 
# From -- ./inp_files/574308.got.cif
#   From: 2010.05.17/outbox.cif.g08.bks.cpg/sg2_288_cif.got.tgz:574308.got - 2010.06.03 11:33:40.
