data_PCOD9076684
_publ_section_title
;
Structure prediction by ZEFSAII (Michael W. Deem and Ramdas Pophale) SiO2 
 PCOD9076684
Probable space group: P -1
;
_chemical_formula_sum "Si O2"
_cell_formula_units_Z 13
_cell_length_a 9.615768
_cell_length_b 10.378619
_cell_length_c 9.380579
_cell_angle_alpha 61.797215
_cell_angle_beta 57.438314
_cell_angle_gamma 40.941670
_cell_volume 513.322484
_symmetry_space_group_name_H-M "P -1"
_symmetry_group_IT_number 2
_symmetry_cell_setting 'triclinic'
loop_
_space_group_symop_operation_xyz
x,y,z
-x,-y,-z
loop_
_atom_site_type_symbol
_atom_site_label
_atom_site_fract_x
_atom_site_fract_y
_atom_site_fract_z
Si Si1 0.119514 0.015015 0.594629
Si Si2 0.284903 0.365701 0.271494
Si Si3 0.400782 0.036835 0.213817
Si Si4 0.655049 0.187284 0.841025
Si Si5 0.648761 0.364870 0.188070
Si Si6 0.798902 0.788108 0.338984
Si Si7 0.000000 0.000000 0.000000
O O1 0.212341 0.070086 0.400025
O O2 0.274206 0.780566 0.644263
O O3 0.146428 0.077741 0.706406
O O4 0.859821 0.135095 0.660890
O O5 0.442576 0.405813 0.203283
O O6 0.313703 0.233337 0.456260
O O7 0.031791 0.569184 0.301832
O O8 0.339819 0.242834 0.163171
O O9 0.389386 0.946623 0.126248
O O10 0.634998 0.876983 0.250687
O O11 0.446806 0.421759 0.828406
O O12 0.778442 0.109677 0.964298
O O13 0.866967 0.218010 0.046547
#
# Coordination Sequence:
#
# PCOD9076684 Si02
#       7
#     2   2   2   2   2   2   1
#     4  10  19  35  59  91 125 157 185 225 297 368
#     4  10  19  34  61  86 125 160 187 224 291 362
#     4  11  21  35  57  97 127 147 184 245 289 354
#     4  11  24  39  61  84 118 155 201 248 292 332
#     4  11  20  40  64  84 109 163 200 237 285 353
#     4  10  18  33  58  91 126 160 185 218 292 369
#     4  10  26  44  62  76 112 160 214 244 292 338
#
# _framework density 25.325209000000001
#
# number of rings (size 3 to 8) (size 9 to 14) (size 15 to 20)
#    0.000    1.538    4.615    1.846    0.000    3.077 
#    0.000    0.769    0.000    2.769    0.000    0.000 
#    0.000    0.000    0.000    0.000    0.000    0.000 
#
# Total GULP energy -72629.514195 kJ/mol
# GULP energy per Si atom -5586.885707 kJ/mol
# Density = 2.526757 g / cm^3
# Si number density = 25.325209 Si / 1000 Ang^3
#
#
#
# Elastic Constant Matrix: (Units=GPa)
#
#
# Indices 1 2 3 4 5 6 
#
# 1 104.1218 36.6690 11.6873 0.4213 6.1295 18.0285
# 2 36.6690 155.9102 11.3585 0.8009 -5.8783 1.9077
# 3 11.6873 11.3585 32.4699 -5.6128 -6.8456 10.9661
# 4 0.4213 0.8009 -5.6128 37.1841 5.0300 -8.5714
# 5 6.1295 -5.8783 -6.8456 5.0300 46.7705 8.2727
# 6 18.0285 1.9077 10.9661 -8.5714 8.2727 44.5209
#
#
#
# Elastic Compliance Matrix: (Units=1/GPa)
#
#
# Indices 1 2 3 4 5 6 
#
# 1 0.011535 -0.002534 -0.002425 -0.001165 -0.001364 -0.003936
# 2 -0.002534 0.007161 -0.001788 -0.000289 0.000834 0.000949
# 3 -0.002425 -0.001788 0.037188 0.002720 0.006808 -0.008842
# 4 -0.001165 -0.000289 0.002720 0.029240 -0.003715 0.006134
# 5 -0.001364 0.000834 0.006808 -0.003715 0.024187 -0.006370
# 6 -0.003936 0.000949 -0.008842 0.006134 -0.006370 0.028557
#
#
# Mechanical properties :
#
#
# Convention : Reuss Voigt Hill
#
# Bulk Modulus (GPa) = 23.58994 45.77014 34.68004
# Shear Modulus (GPa) = 30.21288 41.21424 35.71356
#
# Velocity S-wave (km/s) = 3.45772 4.03848 3.75933
# Velocity P-wave (km/s) = 5.02754 6.31332 5.70676
#
# Compressibility (1/GPa) = 0.04239095
#
# Stress axis : x y z
#
# Youngs Moduli (GPa) = 86.69172 139.63770 26.89044
#
# Poissons Ratio (x) = 0.35378 0.06522
# Poissons Ratio (y) = 0.21964 0.04808
# Poissons Ratio (z) = 0.21025 0.24966
#
# Static dielectric constant tensor:
#      x y z
#    x 1.916570 0.073410 0.026350 
#    y 0.073410 1.956840 0.002240 
#    z 0.026350 0.002240 1.821060 
# 
# From -- ./inp_files/170060.got.cif
#   From: 2010.05.17/outbox.cif.g08.bks.cpg/sg2_86_cif.got.tgz:170060.got - 2010.06.03 11:33:40.
