data_PCOD9076715
_publ_section_title
;
Structure prediction by ZEFSAII (Michael W. Deem and Ramdas Pophale) SiO2 
 PCOD9076715
Probable space group: P -1
;
_chemical_formula_sum "Si O2"
_cell_formula_units_Z 14
_cell_length_a 8.441805
_cell_length_b 26.077417
_cell_length_c 9.518648
_cell_angle_alpha 30.286768
_cell_angle_beta 134.147973
_cell_angle_gamma 149.516474
_cell_volume 526.723235
_symmetry_space_group_name_H-M "P -1"
_symmetry_group_IT_number 2
_symmetry_cell_setting 'triclinic'
loop_
_space_group_symop_operation_xyz
x,y,z
-x,-y,-z
loop_
_atom_site_type_symbol
_atom_site_label
_atom_site_fract_x
_atom_site_fract_y
_atom_site_fract_z
Si Si1 0.061121 0.683265 0.320558
Si Si2 0.022772 0.285711 0.286262
Si Si3 0.300946 0.487420 0.251463
Si Si4 0.595674 0.979082 0.825532
Si Si5 0.246968 0.606817 0.186156
Si Si6 0.340430 0.247877 0.351780
Si Si7 0.125405 0.070947 0.128433
O O1 0.355787 0.720355 0.490858
O O2 0.795446 0.621807 0.418547
O O3 0.863178 0.530681 0.475444
O O4 0.244161 0.832459 0.001008
O O5 0.155106 0.371812 0.309525
O O6 0.233013 0.272791 0.367054
O O7 0.679700 0.118300 0.492328
O O8 0.971220 0.370345 0.965979
O O9 0.185606 0.549601 0.122868
O O10 0.578085 0.639228 0.978483
O O11 0.707850 0.935542 0.880953
O O12 0.840716 0.043679 0.951836
O O13 0.601176 0.765633 0.034698
O O14 0.060264 0.075605 0.549040
#
# Coordination Sequence:
#
# PCOD9076715 Si02
#       7
#     2   2   2   2   2   2   2
#     4   9  19  36  56  83 111 154 180 221 285 340
#     4  11  20  34  63  88 107 144 193 237 266 323
#     4  10  20  35  55  86 116 146 186 227 281 331
#     4   9  20  37  58  81 114 148 184 227 282 335
#     4  10  21  36  59  86 111 146 190 229 276 327
#     4  10  18  33  59  83 111 146 190 227 273 330
#     4   9  20  38  57  82 115 150 183 224 287 336
#
# _framework density 26.579425000000001
#
# number of rings (size 3 to 8) (size 9 to 14) (size 15 to 20)
#    0.857    1.429    1.429    3.000    0.000    4.000 
#    0.000    0.714    3.143    0.000    0.000    0.000 
#    0.000    0.000    0.000    0.000    0.000    0.000 
#
# Total GULP energy -78070.926118 kJ/mol
# GULP energy per Si atom -5576.494723 kJ/mol
# Density = 2.651893 g / cm^3
# Si number density = 26.579425 Si / 1000 Ang^3
#
#
#
# Elastic Constant Matrix: (Units=GPa)
#
#
# Indices 1 2 3 4 5 6 
#
# 1 142.6087 31.2454 88.7075 -38.6956 27.5297 7.5803
# 2 31.2454 93.7893 51.8755 -45.2985 -0.7082 12.6824
# 3 88.7075 51.8755 224.4726 -43.1299 0.3099 1.9972
# 4 -38.6956 -45.2985 -43.1299 63.5379 -0.6644 -3.0193
# 5 27.5297 -0.7082 0.3099 -0.6644 67.4197 -6.2093
# 6 7.5803 12.6824 1.9972 -3.0193 -6.2093 30.2675
#
#
#
# Elastic Compliance Matrix: (Units=1/GPa)
#
#
# Indices 1 2 3 4 5 6 
#
# 1 0.011731 0.001173 -0.003884 0.005115 -0.005050 -0.003699
# 2 0.001173 0.018133 -0.002340 0.011725 -0.000782 -0.006728
# 3 -0.003884 -0.002340 0.006621 0.000570 0.001714 0.001925
# 4 0.005115 0.011725 0.000570 0.027392 -0.002059 -0.003922
# 5 -0.005050 -0.000782 0.001714 -0.002059 0.017302 0.004823
# 6 -0.003699 -0.006728 0.001925 -0.003922 0.004823 0.037255
#
#
# Mechanical properties :
#
#
# Convention : Reuss Voigt Hill
#
# Bulk Modulus (GPa) = 37.90541 89.39195 63.64868
# Shear Modulus (GPa) = 36.40844 51.51449 43.96147
#
# Velocity S-wave (km/s) = 3.70509 4.40720 4.07131
# Velocity P-wave (km/s) = 5.70927 7.72029 6.78965
#
# Compressibility (1/GPa) = 0.02638146
#
# Stress axis : x y z
#
# Youngs Moduli (GPa) = 85.24600 55.14857 151.04423
#
# Poissons Ratio (x) = -0.06468 0.58667
# Poissons Ratio (y) = -0.09999 0.35347
# Poissons Ratio (z) = 0.33111 0.12906
#
# Static dielectric constant tensor:
#      x y z
#    x 2.023820 0.026390 -0.031270 
#    y 0.026390 2.266910 0.079300 
#    z -0.031270 0.079300 2.121510 
# 
# From -- ./inp_files/407484.got.cif
#   From: 2010.05.17/outbox.cif.g08.bks.cpg/sg2_204_cif.got.tgz:407484.got - 2010.06.03 11:33:40.
