data_PCOD9076150
_publ_section_title
;
Structure prediction by ZEFSAII (Michael W. Deem and Ramdas Pophale) SiO2 
 PCOD9076150
Probable space group: P -1
;
_chemical_formula_sum "Si O2"
_cell_formula_units_Z 16
_cell_length_a 7.344319
_cell_length_b 16.909003
_cell_length_c 11.525328
_cell_angle_alpha 139.173986
_cell_angle_beta 61.212586
_cell_angle_gamma 127.139331
_cell_volume 745.086034
_symmetry_space_group_name_H-M "P -1"
_symmetry_group_IT_number 2
_symmetry_cell_setting 'triclinic'
loop_
_space_group_symop_operation_xyz
x,y,z
-x,-y,-z
loop_
_atom_site_type_symbol
_atom_site_label
_atom_site_fract_x
_atom_site_fract_y
_atom_site_fract_z
Si Si1 0.818789 0.161638 0.049288
Si Si2 0.862628 0.542998 0.682648
Si Si3 0.655704 0.378773 0.774808
Si Si4 0.104098 0.831964 0.230840
Si Si5 0.328077 0.109284 0.526747
Si Si6 0.227444 0.429875 0.853757
Si Si7 0.608706 0.583996 0.445581
Si Si8 0.661000 0.869039 0.732671
O O1 0.598618 0.158321 0.182112
O O2 0.036064 0.297215 0.165079
O O3 0.792799 0.173955 0.932489
O O4 0.816791 0.015063 0.898782
O O5 0.851225 0.474753 0.734674
O O6 0.610596 0.470416 0.630668
O O7 0.000000 0.500000 0.500000
O O8 0.570578 0.221198 0.615412
O O9 0.427568 0.394064 0.813118
O O10 0.717722 0.433536 0.945419
O O11 0.883382 0.869440 0.325969
O O12 0.000414 0.691314 0.168023
O O13 0.282255 0.956286 0.385684
O O14 0.314696 0.126800 0.410056
O O15 0.222400 0.434737 0.721313
O O16 0.500000 0.500000 0.500000
O O17 0.697889 0.740557 0.618869
#
# Coordination Sequence:
#
# PCOD9076150 Si02
#       8
#     2   2   2   2   2   2   2   2
#     4  10  19  28  51  79 102 125 164 220 260 290
#     4  11  18  31  52  77 100 130 172 211 252 299
#     4   9  15  25  44  70  98 118 156 219 249 279
#     4   9  15  24  44  70  98 122 158 209 257 294
#     4   9  15  25  42  70  99 126 155 204 263 296
#     4   9  16  28  43  68  97 125 162 207 246 290
#     4  11  22  35  50  71 107 144 168 200 254 311
#     4  10  18  33  47  73 107 134 163 205 259 304
#
# _framework density 21.474028000000001
#
# number of rings (size 3 to 8) (size 9 to 14) (size 15 to 20)
#    0.000    2.250    6.250    0.000    1.750    0.000 
#    0.000    0.625    0.000    3.000    0.000    0.000 
#    0.000    8.000    0.000    0.000    0.000    0.000 
#
# Total GULP energy -89091.119495 kJ/mol
# GULP energy per Si atom -5568.194968 kJ/mol
# Density = 2.142515 g / cm^3
# Si number density = 21.474028 Si / 1000 Ang^3
#
#
#
# Elastic Constant Matrix: (Units=GPa)
#
#
# Indices 1 2 3 4 5 6 
#
# 1 22.2013 15.1010 9.9625 5.0459 -3.8231 -9.2775
# 2 15.1010 130.7115 53.6997 8.7747 10.8626 6.3327
# 3 9.9625 53.6997 120.8816 20.4353 15.9812 -0.7740
# 4 5.0459 8.7747 20.4353 46.6519 10.7385 10.3974
# 5 -3.8231 10.8626 15.9812 10.7385 6.7876 -2.9472
# 6 -9.2775 6.3327 -0.7740 10.3974 -2.9472 20.6924
#
#
#
# Elastic Compliance Matrix: (Units=1/GPa)
#
#
# Indices 1 2 3 4 5 6 
#
# 1 -0.025514 0.011395 0.008711 0.043214 -0.146298 -0.057151
# 2 0.011395 0.006296 -0.006211 -0.009789 0.031837 0.012403
# 3 0.008711 -0.006211 0.010633 -0.009657 0.010542 0.012558
# 4 0.043214 -0.009789 -0.009657 -0.005859 0.088308 0.037531
# 5 -0.146298 0.031837 0.010542 0.088308 -0.215702 -0.150037
# 6 -0.057151 0.012403 0.012558 0.037531 -0.150037 -0.020851
#
#
# Mechanical properties :
#
#
# Convention : Reuss Voigt Hill
#
# Bulk Modulus (GPa) = 52.07099 47.92454 49.99777
# Shear Modulus (GPa) = -18.35632 27.82847 4.73608
#
# Velocity S-wave (km/s) = -2.92689 3.60378 1.48670
# Velocity P-wave (km/s) = 3.58869 6.29938 5.12645
#
# Compressibility (1/GPa) = 0.01920455
#
# Stress axis : x y z
#
# Youngs Moduli (GPa) = -39.19377 158.83072 94.04700
#
# Poissons Ratio (x) = -1.80985 -0.81924
# Poissons Ratio (y) = 0.44661 0.58411
# Poissons Ratio (z) = 0.34141 0.98647
#
# Static dielectric constant tensor:
#      x y z
#    x 1.781640 0.007640 -0.049170 
#    y 0.007640 1.861110 -0.032660 
#    z -0.049170 -0.032660 1.867370 
# 
# From -- ./inp_files/302595.got.cif
#   From: 2010.05.17/outbox.cif.g08.bks.cpg/sg2_152_cif.got.tgz:302595.got - 2010.06.03 11:33:40.
