data_PCOD9076836
_publ_section_title
;
Structure prediction by ZEFSAII (Michael W. Deem and Ramdas Pophale) SiO2 
 PCOD9076836
Probable space group: P -1
;
_chemical_formula_sum "Si O2"
_cell_formula_units_Z 16
_cell_length_a 24.048376
_cell_length_b 11.799460
_cell_length_c 9.604905
_cell_angle_alpha 67.676084
_cell_angle_beta 132.647670
_cell_angle_gamma 150.696698
_cell_volume 795.041542
_symmetry_space_group_name_H-M "P -1"
_symmetry_group_IT_number 2
_symmetry_cell_setting 'triclinic'
loop_
_space_group_symop_operation_xyz
x,y,z
-x,-y,-z
loop_
_atom_site_type_symbol
_atom_site_label
_atom_site_fract_x
_atom_site_fract_y
_atom_site_fract_z
Si Si1 0.058661 0.353565 0.923181
Si Si2 0.338308 0.817143 0.527517
Si Si3 0.258916 0.864388 0.108306
Si Si4 0.818135 0.772374 0.224535
Si Si5 0.393214 0.608742 0.698197
Si Si6 0.672530 0.435791 0.865190
Si Si7 0.176216 0.191213 0.271334
Si Si8 0.046885 0.781194 0.874528
O O1 0.116916 0.579816 0.909869
O O2 0.224038 0.518784 0.066396
O O3 0.886614 0.040408 0.707506
O O4 0.015457 0.271987 0.051843
O O5 0.337977 0.882704 0.344875
O O6 0.392501 0.755044 0.638973
O O7 0.136271 0.518135 0.374465
O O8 0.478465 0.100262 0.720179
O O9 0.415782 0.146545 0.150028
O O10 0.163385 0.830384 0.048182
O O11 0.663503 0.531133 0.186789
O O12 0.848563 0.954122 0.138170
O O13 0.774805 0.622348 0.090267
O O14 0.000000 0.000000 0.500000
O O15 0.246682 0.352671 0.456720
O O16 0.679100 0.563997 0.714700
O O17 0.000000 0.000000 0.000000
#
# Coordination Sequence:
#
# PCOD9076836 Si02
#       8
#     2   2   2   2   2   2   2   2
#     4  10  19  36  64  92 122 156 208 263 314 354
#     4  11  20  39  65  97 120 162 216 264 309 361
#     4  11  23  40  64  96 131 166 206 264 321 372
#     4  12  25  42  63  95 131 170 209 256 317 383
#     4  12  23  40  66  94 128 169 213 254 315 379
#     4  11  21  36  66  98 127 154 217 273 301 363
#     4  10  18  33  60  93 121 155 209 264 300 352
#     4  11  24  41  63  93 134 168 205 260 325 376
#
# _framework density 20.124735000000001
#
# number of rings (size 3 to 8) (size 9 to 14) (size 15 to 20)
#    0.000    1.000    5.000    6.375    0.000    1.000 
#    0.000    3.750    0.000    6.750    0.000    0.000 
#    0.000    0.000    0.000    0.000    0.000    0.000 
#
# Total GULP energy -89280.758214 kJ/mol
# GULP energy per Si atom -5580.047388 kJ/mol
# Density = 2.007893 g / cm^3
# Si number density = 20.124735 Si / 1000 Ang^3
#
#
#
# Elastic Constant Matrix: (Units=GPa)
#
#
# Indices 1 2 3 4 5 6 
#
# 1 72.3089 53.9436 26.8056 4.3759 -8.6051 10.2920
# 2 53.9436 133.9923 38.2985 22.1036 -13.8911 -0.9514
# 3 26.8056 38.2985 34.9549 16.0707 -14.1033 -1.5098
# 4 4.3759 22.1036 16.0707 27.8070 -2.8917 -13.4770
# 5 -8.6051 -13.8911 -14.1033 -2.8917 21.3573 3.8978
# 6 10.2920 -0.9514 -1.5098 -13.4770 3.8978 25.7934
#
#
#
# Elastic Compliance Matrix: (Units=1/GPa)
#
#
# Indices 1 2 3 4 5 6 
#
# 1 0.025547 -0.007092 -0.016978 0.007742 -0.003221 -0.006917
# 2 -0.007092 0.013039 -0.005604 -0.006063 0.001167 -0.000362
# 3 -0.016978 -0.005604 0.086872 -0.048313 0.044034 -0.020244
# 4 0.007742 -0.006063 -0.048313 0.085190 -0.028996 0.042752
# 5 -0.003221 0.001167 0.044034 -0.028996 0.075572 -0.022665
# 6 -0.006917 -0.000362 -0.020244 0.042752 -0.022665 0.066094
#
#
# Mechanical properties :
#
#
# Convention : Reuss Voigt Hill
#
# Bulk Modulus (GPa) = 15.12651 53.26126 34.19388
# Shear Modulus (GPa) = 11.52869 23.13878 17.33373
#
# Velocity S-wave (km/s) = 2.39605 3.39450 2.93800
# Velocity P-wave (km/s) = 3.89711 6.47198 5.34200
#
# Compressibility (1/GPa) = 0.06610911
#
# Stress axis : x y z
#
# Youngs Moduli (GPa) = 39.14312 76.69338 11.51116
#
# Poissons Ratio (x) = 0.54394 0.19544
# Poissons Ratio (y) = 0.27762 0.06451
# Poissons Ratio (z) = 0.66458 0.42980
#
# Static dielectric constant tensor:
#      x y z
#    x 1.715320 -0.009990 -0.011710 
#    y -0.009990 1.772030 0.033060 
#    z -0.011710 0.033060 1.737810 
# 
# From -- ./inp_files/353483.got.cif
#   From: 2010.05.17/outbox.cif.g08.bks.cpg/sg2_177_cif.got.tgz:353483.got - 2010.06.03 11:33:40.
