data_PCOD9076262
_publ_section_title
;
Structure prediction by ZEFSAII (Michael W. Deem and Ramdas Pophale) SiO2 
 PCOD9076262
Probable space group: P -1
;
_chemical_formula_sum "Si O2"
_cell_formula_units_Z 14
_cell_length_a 10.649715
_cell_length_b 10.662949
_cell_length_c 12.206752
_cell_angle_alpha 109.652224
_cell_angle_beta 126.233185
_cell_angle_gamma 112.021344
_cell_volume 690.125238
_symmetry_space_group_name_H-M "P -1"
_symmetry_group_IT_number 2
_symmetry_cell_setting 'triclinic'
loop_
_space_group_symop_operation_xyz
x,y,z
-x,-y,-z
loop_
_atom_site_type_symbol
_atom_site_label
_atom_site_fract_x
_atom_site_fract_y
_atom_site_fract_z
Si Si1 0.317349 0.241171 0.947790
Si Si2 0.246691 0.229306 0.165328
Si Si3 0.206877 0.401102 0.767950
Si Si4 0.828405 0.829427 0.511172
Si Si5 0.270302 0.931789 0.498686
Si Si6 0.442156 0.624285 0.434320
Si Si7 0.234260 0.731286 0.225718
O O1 0.263056 0.346548 0.888005
O O2 0.304285 0.253786 0.074418
O O3 0.572052 0.359069 0.067579
O O4 0.102847 0.005907 0.736763
O O5 0.244208 0.383284 0.243991
O O6 0.455427 0.303373 0.370150
O O7 0.000000 0.000000 0.000000
O O8 0.224505 0.314387 0.647883
O O9 0.936121 0.276007 0.600899
O O10 0.659486 0.714936 0.495829
O O11 0.778047 0.943580 0.469554
O O12 0.200438 0.843201 0.311722
O O13 0.555359 0.101602 0.703714
O O14 0.354609 0.706561 0.366351
O O15 0.000000 0.500000 0.000000
#
# Coordination Sequence:
#
# PCOD9076262 Si02
#       7
#     2   2   2   2   2   2   2
#     4  10  19  30  53  82 109 147 174 215 292 324
#     4  11  21  35  56  80 112 150 181 228 274 330
#     4  10  20  32  53  85 119 138 176 232 278 333
#     4  10  18  33  53  84 118 136 177 228 280 331
#     4   9  20  33  51  81 108 146 178 222 280 321
#     4  10  22  35  53  82 113 142 188 229 270 327
#     4  10  22  35  55  77 112 151 187 228 272 324
#
# _framework density 20.286172000000001
#
# number of rings (size 3 to 8) (size 9 to 14) (size 15 to 20)
#    0.000    2.000    2.857    1.714    4.000    3.429 
#    0.000    0.000    0.000    0.857    0.000    6.000 
#    0.000    0.000    0.000    0.000    0.000    0.000 
#
# Total GULP energy -78033.392860 kJ/mol
# GULP energy per Si atom -5573.813776 kJ/mol
# Density = 2.024000 g / cm^3
# Si number density = 20.286172 Si / 1000 Ang^3
#
#
#
# Elastic Constant Matrix: (Units=GPa)
#
#
# Indices 1 2 3 4 5 6 
#
# 1 57.1884 7.6529 26.8371 7.5092 13.8617 23.3554
# 2 7.6529 69.4488 33.1194 1.0850 1.8623 22.2984
# 3 26.8371 33.1194 120.6565 20.4214 2.7273 23.5826
# 4 7.5092 1.0850 20.4214 47.8680 17.2071 2.2337
# 5 13.8617 1.8623 2.7273 17.2071 24.0987 8.2348
# 6 23.3554 22.2984 23.5826 2.2337 8.2348 33.8730
#
#
#
# Elastic Compliance Matrix: (Units=1/GPa)
#
#
# Indices 1 2 3 4 5 6 
#
# 1 0.028460 0.004674 -0.004496 0.002561 -0.012331 -0.016741
# 2 0.004674 0.020249 -0.004101 0.001169 0.000091 -0.013796
# 3 -0.004496 -0.004101 0.012265 -0.007131 0.008051 -0.004226
# 4 0.002561 0.001169 -0.007131 0.032672 -0.026370 0.006685
# 5 -0.012331 0.000091 0.008051 -0.026370 0.070819 -0.012640
# 6 -0.016741 -0.013796 -0.004226 0.006685 -0.012640 0.055721
#
#
# Mechanical properties :
#
#
# Convention : Reuss Voigt Hill
#
# Bulk Modulus (GPa) = 18.82288 42.50138 30.66213
# Shear Modulus (GPa) = 20.34670 33.14689 26.74679
#
# Velocity S-wave (km/s) = 3.17043 4.04662 3.63502
# Velocity P-wave (km/s) = 4.76455 6.54445 5.72411
#
# Compressibility (1/GPa) = 0.05312682
#
# Stress axis : x y z
#
# Youngs Moduli (GPa) = 35.13722 49.38569 81.53527
#
# Poissons Ratio (x) = -0.23081 0.36657
# Poissons Ratio (y) = -0.16422 0.33438
# Poissons Ratio (z) = 0.15797 0.20253
#
# Static dielectric constant tensor:
#      x y z
#    x 1.749130 0.020320 0.047480 
#    y 0.020320 1.753940 0.037760 
#    z 0.047480 0.037760 1.776210 
# 
# From -- ./inp_files/423949.got.cif
#   From: 2010.05.17/outbox.cif.g08.bks.cpg/sg2_212_cif.got.tgz:423949.got - 2010.06.03 11:33:40.
