data_PCOD9076598
_publ_section_title
;
Structure prediction by ZEFSAII (Michael W. Deem and Ramdas Pophale) SiO2 
 PCOD9076598
Probable space group: P -1
;
_chemical_formula_sum "Si O2"
_cell_formula_units_Z 16
_cell_length_a 7.003753
_cell_length_b 12.446621
_cell_length_c 11.349363
_cell_angle_alpha 74.623824
_cell_angle_beta 58.622568
_cell_angle_gamma 53.501539
_cell_volume 677.576444
_symmetry_space_group_name_H-M "P -1"
_symmetry_group_IT_number 2
_symmetry_cell_setting 'triclinic'
loop_
_space_group_symop_operation_xyz
x,y,z
-x,-y,-z
loop_
_atom_site_type_symbol
_atom_site_label
_atom_site_fract_x
_atom_site_fract_y
_atom_site_fract_z
Si Si1 0.042109 0.383196 0.285681
Si Si2 0.670810 0.645792 0.478735
Si Si3 0.881884 0.983531 0.341181
Si Si4 0.416723 0.912479 0.123430
Si Si5 0.468953 0.541234 0.734512
Si Si6 0.168526 0.716279 0.457572
Si Si7 0.460318 0.098006 0.638833
Si Si8 0.694381 0.607829 0.018814
O O1 0.906634 0.512558 0.376489
O O2 0.811608 0.404939 0.259997
O O3 0.072308 0.265403 0.390841
O O4 0.272363 0.372561 0.135333
O O5 0.563399 0.642173 0.645624
O O6 0.410002 0.690446 0.470078
O O7 0.733703 0.756498 0.400919
O O8 0.659312 0.989020 0.328843
O O9 0.088569 0.007496 0.204265
O O10 0.087382 0.832533 0.361267
O O11 0.730535 0.050027 0.492520
O O12 0.509396 0.896766 0.234112
O O13 0.552224 0.758928 0.075277
O O14 0.500000 0.000000 0.000000
O O15 0.694944 0.419738 0.618665
O O16 0.451861 0.468190 0.876999
O O17 0.000000 0.500000 0.000000
#
# Coordination Sequence:
#
# PCOD9076598 Si02
#       8
#     2   2   2   2   2   2   2   2
#     4   8  16  26  54  89 119 151 201 247 304 365
#     4   9  16  32  58  89 114 156 202 257 302 366
#     4  11  24  41  64  89 123 167 208 267 317 361
#     4  12  26  42  67  96 125 172 214 252 316 390
#     4   8  14  27  52  84 115 151 191 247 307 350
#     4   9  15  31  56  82 112 152 200 249 303 356
#     4  11  24  42  63  91 127 158 215 268 310 368
#     4  10  18  33  57  94 125 161 204 253 313 372
#
# _framework density 23.613571
#
# number of rings (size 3 to 8) (size 9 to 14) (size 15 to 20)
#    0.000    2.250    2.500    3.375    1.750    2.500 
#    0.000    2.500    0.000    3.000    0.000    0.000 
#    0.000    0.000    0.000    0.000    0.000    0.000 
#
# Total GULP energy -89152.272925 kJ/mol
# GULP energy per Si atom -5572.017058 kJ/mol
# Density = 2.355983 g / cm^3
# Si number density = 23.613571 Si / 1000 Ang^3
#
#
#
# Elastic Constant Matrix: (Units=GPa)
#
#
# Indices 1 2 3 4 5 6 
#
# 1 74.4604 16.7177 49.0580 -3.0774 -14.1266 -1.0687
# 2 16.7177 40.6732 31.6023 1.5061 -9.0457 1.9534
# 3 49.0580 31.6023 204.4197 -12.6352 -23.4904 22.3871
# 4 -3.0774 1.5061 -12.6352 29.9420 6.7350 -9.2642
# 5 -14.1266 -9.0457 -23.4904 6.7350 26.7559 -0.5758
# 6 -1.0687 1.9534 22.3871 -9.2642 -0.5758 18.2437
#
#
#
# Elastic Compliance Matrix: (Units=1/GPa)
#
#
# Indices 1 2 3 4 5 6 
#
# 1 0.017841 -0.003722 -0.003871 0.001580 0.004519 0.007139
# 2 -0.003722 0.030371 -0.003103 -0.005458 0.006905 -0.002216
# 3 -0.003871 -0.003103 0.007735 -0.000802 0.003692 -0.009677
# 4 0.001580 -0.005458 -0.000802 0.043452 -0.012151 0.023343
# 5 0.004519 0.006905 0.003692 -0.012151 0.048187 -0.009654
# 6 0.007139 -0.002216 -0.009677 0.023343 -0.009654 0.078892
#
#
# Mechanical properties :
#
#
# Convention : Reuss Voigt Hill
#
# Bulk Modulus (GPa) = 28.93930 57.14549 43.04240
# Shear Modulus (GPa) = 19.27603 29.80002 24.53802
#
# Velocity S-wave (km/s) = 2.86022 3.55630 3.22708
# Velocity P-wave (km/s) = 4.81557 6.41216 5.67034
#
# Compressibility (1/GPa) = 0.03455509
#
# Stress axis : x y z
#
# Youngs Moduli (GPa) = 56.05033 32.92577 129.28042
#
# Poissons Ratio (x) = 0.12254 0.50047
# Poissons Ratio (y) = 0.20860 0.40121
# Poissons Ratio (z) = 0.21698 0.10218
#
# Static dielectric constant tensor:
#      x y z
#    x 2.025290 0.023800 -0.062690 
#    y 0.023800 2.083460 -0.079210 
#    z -0.062690 -0.079210 1.944890 
# 
# From -- ./inp_files/395712.got.cif
#   From: 2010.05.17/outbox.cif.g08.bks.cpg/sg2_198_cif.got.tgz:395712.got - 2010.06.03 11:33:40.
