data_PCOD9076270
_publ_section_title
;
Structure prediction by ZEFSAII (Michael W. Deem and Ramdas Pophale) SiO2 
 PCOD9076270
Probable space group: P -1
;
_chemical_formula_sum "Si O2"
_cell_formula_units_Z 14
_cell_length_a 6.612481
_cell_length_b 18.344939
_cell_length_c 14.057772
_cell_angle_alpha 33.123073
_cell_angle_beta 107.544697
_cell_angle_gamma 130.614373
_cell_volume 572.374107
_symmetry_space_group_name_H-M "P -1"
_symmetry_group_IT_number 2
_symmetry_cell_setting 'triclinic'
loop_
_space_group_symop_operation_xyz
x,y,z
-x,-y,-z
loop_
_atom_site_type_symbol
_atom_site_label
_atom_site_fract_x
_atom_site_fract_y
_atom_site_fract_z
Si Si1 0.236059 0.551049 0.078773
Si Si2 0.984629 0.968953 0.672863
Si Si3 0.555649 0.506939 0.318624
Si Si4 0.877817 0.352583 0.862268
Si Si5 0.126656 0.288145 0.211725
Si Si6 0.367125 0.655164 0.342136
Si Si7 0.214716 0.959359 0.900089
O O1 0.317554 0.470491 0.254085
O O2 0.097049 0.594901 0.082498
O O3 0.026905 0.374417 0.160687
O O4 0.588843 0.772045 0.848085
O O5 0.055476 0.867259 0.733947
O O6 0.099946 0.151838 0.430703
O O7 0.144665 0.035375 0.726193
O O8 0.461802 0.384416 0.534976
O O9 0.757307 0.499222 0.287785
O O10 0.863137 0.750881 0.121328
O O11 0.697444 0.375965 0.745312
O O12 0.687127 0.125131 0.053984
O O13 0.500000 0.500000 0.000000
O O14 0.557041 0.875947 0.165928
O O15 0.000000 0.500000 0.500000
#
# Coordination Sequence:
#
# PCOD9076270 Si02
#       7
#     2   2   2   2   2   2   2
#     4  10  18  36  53  82 108 136 178 220 256 315
#     4   9  18  35  57  79 102 143 171 213 275 310
#     4   8  19  33  53  74 108 143 178 214 259 305
#     4   9  20  33  52  78 111 139 180 216 259 305
#     4   9  18  33  61  79 104 137 173 215 267 321
#     4  10  18  33  54  75 105 151 178 213 266 303
#     4   9  18  34  53  74 107 138 179 214 257 316
#
# _framework density 24.459527000000001
#
# number of rings (size 3 to 8) (size 9 to 14) (size 15 to 20)
#    0.857    2.000    0.000    1.286    0.000    0.571 
#    5.143    3.571    0.000    4.286    0.000    0.000 
#    0.000    0.000    0.000    0.000    0.000    0.000 
#
# Total GULP energy -78069.624828 kJ/mol
# GULP energy per Si atom -5576.401773 kJ/mol
# Density = 2.440386 g / cm^3
# Si number density = 24.459527 Si / 1000 Ang^3
#
#
#
# Elastic Constant Matrix: (Units=GPa)
#
#
# Indices 1 2 3 4 5 6 
#
# 1 50.5116 8.5445 11.7381 2.3909 4.4613 -16.8059
# 2 8.5445 160.9420 29.8339 -2.8100 -11.1771 -18.5558
# 3 11.7381 29.8339 96.9342 8.6440 22.2578 -5.6772
# 4 2.3909 -2.8100 8.6440 42.8904 4.3494 7.6540
# 5 4.4613 -11.1771 22.2578 4.3494 20.1363 4.4181
# 6 -16.8059 -18.5558 -5.6772 7.6540 4.4181 39.8147
#
#
#
# Elastic Compliance Matrix: (Units=1/GPa)
#
#
# Indices 1 2 3 4 5 6 
#
# 1 0.024507 -0.000509 -0.000203 -0.002642 -0.007421 0.011410
# 2 -0.000509 0.007856 -0.004277 0.000191 0.008759 0.001828
# 3 -0.000203 -0.004277 0.016900 -0.002072 -0.021239 0.003086
# 4 -0.002642 0.000191 -0.002072 0.025080 -0.001115 -0.006019
# 5 -0.007421 0.008759 -0.021239 -0.001115 0.082298 -0.010996
# 6 0.011410 0.001828 0.003086 -0.006019 -0.010996 0.033602
#
#
# Mechanical properties :
#
#
# Convention : Reuss Voigt Hill
#
# Bulk Modulus (GPa) = 25.45635 45.40231 35.42933
# Shear Modulus (GPa) = 23.43941 37.78638 30.61290
#
# Velocity S-wave (km/s) = 3.09899 3.93473 3.54160
# Velocity P-wave (km/s) = 4.82028 6.26460 5.58929
#
# Compressibility (1/GPa) = 0.03928293
#
# Stress axis : x y z
#
# Youngs Moduli (GPa) = 40.80396 127.29597 59.17294
#
# Poissons Ratio (x) = 0.06485 0.01202
# Poissons Ratio (y) = 0.02079 0.25310
# Poissons Ratio (z) = 0.00829 0.54449
#
# Static dielectric constant tensor:
#      x y z
#    x 2.043990 -0.014290 0.122440 
#    y -0.014290 1.953730 0.045410 
#    z 0.122440 0.045410 1.979440 
# 
# From -- ./inp_files/506617.got.cif
#   From: 2010.05.17/outbox.cif.g08.bks.cpg/sg2_254_cif.got.tgz:506617.got - 2010.06.03 11:33:40.
