data_PCOD9076461
_publ_section_title
;
Structure prediction by ZEFSAII (Michael W. Deem and Ramdas Pophale) SiO2 
 PCOD9076461
Probable space group: P -1
;
_chemical_formula_sum "Si O2"
_cell_formula_units_Z 16
_cell_length_a 8.236581
_cell_length_b 8.400584
_cell_length_c 12.228612
_cell_angle_alpha 119.663856
_cell_angle_beta 85.204988
_cell_angle_gamma 62.216228
_cell_volume 593.629447
_symmetry_space_group_name_H-M "P -1"
_symmetry_group_IT_number 2
_symmetry_cell_setting 'triclinic'
loop_
_space_group_symop_operation_xyz
x,y,z
-x,-y,-z
loop_
_atom_site_type_symbol
_atom_site_label
_atom_site_fract_x
_atom_site_fract_y
_atom_site_fract_z
Si Si1 0.793751 0.199265 0.133665
Si Si2 0.424408 0.888300 0.046772
Si Si3 0.360315 0.858469 0.448924
Si Si4 0.036524 0.369202 0.247537
Si Si5 0.908630 0.002130 0.286183
Si Si6 0.314622 0.549094 0.452165
Si Si7 0.159308 0.499234 0.067971
Si Si8 0.273996 0.235953 0.461330
O O1 0.627424 0.249773 0.074939
O O2 0.847984 0.372050 0.214822
O O3 0.780324 0.094804 0.212375
O O4 0.000000 0.000000 0.000000
O O5 0.613294 0.703388 0.046417
O O6 0.500000 0.000000 0.000000
O O7 0.212474 0.106850 0.178561
O O8 0.342667 0.649834 0.376006
O O9 0.565719 0.790943 0.467917
O O10 0.199558 0.016759 0.608340
O O11 0.309970 0.997386 0.389059
O O12 0.939239 0.563337 0.409832
O O13 0.120724 0.438624 0.169188
O O14 0.101188 0.752728 0.162751
O O15 0.884107 0.230721 0.404687
O O16 0.500000 0.500000 0.500000
O O17 0.321967 0.327963 0.384522
O O18 0.000000 0.500000 0.000000
#
# Coordination Sequence:
#
# PCOD9076461 Si02
#       8
#     2   2   2   2   2   2   2   2
#     4  10  19  32  51  75 102 138 178 215 260 321
#     4   9  20  34  49  73 103 137 181 212 267 327
#     4   8  17  25  45  80 104 137 180 217 263 327
#     4  10  17  32  53  75 101 138 173 214 267 316
#     4  10  17  30  49  75 104 135 177 216 268 318
#     4   8  15  26  44  74 106 132 172 221 259 316
#     4  11  21  35  52  73 104 140 178 226 265 319
#     4  10  14  28  48  74 113 134 175 224 266 313
#
# _framework density 26.952842
#
# number of rings (size 3 to 8) (size 9 to 14) (size 15 to 20)
#    0.750    1.750    2.500    2.250    0.000    0.000 
#    0.000    5.625    0.000    0.000    0.000   13.125 
#    0.000    0.000    0.000    0.000    0.000    0.000 
#
# Total GULP energy -89315.149085 kJ/mol
# GULP energy per Si atom -5582.196818 kJ/mol
# Density = 2.689150 g / cm^3
# Si number density = 26.952842 Si / 1000 Ang^3
#
#
#
# Elastic Constant Matrix: (Units=GPa)
#
#
# Indices 1 2 3 4 5 6 
#
# 1 99.2906 46.2574 21.7873 9.5577 3.8905 -20.3760
# 2 46.2574 156.9574 27.1674 24.8919 5.9254 33.0137
# 3 21.7873 27.1674 112.2518 21.1377 -3.2438 1.4847
# 4 9.5577 24.8919 21.1377 39.8107 2.7018 -4.7201
# 5 3.8905 5.9254 -3.2438 2.7018 39.5431 5.8491
# 6 -20.3760 33.0137 1.4847 -4.7201 5.8491 46.6989
#
#
#
# Elastic Compliance Matrix: (Units=1/GPa)
#
#
# Indices 1 2 3 4 5 6 
#
# 1 0.016922 -0.008040 -0.002378 0.004082 -0.002995 0.013931
# 2 -0.008040 0.012733 0.000170 -0.007817 0.001426 -0.013484
# 3 -0.002378 0.000170 0.010440 -0.005467 0.001773 -0.002265
# 4 0.004082 -0.007817 -0.005467 0.033520 -0.003644 0.011326
# 5 -0.002995 0.001426 0.001773 -0.003644 0.026664 -0.006079
# 6 0.013931 -0.013484 -0.002265 0.011326 -0.006079 0.039003
#
#
# Mechanical properties :
#
#
# Convention : Reuss Voigt Hill
#
# Bulk Modulus (GPa) = 51.02157 62.10266 56.56211
# Shear Modulus (GPa) = 30.06438 43.42971 36.74705
#
# Velocity S-wave (km/s) = 3.34345 4.01848 3.69641
# Velocity P-wave (km/s) = 5.82030 6.67998 6.26491
#
# Compressibility (1/GPa) = 0.01959955
#
# Stress axis : x y z
#
# Youngs Moduli (GPa) = 59.09409 78.53466 95.78888
#
# Poissons Ratio (x) = 0.63142 0.22779
# Poissons Ratio (y) = 0.47512 -0.01632
# Poissons Ratio (z) = 0.14053 -0.01338
#
# Static dielectric constant tensor:
#      x y z
#    x 2.180940 0.019790 -0.000630 
#    y 0.019790 2.148170 0.031920 
#    z -0.000630 0.031920 2.075350 
# 
# From -- ./inp_files/586822.got.cif
#   From: 2010.05.17/outbox.cif.g08.bks.cpg/sg2_294_cif.got.tgz:586822.got - 2010.06.03 11:33:40.
