data_PCOD9076230
_publ_section_title
;
Structure prediction by ZEFSAII (Michael W. Deem and Ramdas Pophale) SiO2 
 PCOD9076230
Probable space group: P -1
;
_chemical_formula_sum "Si O2"
_cell_formula_units_Z 16
_cell_length_a 8.552432
_cell_length_b 13.395976
_cell_length_c 14.961989
_cell_angle_alpha 56.565487
_cell_angle_beta 134.996436
_cell_angle_gamma 136.593931
_cell_volume 830.505886
_symmetry_space_group_name_H-M "P -1"
_symmetry_group_IT_number 2
_symmetry_cell_setting 'triclinic'
loop_
_space_group_symop_operation_xyz
x,y,z
-x,-y,-z
loop_
_atom_site_type_symbol
_atom_site_label
_atom_site_fract_x
_atom_site_fract_y
_atom_site_fract_z
Si Si1 0.675254 0.788543 0.017878
Si Si2 0.653034 0.519777 0.188796
Si Si3 0.516997 0.144363 0.408909
Si Si4 0.028683 0.591959 0.843417
Si Si5 0.045189 0.337170 0.025977
Si Si6 0.009524 0.397253 0.371489
Si Si7 0.310968 0.573076 0.564274
Si Si8 0.035524 0.073280 0.118883
O O1 0.767715 0.682672 0.128930
O O2 0.353877 0.689919 0.930444
O O3 0.794338 0.869282 0.932598
O O4 0.794280 0.907478 0.085592
O O5 0.354324 0.416506 0.079082
O O6 0.845662 0.472594 0.259872
O O7 0.609914 0.491707 0.291969
O O8 0.787813 0.247329 0.407127
O O9 0.547375 0.254802 0.445449
O O10 0.250710 0.100497 0.267518
O O11 0.500000 0.000000 0.500000
O O12 0.936569 0.622648 0.698690
O O13 0.949804 0.634720 0.880508
O O14 0.931619 0.423691 0.894677
O O15 0.918826 0.169679 0.040484
O O16 0.273082 0.504292 0.485404
O O17 0.000000 0.500000 0.500000
#
# Coordination Sequence:
#
# PCOD9076230 Si02
#       8
#     2   2   2   2   2   2   2   2
#     4  10  21  31  51  79 104 129 168 210 253 306
#     4   9  16  33  53  74 103 125 169 210 253 300
#     4  10  19  31  52  76 106 129 165 207 255 298
#     4  10  20  35  52  76 102 136 171 208 252 298
#     4  10  19  34  55  73 103 136 168 208 258 300
#     4  10  18  33  53  76 100 134 167 214 249 295
#     4   8  17  30  49  76  95 129 163 207 252 292
#     4  11  20  33  51  79 103 135 164 209 258 299
#
# _framework density 19.265364999999999
#
# number of rings (size 3 to 8) (size 9 to 14) (size 15 to 20)
#    0.000    2.500    3.750    0.750    5.250    2.500 
#    0.000    0.625    0.000    0.750    0.000    0.000 
#    0.000    0.000    0.000    0.000    0.000    0.000 
#
# Total GULP energy -89137.273889 kJ/mol
# GULP energy per Si atom -5571.079618 kJ/mol
# Density = 1.922152 g / cm^3
# Si number density = 19.265365 Si / 1000 Ang^3
#
#
#
# Elastic Constant Matrix: (Units=GPa)
#
#
# Indices 1 2 3 4 5 6 
#
# 1 35.4110 -0.0505 14.0692 1.7312 -13.1801 -3.3816
# 2 -0.0505 133.8271 52.8574 -2.7564 -9.5332 -11.7342
# 3 14.0692 52.8574 59.0037 6.3754 -12.9175 0.4673
# 4 1.7312 -2.7564 6.3754 24.9955 -1.0811 -5.6588
# 5 -13.1801 -9.5332 -12.9175 -1.0811 26.7519 3.4200
# 6 -3.3816 -11.7342 0.4673 -5.6588 3.4200 12.6980
#
#
#
# Elastic Compliance Matrix: (Units=1/GPa)
#
#
# Indices 1 2 3 4 5 6 
#
# 1 0.041199 0.009174 -0.015999 0.007267 0.013629 0.019606
# 2 0.009174 0.017672 -0.019850 0.012033 -0.001512 0.025274
# 3 -0.015999 -0.019850 0.043053 -0.019695 0.009581 -0.035546
# 4 0.007267 0.012033 -0.019695 0.054557 -0.004460 0.039294
# 5 0.013629 -0.001512 0.009581 -0.004460 0.049728 -0.013502
# 6 0.019606 0.025274 -0.035546 0.039294 -0.013502 0.129785
#
#
# Mechanical properties :
#
#
# Convention : Reuss Voigt Hill
#
# Bulk Modulus (GPa) = 20.58718 40.22155 30.40437
# Shear Modulus (GPa) = 12.32933 23.64681 17.98807
#
# Velocity S-wave (km/s) = 2.53252 3.50726 3.05897
# Velocity P-wave (km/s) = 4.38872 6.10935 5.31907
#
# Compressibility (1/GPa) = 0.04857391
#
# Stress axis : x y z
#
# Youngs Moduli (GPa) = 24.27217 56.58585 23.22732
#
# Poissons Ratio (x) = -0.51914 0.37162
# Poissons Ratio (y) = -0.22268 0.46107
# Poissons Ratio (z) = 0.38834 1.12325
#
# Static dielectric constant tensor:
#      x y z
#    x 1.710150 -0.029770 -0.029940 
#    y -0.029770 1.706570 0.022440 
#    z -0.029940 0.022440 1.735100 
# 
# From -- ./inp_files/196215.got.cif
#   From: 2010.05.17/outbox.cif.g08.bks.cpg/sg2_99_cif.got.tgz:196215.got - 2010.06.03 11:33:40.
