data_PCOD9076885
_publ_section_title
;
Structure prediction by ZEFSAII (Michael W. Deem and Ramdas Pophale) SiO2 
 PCOD9076885
Probable space group: P -1
;
_chemical_formula_sum "Si O2"
_cell_formula_units_Z 16
_cell_length_a 11.278910
_cell_length_b 9.708034
_cell_length_c 10.161839
_cell_angle_alpha 71.939311
_cell_angle_beta 129.503347
_cell_angle_gamma 118.259016
_cell_volume 756.143795
_symmetry_space_group_name_H-M "P -1"
_symmetry_group_IT_number 2
_symmetry_cell_setting 'triclinic'
loop_
_space_group_symop_operation_xyz
x,y,z
-x,-y,-z
loop_
_atom_site_type_symbol
_atom_site_label
_atom_site_fract_x
_atom_site_fract_y
_atom_site_fract_z
Si Si1 0.635352 0.629339 0.647647
Si Si2 0.007390 0.833988 0.187339
Si Si3 0.858366 0.737481 0.524416
Si Si4 0.598374 0.032251 0.923108
Si Si5 0.123451 0.034170 0.718067
Si Si6 0.699562 0.887384 0.814623
Si Si7 0.967837 0.483001 0.751448
Si Si8 0.248576 0.622025 0.105368
O O1 0.500000 0.500000 0.500000
O O2 0.778312 0.719953 0.617262
O O3 0.605649 0.761612 0.673307
O O4 0.687284 0.518681 0.814704
O O5 0.999990 0.915586 0.295127
O O6 0.001362 0.659863 0.250227
O O7 0.840680 0.828954 0.994142
O O8 0.176910 0.943815 0.203110
O O9 0.769465 0.807539 0.333109
O O10 0.885759 0.576632 0.574392
O O11 0.032694 0.883788 0.609107
O O12 0.567178 0.913464 0.813536
O O13 0.617359 0.204317 0.841753
O O14 0.774297 0.027361 0.091367
O O15 0.500000 0.000000 0.000000
O O16 0.854305 0.411319 0.821194
O O17 0.132401 0.605260 0.901491
#
# Coordination Sequence:
#
# PCOD9076885 Si02
#       8
#     2   2   2   2   2   2   2   2
#     4  11  23  39  63  86 124 167 197 249 303 361
#     4  10  18  33  64  93 117 145 204 266 292 345
#     4  10  21  37  58  88 122 159 197 238 311 361
#     4  11  23  39  63  87 122 164 198 250 303 360
#     4  10  21  37  60  89 120 156 198 247 306 359
#     4  10  20  37  60  95 117 153 211 246 299 360
#     4  10  18  33  62  90 117 146 198 263 293 342
#     4  10  20  35  58  91 113 154 206 245 300 352
#
# _framework density 21.159994999999999
#
# number of rings (size 3 to 8) (size 9 to 14) (size 15 to 20)
#    0.000    1.750    5.000    0.000    1.750    0.500 
#    0.000    2.500   11.000    0.000    0.000    0.000 
#    0.000    0.000    0.000    0.000    0.000    0.000 
#
# Total GULP energy -89081.302576 kJ/mol
# GULP energy per Si atom -5567.581411 kJ/mol
# Density = 2.111183 g / cm^3
# Si number density = 21.159995 Si / 1000 Ang^3
#
#
#
# Elastic Constant Matrix: (Units=GPa)
#
#
# Indices 1 2 3 4 5 6 
#
# 1 82.1922 38.3600 -5.5015 2.5671 -10.8269 -18.9363
# 2 38.3600 124.1153 15.6206 -11.0949 -8.1754 -19.9120
# 3 -5.5015 15.6206 24.2770 -0.7025 -12.3949 4.0736
# 4 2.5671 -11.0949 -0.7025 35.0526 1.2290 -7.6754
# 5 -10.8269 -8.1754 -12.3949 1.2290 14.4001 -1.2821
# 6 -18.9363 -19.9120 4.0736 -7.6754 -1.2821 24.9118
#
#
#
# Elastic Compliance Matrix: (Units=1/GPa)
#
#
# Indices 1 2 3 4 5 6 
#
# 1 0.025843 -0.007829 0.031086 -0.003163 0.042861 0.009534
# 2 -0.007829 0.014364 -0.020045 0.007503 -0.014703 0.010363
# 3 0.031086 -0.020045 0.122548 -0.012532 0.117633 -0.010239
# 4 -0.003163 0.007503 -0.012532 0.034710 -0.010461 0.015798
# 5 0.042861 -0.014703 0.117633 -0.010461 0.196222 0.008468
# 6 0.009534 0.010363 -0.010239 0.015798 0.008468 0.062649
#
#
# Mechanical properties :
#
#
# Convention : Reuss Voigt Hill
#
# Bulk Modulus (GPa) = 5.91096 36.39365 21.15231
# Shear Modulus (GPa) = 9.87545 27.01326 18.44435
#
# Velocity S-wave (km/s) = 2.16268 3.57686 2.95559
# Velocity P-wave (km/s) = 3.00595 5.85621 4.65462
#
# Compressibility (1/GPa) = 0.16917733
#
# Stress axis : x y z
#
# Youngs Moduli (GPa) = 38.69559 69.61652 8.16007
#
# Poissons Ratio (x) = 0.54506 -0.25366
# Poissons Ratio (y) = 0.30296 0.16357
# Poissons Ratio (z) = -1.20289 1.39550
#
# Static dielectric constant tensor:
#      x y z
#    x 1.821410 -0.008360 -0.001020 
#    y -0.008360 1.813070 -0.033590 
#    z -0.001020 -0.033590 1.929600 
# 
# From -- ./inp_files/259691.got.cif
#   From: 2010.05.17/outbox.cif.g08.bks.cpg/sg2_130_cif.got.tgz:259691.got - 2010.06.03 11:33:40.
