data_PCOD9076647
_publ_section_title
;
Structure prediction by ZEFSAII (Michael W. Deem and Ramdas Pophale) SiO2 
 PCOD9076647
Probable space group: P -1
;
_chemical_formula_sum "Si O2"
_cell_formula_units_Z 16
_cell_length_a 10.256142
_cell_length_b 16.035318
_cell_length_c 17.072866
_cell_angle_alpha 143.687913
_cell_angle_beta 30.738657
_cell_angle_gamma 134.393843
_cell_volume 849.637267
_symmetry_space_group_name_H-M "P -1"
_symmetry_group_IT_number 2
_symmetry_cell_setting 'triclinic'
loop_
_space_group_symop_operation_xyz
x,y,z
-x,-y,-z
loop_
_atom_site_type_symbol
_atom_site_label
_atom_site_fract_x
_atom_site_fract_y
_atom_site_fract_z
Si Si1 0.598575 0.632998 0.292714
Si Si2 0.727651 0.538047 0.319506
Si Si3 0.191260 0.382451 0.496898
Si Si4 0.970122 0.251915 0.950147
Si Si5 0.162119 0.805957 0.734554
Si Si6 0.829255 0.539304 0.692932
Si Si7 0.542096 0.858602 0.919933
Si Si8 0.113773 0.956456 0.023163
O O1 0.760732 0.584727 0.247903
O O2 0.378924 0.727721 0.515695
O O3 0.453626 0.505958 0.223808
O O4 0.774201 0.719894 0.208014
O O5 0.425883 0.495748 0.449011
O O6 0.808335 0.639490 0.426290
O O7 0.884834 0.396433 0.144273
O O8 0.277113 0.246786 0.300739
O O9 0.937825 0.445852 0.637671
O O10 0.975507 0.128813 0.918557
O O11 0.732790 0.215844 0.987463
O O12 0.914106 0.700418 0.786924
O O13 0.227781 0.845760 0.819870
O O14 0.109063 0.954931 0.833708
O O15 0.000000 0.500000 0.500000
O O16 0.680321 0.920837 0.970749
O O17 0.500000 0.000000 0.000000
#
# Coordination Sequence:
#
# PCOD9076647 Si02
#       8
#     2   2   2   2   2   2   2   2
#     4  11  22  36  60  86 120 149 180 239 301 338
#     4  10  20  33  58  84 117 143 186 242 289 332
#     4  10  18  33  58  86 106 147 198 239 273 330
#     4  10  22  37  56  85 118 151 182 233 293 348
#     4  10  21  36  61  84 112 149 196 242 269 334
#     4  10  18  34  58  86 110 144 194 233 281 338
#     4   9  19  33  58  79 109 149 193 228 270 338
#     4  10  21  39  59  82 110 154 201 231 273 332
#
# _framework density 18.831565999999999
#
# number of rings (size 3 to 8) (size 9 to 14) (size 15 to 20)
#    0.000    2.000    2.500    2.625    7.000    0.500 
#    0.000    3.125    2.750    0.000    0.000    0.000 
#    0.000    0.000    0.000    0.000    0.000    0.000 
#
# Total GULP energy -89134.885728 kJ/mol
# GULP energy per Si atom -5570.930358 kJ/mol
# Density = 1.878870 g / cm^3
# Si number density = 18.831566 Si / 1000 Ang^3
#
#
#
# Elastic Constant Matrix: (Units=GPa)
#
#
# Indices 1 2 3 4 5 6 
#
# 1 99.0287 38.5334 27.3132 1.5183 18.9563 -2.5739
# 2 38.5334 84.8637 41.2776 -5.4255 9.2833 4.3175
# 3 27.3132 41.2776 60.3942 9.1559 11.0938 8.9206
# 4 1.5183 -5.4255 9.1559 27.5447 -1.2389 1.2022
# 5 18.9563 9.2833 11.0938 -1.2389 28.6986 17.6733
# 6 -2.5739 4.3175 8.9206 1.2022 17.6733 29.5829
#
#
#
# Elastic Compliance Matrix: (Units=1/GPa)
#
#
# Indices 1 2 3 4 5 6 
#
# 1 0.016181 -0.005312 -0.002237 -0.002451 -0.015871 0.012439
# 2 -0.005312 0.021278 -0.013939 0.009360 0.003577 -0.001882
# 3 -0.002237 -0.013939 0.030334 -0.012645 -0.003325 -0.004808
# 4 -0.002451 0.009360 -0.012645 0.043032 0.007971 -0.004277
# 5 -0.015871 0.003577 -0.003325 0.007971 0.073651 -0.045224
# 6 0.012439 -0.001882 -0.004808 -0.004277 -0.045224 0.063802
#
#
# Mechanical properties :
#
#
# Convention : Reuss Voigt Hill
#
# Bulk Modulus (GPa) = 40.29543 50.94833 45.62188
# Shear Modulus (GPa) = 16.69292 26.30939 21.50115
#
# Velocity S-wave (km/s) = 2.98053 3.74182 3.38266
# Velocity P-wave (km/s) = 5.76966 6.76622 6.28772
#
# Compressibility (1/GPa) = 0.02481671
#
# Stress axis : x y z
#
# Youngs Moduli (GPa) = 61.79979 46.99586 32.96588
#
# Poissons Ratio (x) = 0.24966 0.07376
# Poissons Ratio (y) = 0.32831 0.45951
# Poissons Ratio (z) = 0.13827 0.65507
#
# Static dielectric constant tensor:
#      x y z
#    x 1.776320 0.004590 -0.000560 
#    y 0.004590 1.644450 0.022140 
#    z -0.000560 0.022140 1.649370 
# 
# From -- ./inp_files/504334.got.cif
#   From: 2010.05.17/outbox.cif.g08.bks.cpg/sg2_253_cif.got.tgz:504334.got - 2010.06.03 11:33:40.
