data_PCOD9076416
_publ_section_title
;
Structure prediction by ZEFSAII (Michael W. Deem and Ramdas Pophale) SiO2 
 PCOD9076416
Probable space group: P -1
;
_chemical_formula_sum "Si O2"
_cell_formula_units_Z 16
_cell_length_a 7.594144
_cell_length_b 19.723144
_cell_length_c 19.360444
_cell_angle_alpha 157.914180
_cell_angle_beta 49.481237
_cell_angle_gamma 139.921108
_cell_volume 680.592173
_symmetry_space_group_name_H-M "P -1"
_symmetry_group_IT_number 2
_symmetry_cell_setting 'triclinic'
loop_
_space_group_symop_operation_xyz
x,y,z
-x,-y,-z
loop_
_atom_site_type_symbol
_atom_site_label
_atom_site_fract_x
_atom_site_fract_y
_atom_site_fract_z
Si Si1 0.971509 0.732163 0.109647
Si Si2 0.587030 0.526888 0.818158
Si Si3 0.221347 0.775140 0.949064
Si Si4 0.328744 0.150997 0.186594
Si Si5 0.052239 0.288748 0.218159
Si Si6 0.590277 0.940658 0.585467
Si Si7 0.510470 0.258588 0.833452
Si Si8 0.019528 0.686590 0.579980
O O1 0.770387 0.794631 0.184090
O O2 0.133424 0.879449 0.273307
O O3 0.770383 0.473865 0.933777
O O4 0.201478 0.770810 0.031537
O O5 0.639704 0.579117 0.772372
O O6 0.898500 0.622873 0.861362
O O7 0.406040 0.267806 0.632747
O O8 0.490578 0.655976 0.008010
O O9 0.409641 0.712720 0.803189
O O10 0.358700 0.024056 0.122241
O O11 0.197207 0.275229 0.365066
O O12 0.108041 0.940573 0.996818
O O13 0.946680 0.443937 0.373574
O O14 0.005831 0.257806 0.281913
O O15 0.539530 0.058524 0.647432
O O16 0.320328 0.836721 0.607957
#
# Coordination Sequence:
#
# PCOD9076416 Si02
#       8
#     2   2   2   2   2   2   2   2
#     4  10  21  39  62  86 114 149 192 239 284 340
#     4   9  20  38  56  82 118 149 189 241 283 335
#     4   9  19  36  55  83 116 147 189 237 278 332
#     4  10  18  33  56  75 110 157 184 219 283 338
#     4   9  18  31  48  78 110 140 185 232 269 328
#     4  11  21  38  62  85 115 153 190 234 289 339
#     4  10  22  42  61  82 116 151 189 239 290 337
#     4  10  19  31  51  81 113 146 186 230 278 334
#
# _framework density 23.508939000000002
#
# number of rings (size 3 to 8) (size 9 to 14) (size 15 to 20)
#    0.000    2.250    0.000    3.750    0.000    1.500 
#    0.000   24.375    0.000    0.000    0.000    0.000 
#    0.000    0.000    0.000    0.000    0.000    0.000 
#
# Total GULP energy -89379.750443 kJ/mol
# GULP energy per Si atom -5586.234403 kJ/mol
# Density = 2.345543 g / cm^3
# Si number density = 23.508939 Si / 1000 Ang^3
#
#
#
# Elastic Constant Matrix: (Units=GPa)
#
#
# Indices 1 2 3 4 5 6 
#
# 1 51.5406 10.9790 27.4711 14.5359 -7.6578 -1.0055
# 2 10.9790 85.7166 9.4205 2.7335 -2.9191 4.0810
# 3 27.4711 9.4205 79.6677 18.1781 -14.0497 7.2819
# 4 14.5359 2.7335 18.1781 29.0956 4.8480 -2.3346
# 5 -7.6578 -2.9191 -14.0497 4.8480 22.0408 -0.4773
# 6 -1.0055 4.0810 7.2819 -2.3346 -0.4773 27.0751
#
#
#
# Elastic Compliance Matrix: (Units=1/GPa)
#
#
# Indices 1 2 3 4 5 6 
#
# 1 0.027147 -0.002352 -0.005206 -0.011322 0.008334 0.001934
# 2 -0.002352 0.012110 -0.000380 0.000048 0.000495 -0.001798
# 3 -0.005206 -0.000380 0.020370 -0.012914 0.013825 -0.006484
# 4 -0.011322 0.000048 -0.012914 0.052592 -0.023572 0.007165
# 5 0.008334 0.000495 0.013825 -0.023572 0.062233 -0.004419
# 6 0.001934 -0.001798 -0.006484 0.007165 -0.004419 0.039561
#
#
# Mechanical properties :
#
#
# Convention : Reuss Voigt Hill
#
# Bulk Modulus (GPa) = 22.85743 34.74066 28.79904
# Shear Modulus (GPa) = 20.45197 26.91257 23.68227
#
# Velocity S-wave (km/s) = 2.95272 3.38713 3.17736
# Velocity P-wave (km/s) = 4.62263 5.48695 5.07323
#
# Compressibility (1/GPa) = 0.04374945
#
# Stress axis : x y z
#
# Youngs Moduli (GPa) = 36.83589 82.57418 49.09228
#
# Poissons Ratio (x) = 0.19423 0.25559
# Poissons Ratio (y) = 0.08664 0.01868
# Poissons Ratio (z) = 0.19178 0.03142
#
# Static dielectric constant tensor:
#      x y z
#    x 1.980810 -0.017960 0.007970 
#    y -0.017960 1.930830 0.000060 
#    z 0.007970 0.000060 1.860720 
# 
# From -- ./inp_files/591702.got.cif
#   From: 2010.05.17/outbox.cif.g08.bks.cpg/sg2_296_cif.got.tgz:591702.got - 2010.06.03 11:33:40.
