data_PCOD9076872
_publ_section_title
;
Structure prediction by ZEFSAII (Michael W. Deem and Ramdas Pophale) SiO2 
 PCOD9076872
Probable space group: P -1
;
_chemical_formula_sum "Si O2"
_cell_formula_units_Z 16
_cell_length_a 13.440437
_cell_length_b 9.138800
_cell_length_c 11.368547
_cell_angle_alpha 57.076068
_cell_angle_beta 90.567919
_cell_angle_gamma 125.703524
_cell_volume 849.612337
_symmetry_space_group_name_H-M "P -1"
_symmetry_group_IT_number 2
_symmetry_cell_setting 'triclinic'
loop_
_space_group_symop_operation_xyz
x,y,z
-x,-y,-z
loop_
_atom_site_type_symbol
_atom_site_label
_atom_site_fract_x
_atom_site_fract_y
_atom_site_fract_z
Si Si1 0.761727 0.074795 0.912900
Si Si2 0.053809 0.390142 0.823416
Si Si3 0.515586 0.725378 0.895640
Si Si4 0.487414 0.776104 0.598577
Si Si5 0.021940 0.808167 0.843905
Si Si6 0.251365 0.888037 0.679162
Si Si7 0.792102 0.747760 0.193246
Si Si8 0.274095 0.670965 0.003922
O O1 0.748385 0.874799 0.072570
O O2 0.728906 0.200672 0.941563
O O3 0.660398 0.950750 0.856348
O O4 0.922466 0.264550 0.797074
O O5 0.177423 0.670082 0.681615
O O6 0.120741 0.280034 0.873585
O O7 0.991761 0.335551 0.978554
O O8 0.499029 0.746178 0.749043
O O9 0.399951 0.689546 0.984195
O O10 0.500000 0.500000 0.000000
O O11 0.346325 0.523014 0.659288
O O12 0.500000 0.000000 0.500000
O O13 0.615085 0.866208 0.482258
O O14 0.131301 0.870381 0.725624
O O15 0.867595 0.612044 0.879205
O O16 0.099660 0.070190 0.783337
O O17 0.284530 0.807848 0.828255
#
# Coordination Sequence:
#
# PCOD9076872 Si02
#       8
#     2   2   2   2   2   2   2   2
#     4  11  21  38  60  93 125 157 207 250 308 357
#     4  10  18  33  61  94 120 151 205 260 294 350
#     4  12  26  40  61  93 122 166 205 249 306 359
#     4  12  23  41  61  87 130 163 201 248 306 370
#     4  10  19  34  61  94 117 151 208 256 303 341
#     4  11  19  36  64  87 121 156 204 248 304 353
#     4  11  21  34  61  98 118 155 206 261 296 349
#     4  11  20  39  64  90 122 160 201 259 299 368
#
# _framework density 18.832115999999999
#
# number of rings (size 3 to 8) (size 9 to 14) (size 15 to 20)
#    0.000    1.000    7.500    3.375    1.750    0.500 
#    0.000    0.625    0.000    0.750    0.000    0.000 
#    0.000    0.000    0.000    0.000    0.000    0.000 
#
# Total GULP energy -89147.794837 kJ/mol
# GULP energy per Si atom -5571.737177 kJ/mol
# Density = 1.878925 g / cm^3
# Si number density = 18.832116 Si / 1000 Ang^3
#
#
#
# Elastic Constant Matrix: (Units=GPa)
#
#
# Indices 1 2 3 4 5 6 
#
# 1 89.4588 27.8541 25.0978 -3.9754 -17.4118 -3.2783
# 2 27.8541 113.8352 29.0862 -22.0512 -8.3513 7.6689
# 3 25.0978 29.0862 61.2677 -17.3328 -14.5662 -2.7151
# 4 -3.9754 -22.0512 -17.3328 22.5576 6.0120 -5.6054
# 5 -17.4118 -8.3513 -14.5662 6.0120 35.1779 -6.5404
# 6 -3.2783 7.6689 -2.7151 -5.6054 -6.5404 31.4356
#
#
#
# Elastic Compliance Matrix: (Units=1/GPa)
#
#
# Indices 1 2 3 4 5 6 
#
# 1 0.014336 -0.003057 -0.004280 -0.004748 0.005825 0.002236
# 2 -0.003057 0.011934 -0.002255 0.009299 -0.001593 -0.002098
# 3 -0.004280 -0.002255 0.025682 0.016729 0.006354 0.006627
# 4 -0.004748 0.009299 0.016729 0.068817 -0.003058 0.010316
# 5 0.005825 -0.001593 0.006354 -0.003058 0.035650 0.008417
# 6 0.002236 -0.002098 0.006627 0.010316 0.008417 0.036719
#
#
# Mechanical properties :
#
#
# Convention : Reuss Voigt Hill
#
# Bulk Modulus (GPa) = 30.51704 47.62644 39.07174
# Shear Modulus (GPa) = 22.39684 30.00248 26.19966
#
# Velocity S-wave (km/s) = 3.45235 3.99576 3.73396
# Velocity P-wave (km/s) = 5.66847 6.82884 6.27553
#
# Compressibility (1/GPa) = 0.03276858
#
# Stress axis : x y z
#
# Youngs Moduli (GPa) = 69.75571 83.79093 38.93710
#
# Poissons Ratio (x) = 0.25616 0.16667
# Poissons Ratio (y) = 0.21325 0.08778
# Poissons Ratio (z) = 0.29858 0.18891
#
# Static dielectric constant tensor:
#      x y z
#    x 1.697640 -0.010400 -0.029000 
#    y -0.010400 1.719810 -0.027020 
#    z -0.029000 -0.027020 1.705450 
# 
# From -- ./inp_files/259412.got.cif
#   From: 2010.05.17/outbox.cif.g08.bks.cpg/sg2_130_cif.got.tgz:259412.got - 2010.06.03 11:33:40.
