data_PCOD9076025
_publ_section_title
;
Structure prediction by ZEFSAII (Michael W. Deem and Ramdas Pophale) SiO2 
 PCOD9076025
Probable space group: P -1
;
_chemical_formula_sum "Si O2"
_cell_formula_units_Z 15
_cell_length_a 14.079113
_cell_length_b 8.266233
_cell_length_c 8.774275
_cell_angle_alpha 79.115758
_cell_angle_beta 120.186610
_cell_angle_gamma 135.898647
_cell_volume 588.563416
_symmetry_space_group_name_H-M "P -1"
_symmetry_group_IT_number 2
_symmetry_cell_setting 'triclinic'
loop_
_space_group_symop_operation_xyz
x,y,z
-x,-y,-z
loop_
_atom_site_type_symbol
_atom_site_label
_atom_site_fract_x
_atom_site_fract_y
_atom_site_fract_z
Si Si1 0.771654 0.074357 0.159859
Si Si2 0.053867 0.375366 0.121611
Si Si3 0.445772 0.932341 0.143900
Si Si4 0.858144 0.725212 0.371091
Si Si5 0.763937 0.304185 0.520800
Si Si6 0.233941 0.373831 0.040835
Si Si7 0.449355 0.435189 0.794320
Si Si8 0.000000 0.500000 0.500000
O O1 0.918769 0.159554 0.168323
O O2 0.854354 0.306808 0.282629
O O3 0.668834 0.853578 0.234667
O O4 0.658227 0.016575 0.943509
O O5 0.211077 0.593168 0.313021
O O6 0.087844 0.263529 0.053758
O O7 0.000000 0.500000 0.000000
O O8 0.587885 0.092873 0.351259
O O9 0.337835 0.653539 0.104321
O O10 0.500000 0.000000 0.000000
O O11 0.881849 0.556072 0.460314
O O12 0.685111 0.572603 0.342496
O O13 0.823282 0.700764 0.167706
O O14 0.000000 0.000000 0.500000
O O15 0.876313 0.274706 0.578248
O O16 0.379034 0.398839 0.181741
O O17 0.500000 0.500000 0.000000
#
# Coordination Sequence:
#
# PCOD9076025 Si02
#       8
#     2   2   2   2   2   2   2   1
#     4  11  20  37  62  93 129 163 210 260 317 375
#     4  11  25  42  59  97 140 165 198 264 347 394
#     4  12  18  35  64  96 122 163 204 271 323 365
#     4  11  22  40  64  95 120 169 227 263 294 374
#     4  11  23  37  62  93 130 162 217 258 320 381
#     4  11  22  41  63  95 132 164 207 266 323 381
#     4  10  21  39  64  89 119 169 219 254 294 368
#     4  10  18  32  58  92 118 162 200 258 310 370
#
# _framework density 25.485783999999999
#
# number of rings (size 3 to 8) (size 9 to 14) (size 15 to 20)
#    0.000    1.067    5.333    2.400    1.867    0.533 
#    0.000    6.667    0.000    0.000    0.000    0.000 
#    0.000    0.000    0.000    0.000    0.000    0.000 
#
# Total GULP energy -83511.548672 kJ/mol
# GULP energy per Si atom -5567.436578 kJ/mol
# Density = 2.542778 g / cm^3
# Si number density = 25.485784 Si / 1000 Ang^3
#
#
#
# Elastic Constant Matrix: (Units=GPa)
#
#
# Indices 1 2 3 4 5 6 
#
# 1 164.8845 10.6759 49.3123 -2.9935 -3.5943 3.3184
# 2 10.6759 58.2442 34.3512 23.1981 -2.8922 -19.3957
# 3 49.3123 34.3512 166.2241 38.0228 7.5689 -3.5214
# 4 -2.9935 23.1981 38.0228 36.2644 1.7486 -0.8915
# 5 -3.5943 -2.8922 7.5689 1.7486 51.1975 -6.6541
# 6 3.3184 -19.3957 -3.5214 -0.8915 -6.6541 32.2635
#
#
#
# Elastic Compliance Matrix: (Units=1/GPa)
#
#
# Indices 1 2 3 4 5 6 
#
# 1 0.007223 -0.002395 -0.002870 0.005065 0.000326 -0.002289
# 2 -0.002395 0.033610 -0.001489 -0.019882 0.005338 0.020841
# 3 -0.002870 -0.001489 0.009283 -0.008955 -0.001367 -0.000116
# 4 0.005065 -0.019882 -0.008955 0.049924 -0.002792 -0.012647
# 5 0.000326 0.005338 -0.001367 -0.002792 0.021103 0.007302
# 6 -0.002289 0.020841 -0.000116 -0.012647 0.007302 0.044903
#
#
# Mechanical properties :
#
#
# Convention : Reuss Voigt Hill
#
# Bulk Modulus (GPa) = 27.31576 64.22573 45.77075
# Shear Modulus (GPa) = 26.07463 43.61263 34.84363
#
# Velocity S-wave (km/s) = 3.20207 4.14122 3.70155
# Velocity P-wave (km/s) = 4.94088 6.93697 6.02220
#
# Compressibility (1/GPa) = 0.03660891
#
# Stress axis : x y z
#
# Youngs Moduli (GPa) = 138.43947 29.75303 107.72103
#
# Poissons Ratio (x) = 0.07125 0.30916
# Poissons Ratio (y) = 0.33154 0.16040
# Poissons Ratio (z) = 0.39732 0.04430
#
# Static dielectric constant tensor:
#      x y z
#    x 2.468470 0.023520 -0.008780 
#    y 0.023520 2.166360 -0.033530 
#    z -0.008780 -0.033530 2.050040 
# 
# From -- ./inp_files/295847.got.cif
#   From: 2010.05.17/outbox.cif.g08.bks.cpg/sg2_148_cif.got.tgz:295847.got - 2010.06.03 11:33:40.
