data_PCOD9076750
_publ_section_title
;
Structure prediction by ZEFSAII (Michael W. Deem and Ramdas Pophale) SiO2 
 PCOD9076750
Probable space group: P -1
;
_chemical_formula_sum "Si O2"
_cell_formula_units_Z 13
_cell_length_a 6.889046
_cell_length_b 10.606781
_cell_length_c 7.137283
_cell_angle_alpha 67.951576
_cell_angle_beta 82.756017
_cell_angle_gamma 109.250357
_cell_volume 437.357696
_symmetry_space_group_name_H-M "P -1"
_symmetry_group_IT_number 2
_symmetry_cell_setting 'triclinic'
loop_
_space_group_symop_operation_xyz
x,y,z
-x,-y,-z
loop_
_atom_site_type_symbol
_atom_site_label
_atom_site_fract_x
_atom_site_fract_y
_atom_site_fract_z
Si Si1 0.465100 0.030892 0.709603
Si Si2 0.000000 0.000000 0.000000
Si Si3 0.731367 0.355079 0.399822
Si Si4 0.774488 0.590153 0.722679
Si Si5 0.671230 0.284774 0.003440
Si Si6 0.902729 0.898256 0.392322
Si Si7 0.833717 0.662086 0.112616
O O1 0.603312 0.206196 0.616172
O O2 0.215593 0.016437 0.762969
O O3 0.500000 0.000000 0.500000
O O4 0.462828 0.890715 0.899964
O O5 0.910494 0.072382 0.791311
O O6 0.163118 0.179094 0.934448
O O7 0.667279 0.317694 0.209018
O O8 0.719906 0.514719 0.338450
O O9 0.979838 0.380432 0.370358
O O10 0.753463 0.729664 0.547414
O O11 0.634174 0.413730 0.822472
O O12 0.769207 0.624407 0.924516
O O13 0.918741 0.317261 0.922618
O O14 0.000000 0.000000 0.500000
#
# Coordination Sequence:
#
# PCOD9076750 Si02
#       7
#     2   1   2   2   2   2   2
#     4  10  18  33  59  89 115 159 192 231 302 352
#     4  12  22  34  60  90 120 154 194 238 296 338
#     4   8  16  31  58  85 116 152 194 237 293 343
#     4   9  17  34  60  84 112 148 200 247 273 333
#     4   8  14  30  54  79 111 152 192 229 283 345
#     4  12  22  37  60  91 117 149 204 243 279 343
#     4   9  16  33  54  85 114 156 191 235 286 349
#
# _framework density 29.723951
#
# number of rings (size 3 to 8) (size 9 to 14) (size 15 to 20)
#    0.000    2.462    3.077    3.692    0.000    0.000 
#    0.000   10.769    0.000    3.692    0.000    0.000 
#    0.000    0.000    0.000    0.000    0.000    0.000 
#
# Total GULP energy -72645.832488 kJ/mol
# GULP energy per Si atom -5588.140961 kJ/mol
# Density = 2.965630 g / cm^3
# Si number density = 29.723951 Si / 1000 Ang^3
#
#
#
# Elastic Constant Matrix: (Units=GPa)
#
#
# Indices 1 2 3 4 5 6 
#
# 1 111.9674 22.8362 44.0637 -29.9196 -4.7558 -14.2315
# 2 22.8362 240.3431 113.4535 -60.6220 2.3042 -7.0482
# 3 44.0637 113.4535 266.5421 -83.6175 16.7229 -4.1815
# 4 -29.9196 -60.6220 -83.6175 93.0237 -4.8906 -3.7579
# 5 -4.7558 2.3042 16.7229 -4.8906 44.6806 -17.2379
# 6 -14.2315 -7.0482 -4.1815 -3.7579 -17.2379 30.9828
#
#
#
# Elastic Compliance Matrix: (Units=1/GPa)
#
#
# Indices 1 2 3 4 5 6 
#
# 1 0.011623 0.000609 -0.001235 0.003668 0.005462 0.008795
# 2 0.000609 0.005625 -0.001796 0.002440 0.001702 0.002560
# 3 -0.001235 -0.001796 0.005996 0.003664 -0.002260 -0.000980
# 4 0.003668 0.002440 0.003664 0.017261 0.003368 0.006702
# 5 0.005462 0.001702 -0.002260 0.003368 0.032147 0.020885
# 6 0.008795 0.002560 -0.000980 0.006702 0.020885 0.049199
#
#
# Mechanical properties :
#
#
# Convention : Reuss Voigt Hill
#
# Bulk Modulus (GPa) = 54.34650 108.83994 81.59322
# Shear Modulus (GPa) = 37.64289 62.97070 50.30680
#
# Velocity S-wave (km/s) = 3.56253 4.60773 4.11842
# Velocity P-wave (km/s) = 5.93680 8.06254 7.07991
#
# Compressibility (1/GPa) = 0.01840045
#
# Stress axis : x y z
#
# Youngs Moduli (GPa) = 86.03757 177.78223 166.77167
#
# Poissons Ratio (x) = -0.10831 0.20594
# Poissons Ratio (y) = -0.05242 0.29954
# Poissons Ratio (z) = 0.10625 0.31931
#
# Static dielectric constant tensor:
#      x y z
#    x 1.296710 0.770090 1.311380 
#    y 0.770090 1.749480 -0.875980 
#    z 1.311380 -0.875980 0.585220 
# 
# From -- ./inp_files/175057.got.cif
#   From: 2010.05.17/outbox.cif.g08.bks.cpg/sg2_88_cif.got.tgz:175057.got - 2010.06.03 11:33:40.
