data_PCOD9076210
_publ_section_title
;
Structure prediction by ZEFSAII (Michael W. Deem and Ramdas Pophale) SiO2 
 PCOD9076210
Probable space group: P -1
;
_chemical_formula_sum "Si O2"
_cell_formula_units_Z 16
_cell_length_a 12.112713
_cell_length_b 16.296110
_cell_length_c 11.982748
_cell_angle_alpha 86.632250
_cell_angle_beta 117.237699
_cell_angle_gamma 39.954918
_cell_volume 940.942877
_symmetry_space_group_name_H-M "P -1"
_symmetry_group_IT_number 2
_symmetry_cell_setting 'triclinic'
loop_
_space_group_symop_operation_xyz
x,y,z
-x,-y,-z
loop_
_atom_site_type_symbol
_atom_site_label
_atom_site_fract_x
_atom_site_fract_y
_atom_site_fract_z
Si Si1 0.054618 0.295158 0.301693
Si Si2 0.819067 0.066021 0.240528
Si Si3 0.294212 0.735305 0.631891
Si Si4 0.217702 0.391226 0.965313
Si Si5 0.538451 0.518766 0.138387
Si Si6 0.603809 0.061478 0.598970
Si Si7 0.655477 0.662591 0.714964
Si Si8 0.995054 0.053408 0.106447
O O1 0.312636 0.190971 0.483472
O O2 0.910220 0.443000 0.135217
O O3 0.817264 0.407096 0.266608
O O4 0.184744 0.136980 0.317811
O O5 0.768710 0.173504 0.292631
O O6 0.974191 0.005853 0.207690
O O7 0.516099 0.209786 0.059249
O O8 0.012999 0.892780 0.418499
O O9 0.422968 0.575216 0.746133
O O10 0.501069 0.667876 0.658229
O O11 0.960786 0.482654 0.814731
O O12 0.293039 0.338254 0.134556
O O13 0.500000 0.500000 0.000000
O O14 0.278393 0.728962 0.028074
O O15 0.534103 0.159573 0.451354
O O16 0.744264 0.039854 0.752382
O O17 0.000000 0.000000 0.000000
#
# Coordination Sequence:
#
# PCOD9076210 Si02
#       8
#     2   2   2   2   2   2   2   2
#     4  10  19  32  55  85 114 137 187 240 283 316
#     4  10  18  33  52  81 107 142 189 225 283 324
#     4  10  19  30  56  83 110 138 184 241 277 323
#     4   9  17  28  49  81 113 138 170 231 285 336
#     4  12  20  35  58  86 113 144 192 238 274 329
#     4  10  20  34  53  82 116 144 179 239 282 329
#     4   9  17  29  47  80 116 138 172 223 294 326
#     4  12  24  39  56  81 118 156 190 228 283 344
#
# _framework density 17.00422
#
# number of rings (size 3 to 8) (size 9 to 14) (size 15 to 20)
#    0.000    1.750    5.000    0.750    3.500    0.000 
#    0.000    1.250    0.000    0.000    0.000    1.750 
#    0.000    0.000    0.000    0.000    0.000    0.000 
#
# Total GULP energy -89162.712977 kJ/mol
# GULP energy per Si atom -5572.669561 kJ/mol
# Density = 1.696552 g / cm^3
# Si number density = 17.004220 Si / 1000 Ang^3
#
#
#
# Elastic Constant Matrix: (Units=GPa)
#
#
# Indices 1 2 3 4 5 6 
#
# 1 101.3047 24.7205 43.7437 0.6999 7.4425 0.9821
# 2 24.7205 57.9346 41.5222 3.0585 3.8453 2.3355
# 3 43.7437 41.5222 97.7169 -8.8994 5.5652 5.5397
# 4 0.6999 3.0585 -8.8994 18.2753 5.7247 -0.5525
# 5 7.4425 3.8453 5.5652 5.7247 37.4000 -7.7234
# 6 0.9821 2.3355 5.5397 -0.5525 -7.7234 13.4209
#
#
#
# Elastic Compliance Matrix: (Units=1/GPa)
#
#
# Indices 1 2 3 4 5 6 
#
# 1 0.012563 -0.001462 -0.005208 -0.002423 -0.001041 0.000786
# 2 -0.001462 0.026779 -0.011755 -0.010442 0.000974 0.000430
# 3 -0.005208 -0.011755 0.019367 0.012660 -0.004104 -0.007408
# 4 -0.002423 -0.010442 0.012660 0.066259 -0.012000 -0.007409
# 5 -0.001041 0.000974 -0.004104 -0.012000 0.033503 0.020387
# 6 0.000786 0.000430 -0.007408 -0.007409 0.020387 0.088863
#
#
# Mechanical properties :
#
#
# Convention : Reuss Voigt Hill
#
# Bulk Modulus (GPa) = 45.75196 52.99212 49.37204
# Shear Modulus (GPa) = 17.15435 23.61722 20.38579
#
# Velocity S-wave (km/s) = 3.17965 3.73084 3.46622
# Velocity P-wave (km/s) = 6.35963 7.05625 6.71698
#
# Compressibility (1/GPa) = 0.02185699
#
# Stress axis : x y z
#
# Youngs Moduli (GPa) = 79.60120 37.34230 51.63425
#
# Poissons Ratio (x) = 0.05461 0.26893
# Poissons Ratio (y) = 0.11640 0.60698
# Poissons Ratio (z) = 0.41458 0.43897
#
# Static dielectric constant tensor:
#      x y z
#    x 1.625320 -0.011350 0.038180 
#    y -0.011350 1.551690 -0.033180 
#    z 0.038180 -0.033180 1.610940 
# 
# From -- ./inp_files/281630.got.cif
#   From: 2010.05.17/outbox.cif.g08.bks.cpg/sg2_141_cif.got.tgz:281630.got - 2010.06.03 11:33:40.
