data_PCOD9076098
_publ_section_title
;
Structure prediction by ZEFSAII (Michael W. Deem and Ramdas Pophale) SiO2 
 PCOD9076098
Probable space group: P -1
;
_chemical_formula_sum "Si O2"
_cell_formula_units_Z 15
_cell_length_a 10.145498
_cell_length_b 5.110582
_cell_length_c 17.598277
_cell_angle_alpha 120.942809
_cell_angle_beta 62.948111
_cell_angle_gamma 102.950087
_cell_volume 696.922610
_symmetry_space_group_name_H-M "P -1"
_symmetry_group_IT_number 2
_symmetry_cell_setting 'triclinic'
loop_
_space_group_symop_operation_xyz
x,y,z
-x,-y,-z
loop_
_atom_site_type_symbol
_atom_site_label
_atom_site_fract_x
_atom_site_fract_y
_atom_site_fract_z
Si Si1 0.500000 0.000000 0.500000
Si Si2 0.666424 0.988630 0.200482
Si Si3 0.890595 0.132999 0.297700
Si Si4 0.082101 0.581837 0.216682
Si Si5 0.093387 0.302398 0.006483
Si Si6 0.672367 0.192820 0.704328
Si Si7 0.503727 0.431157 0.662733
Si Si8 0.297024 0.360680 0.492842
O O1 0.448118 0.090970 0.614506
O O2 0.350674 0.176230 0.525069
O O3 0.498575 0.871914 0.238348
O O4 0.781044 0.007487 0.242650
O O5 0.625532 0.342960 0.247703
O O6 0.750416 0.802164 0.085846
O O7 0.816697 0.384954 0.410414
O O8 0.016365 0.309263 0.243254
O O9 0.962808 0.855648 0.283455
O O10 0.110775 0.473431 0.107137
O O11 0.227554 0.701643 0.238352
O O12 0.000000 0.500000 0.000000
O O13 0.000000 0.000000 0.000000
O O14 0.641216 0.447316 0.685540
O O15 0.739827 0.898031 0.598450
O O16 0.574783 0.447438 0.559517
#
# Coordination Sequence:
#
# PCOD9076098 Si02
#       8
#     1   2   2   2   2   2   2   2
#     4  10  18  32  60  94 136 176 228 292 332 392
#     4  11  24  43  74 104 134 183 242 291 350 413
#     4  12  27  43  77 102 143 190 243 283 352 414
#     4  12  28  50  69 106 145 188 231 296 359 421
#     4  12  25  49  76 106 136 177 236 305 352 414
#     4  10  27  44  68 101 153 183 231 288 353 426
#     4  10  22  38  64 100 143 178 237 286 344 405
#     4  10  23  39  64 102 142 190 234 285 344 416
#
# _framework density 21.523195000000001
#
# number of rings (size 3 to 8) (size 9 to 14) (size 15 to 20)
#    0.000    1.067    4.000    0.400   14.933    1.600 
#    0.000    0.667    0.000    0.000    0.000    0.000 
#    0.000    0.000    0.000    0.000    0.000    0.000 
#
# Total GULP energy -83563.987116 kJ/mol
# GULP energy per Si atom -5570.932474 kJ/mol
# Density = 2.147421 g / cm^3
# Si number density = 21.523195 Si / 1000 Ang^3
#
#
#
# Elastic Constant Matrix: (Units=GPa)
#
#
# Indices 1 2 3 4 5 6 
#
# 1 139.5979 27.6507 60.1601 16.2333 35.5358 7.9812
# 2 27.6507 50.7666 8.1425 1.0830 2.8392 -4.0271
# 3 60.1601 8.1425 169.7502 13.5638 2.4627 3.2546
# 4 16.2333 1.0830 13.5638 24.7252 -6.8748 -10.9986
# 5 35.5358 2.8392 2.4627 -6.8748 33.4084 4.5180
# 6 7.9812 -4.0271 3.2546 -10.9986 4.5180 34.4722
#
#
#
# Elastic Compliance Matrix: (Units=1/GPa)
#
#
# Indices 1 2 3 4 5 6 
#
# 1 0.019261 -0.008795 -0.004329 -0.019881 -0.022364 -0.008490
# 2 -0.008795 0.024204 0.000950 0.009480 0.008271 0.006715
# 3 -0.004329 0.000950 0.007341 -0.000197 0.003964 -0.000162
# 4 -0.019881 0.009480 -0.000197 0.073165 0.032049 0.024873
# 5 -0.022364 0.008271 0.003964 0.032049 0.058189 0.008369
# 6 -0.008490 0.006715 -0.000162 0.024873 0.008369 0.038613
#
#
# Mechanical properties :
#
#
# Convention : Reuss Voigt Hill
#
# Bulk Modulus (GPa) = 37.79556 61.33572 49.56564
# Shear Modulus (GPa) = 19.68960 36.13192 27.91076
#
# Velocity S-wave (km/s) = 3.02786 4.10169 3.60498
# Velocity P-wave (km/s) = 5.46099 7.14081 6.35664
#
# Compressibility (1/GPa) = 0.02645814
#
# Stress axis : x y z
#
# Youngs Moduli (GPa) = 51.91765 41.31558 136.22444
#
# Poissons Ratio (x) = 0.36338 0.58965
# Poissons Ratio (y) = 0.45663 -0.12939
# Poissons Ratio (z) = 0.22473 -0.03924
#
# Static dielectric constant tensor:
#      x y z
#    x 1.689970 -0.219060 -0.080090 
#    y -0.219060 1.553730 -0.168900 
#    z -0.080090 -0.168900 1.743010 
# 
# From -- ./inp_files/128612.got.cif
#   From: 2010.05.17/outbox.cif.g08.bks.cpg/sg2_65_cif.got.tgz:128612.got - 2010.06.03 11:33:40.
