data_PCOD9076757
_publ_section_title
;
Structure prediction by ZEFSAII (Michael W. Deem and Ramdas Pophale) SiO2 
 PCOD9076757
Probable space group: P -1
;
_chemical_formula_sum "Si O2"
_cell_formula_units_Z 12
_cell_length_a 11.666244
_cell_length_b 14.773660
_cell_length_c 8.170151
_cell_angle_alpha 41.195181
_cell_angle_beta 128.301865
_cell_angle_gamma 148.640213
_cell_volume 481.588542
_symmetry_space_group_name_H-M "P -1"
_symmetry_group_IT_number 2
_symmetry_cell_setting 'triclinic'
loop_
_space_group_symop_operation_xyz
x,y,z
-x,-y,-z
loop_
_atom_site_type_symbol
_atom_site_label
_atom_site_fract_x
_atom_site_fract_y
_atom_site_fract_z
Si Si1 0.950601 0.325266 0.852085
Si Si2 0.688601 0.032552 0.691959
Si Si3 0.504409 0.663889 0.228250
Si Si4 0.204202 0.037464 0.616293
Si Si5 0.882569 0.578424 0.590817
Si Si6 0.595556 0.425504 0.247362
O O1 0.800791 0.177978 0.760079
O O2 0.907116 0.447016 0.709103
O O3 0.207265 0.489144 0.808187
O O4 0.886686 0.177290 0.141493
O O5 0.889663 0.180783 0.539750
O O6 0.500000 0.000000 0.500000
O O7 0.601889 0.817030 0.950879
O O8 0.500000 0.500000 0.500000
O O9 0.651070 0.830582 0.274942
O O10 0.251098 0.530219 0.212651
O O11 0.382845 0.183536 0.432019
O O12 0.000000 0.000000 0.500000
O O13 0.723973 0.545180 0.367879
O O14 0.500000 0.500000 0.000000
#
# Coordination Sequence:
#
# PCOD9076757 Si02
#       6
#     2   2   2   2   2   2
#     4  10  21  40  64  95 129 158 207 265 310 371
#     4  10  22  41  66  93 126 167 213 251 316 378
#     4  10  24  44  62  87 131 170 207 259 316 379
#     4  10  20  36  63  95 123 160 207 254 316 371
#     4  10  23  42  64  92 127 163 208 265 317 365
#     4  10  18  33  59  90 123 154 195 251 310 362
#
# _framework density 24.917535999999998
#
# number of rings (size 3 to 8) (size 9 to 14) (size 15 to 20)
#    0.000    2.000    1.667    2.000    0.000   10.000 
#    6.000    5.000    0.000    0.000    0.000    0.000 
#    0.000    0.000    0.000    0.000    0.000    0.000 
#
# Total GULP energy -67073.677747 kJ/mol
# GULP energy per Si atom -5589.473146 kJ/mol
# Density = 2.486082 g / cm^3
# Si number density = 24.917536 Si / 1000 Ang^3
#
#
#
# Elastic Constant Matrix: (Units=GPa)
#
#
# Indices 1 2 3 4 5 6 
#
# 1 99.3151 51.3071 66.2462 -17.3406 -8.2766 34.3531
# 2 51.3071 162.2557 70.8296 -12.9664 -7.4503 26.4940
# 3 66.2462 70.8296 218.5582 -42.6060 -1.2026 29.2920
# 4 -17.3406 -12.9664 -42.6060 47.5256 13.5919 -4.7205
# 5 -8.2766 -7.4503 -1.2026 13.5919 47.2462 -12.2197
# 6 34.3531 26.4940 29.2920 -4.7205 -12.2197 52.5308
#
#
#
# Elastic Compliance Matrix: (Units=1/GPa)
#
#
# Indices 1 2 3 4 5 6 
#
# 1 0.016143 -0.002547 -0.002621 0.002154 -0.000245 -0.007675
# 2 -0.002547 0.007914 -0.001743 -0.000633 0.000612 -0.001269
# 3 -0.002621 -0.001743 0.007221 0.005623 -0.002562 -0.001524
# 4 0.002154 -0.000633 0.005623 0.028856 -0.008834 -0.003686
# 5 -0.000245 0.000612 -0.002562 -0.008834 0.025346 0.006383
# 6 -0.007675 -0.001269 -0.001524 -0.003686 0.006383 0.026699
#
#
# Mechanical properties :
#
#
# Convention : Reuss Voigt Hill
#
# Bulk Modulus (GPa) = 57.28205 95.21053 76.24629
# Shear Modulus (GPa) = 37.93122 48.91026 43.42074
#
# Velocity S-wave (km/s) = 3.90586 4.43525 4.17895
# Velocity P-wave (km/s) = 6.58632 8.03255 7.34511
#
# Compressibility (1/GPa) = 0.01745748
#
# Stress axis : x y z
#
# Youngs Moduli (GPa) = 61.94701 126.36121 138.48532
#
# Poissons Ratio (x) = 0.32179 0.36292
# Poissons Ratio (y) = 0.15775 0.24136
# Poissons Ratio (z) = 0.16234 0.22023
#
# Static dielectric constant tensor:
#      x y z
#    x 2.015300 -0.032290 -0.070170 
#    y -0.032290 2.036010 -0.036860 
#    z -0.070170 -0.036860 1.986360 
# 
# From -- ./inp_files/271663.got.cif
#   From: 2010.05.17/outbox.cif.g08.bks.cpg/sg2_136_cif.got.tgz:271663.got - 2010.06.03 11:33:40.
