data_PCOD9076822
_publ_section_title
;
Structure prediction by ZEFSAII (Michael W. Deem and Ramdas Pophale) SiO2 
 PCOD9076822
Probable space group: P -1
;
_chemical_formula_sum "Si O2"
_cell_formula_units_Z 16
_cell_length_a 8.953202
_cell_length_b 9.679998
_cell_length_c 17.177418
_cell_angle_alpha 105.314270
_cell_angle_beta 23.790904
_cell_angle_gamma 99.375060
_cell_volume 567.227464
_symmetry_space_group_name_H-M "P -1"
_symmetry_group_IT_number 2
_symmetry_cell_setting 'triclinic'
loop_
_space_group_symop_operation_xyz
x,y,z
-x,-y,-z
loop_
_atom_site_type_symbol
_atom_site_label
_atom_site_fract_x
_atom_site_fract_y
_atom_site_fract_z
Si Si1 0.531706 0.180275 0.678553
Si Si2 0.537503 0.268799 0.058396
Si Si3 0.645284 0.842683 0.013297
Si Si4 0.214199 0.406727 0.464036
Si Si5 0.572256 0.880073 0.751164
Si Si6 0.597596 0.082493 0.387953
Si Si7 0.610359 0.588776 0.091825
Si Si8 0.616440 0.335468 0.502173
O O1 0.312280 0.314958 0.855835
O O2 0.509837 0.247842 0.613468
O O3 0.977487 0.150749 0.477384
O O4 0.463442 0.015226 0.672495
O O5 0.571576 0.178220 0.107731
O O6 0.708267 0.413817 0.009379
O O7 0.077845 0.313755 0.275468
O O8 0.664502 0.167896 0.907212
O O9 0.735691 0.676716 0.974223
O O10 0.538891 0.945476 0.155558
O O11 0.968437 0.906908 0.827274
O O12 0.494311 0.251467 0.291483
O O13 0.466911 0.499884 0.404197
O O14 0.000000 0.500000 0.500000
O O15 0.847492 0.385047 0.682548
O O16 0.444403 0.257070 0.501893
O O17 0.500000 0.000000 0.500000
#
# Coordination Sequence:
#
# PCOD9076822 Si02
#       8
#     2   2   2   2   2   2   2   2
#     4   9  16  30  51  70  97 140 172 192 245 314
#     4   9  16  31  49  71 102 134 165 201 250 305
#     4  11  22  30  47  84 110 120 162 229 261 276
#     4  10  14  29  53  75  98 134 169 199 242 312
#     4  10  18  31  54  80 100 128 169 215 253 288
#     4   9  19  33  50  69 101 140 173 202 243 310
#     4  10  18  30  51  76 103 133 168 207 253 300
#     4   8  13  27  49  73  87 127 180 203 220 293
#
# _framework density 28.207380000000001
#
# number of rings (size 3 to 8) (size 9 to 14) (size 15 to 20)
#    0.000    2.500    5.000    1.500    0.000    2.500 
#    0.000    0.000    0.000    8.250    0.000   22.750 
#    0.000    0.000    0.000    0.000    0.000    0.000 
#
# Total GULP energy -89164.093149 kJ/mol
# GULP energy per Si atom -5572.755822 kJ/mol
# Density = 2.814318 g / cm^3
# Si number density = 28.207380 Si / 1000 Ang^3
#
#
#
# Elastic Constant Matrix: (Units=GPa)
#
#
# Indices 1 2 3 4 5 6 
#
# 1 59.9738 49.4981 24.5326 6.7601 5.4725 32.5619
# 2 49.4981 231.3356 28.1528 4.4695 2.2130 61.1187
# 3 24.5326 28.1528 65.7423 -6.4886 -2.9833 8.2119
# 4 6.7601 4.4695 -6.4886 36.5485 7.6317 26.1544
# 5 5.4725 2.2130 -2.9833 7.6317 36.1731 16.2253
# 6 32.5619 61.1187 8.2119 26.1544 16.2253 65.0329
#
#
#
# Elastic Compliance Matrix: (Units=1/GPa)
#
#
# Indices 1 2 3 4 5 6 
#
# 1 0.027681 -0.001795 -0.007785 0.002411 0.000254 -0.012223
# 2 -0.001795 0.006709 -0.000709 0.004381 0.002312 -0.007656
# 3 -0.007785 -0.000709 0.018981 0.004617 0.001884 -0.000159
# 4 0.002411 0.004381 0.004617 0.044076 0.001182 -0.023929
# 5 0.000254 0.002312 0.001884 0.001182 0.032342 -0.011083
# 6 -0.012223 -0.007656 -0.000159 -0.023929 -0.011083 0.041100
#
#
# Mechanical properties :
#
#
# Convention : Reuss Voigt Hill
#
# Bulk Modulus (GPa) = 30.49494 62.37986 46.43740
# Shear Modulus (GPa) = 24.70379 44.54211 34.62295
#
# Velocity S-wave (km/s) = 2.96259 3.97809 3.50729
# Velocity P-wave (km/s) = 4.74732 6.57746 5.73585
#
# Compressibility (1/GPa) = 0.03279233
#
# Stress axis : x y z
#
# Youngs Moduli (GPa) = 36.12569 149.05210 52.68534
#
# Poissons Ratio (x) = 0.26758 0.41013
# Poissons Ratio (y) = 0.06485 0.03738
# Poissons Ratio (z) = 0.28122 0.10575
#
# Static dielectric constant tensor:
#      x y z
#    x 2.313690 0.069410 0.086660 
#    y 0.069410 2.364830 0.145400 
#    z 0.086660 0.145400 2.224070 
# 
# From -- ./inp_files/611673.got.cif
#   From: 2010.05.17/outbox.cif.g08.bks.cpg/sg2_306_cif.got.tgz:611673.got - 2010.06.03 11:33:40.
