data_PCOD9076909
_publ_section_title
;
Structure prediction by ZEFSAII (Michael W. Deem and Ramdas Pophale) SiO2 
 PCOD9076909
Probable space group: P -1
;
_chemical_formula_sum "Si O2"
_cell_formula_units_Z 16
_cell_length_a 16.971435
_cell_length_b 11.785374
_cell_length_c 10.959412
_cell_angle_alpha 93.577829
_cell_angle_beta 30.642777
_cell_angle_gamma 75.642918
_cell_volume 897.856732
_symmetry_space_group_name_H-M "P -1"
_symmetry_group_IT_number 2
_symmetry_cell_setting 'triclinic'
loop_
_space_group_symop_operation_xyz
x,y,z
-x,-y,-z
loop_
_atom_site_type_symbol
_atom_site_label
_atom_site_fract_x
_atom_site_fract_y
_atom_site_fract_z
Si Si1 0.530561 0.930384 0.768665
Si Si2 0.943071 0.310516 0.614373
Si Si3 0.122514 0.022074 0.243446
Si Si4 0.760649 0.231591 0.340637
Si Si5 0.333964 0.231974 0.181030
Si Si6 0.552899 0.569121 0.036558
Si Si7 0.899162 0.174335 0.901472
Si Si8 0.183997 0.055315 0.722868
O O1 0.649801 0.808052 0.701287
O O2 0.658549 0.915261 0.482878
O O3 0.341119 0.943055 0.988452
O O4 0.453534 0.081133 0.942317
O O5 0.893611 0.256295 0.796617
O O6 0.025287 0.187875 0.393739
O O7 0.117306 0.315740 0.424513
O O8 0.754037 0.451128 0.824773
O O9 0.122004 0.947367 0.117996
O O10 0.000000 0.000000 0.500000
O O11 0.613085 0.353563 0.635232
O O12 0.738874 0.104257 0.366365
O O13 0.750802 0.269559 0.213380
O O14 0.985397 0.157626 0.068170
O O15 0.423989 0.315351 0.042975
O O16 0.500000 0.500000 0.000000
O O17 0.103591 0.093240 0.692637
#
# Coordination Sequence:
#
# PCOD9076909 Si02
#       8
#     2   2   2   2   2   2   2   2
#     4  10  18  33  64  87 108 146 185 248 283 334
#     4  10  21  36  56  84 116 156 183 233 282 340
#     4   9  20  31  56  93 117 134 187 244 287 320
#     4   9  20  36  59  82 112 151 192 229 287 336
#     4  10  20  36  56  84 114 146 192 227 293 335
#     4  12  26  35  57  83 119 153 190 232 283 348
#     4   9  18  36  60  82 113 146 189 237 279 330
#     4   9  17  35  63  80 108 142 194 238 282 330
#
# _framework density 17.820215000000001
#
# number of rings (size 3 to 8) (size 9 to 14) (size 15 to 20)
#    0.750    1.500    2.500    0.375    7.000    0.500 
#    0.000    0.625    5.500    1.500    0.000    0.000 
#    0.000    0.000    0.000    0.000    0.000    0.000 
#
# Total GULP energy -89081.461497 kJ/mol
# GULP energy per Si atom -5567.591344 kJ/mol
# Density = 1.777966 g / cm^3
# Si number density = 17.820215 Si / 1000 Ang^3
#
#
#
# Elastic Constant Matrix: (Units=GPa)
#
#
# Indices 1 2 3 4 5 6 
#
# 1 59.6060 31.8938 45.2570 -2.4333 3.9716 10.3509
# 2 31.8938 52.8102 15.5155 -15.5634 -3.7650 3.7837
# 3 45.2570 15.5155 107.2598 -10.2292 -1.7447 12.9940
# 4 -2.4333 -15.5634 -10.2292 30.8661 1.3129 -5.9095
# 5 3.9716 -3.7650 -1.7447 1.3129 31.8446 -0.8266
# 6 10.3509 3.7837 12.9940 -5.9095 -0.8266 24.6905
#
#
#
# Elastic Compliance Matrix: (Units=1/GPa)
#
#
# Indices 1 2 3 4 5 6 
#
# 1 0.045239 -0.027723 -0.015547 -0.017269 -0.009345 -0.010981
# 2 -0.027723 0.039900 0.007233 0.021349 0.007874 0.007075
# 3 -0.015547 0.007233 0.015708 0.007294 0.003328 -0.001000
# 4 -0.017269 0.021349 0.007294 0.046237 0.003465 0.011312
# 5 -0.009345 0.007874 0.003328 0.003465 0.033614 0.002914
# 6 -0.010981 0.007075 -0.001000 0.011312 0.002914 0.047352
#
#
# Mechanical properties :
#
#
# Convention : Reuss Voigt Hill
#
# Bulk Modulus (GPa) = 34.75439 45.00098 39.87768
# Shear Modulus (GPa) = 16.14393 25.94755 21.04574
#
# Velocity S-wave (km/s) = 3.01314 3.81999 3.44030
# Velocity P-wave (km/s) = 5.62587 6.69059 6.18120
#
# Compressibility (1/GPa) = 0.02877334
#
# Stress axis : x y z
#
# Youngs Moduli (GPa) = 22.10466 25.06287 63.66379
#
# Poissons Ratio (x) = 0.69481 0.98976
# Poissons Ratio (y) = 0.61280 -0.46046
# Poissons Ratio (z) = 0.34365 -0.18127
#
# Static dielectric constant tensor:
#      x y z
#    x 1.620950 -0.002020 -0.012350 
#    y -0.002020 1.607010 -0.026170 
#    z -0.012350 -0.026170 1.661380 
# 
# From -- ./inp_files/463805.got.cif
#   From: 2010.05.17/outbox.cif.g08.bks.cpg/sg2_232_cif.got.tgz:463805.got - 2010.06.03 11:33:40.
