data_PCOD9076724
_publ_section_title
;
Structure prediction by ZEFSAII (Michael W. Deem and Ramdas Pophale) SiO2 
 PCOD9076724
Probable space group: P -1
;
_chemical_formula_sum "Si O2"
_cell_formula_units_Z 12
_cell_length_a 16.939982
_cell_length_b 9.109024
_cell_length_c 17.997662
_cell_angle_alpha 148.002673
_cell_angle_beta 25.681906
_cell_angle_gamma 137.724252
_cell_volume 634.132772
_symmetry_space_group_name_H-M "P -1"
_symmetry_group_IT_number 2
_symmetry_cell_setting 'triclinic'
loop_
_space_group_symop_operation_xyz
x,y,z
-x,-y,-z
loop_
_atom_site_type_symbol
_atom_site_label
_atom_site_fract_x
_atom_site_fract_y
_atom_site_fract_z
Si Si1 0.797151 0.919410 0.358987
Si Si2 0.884869 0.403123 0.970079
Si Si3 0.510018 0.877996 0.704125
Si Si4 0.540199 0.188445 0.115564
Si Si5 0.229443 0.703870 0.759800
Si Si6 0.334966 0.802436 0.553810
O O1 0.644720 0.013894 0.590559
O O2 0.992521 0.848377 0.201531
O O3 0.782448 0.116222 0.384935
O O4 0.769231 0.611572 0.215666
O O5 0.034075 0.593218 0.892623
O O6 0.744853 0.282674 0.982277
O O7 0.482738 0.960992 0.848978
O O8 0.317295 0.879114 0.824915
O O9 0.622812 0.571112 0.485110
O O10 0.411365 0.479420 0.345959
O O11 0.500000 0.000000 0.000000
O O12 0.233568 0.846408 0.737410
O O13 0.500000 0.000000 0.500000
#
# Coordination Sequence:
#
# PCOD9076724 Si02
#       6
#     2   2   2   2   2   2
#     4  10  18  33  59  85 108 137 182 230 267 312
#     4  10  19  33  54  86 110 138 181 228 270 317
#     4   9  16  32  53  78 108 147 175 212 278 329
#     4  11  23  39  55  76 111 151 184 218 270 331
#     4   9  17  29  56  85 110 135 177 227 272 310
#     4  11  19  36  58  86 110 140 180 225 269 318
#
# _framework density 18.923483000000001
#
# number of rings (size 3 to 8) (size 9 to 14) (size 15 to 20)
#    0.000    2.000    3.333    4.000    0.000    0.667 
#    0.000    9.167    0.000    0.000    0.000    0.000 
#    0.000    0.000    0.000    0.000    0.000    0.000 
#
# Total GULP energy -66854.723266 kJ/mol
# GULP energy per Si atom -5571.226939 kJ/mol
# Density = 1.888041 g / cm^3
# Si number density = 18.923483 Si / 1000 Ang^3
#
#
#
# Elastic Constant Matrix: (Units=GPa)
#
#
# Indices 1 2 3 4 5 6 
#
# 1 165.8971 57.7868 57.4023 -9.3805 17.5305 -9.2271
# 2 57.7868 50.2379 40.3798 -18.3580 8.9953 -10.3743
# 3 57.4023 40.3798 69.5698 -23.2535 13.5874 4.2432
# 4 -9.3805 -18.3580 -23.2535 33.0617 -4.5208 6.7244
# 5 17.5305 8.9953 13.5874 -4.5208 36.8268 0.2240
# 6 -9.2271 -10.3743 4.2432 6.7244 0.2240 46.3003
#
#
#
# Elastic Compliance Matrix: (Units=1/GPa)
#
#
# Indices 1 2 3 4 5 6 
#
# 1 0.011548 -0.011118 -0.005166 -0.007037 -0.001747 0.001314
# 2 -0.011118 0.054347 -0.019223 0.011522 0.000463 0.010048
# 3 -0.005166 -0.019223 0.036319 0.015014 -0.004337 -0.010825
# 4 -0.007037 0.011522 0.015014 0.046735 0.000775 -0.006988
# 5 -0.001747 0.000463 -0.004337 0.000775 0.029569 -0.000103
# 6 0.001314 0.010048 -0.010825 -0.006988 -0.000103 0.026119
#
#
# Mechanical properties :
#
#
# Convention : Reuss Voigt Hill
#
# Bulk Modulus (GPa) = 32.05025 66.31583 49.18304
# Shear Modulus (GPa) = 17.47946 31.91349 24.69648
#
# Velocity S-wave (km/s) = 3.04253 4.11110 3.61649
# Velocity P-wave (km/s) = 5.41444 7.59309 6.59436
#
# Compressibility (1/GPa) = 0.03120100
#
# Stress axis : x y z
#
# Youngs Moduli (GPa) = 86.59629 18.40030 27.53350
#
# Poissons Ratio (x) = 0.20457 0.14224
# Poissons Ratio (y) = 0.96277 0.52927
# Poissons Ratio (z) = 0.44735 0.35370
#
# Static dielectric constant tensor:
#      x y z
#    x 1.695170 -0.044500 0.003730 
#    y -0.044500 1.686260 -0.039800 
#    z 0.003730 -0.039800 1.703940 
# 
# From -- ./inp_files/211729.got.cif
#   From: 2010.05.17/outbox.cif.g08.bks.cpg/sg2_106_cif.got.tgz:211729.got - 2010.06.03 11:33:40.
