data_PCOD9076058
_publ_section_title
;
Structure prediction by ZEFSAII (Michael W. Deem and Ramdas Pophale) SiO2 
 PCOD9076058
Probable space group: P -1
;
_chemical_formula_sum "Si O2"
_cell_formula_units_Z 16
_cell_length_a 8.470635
_cell_length_b 8.364276
_cell_length_c 22.096502
_cell_angle_alpha 117.366295
_cell_angle_beta 50.289483
_cell_angle_gamma 79.038952
_cell_volume 755.129026
_symmetry_space_group_name_H-M "P -1"
_symmetry_group_IT_number 2
_symmetry_cell_setting 'triclinic'
loop_
_space_group_symop_operation_xyz
x,y,z
-x,-y,-z
loop_
_atom_site_type_symbol
_atom_site_label
_atom_site_fract_x
_atom_site_fract_y
_atom_site_fract_z
Si Si1 0.285672 0.860890 0.279940
Si Si2 0.632296 0.682004 0.789829
Si Si3 0.455277 0.879526 0.573524
Si Si4 0.657356 0.488629 0.220012
Si Si5 0.677418 0.822648 0.983894
Si Si6 0.687947 0.118804 0.525632
Si Si7 0.970345 0.426035 0.430027
Si Si8 0.796818 0.397530 0.825320
O O1 0.557218 0.695837 0.229592
O O2 0.356167 0.688531 0.175869
O O3 0.029080 0.932156 0.397100
O O4 0.133714 0.135586 0.343564
O O5 0.411149 0.662400 0.819441
O O6 0.784741 0.524607 0.788055
O O7 0.867161 0.564806 0.660299
O O8 0.468845 0.973039 0.891098
O O9 0.452486 0.802190 0.492892
O O10 0.632054 0.637135 0.531221
O O11 0.613433 0.974599 0.549189
O O12 0.122613 0.132096 0.714570
O O13 0.456732 0.642455 0.354892
O O14 0.988840 0.320284 0.126280
O O15 0.674255 0.607350 0.942711
O O16 0.500000 0.000000 0.000000
O O17 0.000000 0.500000 0.500000
#
# Coordination Sequence:
#
# PCOD9076058 Si02
#       8
#     2   2   2   2   2   2   2   2
#     4  10  22  35  55  88 125 158 190 232 287 361
#     4  10  22  39  59  89 117 149 199 247 283 345
#     4  10  19  33  58  84 119 148 194 242 288 342
#     4  11  19  36  63  87 118 148 195 244 299 336
#     4  10  21  37  65  91 111 145 200 254 291 332
#     4  10  18  32  59  90 111 154 192 239 295 339
#     4  12  24  37  55  85 127 160 191 233 293 350
#     4   9  19  39  62  88 112 152 195 246 294 333
#
# _framework density 21.188431000000001
#
# number of rings (size 3 to 8) (size 9 to 14) (size 15 to 20)
#    0.000    1.750    1.250    5.250    1.750    2.000 
#    0.000    1.250    0.000    0.000    0.000    0.000 
#    0.000    0.000    0.000    0.000    0.000    0.000 
#
# Total GULP energy -89300.938816 kJ/mol
# GULP energy per Si atom -5581.308676 kJ/mol
# Density = 2.114021 g / cm^3
# Si number density = 21.188431 Si / 1000 Ang^3
#
#
#
# Elastic Constant Matrix: (Units=GPa)
#
#
# Indices 1 2 3 4 5 6 
#
# 1 102.5806 25.0669 52.9017 29.9761 6.9997 -11.5514
# 2 25.0669 58.0428 14.0238 33.4904 6.5701 -9.2559
# 3 52.9017 14.0238 86.6248 29.8025 20.7609 -13.8012
# 4 29.9761 33.4904 29.8025 35.1247 4.4490 -3.0517
# 5 6.9997 6.5701 20.7609 4.4490 49.8077 10.3426
# 6 -11.5514 -9.2559 -13.8012 -3.0517 10.3426 17.6933
#
#
#
# Elastic Compliance Matrix: (Units=1/GPa)
#
#
# Indices 1 2 3 4 5 6 
#
# 1 0.015729 -0.001466 -0.007289 -0.005789 0.001085 0.002184
# 2 -0.001466 0.090688 0.049504 -0.114318 -0.040695 0.089169
# 3 -0.007289 0.049504 0.054248 -0.076224 -0.036141 0.071432
# 4 -0.005789 -0.114318 -0.076224 0.189225 0.056377 -0.123356
# 5 0.001085 -0.040695 -0.036141 0.056377 0.049430 -0.067942
# 6 0.002184 0.089169 0.071432 -0.123356 -0.067942 0.178748
#
#
# Mechanical properties :
#
#
# Convention : Reuss Voigt Hill
#
# Bulk Modulus (GPa) = 4.12946 47.91476 26.02211
# Shear Modulus (GPa) = 8.66114 30.87553 19.76834
#
# Velocity S-wave (km/s) = 2.02399 3.82145 3.05778
# Velocity P-wave (km/s) = 2.72309 6.49108 4.97741
#
# Compressibility (1/GPa) = 0.24216224
#
# Stress axis : x y z
#
# Youngs Moduli (GPa) = 63.57619 11.02682 18.43395
#
# Poissons Ratio (x) = 0.01617 0.13436
# Poissons Ratio (y) = 0.09322 -0.91255
# Poissons Ratio (z) = 0.46339 -0.54587
#
# Static dielectric constant tensor:
#      x y z
#    x 1.802700 0.021570 0.013750 
#    y 0.021570 1.804590 0.023780 
#    z 0.013750 0.023780 1.777480 
# 
# From -- ./inp_files/327746.got.cif
#   From: 2010.05.17/outbox.cif.g08.bks.cpg/sg2_164_cif.got.tgz:327746.got - 2010.06.03 11:33:40.
