data_PCOD9076594
_publ_section_title
;
Structure prediction by ZEFSAII (Michael W. Deem and Ramdas Pophale) SiO2 
 PCOD9076594
Probable space group: P -1
;
_chemical_formula_sum "Si O2"
_cell_formula_units_Z 16
_cell_length_a 9.528596
_cell_length_b 21.349845
_cell_length_c 23.574295
_cell_angle_alpha 18.574388
_cell_angle_beta 38.340339
_cell_angle_gamma 29.359691
_cell_volume 721.633807
_symmetry_space_group_name_H-M "P -1"
_symmetry_group_IT_number 2
_symmetry_cell_setting 'triclinic'
loop_
_space_group_symop_operation_xyz
x,y,z
-x,-y,-z
loop_
_atom_site_type_symbol
_atom_site_label
_atom_site_fract_x
_atom_site_fract_y
_atom_site_fract_z
Si Si1 0.231347 0.490947 0.104169
Si Si2 0.472723 0.697383 0.674864
Si Si3 0.192147 0.077107 0.797605
Si Si4 0.331159 0.436941 0.397583
Si Si5 0.895138 0.115885 0.558158
Si Si6 0.815279 0.193248 0.065459
Si Si7 0.732809 0.941707 0.409710
Si Si8 0.859481 0.666433 0.960079
O O1 0.426430 0.197682 0.314662
O O2 0.500000 0.500000 0.000000
O O3 0.040078 0.719348 0.015156
O O4 0.046784 0.520194 0.083450
O O5 0.514024 0.628951 0.655231
O O6 0.719514 0.722007 0.588869
O O7 0.537519 0.474147 0.886160
O O8 0.158479 0.975623 0.548787
O O9 0.257470 0.247749 0.596797
O O10 0.965227 0.270125 0.752329
O O11 0.057058 0.989803 0.872731
O O12 0.508507 0.818729 0.941088
O O13 0.577892 0.370812 0.420713
O O14 0.007581 0.140819 0.559850
O O15 0.863401 0.899932 0.758457
O O16 0.747545 0.052370 0.250646
O O17 0.000000 0.500000 0.000000
#
# Coordination Sequence:
#
# PCOD9076594 Si02
#       8
#     2   2   2   2   2   2   2   2
#     4  10  18  33  57  92 126 157 199 253 317 365
#     4  12  23  39  67  97 128 165 213 267 321 370
#     4  10  22  44  64  90 128 173 216 258 313 381
#     4  10  24  42  64  91 129 175 214 256 320 379
#     4  11  21  38  61  97 129 164 211 264 317 378
#     4  11  21  40  65  92 126 171 206 261 320 369
#     4  11  21  40  61  97 135 161 205 263 323 383
#     4  11  20  34  65  98 124 162 216 259 315 378
#
# _framework density 22.17191
#
# number of rings (size 3 to 8) (size 9 to 14) (size 15 to 20)
#    0.000    1.250    5.000    3.750    1.750    0.500 
#    2.250    1.875    0.000    1.500    0.000    0.000 
#    0.000    0.000    0.000    0.000    0.000    0.000 
#
# Total GULP energy -89240.799278 kJ/mol
# GULP energy per Si atom -5577.549955 kJ/mol
# Density = 2.212145 g / cm^3
# Si number density = 22.171910 Si / 1000 Ang^3
#
#
#
# Elastic Constant Matrix: (Units=GPa)
#
#
# Indices 1 2 3 4 5 6 
#
# 1 144.3838 6.4144 36.4450 -13.1399 -2.9159 -9.8212
# 2 6.4144 30.3974 10.3505 -10.2542 11.7090 -11.4608
# 3 36.4450 10.3505 71.4139 -0.8253 -0.7410 -9.7285
# 4 -13.1399 -10.2542 -0.8253 29.9736 -1.4988 2.8161
# 5 -2.9159 11.7090 -0.7410 -1.4988 33.8239 -1.0948
# 6 -9.8212 -11.4608 -9.7285 2.8161 -1.0948 15.6794
#
#
#
# Elastic Compliance Matrix: (Units=1/GPa)
#
#
# Indices 1 2 3 4 5 6 
#
# 1 0.008488 0.002347 -0.004111 0.004064 0.000131 0.003761
# 2 0.002347 0.062367 -0.004850 0.017545 -0.019437 0.039540
# 3 -0.004111 -0.004850 0.017530 -0.003408 0.001735 0.005490
# 4 0.004064 0.017545 -0.003408 0.040322 -0.003825 0.005746
# 5 0.000131 -0.019437 0.001735 -0.003825 0.035854 -0.009858
# 6 0.003761 0.039540 0.005490 0.005746 -0.009858 0.096721
#
#
# Mechanical properties :
#
#
# Convention : Reuss Voigt Hill
#
# Bulk Modulus (GPa) = 13.30537 39.17945 26.24241
# Shear Modulus (GPa) = 16.69108 28.76106 22.72607
#
# Velocity S-wave (km/s) = 2.74670 3.60555 3.20503
# Velocity P-wave (km/s) = 4.00914 5.91967 5.05548
#
# Compressibility (1/GPa) = 0.07515763
#
# Stress axis : x y z
#
# Youngs Moduli (GPa) = 117.81719 16.03416 57.04390
#
# Poissons Ratio (x) = -0.03763 0.23452
# Poissons Ratio (y) = -0.27653 0.27664
# Poissons Ratio (z) = 0.48436 0.07776
#
# Static dielectric constant tensor:
#      x y z
#    x 1.875650 0.022580 0.017670 
#    y 0.022580 1.862410 0.068900 
#    z 0.017670 0.068900 1.886330 
# 
# From -- ./inp_files/608639.got.cif
#   From: 2010.05.17/outbox.cif.g08.bks.cpg/sg2_305_cif.got.tgz:608639.got - 2010.06.03 11:33:40.
