data_PCOD9076346
_publ_section_title
;
Structure prediction by ZEFSAII (Michael W. Deem and Ramdas Pophale) SiO2 
 PCOD9076346
Probable space group: P -1
;
_chemical_formula_sum "Si O2"
_cell_formula_units_Z 16
_cell_length_a 23.429626
_cell_length_b 12.498214
_cell_length_c 9.368511
_cell_angle_alpha 65.886356
_cell_angle_beta 46.514957
_cell_angle_gamma 28.027792
_cell_volume 759.638437
_symmetry_space_group_name_H-M "P -1"
_symmetry_group_IT_number 2
_symmetry_cell_setting 'triclinic'
loop_
_space_group_symop_operation_xyz
x,y,z
-x,-y,-z
loop_
_atom_site_type_symbol
_atom_site_label
_atom_site_fract_x
_atom_site_fract_y
_atom_site_fract_z
Si Si1 0.341151 0.593232 0.526332
Si Si2 0.010835 0.166862 0.308445
Si Si3 0.620704 0.096727 0.508657
Si Si4 0.092278 0.463487 0.573495
Si Si5 0.598399 0.233365 0.756646
Si Si6 0.917935 0.911335 0.101037
Si Si7 0.714845 0.385830 0.710440
Si Si8 0.959719 0.403127 0.707665
O O1 0.447573 0.572205 0.320351
O O2 0.266344 0.658484 0.466027
O O3 0.186233 0.841599 0.773813
O O4 0.474374 0.315627 0.516486
O O5 0.016749 0.291265 0.284722
O O6 0.815441 0.371429 0.582010
O O7 0.171520 0.870472 0.264852
O O8 0.021456 0.144824 0.131775
O O9 0.739425 0.817854 0.468588
O O10 0.768611 0.005485 0.293207
O O11 0.530781 0.240852 0.741011
O O12 0.971007 0.514008 0.705417
O O13 0.157061 0.429459 0.327624
O O14 0.825165 0.915311 0.544241
O O15 0.496779 0.338351 0.019637
O O16 0.073612 0.649886 0.086137
#
# Coordination Sequence:
#
# PCOD9076346 Si02
#       8
#     2   2   2   2   2   2   2   2
#     4  10  18  33  55  79 103 131 174 221 256 295
#     4  11  22  36  50  74 110 141 170 208 258 311
#     4   9  18  32  56  80 101 130 168 215 264 304
#     4   9  18  35  54  80 108 133 167 211 260 309
#     4   9  17  34  56  79 101 128 172 223 259 294
#     4   9  18  33  55  79 104 132 167 216 262 301
#     4  11  23  34  52  76 103 141 177 211 255 306
#     4   8  17  34  60  84  99 128 174 214 259 304
#
# _framework density 21.062652
#
# number of rings (size 3 to 8) (size 9 to 14) (size 15 to 20)
#    0.000    3.000    0.000    4.875    0.000    3.500 
#    0.000    6.875    0.000    0.000    0.000    0.000 
#    0.000    0.000    0.000    0.000    0.000    0.000 
#
# Total GULP energy -89224.251142 kJ/mol
# GULP energy per Si atom -5576.515696 kJ/mol
# Density = 2.101471 g / cm^3
# Si number density = 21.062652 Si / 1000 Ang^3
#
#
#
# Elastic Constant Matrix: (Units=GPa)
#
#
# Indices 1 2 3 4 5 6 
#
# 1 14.5483 7.7566 48.9697 -7.5182 8.3774 4.1815
# 2 7.7566 103.3029 39.7202 -26.4958 1.5526 -16.7229
# 3 48.9697 39.7202 68.1142 -5.5276 23.2017 1.7551
# 4 -7.5182 -26.4958 -5.5276 10.7193 -8.4283 15.7982
# 5 8.3774 1.5526 23.2017 -8.4283 15.2366 -1.4763
# 6 4.1815 -16.7229 1.7551 15.7982 -1.4763 13.4334
#
#
#
# Elastic Compliance Matrix: (Units=1/GPa)
#
#
# Indices 1 2 3 4 5 6 
#
# 1 -0.031564 -0.019471 0.056220 0.051816 -0.046112 -0.087764
# 2 -0.019471 0.015744 -0.000167 0.005150 0.014258 0.021192
# 3 0.056220 -0.000167 -0.025422 -0.050638 -0.015988 0.043408
# 4 0.051816 0.005150 -0.050638 -0.149424 -0.018027 0.170645
# 5 -0.046112 0.014258 -0.015988 -0.018027 0.110448 0.067529
# 6 -0.087764 0.021192 0.043408 0.170645 0.067529 -0.070794
#
#
# Mechanical properties :
#
#
# Convention : Reuss Voigt Hill
#
# Bulk Modulus (GPa) = 31.32654 42.09537 36.71095
# Shear Modulus (GPa) = -23.41545 13.84581 -4.78482
#
# Velocity S-wave (km/s) = -3.33784 2.56669 -1.50885
# Velocity P-wave (km/s) = 0.22452 5.36778 3.79891
#
# Compressibility (1/GPa) = 0.03192182
#
# Stress axis : x y z
#
# Youngs Moduli (GPa) = -31.68215 63.51745 -39.33641
#
# Poissons Ratio (x) = 1.23675 2.21149
# Poissons Ratio (y) = -0.61688 -0.00657
# Poissons Ratio (z) = 1.78116 0.01062
#
# Static dielectric constant tensor:
#      x y z
#    x 1.761920 -0.027730 -0.013280 
#    y -0.027730 1.791020 -0.010810 
#    z -0.013280 -0.010810 1.779520 
# 
# From -- ./inp_files/353470.got.cif
#   From: 2010.05.17/outbox.cif.g08.bks.cpg/sg2_177_cif.got.tgz:353470.got - 2010.06.03 11:33:40.
