data_PCOD9076429
_publ_section_title
;
Structure prediction by ZEFSAII (Michael W. Deem and Ramdas Pophale) SiO2 
 PCOD9076429
Probable space group: P -1
;
_chemical_formula_sum "Si O2"
_cell_formula_units_Z 14
_cell_length_a 11.345052
_cell_length_b 10.632675
_cell_length_c 20.567163
_cell_angle_alpha 53.009793
_cell_angle_beta 28.001614
_cell_angle_gamma 37.086611
_cell_volume 654.602147
_symmetry_space_group_name_H-M "P -1"
_symmetry_group_IT_number 2
_symmetry_cell_setting 'triclinic'
loop_
_space_group_symop_operation_xyz
x,y,z
-x,-y,-z
loop_
_atom_site_type_symbol
_atom_site_label
_atom_site_fract_x
_atom_site_fract_y
_atom_site_fract_z
Si Si1 0.215235 0.613738 0.301772
Si Si2 0.470038 0.824889 0.371951
Si Si3 0.457456 0.793070 0.637211
Si Si4 0.978368 0.030579 0.331812
Si Si5 0.939537 0.880802 0.154976
Si Si6 0.424448 0.319277 0.175494
Si Si7 0.997758 0.775770 0.627388
O O1 0.414535 0.413127 0.318873
O O2 0.336516 0.507883 0.203969
O O3 0.800726 0.747073 0.468440
O O4 0.256596 0.777666 0.248966
O O5 0.238932 0.961639 0.507034
O O6 0.843024 0.743228 0.227807
O O7 0.389760 0.673936 0.452001
O O8 0.274664 0.996679 0.353722
O O9 0.275891 0.821062 0.650549
O O10 0.181729 0.013712 0.747359
O O11 0.095162 0.134645 0.281210
O O12 0.673783 0.099455 0.169216
O O13 0.336011 0.747100 0.982427
O O14 0.082963 0.364856 0.310075
#
# Coordination Sequence:
#
# PCOD9076429 Si02
#       7
#     2   2   2   2   2   2   2
#     4  10  20  32  55  83 106 137 184 230 256 315
#     4   8  15  28  56  75  99 142 185 205 263 321
#     4  10  19  31  54  81 108 136 183 222 268 310
#     4  10  18  33  56  78 107 141 178 223 268 315
#     4   9  16  31  52  80 101 146 178 216 265 329
#     4   9  18  32  53  76 111 139 179 219 272 312
#     4   8  16  31  53  77 104 149 172 213 273 328
#
# _framework density 21.387038
#
# number of rings (size 3 to 8) (size 9 to 14) (size 15 to 20)
#    0.857    2.000    1.429    0.429    2.000    0.000 
#    0.000    2.143    0.000   15.429    0.000    0.000 
#    0.000    0.000    0.000    0.000    0.000    0.000 
#
# Total GULP energy -78053.332930 kJ/mol
# GULP energy per Si atom -5575.238066 kJ/mol
# Density = 2.133836 g / cm^3
# Si number density = 21.387038 Si / 1000 Ang^3
#
#
#
# Elastic Constant Matrix: (Units=GPa)
#
#
# Indices 1 2 3 4 5 6 
#
# 1 134.5965 22.5637 27.6805 3.5537 16.7153 -2.2082
# 2 22.5637 83.2461 3.2113 9.0043 1.7745 -4.5624
# 3 27.6805 3.2113 68.1544 6.0675 10.2601 7.6693
# 4 3.5537 9.0043 6.0675 12.3153 8.9405 0.8624
# 5 16.7153 1.7745 10.2601 8.9405 25.5772 -2.9535
# 6 -2.2082 -4.5624 7.6693 0.8624 -2.9535 25.4458
#
#
#
# Elastic Compliance Matrix: (Units=1/GPa)
#
#
# Indices 1 2 3 4 5 6 
#
# 1 0.009220 -0.002836 -0.003171 0.005678 -0.006507 0.000300
# 2 -0.002836 0.014406 0.000463 -0.014678 0.006193 0.003414
# 3 -0.003171 0.000463 0.017624 -0.004772 -0.004033 -0.005810
# 4 0.005678 -0.014678 -0.004772 0.127047 -0.046387 -0.010391
# 5 -0.006507 0.006193 -0.004033 -0.046387 0.061968 0.010526
# 6 0.000300 0.003414 -0.005810 -0.010391 0.010526 0.043262
#
#
# Mechanical properties :
#
#
# Convention : Reuss Voigt Hill
#
# Bulk Modulus (GPa) = 33.15216 43.65644 38.40430
# Shear Modulus (GPa) = 16.96819 28.17042 22.56930
#
# Velocity S-wave (km/s) = 2.81977 3.63322 3.25203
# Velocity P-wave (km/s) = 5.11235 6.16906 5.66540
#
# Compressibility (1/GPa) = 0.03016394
#
# Stress axis : x y z
#
# Youngs Moduli (GPa) = 108.45767 69.41549 56.73991
#
# Poissons Ratio (x) = 0.19685 0.17991
# Poissons Ratio (y) = 0.30757 -0.02629
# Poissons Ratio (z) = 0.34389 -0.03216
#
# Static dielectric constant tensor:
#      x y z
#    x 1.784420 -0.010980 -0.016000 
#    y -0.010980 1.860070 -0.015900 
#    z -0.016000 -0.015900 1.731840 
# 
# From -- ./inp_files/594942.got.cif
#   From: 2010.05.17/outbox.cif.g08.bks.cpg/sg2_298_cif.got.tgz:594942.got - 2010.06.03 11:33:40.
