data_PCOD9076759
_publ_section_title
;
Structure prediction by ZEFSAII (Michael W. Deem and Ramdas Pophale) SiO2 
 PCOD9076759
Probable space group: P -1
;
_chemical_formula_sum "Si O2"
_cell_formula_units_Z 14
_cell_length_a 8.794328
_cell_length_b 12.341496
_cell_length_c 7.486506
_cell_angle_alpha 109.290734
_cell_angle_beta 114.863451
_cell_angle_gamma 111.194795
_cell_volume 564.664914
_symmetry_space_group_name_H-M "P -1"
_symmetry_group_IT_number 2
_symmetry_cell_setting 'triclinic'
loop_
_space_group_symop_operation_xyz
x,y,z
-x,-y,-z
loop_
_atom_site_type_symbol
_atom_site_label
_atom_site_fract_x
_atom_site_fract_y
_atom_site_fract_z
Si Si1 0.814923 0.432044 0.012786
Si Si2 0.928154 0.089158 0.913804
Si Si3 0.596481 0.435695 0.614005
Si Si4 0.751079 0.105794 0.185112
Si Si5 0.263639 0.158021 0.865451
Si Si6 0.259159 0.641783 0.664548
Si Si7 0.407231 0.175808 0.573815
O O1 0.685050 0.485096 0.885045
O O2 0.646949 0.261670 0.797988
O O3 0.836860 0.441748 0.241781
O O4 0.000000 0.500000 0.000000
O O5 0.108573 0.177433 0.906831
O O6 0.718147 0.982312 0.641361
O O7 0.866596 0.149522 0.074262
O O8 0.000000 0.000000 0.000000
O O9 0.500000 0.500000 0.500000
O O10 0.758057 0.448548 0.560746
O O11 0.422512 0.269401 0.468729
O O12 0.799039 0.251467 0.362166
O O13 0.805714 0.004593 0.244045
O O14 0.500000 0.000000 0.000000
O O15 0.287859 0.187462 0.683590
O O16 0.494614 0.257738 0.112331
#
# Coordination Sequence:
#
# PCOD9076759 Si02
#       7
#     2   2   2   2   2   2   2
#     4   9  22  43  63  89 124 162 211 263 313 362
#     4  10  18  33  59  90 127 162 204 244 303 385
#     4  10  22  41  67  88 116 167 216 263 315 356
#     4   9  18  33  57  91 121 172 190 240 314 376
#     4   9  18  35  59  90 126 161 201 249 305 382
#     4  10  20  42  62  86 132 160 201 262 314 368
#     4   9  19  37  59  90 124 158 206 258 303 361
#
# _framework density 24.793465999999999
#
# number of rings (size 3 to 8) (size 9 to 14) (size 15 to 20)
#    0.857    1.714    0.000    3.000    0.000    1.143 
#   10.286    2.857    0.000    0.000    0.000    0.000 
#    0.000    0.000    0.000    0.000    0.000    0.000 
#
# Total GULP energy -78026.104987 kJ/mol
# GULP energy per Si atom -5573.293213 kJ/mol
# Density = 2.473703 g / cm^3
# Si number density = 24.793466 Si / 1000 Ang^3
#
#
#
# Elastic Constant Matrix: (Units=GPa)
#
#
# Indices 1 2 3 4 5 6 
#
# 1 139.5420 55.0348 11.4610 -2.4623 -15.0098 36.1430
# 2 55.0348 96.7491 14.8612 -26.5622 -8.4138 26.3731
# 3 11.4610 14.8612 45.7131 -17.6728 -4.2686 14.6234
# 4 -2.4623 -26.5622 -17.6728 38.7184 16.7330 -2.0951
# 5 -15.0098 -8.4138 -4.2686 16.7330 36.8037 -1.5602
# 6 36.1430 26.3731 14.6234 -2.0951 -1.5602 44.3438
#
#
#
# Elastic Compliance Matrix: (Units=1/GPa)
#
#
# Indices 1 2 3 4 5 6 
#
# 1 0.011783 -0.006478 -0.001354 -0.007313 0.006262 -0.005430
# 2 -0.006478 0.019386 0.003326 0.016457 -0.005593 -0.006766
# 3 -0.001354 0.003326 0.030887 0.017777 -0.004732 -0.010387
# 4 -0.007313 0.016457 0.017777 0.053833 -0.021969 -0.007919
# 5 0.006262 -0.005593 -0.004732 -0.021969 0.037889 0.000078
# 6 -0.005430 -0.006766 -0.010387 -0.007919 0.000078 0.034055
#
#
# Mechanical properties :
#
#
# Convention : Reuss Voigt Hill
#
# Bulk Modulus (GPa) = 18.85137 49.41312 34.13225
# Shear Modulus (GPa) = 23.30716 37.34966 30.32841
#
# Velocity S-wave (km/s) = 3.06935 3.88549 3.50128
# Velocity P-wave (km/s) = 4.49234 6.33266 5.49016
#
# Compressibility (1/GPa) = 0.05304654
#
# Stress axis : x y z
#
# Youngs Moduli (GPa) = 84.86550 51.58353 32.37578
#
# Poissons Ratio (x) = 0.33414 0.04382
# Poissons Ratio (y) = 0.54973 -0.10769
# Poissons Ratio (z) = 0.11487 -0.17157
#
# Static dielectric constant tensor:
#      x y z
#    x 2.004970 0.010790 0.093890 
#    y 0.010790 2.036200 0.094940 
#    z 0.093890 0.094940 2.217030 
# 
# From -- ./inp_files/181903.got.cif
#   From: 2010.05.17/outbox.cif.g08.bks.cpg/sg2_91_cif.got.tgz:181903.got - 2010.06.03 11:33:40.
