data_PCOD9076207
_publ_section_title
;
Structure prediction by ZEFSAII (Michael W. Deem and Ramdas Pophale) SiO2 
 PCOD9076207
Probable space group: P -1
;
_chemical_formula_sum "Si O2"
_cell_formula_units_Z 16
_cell_length_a 12.704082
_cell_length_b 8.747218
_cell_length_c 10.431092
_cell_angle_alpha 123.667791
_cell_angle_beta 96.479193
_cell_angle_gamma 112.611736
_cell_volume 806.428451
_symmetry_space_group_name_H-M "P -1"
_symmetry_group_IT_number 2
_symmetry_cell_setting 'triclinic'
loop_
_space_group_symop_operation_xyz
x,y,z
-x,-y,-z
loop_
_atom_site_type_symbol
_atom_site_label
_atom_site_fract_x
_atom_site_fract_y
_atom_site_fract_z
Si Si1 0.039989 0.893322 0.350406
Si Si2 0.735007 0.654966 0.453932
Si Si3 0.287550 0.744645 0.865959
Si Si4 0.379172 0.642317 0.479491
Si Si5 0.565649 0.762499 0.335550
Si Si6 0.536896 0.929748 0.152362
Si Si7 0.772719 0.254540 0.647797
Si Si8 0.129698 0.537218 0.983282
O O1 0.110991 0.778780 0.363135
O O2 0.915030 0.707424 0.175648
O O3 0.147557 0.103795 0.385951
O O4 0.000000 0.000000 0.500000
O O5 0.764250 0.477567 0.325315
O O6 0.649713 0.549817 0.518352
O O7 0.654872 0.675575 0.340098
O O8 0.186631 0.691089 0.938196
O O9 0.340837 0.945053 0.866410
O O10 0.413214 0.804222 0.989745
O O11 0.448092 0.648361 0.361929
O O12 0.248240 0.616859 0.406309
O O13 0.456680 0.869049 0.676167
O O14 0.539230 0.775702 0.189369
O O15 0.648211 0.014524 0.509887
O O16 0.779150 0.356081 0.834196
O O17 0.000000 0.500000 0.000000
#
# Coordination Sequence:
#
# PCOD9076207 Si02
#       8
#     2   2   2   2   2   2   2   2
#     4  10  19  36  55  77 106 143 181 226 274 312
#     4  10  21  32  53  78 108 146 181 225 275 320
#     4  10  18  33  52  80 111 138 182 220 275 320
#     4  10  18  34  54  79 111 140 183 221 266 330
#     4  10  18  33  54  81 112 141 179 216 280 324
#     4   9  19  31  54  80 107 142 175 224 264 334
#     4   9  19  33  57  82 103 142 186 214 269 325
#     4  10  19  33  59  79 105 144 188 222 265 323
#
# _framework density 19.84057
#
# number of rings (size 3 to 8) (size 9 to 14) (size 15 to 20)
#    0.000    2.250    1.250    3.375    0.000    0.500 
#    0.000    2.500    8.250    0.000    0.000    0.000 
#    0.000    0.000    0.000    0.000    0.000    0.000 
#
# Total GULP energy -89129.512456 kJ/mol
# GULP energy per Si atom -5570.594529 kJ/mol
# Density = 1.979541 g / cm^3
# Si number density = 19.840570 Si / 1000 Ang^3
#
#
#
# Elastic Constant Matrix: (Units=GPa)
#
#
# Indices 1 2 3 4 5 6 
#
# 1 31.1076 19.6767 4.6036 -5.8853 -4.3995 13.8395
# 2 19.6767 103.3364 13.3640 -27.5425 -0.0343 11.7309
# 3 4.6036 13.3640 79.6058 -7.4170 -0.3799 0.2334
# 4 -5.8853 -27.5425 -7.4170 30.8296 0.8677 -4.4179
# 5 -4.3995 -0.0343 -0.3799 0.8677 21.9385 -6.1004
# 6 13.8395 11.7309 0.2334 -4.4179 -6.1004 24.7437
#
#
#
# Elastic Compliance Matrix: (Units=1/GPa)
#
#
# Indices 1 2 3 4 5 6 
#
# 1 0.046677 -0.006222 -0.001606 -0.000337 0.003097 -0.022439
# 2 -0.006222 0.014122 -0.000992 0.010996 -0.002172 -0.001778
# 3 -0.001606 -0.000992 0.013020 0.002176 0.000290 0.001705
# 4 -0.000337 0.010996 0.002176 0.043092 -0.001053 0.002389
# 5 0.003097 -0.002172 0.000290 -0.001053 0.049383 0.011282
# 6 -0.022439 -0.001778 0.001705 0.002389 0.011282 0.057000
#
#
# Mechanical properties :
#
#
# Convention : Reuss Voigt Hill
#
# Bulk Modulus (GPa) = 17.79951 32.14869 24.97410
# Shear Modulus (GPa) = 19.25606 27.26273 23.25940
#
# Velocity S-wave (km/s) = 3.11873 3.71089 3.42762
# Velocity P-wave (km/s) = 4.68608 5.88215 5.31785
#
# Compressibility (1/GPa) = 0.05618133
#
# Stress axis : x y z
#
# Youngs Moduli (GPa) = 21.42404 70.81090 76.80277
#
# Poissons Ratio (x) = 0.44056 0.12332
# Poissons Ratio (y) = 0.13329 0.07616
# Poissons Ratio (z) = 0.03440 0.07021
#
# Static dielectric constant tensor:
#      x y z
#    x 1.762580 0.012960 0.005700 
#    y 0.012960 1.738070 0.013750 
#    z 0.005700 0.013750 1.762840 
# 
# From -- ./inp_files/186910.got.cif
#   From: 2010.05.17/outbox.cif.g08.bks.cpg/sg2_94_cif.got.tgz:186910.got - 2010.06.03 11:33:40.
