data_PCOD9076576
_publ_section_title
;
Structure prediction by ZEFSAII (Michael W. Deem and Ramdas Pophale) SiO2 
 PCOD9076576
Probable space group: P -1
;
_chemical_formula_sum "Si O2"
_cell_formula_units_Z 14
_cell_length_a 14.834935
_cell_length_b 15.235796
_cell_length_c 14.656438
_cell_angle_alpha 140.394340
_cell_angle_beta 160.293450
_cell_angle_gamma 41.324736
_cell_volume 707.027492
_symmetry_space_group_name_H-M "P -1"
_symmetry_group_IT_number 2
_symmetry_cell_setting 'triclinic'
loop_
_space_group_symop_operation_xyz
x,y,z
-x,-y,-z
loop_
_atom_site_type_symbol
_atom_site_label
_atom_site_fract_x
_atom_site_fract_y
_atom_site_fract_z
Si Si1 0.725073 0.037533 0.376675
Si Si2 0.436894 0.247655 0.808576
Si Si3 0.172424 0.392799 0.510898
Si Si4 0.285552 0.855937 0.745181
Si Si5 0.477330 0.920584 0.586620
Si Si6 0.963402 0.137996 0.013420
Si Si7 0.135611 0.650098 0.575141
O O1 0.694631 0.137184 0.339587
O O2 0.623447 0.105399 0.428808
O O3 0.031885 0.968053 0.620264
O O4 0.545844 0.913373 0.082619
O O5 0.410256 0.325405 0.748700
O O6 0.182499 0.313590 0.679995
O O7 0.415364 0.086291 0.645483
O O8 0.710038 0.266656 0.135817
O O9 0.013369 0.269754 0.226491
O O10 0.231123 0.489581 0.559541
O O11 0.000000 0.500000 0.500000
O O12 0.224619 0.711437 0.614084
O O13 0.792910 0.880279 0.841643
O O14 0.314137 0.851264 0.297378
O O15 0.000000 0.000000 0.000000
#
# Coordination Sequence:
#
# PCOD9076576 Si02
#       7
#     2   2   2   2   2   2   2
#     4  10  20  33  56  88 116 151 186 247 289 340
#     4  11  21  35  58  86 115 156 184 240 287 341
#     4  10  25  40  59  84 118 155 199 237 288 347
#     4  10  18  33  57  87 118 145 196 237 294 335
#     4  12  22  38  61  81 125 148 196 236 302 334
#     4  12  26  40  59  85 117 159 196 239 285 351
#     4  11  20  36  57  85 119 149 192 237 293 335
#
# _framework density 19.801210000000001
#
# number of rings (size 3 to 8) (size 9 to 14) (size 15 to 20)
#    0.000    1.143    4.286    2.571    2.000    2.286 
#    0.000    0.000    0.000    1.714    0.000    0.000 
#    0.000    0.000    0.000    0.000    0.000    0.000 
#
# Total GULP energy -78278.388647 kJ/mol
# GULP energy per Si atom -5591.313475 kJ/mol
# Density = 1.975614 g / cm^3
# Si number density = 19.801210 Si / 1000 Ang^3
#
#
#
# Elastic Constant Matrix: (Units=GPa)
#
#
# Indices 1 2 3 4 5 6 
#
# 1 113.4673 37.9032 7.9922 7.7687 6.7573 18.4023
# 2 37.9032 67.2313 2.1758 21.3868 -2.9407 23.0609
# 3 7.9922 2.1758 53.0375 0.8375 1.1114 1.8308
# 4 7.7687 21.3868 0.8375 30.6756 -4.0808 3.0055
# 5 6.7573 -2.9407 1.1114 -4.0808 28.8630 1.1827
# 6 18.4023 23.0609 1.8308 3.0055 1.1827 36.7859
#
#
#
# Elastic Compliance Matrix: (Units=1/GPa)
#
#
# Indices 1 2 3 4 5 6 
#
# 1 0.011392 -0.006377 -0.001357 0.001360 -0.003005 -0.001648
# 2 -0.006377 0.028426 0.000464 -0.016562 0.002578 -0.013383
# 3 -0.001357 0.000464 0.019074 -0.000507 -0.000421 -0.000507
# 4 0.001360 -0.016562 -0.000507 0.043751 0.003953 0.006026
# 5 -0.003005 0.002578 -0.000421 0.003953 0.036252 -0.001581
# 6 -0.001648 -0.013383 -0.000507 0.006026 -0.001581 0.035982
#
#
# Mechanical properties :
#
#
# Convention : Reuss Voigt Hill
#
# Bulk Modulus (GPa) = 22.54650 36.65317 29.59984
# Shear Modulus (GPa) = 24.48563 31.64256 28.06409
#
# Velocity S-wave (km/s) = 3.52031 4.00185 3.76878
# Velocity P-wave (km/s) = 5.28532 6.31695 5.82402
#
# Compressibility (1/GPa) = 0.04435278
#
# Stress axis : x y z
#
# Youngs Moduli (GPa) = 87.77995 35.17908 52.42656
#
# Poissons Ratio (x) = 0.22435 0.07113
# Poissons Ratio (y) = 0.55981 -0.02434
# Poissons Ratio (z) = 0.11909 -0.01633
#
# Static dielectric constant tensor:
#      x y z
#    x 1.737310 0.028150 0.027320 
#    y 0.028150 1.699600 -0.005840 
#    z 0.027320 -0.005840 1.691900 
# 
# From -- ./inp_files/90781.got.cif
#   From: 2010.05.17/outbox.cif.g08.bks.cpg/sg2_46_cif.got.tgz:90781.got - 2010.06.03 11:33:40.
