data_PCOD9076887
_publ_section_title
;
Structure prediction by ZEFSAII (Michael W. Deem and Ramdas Pophale) SiO2 
 PCOD9076887
Probable space group: P -1
;
_chemical_formula_sum "Si O2"
_cell_formula_units_Z 16
_cell_length_a 8.248211
_cell_length_b 9.921366
_cell_length_c 14.731821
_cell_angle_alpha 84.664745
_cell_angle_beta 130.968564
_cell_angle_gamma 66.941840
_cell_volume 723.662766
_symmetry_space_group_name_H-M "P -1"
_symmetry_group_IT_number 2
_symmetry_cell_setting 'triclinic'
loop_
_space_group_symop_operation_xyz
x,y,z
-x,-y,-z
loop_
_atom_site_type_symbol
_atom_site_label
_atom_site_fract_x
_atom_site_fract_y
_atom_site_fract_z
Si Si1 0.633102 0.319944 0.604699
Si Si2 0.758847 0.501720 0.871477
Si Si3 0.182985 0.883966 0.959915
Si Si4 0.775264 0.940593 0.357170
Si Si5 0.126549 0.209373 0.899292
Si Si6 0.433469 0.754721 0.882643
Si Si7 0.574279 0.188281 0.769056
Si Si8 0.624303 0.205243 0.425768
O O1 0.500000 0.500000 0.500000
O O2 0.938857 0.251073 0.741472
O O3 0.514523 0.312063 0.656478
O O4 0.602605 0.214838 0.525225
O O5 0.920259 0.315249 0.899953
O O6 0.543016 0.593376 0.868559
O O7 0.614781 0.627040 0.724456
O O8 0.000000 0.500000 0.000000
O O9 0.228695 0.797658 0.885197
O O10 0.375825 0.761698 0.118463
O O11 0.264033 0.012827 0.975696
O O12 0.866543 0.009507 0.861690
O O13 0.645298 0.845063 0.300654
O O14 0.096596 0.820747 0.488561
O O15 0.685681 0.084769 0.238731
O O16 0.660697 0.047095 0.401903
O O17 0.322719 0.261912 0.973709
#
# Coordination Sequence:
#
# PCOD9076887 Si02
#       8
#     2   2   2   2   2   2   2   2
#     4  11  22  38  59  84 118 168 208 240 301 375
#     4   9  19  35  58  91 116 157 203 247 297 364
#     4  10  20  35  59  95 122 153 207 258 304 350
#     4  10  20  37  61  93 121 156 202 260 306 350
#     4  10  18  33  62  90 119 157 205 249 299 367
#     4  10  19  34  62  93 118 158 210 246 301 372
#     4  10  22  36  58  90 127 159 197 267 303 347
#     4  10  21  37  60  89 120 160 206 247 300 376
#
# _framework density 22.109743999999999
#
# number of rings (size 3 to 8) (size 9 to 14) (size 15 to 20)
#    0.000    2.000    2.500    1.875    1.750    0.500 
#    0.000    0.625    0.000    6.750    0.000    0.000 
#    0.000    0.000    0.000    0.000    0.000    0.000 
#
# Total GULP energy -89258.724178 kJ/mol
# GULP energy per Si atom -5578.670261 kJ/mol
# Density = 2.205942 g / cm^3
# Si number density = 22.109744 Si / 1000 Ang^3
#
#
#
# Elastic Constant Matrix: (Units=GPa)
#
#
# Indices 1 2 3 4 5 6 
#
# 1 44.3713 14.2102 20.2413 -5.0796 -14.1135 -5.7713
# 2 14.2102 78.4711 15.5770 5.7012 -19.5144 -26.5302
# 3 20.2413 15.5770 120.3296 10.5103 -18.3870 5.0689
# 4 -5.0796 5.7012 10.5103 28.0624 -4.0243 -6.5100
# 5 -14.1135 -19.5144 -18.3870 -4.0243 38.6979 11.0474
# 6 -5.7713 -26.5302 5.0689 -6.5100 11.0474 33.6027
#
#
#
# Elastic Compliance Matrix: (Units=1/GPa)
#
#
# Indices 1 2 3 4 5 6 
#
# 1 0.029080 -0.002063 -0.004430 0.009192 0.007456 0.003363
# 2 -0.002063 0.019204 -0.002143 0.000320 0.003983 0.013883
# 3 -0.004430 -0.002143 0.010604 -0.005275 0.003578 -0.006251
# 4 0.009192 0.000320 -0.005275 0.041871 0.002533 0.009906
# 5 0.007456 0.003983 0.003578 0.002533 0.034524 -0.006974
# 6 0.003363 0.013883 -0.006251 0.009906 -0.006974 0.046453
#
#
# Mechanical properties :
#
#
# Convention : Reuss Voigt Hill
#
# Bulk Modulus (GPa) = 24.02955 38.13655 31.08305
# Shear Modulus (GPa) = 23.48762 32.94882 28.21822
#
# Velocity S-wave (km/s) = 3.26286 3.86455 3.57638
# Velocity P-wave (km/s) = 5.00868 6.09911 5.58060
#
# Compressibility (1/GPa) = 0.04161543
#
# Stress axis : x y z
#
# Youngs Moduli (GPa) = 34.38796 52.07368 94.30525
#
# Poissons Ratio (x) = 0.10744 0.41775
# Poissons Ratio (y) = 0.07095 0.20209
# Poissons Ratio (z) = 0.15233 0.11159
#
# Static dielectric constant tensor:
#      x y z
#    x 1.881870 -0.046910 -0.037700 
#    y -0.046910 1.863090 -0.007430 
#    z -0.037700 -0.007430 1.832990 
# 
# From -- ./inp_files/281916.got.cif
#   From: 2010.05.17/outbox.cif.g08.bks.cpg/sg2_141_cif.got.tgz:281916.got - 2010.06.03 11:33:40.
