data_PCOD9076290
_publ_section_title
;
Structure prediction by ZEFSAII (Michael W. Deem and Ramdas Pophale) SiO2 
 PCOD9076290
Probable space group: P -1
;
_chemical_formula_sum "Si O2"
_cell_formula_units_Z 16
_cell_length_a 9.083344
_cell_length_b 16.413845
_cell_length_c 16.820094
_cell_angle_alpha 44.770857
_cell_angle_beta 97.319325
_cell_angle_gamma 134.121210
_cell_volume 872.454029
_symmetry_space_group_name_H-M "P -1"
_symmetry_group_IT_number 2
_symmetry_cell_setting 'triclinic'
loop_
_space_group_symop_operation_xyz
x,y,z
-x,-y,-z
loop_
_atom_site_type_symbol
_atom_site_label
_atom_site_fract_x
_atom_site_fract_y
_atom_site_fract_z
Si Si1 0.016504 0.958790 0.117611
Si Si2 0.648284 0.669891 0.997262
Si Si3 0.230626 0.466655 0.830397
Si Si4 0.630446 0.669219 0.572683
Si Si5 0.118887 0.395643 0.623319
Si Si6 0.646248 0.439054 0.646587
Si Si7 0.229887 0.727322 0.177432
Si Si8 0.250280 0.200369 0.265007
O O1 0.022694 0.824997 0.212581
O O2 0.693734 0.774528 0.258852
O O3 0.280944 0.192154 0.024954
O O4 0.000000 0.000000 0.000000
O O5 0.694899 0.759187 0.853555
O O6 0.872871 0.711732 0.998720
O O7 0.333355 0.387746 0.169151
O O8 0.389088 0.509118 0.737504
O O9 0.497138 0.701180 0.738590
O O10 0.992647 0.390178 0.828616
O O11 0.456602 0.618379 0.525929
O O12 0.704010 0.591830 0.598247
O O13 0.922329 0.931902 0.440931
O O14 0.141302 0.422828 0.511499
O O15 0.937661 0.362593 0.687713
O O16 0.669083 0.336837 0.768885
O O17 0.500000 0.000000 0.000000
#
# Coordination Sequence:
#
# PCOD9076290 Si02
#       8
#     2   2   2   2   2   2   2   2
#     4  11  19  33  56  87 110 137 176 229 268 311
#     4   9  17  30  51  79 107 132 175 214 267 307
#     4   9  19  33  51  77 104 133 176 217 259 312
#     4  10  18  33  54  80 104 133 174 220 263 313
#     4  10  21  34  53  79 111 137 177 225 269 320
#     4  11  21  33  53  78 109 144 177 216 275 318
#     4  11  22  36  52  75 108 146 179 220 270 324
#     4   9  18  31  53  79 106 138 171 220 264 312
#
# _framework density 18.339075000000001
#
# number of rings (size 3 to 8) (size 9 to 14) (size 15 to 20)
#    0.750    1.250    0.000    7.500    0.000    0.000 
#    0.000    0.625    0.000    0.000    0.000   11.375 
#    0.000    0.000    0.000    0.000    0.000    0.000 
#
# Total GULP energy -89077.075987 kJ/mol
# GULP energy per Si atom -5567.317249 kJ/mol
# Density = 1.829733 g / cm^3
# Si number density = 18.339075 Si / 1000 Ang^3
#
#
#
# Elastic Constant Matrix: (Units=GPa)
#
#
# Indices 1 2 3 4 5 6 
#
# 1 64.3894 15.4185 9.6121 -3.2662 5.0133 2.3783
# 2 15.4185 105.8361 23.2631 -5.5532 2.9920 -9.8777
# 3 9.6121 23.2631 54.1815 -6.3997 3.4460 -3.0835
# 4 -3.2662 -5.5532 -6.3997 40.2870 -4.4480 3.7672
# 5 5.0133 2.9920 3.4460 -4.4480 17.3623 0.6666
# 6 2.3783 -9.8777 -3.0835 3.7672 0.6666 18.2356
#
#
#
# Elastic Compliance Matrix: (Units=1/GPa)
#
#
# Indices 1 2 3 4 5 6 
#
# 1 0.016818 -0.002235 -0.001916 0.000684 -0.003772 -0.003731
# 2 -0.002235 0.011218 -0.004040 0.000117 -0.000674 0.005685
# 3 -0.001916 -0.004040 0.021019 0.002247 -0.002395 0.001239
# 4 0.000684 0.000117 0.002247 0.026447 0.006317 -0.005340
# 5 -0.003772 -0.000674 -0.002395 0.006317 0.061042 -0.003815
# 6 -0.003731 0.005685 0.001239 -0.005340 -0.003815 0.059856
#
#
# Mechanical properties :
#
#
# Convention : Reuss Voigt Hill
#
# Bulk Modulus (GPa) = 30.60505 35.66603 33.13554
# Shear Modulus (GPa) = 22.35421 26.91786 24.63604
#
# Velocity S-wave (km/s) = 3.49512 3.83533 3.66917
# Velocity P-wave (km/s) = 5.74565 6.25326 6.00482
#
# Compressibility (1/GPa) = 0.03267435
#
# Stress axis : x y z
#
# Youngs Moduli (GPa) = 59.46078 89.14329 47.57600
#
# Poissons Ratio (x) = 0.19921 0.09115
# Poissons Ratio (y) = 0.13288 0.19219
# Poissons Ratio (z) = 0.11391 0.36011
#
# Static dielectric constant tensor:
#      x y z
#    x 1.618630 -0.002030 -0.011350 
#    y -0.002030 1.677120 0.023780 
#    z -0.011350 0.023780 1.698200 
# 
# From -- ./inp_files/561917.got.cif
#   From: 2010.05.17/outbox.cif.g08.bks.cpg/sg2_281_cif.got.tgz:561917.got - 2010.06.03 11:33:40.
