data_PCOD9076903
_publ_section_title
;
Structure prediction by ZEFSAII (Michael W. Deem and Ramdas Pophale) SiO2 
 PCOD9076903
Probable space group: P -1
;
_chemical_formula_sum "Si O2"
_cell_formula_units_Z 16
_cell_length_a 9.012679
_cell_length_b 16.482855
_cell_length_c 19.686223
_cell_angle_alpha 160.023600
_cell_angle_beta 49.426772
_cell_angle_gamma 120.720380
_cell_volume 699.743171
_symmetry_space_group_name_H-M "P -1"
_symmetry_group_IT_number 2
_symmetry_cell_setting 'triclinic'
loop_
_space_group_symop_operation_xyz
x,y,z
-x,-y,-z
loop_
_atom_site_type_symbol
_atom_site_label
_atom_site_fract_x
_atom_site_fract_y
_atom_site_fract_z
Si Si1 0.416414 0.833750 0.017516
Si Si2 0.154702 0.564053 0.820990
Si Si3 0.768026 0.491143 0.546074
Si Si4 0.479905 0.885174 0.342634
Si Si5 0.204821 0.435537 0.555327
Si Si6 0.251537 0.903670 0.653901
Si Si7 0.264818 0.442246 0.192023
Si Si8 0.810235 0.377250 0.795842
O O1 0.298514 0.637854 0.889073
O O2 0.596872 0.738305 0.830222
O O3 0.535680 0.783884 0.014400
O O4 0.264568 0.129493 0.289733
O O5 0.266490 0.487477 0.653782
O O6 0.048779 0.365020 0.718487
O O7 0.954337 0.835033 0.084316
O O8 0.721228 0.490752 0.479756
O O9 0.751657 0.241088 0.389390
O O10 0.000000 0.500000 0.500000
O O11 0.255646 0.866315 0.377906
O O12 0.500000 0.000000 0.500000
O O13 0.551246 0.028536 0.374201
O O14 0.658254 0.592039 0.060892
O O15 0.951819 0.589877 0.752182
O O16 0.244976 0.699677 0.439617
O O17 0.266955 0.497486 0.156554
#
# Coordination Sequence:
#
# PCOD9076903 Si02
#       8
#     2   2   2   2   2   2   2   2
#     4  11  22  40  63  91 129 169 205 258 311 364
#     4  10  22  39  61  93 128 159 212 258 311 368
#     4  11  21  39  64  91 124 167 214 253 307 374
#     4  10  18  33  63  95 122 160 210 251 311 375
#     4  11  22  41  62  90 126 171 210 254 310 365
#     4  10  19  36  61  92 122 164 203 259 311 360
#     4  10  19  39  64  91 125 165 207 251 309 367
#     4   9  20  35  61  97 121 162 210 252 308 377
#
# _framework density 22.865532000000002
#
# number of rings (size 3 to 8) (size 9 to 14) (size 15 to 20)
#    0.000    1.750    5.000    0.375    0.000    1.000 
#   13.500    0.000    0.000    9.750    9.750    0.000 
#    0.000    0.000    0.000    0.000    0.000    0.000 
#
# Total GULP energy -89332.958985 kJ/mol
# GULP energy per Si atom -5583.309937 kJ/mol
# Density = 2.281349 g / cm^3
# Si number density = 22.865532 Si / 1000 Ang^3
#
#
#
# Elastic Constant Matrix: (Units=GPa)
#
#
# Indices 1 2 3 4 5 6 
#
# 1 81.3660 34.4526 24.7404 0.8411 -4.1272 15.9007
# 2 34.4526 116.5484 12.7248 2.0074 -5.4456 16.1125
# 3 24.7404 12.7248 56.3158 -3.1938 10.7112 0.1157
# 4 0.8411 2.0074 -3.1938 28.0539 -1.4985 3.2271
# 5 -4.1272 -5.4456 10.7112 -1.4985 33.1548 -4.2250
# 6 15.9007 16.1125 0.1157 3.2271 -4.2250 26.7678
#
#
#
# Elastic Compliance Matrix: (Units=1/GPa)
#
#
# Indices 1 2 3 4 5 6 
#
# 1 0.017676 -0.003126 -0.007641 -0.000080 0.003122 -0.008083
# 2 -0.003126 0.010256 -0.001166 -0.000240 0.001138 -0.004103
# 3 -0.007641 -0.001166 0.023014 0.002087 -0.008021 0.003623
# 4 -0.000080 -0.000240 0.002087 0.036401 0.000394 -0.004143
# 5 0.003122 0.001138 -0.008021 0.000394 0.033699 0.002767
# 6 -0.008083 -0.004103 0.003623 -0.004143 0.002767 0.045550
#
#
# Mechanical properties :
#
#
# Convention : Reuss Voigt Hill
#
# Bulk Modulus (GPa) = 36.92686 44.22952 40.57819
# Shear Modulus (GPa) = 25.06439 29.74948 27.40693
#
# Velocity S-wave (km/s) = 3.31443 3.61094 3.46586
# Velocity P-wave (km/s) = 5.55265 6.06387 5.81388
#
# Compressibility (1/GPa) = 0.02708056
#
# Stress axis : x y z
#
# Youngs Moduli (GPa) = 56.57463 97.50335 43.45258
#
# Poissons Ratio (x) = 0.30482 0.33200
# Poissons Ratio (y) = 0.17687 0.05065
# Poissons Ratio (z) = 0.43226 0.11366
#
# Static dielectric constant tensor:
#      x y z
#    x 1.911640 0.040020 -0.001050 
#    y 0.040020 1.895610 -0.000630 
#    z -0.001050 -0.000630 1.853260 
# 
# From -- ./inp_files/591059.got.cif
#   From: 2010.05.17/outbox.cif.g08.bks.cpg/sg2_296_cif.got.tgz:591059.got - 2010.06.03 11:33:40.
