data_PCOD9076966
_publ_section_title
;
Structure prediction by ZEFSAII (Michael W. Deem and Ramdas Pophale) SiO2 
 PCOD9076966
Probable space group: P -1
;
_chemical_formula_sum "Si O2"
_cell_formula_units_Z 16
_cell_length_a 23.849433
_cell_length_b 11.713320
_cell_length_c 11.095914
_cell_angle_alpha 40.194575
_cell_angle_beta 151.078134
_cell_angle_gamma 148.599243
_cell_volume 779.316201
_symmetry_space_group_name_H-M "P -1"
_symmetry_group_IT_number 2
_symmetry_cell_setting 'triclinic'
loop_
_space_group_symop_operation_xyz
x,y,z
-x,-y,-z
loop_
_atom_site_type_symbol
_atom_site_label
_atom_site_fract_x
_atom_site_fract_y
_atom_site_fract_z
Si Si1 0.102930 0.990532 0.356002
Si Si2 0.648522 0.116097 0.756102
Si Si3 0.408032 0.695275 0.100894
Si Si4 0.218128 0.190692 0.158130
Si Si5 0.134008 0.635585 0.731462
Si Si6 0.118891 0.400782 0.134908
Si Si7 0.453634 0.931090 0.762344
Si Si8 0.207662 0.880641 0.193693
O O1 0.188794 0.065917 0.329959
O O2 0.136094 0.205791 0.310475
O O3 0.136632 0.842384 0.609587
O O4 0.933016 0.843670 0.122795
O O5 0.747885 0.380879 0.728202
O O6 0.738251 0.058596 0.891107
O O7 0.500000 0.000000 0.500000
O O8 0.589510 0.033169 0.846432
O O9 0.347127 0.445576 0.207060
O O10 0.521994 0.868798 0.272977
O O11 0.274552 0.706718 0.865576
O O12 0.451634 0.772445 0.983626
O O13 0.233836 0.077724 0.164592
O O14 0.000000 0.500000 0.500000
O O15 0.115951 0.484001 0.929171
O O16 0.963259 0.304695 0.975219
O O17 0.307170 0.824512 0.495489
#
# Coordination Sequence:
#
# PCOD9076966 Si02
#       8
#     2   2   2   2   2   2   2   2
#     4  10  19  32  57  93 129 149 196 248 312 358
#     4  10  21  42  64  81 116 168 207 246 298 355
#     4  11  20  34  57  86 125 157 192 250 308 354
#     4  10  18  34  52  88 124 156 197 248 294 365
#     4  12  19  32  61  94 128 158 182 244 315 356
#     4  11  21  39  63  93 119 155 205 254 296 360
#     4  10  21  37  56  86 117 159 205 241 302 364
#     4  10  22  36  62  85 114 161 207 241 298 357
#
# _framework density 20.530819000000001
#
# number of rings (size 3 to 8) (size 9 to 14) (size 15 to 20)
#    0.000    1.500    3.750    3.375    0.000    0.500 
#    0.000    5.625    5.500    2.250    0.000    0.000 
#    0.000    0.000    0.000    0.000    0.000    0.000 
#
# Total GULP energy -89318.404697 kJ/mol
# GULP energy per Si atom -5582.400294 kJ/mol
# Density = 2.048409 g / cm^3
# Si number density = 20.530819 Si / 1000 Ang^3
#
#
#
# Elastic Constant Matrix: (Units=GPa)
#
#
# Indices 1 2 3 4 5 6 
#
# 1 133.4096 32.7934 15.3352 0.0441 15.5772 14.0385
# 2 32.7934 103.4467 30.4894 15.0541 7.6403 0.2327
# 3 15.3352 30.4894 59.5160 11.2060 7.1683 -3.1895
# 4 0.0441 15.0541 11.2060 32.5400 -1.3062 -1.8526
# 5 15.5772 7.6403 7.1683 -1.3062 24.4835 3.9954
# 6 14.0385 0.2327 -3.1895 -1.8526 3.9954 33.4301
#
#
#
# Elastic Compliance Matrix: (Units=1/GPa)
#
#
# Indices 1 2 3 4 5 6 
#
# 1 0.009032 -0.002424 -0.000974 0.001091 -0.004105 -0.003318
# 2 -0.002424 0.012564 -0.004858 -0.004164 -0.001241 0.000385
# 3 -0.000974 -0.004858 0.021228 -0.005097 -0.004802 0.002760
# 4 0.001091 -0.004164 -0.005097 0.034597 0.003855 0.000541
# 5 -0.004105 -0.001241 -0.004802 0.003855 0.046111 -0.004023
# 6 -0.003318 0.000385 0.002760 0.000541 -0.004023 0.032078
#
#
# Mechanical properties :
#
#
# Convention : Reuss Voigt Hill
#
# Bulk Modulus (GPa) = 38.00607 50.40090 44.20349
# Shear Modulus (GPa) = 27.64096 32.60769 30.12432
#
# Velocity S-wave (km/s) = 3.67320 3.98959 3.83466
# Velocity P-wave (km/s) = 6.04498 6.76939 6.41741
#
# Compressibility (1/GPa) = 0.02631159
#
# Stress axis : x y z
#
# Youngs Moduli (GPa) = 110.72231 79.59403 47.10837
#
# Poissons Ratio (x) = 0.19295 0.04589
# Poissons Ratio (y) = 0.26840 0.22883
# Poissons Ratio (z) = 0.10785 0.38663
#
# Static dielectric constant tensor:
#      x y z
#    x 1.771660 -0.008310 0.000990 
#    y -0.008310 1.749230 0.021670 
#    z 0.000990 0.021670 1.750610 
# 
# From -- ./inp_files/437383.got.cif
#   From: 2010.05.17/outbox.cif.g08.bks.cpg/sg2_219_cif.got.tgz:437383.got - 2010.06.03 11:33:40.
