data_PCOD9076718
_publ_section_title
;
Structure prediction by ZEFSAII (Michael W. Deem and Ramdas Pophale) SiO2 
 PCOD9076718
Probable space group: P -1
;
_chemical_formula_sum "Si O2"
_cell_formula_units_Z 14
_cell_length_a 7.518789
_cell_length_b 8.565845
_cell_length_c 15.480341
_cell_angle_alpha 76.688756
_cell_angle_beta 73.003903
_cell_angle_gamma 126.080306
_cell_volume 657.913095
_symmetry_space_group_name_H-M "P -1"
_symmetry_group_IT_number 2
_symmetry_cell_setting 'triclinic'
loop_
_space_group_symop_operation_xyz
x,y,z
-x,-y,-z
loop_
_atom_site_type_symbol
_atom_site_label
_atom_site_fract_x
_atom_site_fract_y
_atom_site_fract_z
Si Si1 0.626404 0.245349 0.927687
Si Si2 0.285066 0.602912 0.923034
Si Si3 0.755432 0.766108 0.110361
Si Si4 0.088752 0.387225 0.548526
Si Si5 0.933641 0.432740 0.303842
Si Si6 0.479093 0.029516 0.303678
Si Si7 0.580700 0.382696 0.677801
O O1 0.462145 0.234887 0.880996
O O2 0.912727 0.407135 0.823382
O O3 0.594109 0.330904 0.007257
O O4 0.500000 0.000000 0.000000
O O5 0.274031 0.423295 0.905079
O O6 0.430976 0.814284 0.812190
O O7 0.000000 0.500000 0.000000
O O8 0.677584 0.698457 0.230605
O O9 0.000000 0.000000 0.000000
O O10 0.136277 0.472150 0.629140
O O11 0.000000 0.500000 0.500000
O O12 0.330393 0.482774 0.442328
O O13 0.826995 0.120598 0.615354
O O14 0.149509 0.453289 0.321992
O O15 0.677573 0.189542 0.333330
O O16 0.488482 0.846411 0.302246
#
# Coordination Sequence:
#
# PCOD9076718 Si02
#       7
#     2   2   2   2   2   2   2
#     4  11  21  37  60  87 120 153 192 246 299 350
#     4  12  22  37  58  86 115 156 199 242 294 355
#     4  11  24  39  57  85 120 154 196 245 297 351
#     4   8  17  32  53  85 115 148 192 247 289 346
#     4   9  17  30  57  85 113 147 198 231 292 350
#     4  10  18  33  59  84 113 154 198 236 294 352
#     4   9  20  37  55  83 119 149 192 250 296 341
#
# _framework density 21.279406000000002
#
# number of rings (size 3 to 8) (size 9 to 14) (size 15 to 20)
#    0.000    2.286    1.429    4.714    0.000    5.143 
#    0.000    0.714    0.000    0.857    0.000    0.000 
#    0.000    0.000    0.000    0.000    0.000    0.000 
#
# Total GULP energy -77965.474120 kJ/mol
# GULP energy per Si atom -5568.962437 kJ/mol
# Density = 2.123097 g / cm^3
# Si number density = 21.279406 Si / 1000 Ang^3
#
#
#
# Elastic Constant Matrix: (Units=GPa)
#
#
# Indices 1 2 3 4 5 6 
#
# 1 22.4653 14.0329 19.6870 2.2729 -3.6267 -3.7868
# 2 14.0329 136.9074 73.2365 3.7910 -16.5693 4.8077
# 3 19.6870 73.2365 201.7509 -1.9673 -30.4358 -5.1080
# 4 2.2729 3.7910 -1.9673 35.5768 -1.1812 2.6798
# 5 -3.6267 -16.5693 -30.4358 -1.1812 33.9685 6.1832
# 6 -3.7868 4.8077 -5.1080 2.6798 6.1832 29.3126
#
#
#
# Elastic Compliance Matrix: (Units=1/GPa)
#
#
# Indices 1 2 3 4 5 6 
#
# 1 0.051411 -0.003539 -0.003740 -0.003684 -0.001013 0.007121
# 2 -0.003539 0.009602 -0.002884 -0.000660 0.002235 -0.002946
# 3 -0.003740 -0.002884 0.007067 0.001075 0.004533 0.000167
# 4 -0.003684 -0.000660 0.001075 0.028775 0.001830 -0.003197
# 5 -0.001013 0.002235 0.004533 0.001830 0.035902 -0.007448
# 6 0.007121 -0.002946 0.000167 -0.003197 -0.007448 0.037410
#
#
# Mechanical properties :
#
#
# Convention : Reuss Voigt Hill
#
# Bulk Modulus (GPa) = 20.94130 63.89295 42.41713
# Shear Modulus (GPa) = 24.22331 36.71608 30.46970
#
# Velocity S-wave (km/s) = 3.37760 4.15833 3.78813
# Velocity P-wave (km/s) = 5.00733 7.29017 6.25380
#
# Compressibility (1/GPa) = 0.04775252
#
# Stress axis : x y z
#
# Youngs Moduli (GPa) = 19.45102 104.14507 141.50161
#
# Poissons Ratio (x) = 0.36861 0.52927
# Poissons Ratio (y) = 0.06885 0.40810
# Poissons Ratio (z) = 0.07275 0.30036
#
# Static dielectric constant tensor:
#      x y z
#    x 1.825400 0.086440 -0.004060 
#    y 0.086440 1.804610 0.097060 
#    z -0.004060 0.097060 2.097080 
# 
# From -- ./inp_files/356348.got.cif
#   From: 2010.05.17/outbox.cif.g08.bks.cpg/sg2_179_cif.got.tgz:356348.got - 2010.06.03 11:33:40.
