data_PCOD9076113
_publ_section_title
;
Structure prediction by ZEFSAII (Michael W. Deem and Ramdas Pophale) SiO2 
 PCOD9076113
Probable space group: P -1
;
_chemical_formula_sum "Si O2"
_cell_formula_units_Z 16
_cell_length_a 7.593902
_cell_length_b 8.360654
_cell_length_c 15.157219
_cell_angle_alpha 125.082260
_cell_angle_beta 77.820588
_cell_angle_gamma 126.843266
_cell_volume 616.955395
_symmetry_space_group_name_H-M "P -1"
_symmetry_group_IT_number 2
_symmetry_cell_setting 'triclinic'
loop_
_space_group_symop_operation_xyz
x,y,z
-x,-y,-z
loop_
_atom_site_type_symbol
_atom_site_label
_atom_site_fract_x
_atom_site_fract_y
_atom_site_fract_z
Si Si1 0.034126 0.539125 0.404456
Si Si2 0.678518 0.971523 0.550118
Si Si3 0.607995 0.435571 0.890169
Si Si4 0.461287 0.307378 0.178657
Si Si5 0.953367 0.137199 0.975274
Si Si6 0.845700 0.791758 0.335283
Si Si7 0.843712 0.015533 0.232764
Si Si8 0.555493 0.358919 0.384701
O O1 0.987188 0.300494 0.289884
O O2 0.820996 0.528499 0.392682
O O3 0.000000 0.500000 0.500000
O O4 0.264667 0.790584 0.430980
O O5 0.905112 0.079034 0.616547
O O6 0.682055 0.794973 0.424239
O O7 0.492871 0.847850 0.606224
O O8 0.602830 0.550145 0.833632
O O9 0.420572 0.144952 0.815018
O O10 0.500000 0.500000 0.000000
O O11 0.871373 0.576064 0.929620
O O12 0.729208 0.523824 0.220110
O O13 0.424423 0.273367 0.278504
O O14 0.315347 0.035470 0.066025
O O15 0.048671 0.096139 0.865035
O O16 0.000000 0.000000 0.000000
O O17 0.862403 0.971640 0.317809
O O18 0.500000 0.500000 0.500000
#
# Coordination Sequence:
#
# PCOD9076113 Si02
#       8
#     2   2   2   2   2   2   2   2
#     4  12  26  41  58  94 140 170 211 263 324 370
#     4  11  21  38  57  84 130 170 218 243 304 375
#     4   8  17  35  60  91 117 157 212 271 318 376
#     4  10  18  32  61  92 119 156 217 261 306 370
#     4   9  18  34  60  95 114 153 217 269 312 376
#     4  10  18  35  59  87 116 172 212 253 296 382
#     4  10  20  36  60  88 127 163 203 271 328 360
#     4  12  24  40  63  90 131 180 222 251 299 396
#
# _framework density 25.933806000000001
#
# number of rings (size 3 to 8) (size 9 to 14) (size 15 to 20)
#    0.000    1.750    3.750    1.500    1.750    0.500 
#    6.750    0.000    0.000    7.500    0.000    0.000 
#    0.000    0.000    0.000    0.000    0.000    0.000 
#
# Total GULP energy -89233.483151 kJ/mol
# GULP energy per Si atom -5577.092697 kJ/mol
# Density = 2.587478 g / cm^3
# Si number density = 25.933806 Si / 1000 Ang^3
#
#
#
# Elastic Constant Matrix: (Units=GPa)
#
#
# Indices 1 2 3 4 5 6 
#
# 1 51.0371 -0.1863 26.9383 6.6313 8.4262 13.5116
# 2 -0.1863 141.0281 28.4709 1.9155 3.8976 14.1880
# 3 26.9383 28.4709 84.8680 -15.6061 28.8267 0.2900
# 4 6.6313 1.9155 -15.6061 52.0988 10.4658 15.3397
# 5 8.4262 3.8976 28.8267 10.4658 34.6396 4.8066
# 6 13.5116 14.1880 0.2900 15.3397 4.8066 26.0223
#
#
#
# Elastic Compliance Matrix: (Units=1/GPa)
#
#
# Indices 1 2 3 4 5 6 
#
# 1 0.031681 0.004759 -0.015626 -0.005599 0.008841 -0.017203
# 2 0.004759 0.009005 -0.006395 -0.001672 0.004653 -0.007183
# 3 -0.015626 -0.006395 0.030378 0.014325 -0.026149 0.007647
# 4 -0.005599 -0.001672 0.014325 0.031284 -0.018239 -0.011413
# 5 0.008841 0.004653 -0.026149 -0.018239 0.054315 -0.006116
# 6 -0.017203 -0.007183 0.007647 -0.011413 -0.006116 0.059049
#
#
# Mechanical properties :
#
#
# Convention : Reuss Voigt Hill
#
# Bulk Modulus (GPa) = 27.36727 43.04211 35.20469
# Shear Modulus (GPa) = 19.05372 37.33283 28.19328
#
# Velocity S-wave (km/s) = 2.71349 3.79825 3.30073
# Velocity P-wave (km/s) = 4.51586 5.98903 5.30384
#
# Compressibility (1/GPa) = 0.03653999
#
# Stress axis : x y z
#
# Youngs Moduli (GPa) = 31.56488 111.05181 32.91841
#
# Poissons Ratio (x) = -0.52848 0.51439
# Poissons Ratio (y) = -0.15021 0.21050
# Poissons Ratio (z) = 0.49323 0.71014
#
# Static dielectric constant tensor:
#      x y z
#    x 2.089740 -0.051480 0.042980 
#    y -0.051480 1.681800 0.350540 
#    z 0.042980 0.350540 1.839300 
# 
# From -- ./inp_files/490766.got.cif
#   From: 2010.05.17/outbox.cif.g08.bks.cpg/sg2_246_cif.got.tgz:490766.got - 2010.06.03 11:33:40.
