data_PCOD9076311
_publ_section_title
;
Structure prediction by ZEFSAII (Michael W. Deem and Ramdas Pophale) SiO2 
 PCOD9076311
Probable space group: P -1
;
_chemical_formula_sum "Si O2"
_cell_formula_units_Z 16
_cell_length_a 14.131713
_cell_length_b 9.073306
_cell_length_c 15.773308
_cell_angle_alpha 148.692781
_cell_angle_beta 44.319417
_cell_angle_gamma 117.016020
_cell_volume 661.992287
_symmetry_space_group_name_H-M "P -1"
_symmetry_group_IT_number 2
_symmetry_cell_setting 'triclinic'
loop_
_space_group_symop_operation_xyz
x,y,z
-x,-y,-z
loop_
_atom_site_type_symbol
_atom_site_label
_atom_site_fract_x
_atom_site_fract_y
_atom_site_fract_z
Si Si1 0.303864 0.439449 0.847835
Si Si2 0.170264 0.825504 0.276469
Si Si3 0.223768 0.910522 0.635809
Si Si4 0.560961 0.155779 0.967054
Si Si5 0.280570 0.698099 0.680817
Si Si6 0.475098 0.009032 0.776526
Si Si7 0.112531 0.584818 0.877080
Si Si8 0.715392 0.159724 0.616322
O O1 0.430299 0.551146 0.845744
O O2 0.190554 0.578553 0.068590
O O3 0.334255 0.081266 0.648161
O O4 0.223632 0.587449 0.883035
O O5 0.256351 0.690687 0.242857
O O6 0.265261 0.001355 0.259119
O O7 0.000000 0.000000 0.500000
O O8 0.251496 0.728578 0.440100
O O9 0.246218 0.726314 0.617523
O O10 0.057053 0.198928 0.881272
O O11 0.465842 0.190450 0.959670
O O12 0.500000 0.000000 0.000000
O O13 0.338525 0.957296 0.799159
O O14 0.407882 0.350137 0.450203
O O15 0.143805 0.732807 0.844987
O O16 0.557453 0.139233 0.720409
O O17 0.164400 0.214633 0.643465
#
# Coordination Sequence:
#
# PCOD9076311 Si02
#       8
#     2   2   2   2   2   2   2   2
#     4   9  19  31  58  81 108 143 180 225 275 328
#     4   9  16  29  52  81 107 140 176 221 268 318
#     4  11  20  33  53  86 112 139 179 228 277 319
#     4   9  18  32  56  79 106 140 186 223 267 328
#     4  10  21  34  57  76 110 145 182 228 272 319
#     4   9  19  38  54  76 102 146 193 221 262 327
#     4  10  18  33  54  83 110 142 182 221 269 330
#     4   9  18  32  55  76 110 139 180 223 263 324
#
# _framework density 24.169466
#
# number of rings (size 3 to 8) (size 9 to 14) (size 15 to 20)
#    0.750    1.750    0.000    4.125    0.000    1.500 
#    0.000    0.625    5.500    0.750    0.000    0.000 
#    0.000    0.000    0.000    0.000    0.000    0.000 
#
# Total GULP energy -89362.585010 kJ/mol
# GULP energy per Si atom -5585.161563 kJ/mol
# Density = 2.411446 g / cm^3
# Si number density = 24.169466 Si / 1000 Ang^3
#
#
#
# Elastic Constant Matrix: (Units=GPa)
#
#
# Indices 1 2 3 4 5 6 
#
# 1 90.1105 52.5250 32.5861 -11.3020 20.1025 -14.2751
# 2 52.5250 137.4704 36.6574 -38.2828 4.9379 -28.0040
# 3 32.5861 36.6574 113.7730 -26.8805 10.5157 1.5077
# 4 -11.3020 -38.2828 -26.8805 41.5526 -4.0456 12.8534
# 5 20.1025 4.9379 10.5157 -4.0456 45.6023 -10.6345
# 6 -14.2751 -28.0040 1.5077 12.8534 -10.6345 41.4963
#
#
#
# Elastic Compliance Matrix: (Units=1/GPa)
#
#
# Indices 1 2 3 4 5 6 
#
# 1 0.017036 -0.006317 -0.003344 -0.004415 -0.006090 0.001525
# 2 -0.006317 0.013217 -0.000762 0.008774 0.003460 0.004943
# 3 -0.003344 -0.000762 0.011977 0.007472 -0.001671 -0.004842
# 4 -0.004415 0.008774 0.007472 0.038179 0.000921 -0.007459
# 5 -0.006090 0.003460 -0.001671 0.000921 0.026280 0.006751
# 6 0.001525 0.004943 -0.004842 -0.007459 0.006751 0.032176
#
#
# Mechanical properties :
#
#
# Convention : Reuss Voigt Hill
#
# Bulk Modulus (GPa) = 46.76504 64.98788 55.87646
# Shear Modulus (GPa) = 29.96921 40.36925 35.16923
#
# Velocity S-wave (km/s) = 3.52513 4.09131 3.81873
# Velocity P-wave (km/s) = 5.99663 7.01892 6.52782
#
# Compressibility (1/GPa) = 0.02138349
#
# Stress axis : x y z
#
# Youngs Moduli (GPa) = 58.70011 75.65940 83.49667
#
# Poissons Ratio (x) = 0.47796 0.27923
# Poissons Ratio (y) = 0.37082 0.06359
# Poissons Ratio (z) = 0.19630 0.05762
#
# Static dielectric constant tensor:
#      x y z
#    x 1.932350 -0.019100 -0.037170 
#    y -0.019100 1.916040 0.052900 
#    z -0.037170 0.052900 2.056570 
# 
# From -- ./inp_files/527908.got.cif
#   From: 2010.05.17/outbox.cif.g08.bks.cpg/sg2_264_cif.got.tgz:527908.got - 2010.06.03 11:33:40.
