data_PCOD9076247
_publ_section_title
;
Structure prediction by ZEFSAII (Michael W. Deem and Ramdas Pophale) SiO2 
 PCOD9076247
Probable space group: P -1
;
_chemical_formula_sum "Si O2"
_cell_formula_units_Z 16
_cell_length_a 22.884438
_cell_length_b 8.944434
_cell_length_c 12.580495
_cell_angle_alpha 111.544820
_cell_angle_beta 140.523906
_cell_angle_gamma 35.200504
_cell_volume 655.836179
_symmetry_space_group_name_H-M "P -1"
_symmetry_group_IT_number 2
_symmetry_cell_setting 'triclinic'
loop_
_space_group_symop_operation_xyz
x,y,z
-x,-y,-z
loop_
_atom_site_type_symbol
_atom_site_label
_atom_site_fract_x
_atom_site_fract_y
_atom_site_fract_z
Si Si1 0.904315 0.835341 0.966323
Si Si2 0.251111 0.533116 0.459548
Si Si3 0.560391 0.184054 0.640203
Si Si4 0.882622 0.562219 0.275066
Si Si5 0.335130 0.383987 0.924836
Si Si6 0.918809 0.399452 0.056952
Si Si7 0.571284 0.735238 0.741521
Si Si8 0.583234 0.549043 0.138887
O O1 0.049043 0.740601 0.202674
O O2 0.897878 0.901376 0.851820
O O3 0.000000 0.500000 0.000000
O O4 0.691376 0.142884 0.816285
O O5 0.344482 0.482727 0.476632
O O6 0.263395 0.642295 0.599627
O O7 0.421841 0.127954 0.627470
O O8 0.524450 0.221649 0.473921
O O9 0.724451 0.793805 0.821465
O O10 0.855745 0.431981 0.259632
O O11 0.000000 0.500000 0.500000
O O12 0.977681 0.401120 0.247596
O O13 0.639885 0.005849 0.037422
O O14 0.306390 0.565796 0.844534
O O15 0.423364 0.316709 0.141364
O O16 0.500000 0.000000 0.000000
O O17 0.806945 0.416555 0.949712
O O18 0.500000 0.500000 0.000000
#
# Coordination Sequence:
#
# PCOD9076247 Si02
#       8
#     2   2   2   2   2   2   2   2
#     4  10  18  23  47  85 112 142 181 231 305 344
#     4  11  17  33  51  77 122 146 184 250 287 343
#     4  10  17  27  48  83 116 142 183 235 302 340
#     4  10  20  34  59  87 115 147 191 255 293 333
#     4   9  18  33  53  82 108 149 195 236 290 339
#     4   9  15  27  43  79 115 138 172 235 302 331
#     4  10  14  27  51  75 113 140 173 243 294 330
#     4  11  23  40  58  79 116 168 200 229 292 362
#
# _framework density 24.396336999999999
#
# number of rings (size 3 to 8) (size 9 to 14) (size 15 to 20)
#    0.000    2.000    8.750    0.750    0.000    4.000 
#    0.000    0.625    0.000    0.750    0.000    1.750 
#    0.000    0.000    0.000    0.000    0.000    0.000 
#
# Total GULP energy -89288.298695 kJ/mol
# GULP energy per Si atom -5580.518668 kJ/mol
# Density = 2.434081 g / cm^3
# Si number density = 24.396337 Si / 1000 Ang^3
#
#
#
# Elastic Constant Matrix: (Units=GPa)
#
#
# Indices 1 2 3 4 5 6 
#
# 1 143.4148 37.0960 78.4103 39.2251 -3.9091 -3.7584
# 2 37.0960 80.0656 47.5777 7.8140 -1.2466 12.7055
# 3 78.4103 47.5777 174.3464 59.5059 7.5602 -3.1347
# 4 39.2251 7.8140 59.5059 37.2241 -7.2676 1.3075
# 5 -3.9091 -1.2466 7.5602 -7.2676 47.3457 8.6490
# 6 -3.7584 12.7055 -3.1347 1.3075 8.6490 20.8193
#
#
#
# Elastic Compliance Matrix: (Units=1/GPa)
#
#
# Indices 1 2 3 4 5 6 
#
# 1 0.011974 -0.006759 0.002078 -0.015534 -0.003560 0.009054
# 2 -0.006759 0.025763 -0.014529 0.028074 0.011434 -0.025643
# 3 0.002078 -0.014529 0.023411 -0.040027 -0.013943 0.021073
# 4 -0.015534 0.028074 -0.040027 0.108966 0.030914 -0.045650
# 5 -0.003560 0.011434 -0.013943 0.030914 0.032713 -0.025252
# 6 0.009054 -0.025643 0.021073 -0.045650 -0.025252 0.081846
#
#
# Mechanical properties :
#
#
# Convention : Reuss Voigt Hill
#
# Bulk Modulus (GPa) = 43.99886 80.44388 62.22137
# Shear Modulus (GPa) = 15.12089 36.72733 25.92411
#
# Velocity S-wave (km/s) = 2.49228 3.88422 3.26333
# Velocity P-wave (km/s) = 5.13382 7.29119 6.30546
#
# Compressibility (1/GPa) = 0.02272786
#
# Stress axis : x y z
#
# Youngs Moduli (GPa) = 83.51727 38.81607 42.71493
#
# Poissons Ratio (x) = 0.26235 -0.08878
# Poissons Ratio (y) = 0.56447 0.62062
# Poissons Ratio (z) = -0.17359 0.56397
#
# Static dielectric constant tensor:
#      x y z
#    x 1.939320 0.002210 0.017770 
#    y 0.002210 2.032770 -0.119840 
#    z 0.017770 -0.119840 1.909450 
# 
# From -- ./inp_files/470030.got.cif
#   From: 2010.05.17/outbox.cif.g08.bks.cpg/sg2_236_cif.got.tgz:470030.got - 2010.06.03 11:33:40.
