data_PCOD9076705
_publ_section_title
;
Structure prediction by ZEFSAII (Michael W. Deem and Ramdas Pophale) SiO2 
 PCOD9076705
Probable space group: P -1
;
_chemical_formula_sum "Si O2"
_cell_formula_units_Z 14
_cell_length_a 10.084560
_cell_length_b 9.247231
_cell_length_c 18.311705
_cell_angle_alpha 140.031273
_cell_angle_beta 133.385042
_cell_angle_gamma 56.282576
_cell_volume 795.700554
_symmetry_space_group_name_H-M "P -1"
_symmetry_group_IT_number 2
_symmetry_cell_setting 'triclinic'
loop_
_space_group_symop_operation_xyz
x,y,z
-x,-y,-z
loop_
_atom_site_type_symbol
_atom_site_label
_atom_site_fract_x
_atom_site_fract_y
_atom_site_fract_z
Si Si1 0.755920 0.828428 0.636826
Si Si2 0.003285 0.470702 0.076591
Si Si3 0.339419 0.757634 0.490465
Si Si4 0.758164 0.315965 0.407608
Si Si5 0.929387 0.051685 0.655700
Si Si6 0.638667 0.700170 0.769377
Si Si7 0.162470 0.953631 0.100866
O O1 0.541511 0.832941 0.577979
O O2 0.810801 0.573371 0.534545
O O3 0.797709 0.992077 0.649559
O O4 0.860593 0.906019 0.778401
O O5 0.983859 0.713998 0.201158
O O6 0.201730 0.358760 0.134378
O O7 0.000000 0.500000 0.000000
O O8 0.849630 0.305536 0.981150
O O9 0.294746 0.757604 0.558728
O O10 0.190871 0.907098 0.446329
O O11 0.334551 0.500935 0.358607
O O12 0.569851 0.310052 0.288298
O O13 0.917725 0.148671 0.373472
O O14 0.669706 0.939636 0.835824
O O15 0.000000 0.000000 0.000000
#
# Coordination Sequence:
#
# PCOD9076705 Si02
#       7
#     2   2   2   2   2   2   2
#     4  11  19  36  59  79 106 142 183 217 263 324
#     4  10  20  35  56  77 106 144 181 217 259 315
#     4  10  19  35  58  81 104 143 181 220 263 319
#     4  11  20  36  56  82 111 138 173 227 277 314
#     4  11  23  34  52  86 115 134 172 231 277 305
#     4   9  18  35  58  79  99 141 189 214 253 325
#     4  10  18  33  59  78  98 138 194 214 242 315
#
# _framework density 17.594559
#
# number of rings (size 3 to 8) (size 9 to 14) (size 15 to 20)
#    0.000    1.714    4.286    2.143    0.000    0.000 
#    0.000    1.429    0.000    0.000    0.000    0.000 
#    0.000    0.000    0.000    0.000    0.000    0.000 
#
# Total GULP energy -78052.961696 kJ/mol
# GULP energy per Si atom -5575.211550 kJ/mol
# Density = 1.755451 g / cm^3
# Si number density = 17.594559 Si / 1000 Ang^3
#
#
#
# Elastic Constant Matrix: (Units=GPa)
#
#
# Indices 1 2 3 4 5 6 
#
# 1 37.3738 10.4338 16.6072 3.7897 9.6464 8.3211
# 2 10.4338 55.8516 33.1814 3.4094 4.2416 4.6874
# 3 16.6072 33.1814 96.9420 5.4228 15.1911 3.9807
# 4 3.7897 3.4094 5.4228 37.2813 10.8258 1.7302
# 5 9.6464 4.2416 15.1911 10.8258 17.2715 3.9400
# 6 8.3211 4.6874 3.9807 1.7302 3.9400 33.4909
#
#
#
# Elastic Compliance Matrix: (Units=1/GPa)
#
#
# Indices 1 2 3 4 5 6 
#
# 1 0.033933 -0.003614 -0.001880 0.002205 -0.016451 -0.005880
# 2 -0.003614 0.023175 -0.007899 -0.001945 0.004924 -0.001886
# 3 -0.001880 -0.007899 0.015027 0.002101 -0.011787 0.001065
# 4 0.002205 -0.001945 0.002101 0.033298 -0.023594 0.000530
# 5 -0.016451 0.004924 -0.011787 -0.023594 0.092133 -0.004821
# 6 -0.005880 -0.001886 0.001065 0.000530 -0.004821 0.031997
#
#
# Mechanical properties :
#
#
# Convention : Reuss Voigt Hill
#
# Bulk Modulus (GPa) = 22.05077 34.51249 28.28163
# Shear Modulus (GPa) = 18.41859 26.27175 22.34517
#
# Velocity S-wave (km/s) = 3.23899 3.86835 3.56758
# Velocity P-wave (km/s) = 5.15248 6.29367 5.75145
#
# Compressibility (1/GPa) = 0.04534988
#
# Stress axis : x y z
#
# Youngs Moduli (GPa) = 29.47005 43.14919 66.54744
#
# Poissons Ratio (x) = 0.15594 0.12511
# Poissons Ratio (y) = 0.10650 0.52564
# Poissons Ratio (z) = 0.05540 0.34082
#
# Static dielectric constant tensor:
#      x y z
#    x 1.579220 0.017900 0.027530 
#    y 0.017900 1.609160 -0.000940 
#    z 0.027530 -0.000940 1.619660 
# 
# From -- ./inp_files/161045.got.cif
#   From: 2010.05.17/outbox.cif.g08.bks.cpg/sg2_81_cif.got.tgz:161045.got - 2010.06.03 11:33:40.
