data_PCOD9076402
_publ_section_title
;
Structure prediction by ZEFSAII (Michael W. Deem and Ramdas Pophale) SiO2 
 PCOD9076402
Probable space group: P -1
;
_chemical_formula_sum "Si O2"
_cell_formula_units_Z 16
_cell_length_a 8.048807
_cell_length_b 9.968258
_cell_length_c 10.588359
_cell_angle_alpha 93.120976
_cell_angle_beta 126.934344
_cell_angle_gamma 95.179345
_cell_volume 669.945677
_symmetry_space_group_name_H-M "P -1"
_symmetry_group_IT_number 2
_symmetry_cell_setting 'triclinic'
loop_
_space_group_symop_operation_xyz
x,y,z
-x,-y,-z
loop_
_atom_site_type_symbol
_atom_site_label
_atom_site_fract_x
_atom_site_fract_y
_atom_site_fract_z
Si Si1 0.652612 0.842651 0.467061
Si Si2 0.790993 0.766421 0.971416
Si Si3 0.806749 0.090968 0.707675
Si Si4 0.849507 0.550826 0.204408
Si Si5 0.326842 0.701585 0.744695
Si Si6 0.608050 0.537381 0.417327
Si Si7 0.169780 0.468087 0.175652
Si Si8 0.974346 0.793355 0.445416
O O1 0.404165 0.850846 0.342602
O O2 0.707867 0.691426 0.495876
O O3 0.796553 0.882890 0.410254
O O4 0.730521 0.935356 0.627004
O O5 0.781762 0.648617 0.070272
O O6 0.994295 0.873731 0.106423
O O7 0.552806 0.795826 0.860690
O O8 0.823359 0.690306 0.851151
O O9 0.893469 0.155800 0.616771
O O10 0.715334 0.404056 0.163176
O O11 0.077746 0.515821 0.266236
O O12 0.864541 0.642208 0.341721
O O13 0.318238 0.594356 0.617663
O O14 0.139371 0.783544 0.632365
O O15 0.500000 0.500000 0.500000
O O16 0.394322 0.546891 0.239958
O O17 0.000000 0.500000 0.000000
#
# Coordination Sequence:
#
# PCOD9076402 Si02
#       8
#     2   2   2   2   2   2   2   2
#     4  11  22  39  67  87 117 159 211 247 297 353
#     4   9  20  38  56  82 124 162 196 245 296 356
#     4  10  23  44  63  85 115 165 214 250 283 350
#     4  10  18  33  55  88 123 155 198 242 299 367
#     4  11  21  34  57  93 126 152 185 250 318 361
#     4  11  21  34  58  91 119 149 189 248 309 354
#     4   9  18  32  54  80 118 154 188 239 298 347
#     4  11  22  38  62  93 125 151 203 254 301 354
#
# _framework density 23.882535000000001
#
# number of rings (size 3 to 8) (size 9 to 14) (size 15 to 20)
#    0.000    1.750    1.250    4.875    1.750    0.000 
#    4.500    0.625    0.000   13.500    0.000    0.000 
#    0.000    0.000    0.000    0.000    0.000    0.000 
#
# Total GULP energy -89187.920950 kJ/mol
# GULP energy per Si atom -5574.245059 kJ/mol
# Density = 2.382818 g / cm^3
# Si number density = 23.882535 Si / 1000 Ang^3
#
#
#
# Elastic Constant Matrix: (Units=GPa)
#
#
# Indices 1 2 3 4 5 6 
#
# 1 132.9463 15.8996 29.8041 5.0148 25.2848 -29.8577
# 2 15.8996 54.5492 21.2226 15.6456 6.1835 -5.8738
# 3 29.8041 21.2226 91.9470 22.1099 27.2629 -5.9995
# 4 5.0148 15.6456 22.1099 34.6687 3.3650 -3.6224
# 5 25.2848 6.1835 27.2629 3.3650 46.6156 2.5377
# 6 -29.8577 -5.8738 -5.9995 -3.6224 2.5377 27.3261
#
#
#
# Elastic Compliance Matrix: (Units=1/GPa)
#
#
# Indices 1 2 3 4 5 6 
#
# 1 0.012202 -0.001356 -0.001200 0.001675 -0.006599 0.013612
# 2 -0.001356 0.022234 -0.002601 -0.007983 -0.000208 0.001687
# 3 -0.001200 -0.002601 0.016283 -0.008116 -0.008016 0.001373
# 4 0.001675 -0.007983 -0.008116 0.037510 0.002019 0.003118
# 5 -0.006599 -0.000208 -0.008016 0.002019 0.030230 -0.011554
# 6 0.013612 0.001687 0.001373 0.003118 -0.011554 0.053619
#
#
# Mechanical properties :
#
#
# Convention : Reuss Voigt Hill
#
# Bulk Modulus (GPa) = 24.74997 45.92169 35.33583
# Shear Modulus (GPa) = 25.52822 35.88981 30.70902
#
# Velocity S-wave (km/s) = 3.27296 3.88076 3.58975
# Velocity P-wave (km/s) = 4.96676 6.27298 5.65769
#
# Compressibility (1/GPa) = 0.04040409
#
# Stress axis : x y z
#
# Youngs Moduli (GPa) = 81.95374 44.97581 61.41333
#
# Poissons Ratio (x) = 0.06100 0.07371
# Poissons Ratio (y) = 0.11116 0.15973
# Poissons Ratio (z) = 0.09837 0.11698
#
# Static dielectric constant tensor:
#      x y z
#    x 2.199530 0.177760 0.150740 
#    y 0.177760 2.047820 0.109830 
#    z 0.150740 0.109830 2.225220 
# 
# From -- ./inp_files/390532.got.cif
#   From: 2010.05.17/outbox.cif.g08.bks.cpg/sg2_196_cif.got.tgz:390532.got - 2010.06.03 11:33:40.
