data_PCOD9076040
_publ_section_title
;
Structure prediction by ZEFSAII (Michael W. Deem and Ramdas Pophale) SiO2 
 PCOD9076040
Probable space group: P -1
;
_chemical_formula_sum "Si O2"
_cell_formula_units_Z 16
_cell_length_a 7.443286
_cell_length_b 7.012523
_cell_length_c 15.165761
_cell_angle_alpha 82.824802
_cell_angle_beta 81.619790
_cell_angle_gamma 121.863065
_cell_volume 645.657762
_symmetry_space_group_name_H-M "P -1"
_symmetry_group_IT_number 2
_symmetry_cell_setting 'triclinic'
loop_
_space_group_symop_operation_xyz
x,y,z
-x,-y,-z
loop_
_atom_site_type_symbol
_atom_site_label
_atom_site_fract_x
_atom_site_fract_y
_atom_site_fract_z
Si Si1 0.176428 0.919195 0.083627
Si Si2 0.139298 0.352042 0.016337
Si Si3 0.131812 0.876216 0.428602
Si Si4 0.482335 0.760844 0.844495
Si Si5 0.596504 0.311918 0.340353
Si Si6 0.961288 0.576411 0.610793
Si Si7 0.130850 0.182975 0.726634
Si Si8 0.129894 0.315833 0.208476
O O1 0.992088 0.794987 0.181087
O O2 0.186092 0.151439 0.039709
O O3 0.401124 0.013477 0.113925
O O4 0.091616 0.769489 0.009993
O O5 0.142178 0.436352 0.109645
O O6 0.316869 0.544848 0.928383
O O7 0.164297 0.667631 0.415833
O O8 0.992223 0.778417 0.533834
O O9 0.999548 0.866468 0.352859
O O10 0.362410 0.116329 0.406025
O O11 0.391396 0.764173 0.755802
O O12 0.679265 0.731152 0.804998
O O13 0.645337 0.569539 0.314114
O O14 0.794884 0.349026 0.382943
O O15 0.850053 0.554537 0.712342
O O16 0.097487 0.938695 0.760813
#
# Coordination Sequence:
#
# PCOD9076040 Si02
#       8
#     2   2   2   2   2   2   2   2
#     4   9  15  28  50  84 108 141 181 224 265 328
#     4   9  17  30  54  82 115 147 179 224 278 332
#     4  10  20  42  61  78 106 162 188 220 285 351
#     4  10  18  32  59  84 110 149 189 222 274 336
#     4  11  19  37  60  82 108 154 190 220 278 353
#     4  10  24  39  60  79 116 146 191 234 283 330
#     4   9  18  33  60  84 113 139 189 230 278 325
#     4  10  20  39  54  91 116 141 185 247 272 313
#
# _framework density 24.780930000000001
#
# number of rings (size 3 to 8) (size 9 to 14) (size 15 to 20)
#    0.000    2.500    3.750    1.875    0.000    0.500 
#    2.250    1.250    0.000    1.500    0.000    0.000 
#    0.000    0.000    0.000    0.000    0.000    0.000 
#
# Total GULP energy -89412.878541 kJ/mol
# GULP energy per Si atom -5588.304909 kJ/mol
# Density = 2.472453 g / cm^3
# Si number density = 24.780930 Si / 1000 Ang^3
#
#
#
# Elastic Constant Matrix: (Units=GPa)
#
#
# Indices 1 2 3 4 5 6 
#
# 1 62.1430 31.1147 22.6082 -0.2447 5.3266 6.1236
# 2 31.1147 91.7193 27.8060 -16.8202 -10.3078 32.8185
# 3 22.6082 27.8060 143.3306 2.8934 10.7295 1.5988
# 4 -0.2447 -16.8202 2.8934 50.2067 5.2542 7.3563
# 5 5.3266 -10.3078 10.7295 5.2542 30.4305 4.0392
# 6 6.1236 32.8185 1.5988 7.3563 4.0392 23.2517
#
#
#
# Elastic Compliance Matrix: (Units=1/GPa)
#
#
# Indices 1 2 3 4 5 6 
#
# 1 0.028194 -0.032150 0.003113 -0.015444 -0.020384 0.046166
# 2 -0.032150 0.097979 -0.017481 0.050359 0.056782 -0.154419
# 3 0.003113 -0.017481 0.010676 -0.009295 -0.012370 0.028210
# 4 -0.015444 0.050359 -0.009295 0.047073 0.026305 -0.085835
# 5 -0.020384 0.056782 -0.012370 0.026305 0.067967 -0.094054
# 6 0.046166 -0.154419 0.028210 -0.085835 -0.094054 0.290359
#
#
# Mechanical properties :
#
#
# Convention : Reuss Voigt Hill
#
# Bulk Modulus (GPa) = 22.82481 51.13896 36.98189
# Shear Modulus (GPa) = 7.69360 35.15540 21.42450
#
# Velocity S-wave (km/s) = 1.76391 3.77058 2.94352
# Velocity P-wave (km/s) = 3.65775 6.29584 5.14863
#
# Compressibility (1/GPa) = 0.04381197
#
# Stress axis : x y z
#
# Youngs Moduli (GPa) = 35.46838 10.20624 93.66584
#
# Poissons Ratio (x) = 0.32813 -0.29154
# Poissons Ratio (y) = 1.14031 1.63741
# Poissons Ratio (z) = -0.11040 0.17842
#
# Static dielectric constant tensor:
#      x y z
#    x 2.026990 -0.041370 0.001710 
#    y -0.041370 2.022050 0.019010 
#    z 0.001710 0.019010 1.961850 
# 
# From -- ./inp_files/492770.got.cif
#   From: 2010.05.17/outbox.cif.g08.bks.cpg/sg2_247_cif.got.tgz:492770.got - 2010.06.03 11:33:40.
