data_PCOD9076527
_publ_section_title
;
Structure prediction by ZEFSAII (Michael W. Deem and Ramdas Pophale) SiO2 
 PCOD9076527
Probable space group: P -1
;
_chemical_formula_sum "Si O2"
_cell_formula_units_Z 16
_cell_length_a 13.876346
_cell_length_b 12.364732
_cell_length_c 12.115567
_cell_angle_alpha 59.785494
_cell_angle_beta 148.992844
_cell_angle_gamma 131.278290
_cell_volume 794.310240
_symmetry_space_group_name_H-M "P -1"
_symmetry_group_IT_number 2
_symmetry_cell_setting 'triclinic'
loop_
_space_group_symop_operation_xyz
x,y,z
-x,-y,-z
loop_
_atom_site_type_symbol
_atom_site_label
_atom_site_fract_x
_atom_site_fract_y
_atom_site_fract_z
Si Si1 0.415144 0.303728 0.636950
Si Si2 0.612239 0.918802 0.095148
Si Si3 0.367220 0.124465 0.460156
Si Si4 0.915924 0.092514 0.982033
Si Si5 0.213033 0.717340 0.365032
Si Si6 0.884093 0.460312 0.026017
Si Si7 0.955521 0.216187 0.195890
Si Si8 0.454109 0.864078 0.726535
O O1 0.379190 0.195805 0.757673
O O2 0.405239 0.221638 0.555923
O O3 0.206158 0.320579 0.419503
O O4 0.651037 0.448312 0.801729
O O5 0.487222 0.844374 0.896878
O O6 0.850321 0.054394 0.224983
O O7 0.500000 0.000000 0.000000
O O8 0.565553 0.213803 0.524944
O O9 0.134396 0.085863 0.201220
O O10 0.382558 0.985213 0.583795
O O11 0.934125 0.191056 0.056415
O O12 0.879899 0.174482 0.803668
O O13 0.693813 0.940964 0.865335
O O14 0.284598 0.728503 0.556110
O O15 0.039351 0.564599 0.219798
O O16 0.830292 0.295098 0.073578
O O17 0.000000 0.500000 0.000000
#
# Coordination Sequence:
#
# PCOD9076527 Si02
#       8
#     2   2   2   2   2   2   2   2
#     4  11  21  36  61  86 109 142 188 235 276 316
#     4  11  19  39  64  81 108 141 185 241 279 316
#     4  10  18  33  57  82 108 143 178 229 282 322
#     4   9  18  33  55  82 110 140 181 226 279 328
#     4  11  22  34  51  78 117 149 180 218 270 332
#     4  12  21  37  55  81 118 152 184 220 266 335
#     4  10  21  35  59  89 109 140 186 233 280 320
#     4  10  21  35  52  82 111 142 181 230 275 323
#
# _framework density 20.143263000000001
#
# number of rings (size 3 to 8) (size 9 to 14) (size 15 to 20)
#    0.000    1.500    5.000    2.625    0.000    3.500 
#    0.000    0.625    0.000    0.750    0.000    0.000 
#    0.000    0.000    0.000    0.000    0.000    0.000 
#
# Total GULP energy -89370.667927 kJ/mol
# GULP energy per Si atom -5585.666745 kJ/mol
# Density = 2.009742 g / cm^3
# Si number density = 20.143263 Si / 1000 Ang^3
#
#
#
# Elastic Constant Matrix: (Units=GPa)
#
#
# Indices 1 2 3 4 5 6 
#
# 1 47.1016 8.0326 36.6023 7.0895 -6.2694 -4.8237
# 2 8.0326 31.6229 16.3502 14.5149 -9.6549 -1.0655
# 3 36.6023 16.3502 139.0803 25.4881 1.2700 -0.5510
# 4 7.0895 14.5149 25.4881 34.7645 -3.4640 -3.7781
# 5 -6.2694 -9.6549 1.2700 -3.4640 43.6501 0.0347
# 6 -4.8237 -1.0655 -0.5510 -3.7781 0.0347 20.7459
#
#
#
# Elastic Compliance Matrix: (Units=1/GPa)
#
#
# Indices 1 2 3 4 5 6 
#
# 1 0.028456 -0.002869 -0.007530 0.002017 0.003826 0.006630
# 2 -0.002869 0.042560 -0.001492 -0.015458 0.007819 -0.001349
# 3 -0.007530 -0.001492 0.010459 -0.006015 -0.002191 -0.002641
# 4 0.002017 -0.015458 -0.006015 0.039977 0.000213 0.006795
# 5 0.003826 0.007819 -0.002191 0.000213 0.025268 0.001230
# 6 0.006630 -0.001349 -0.002641 0.006795 0.001230 0.050840
#
#
# Mechanical properties :
#
#
# Convention : Reuss Voigt Hill
#
# Bulk Modulus (GPa) = 17.33324 37.75277 27.54300
# Shear Modulus (GPa) = 20.78359 30.28674 25.53517
#
# Velocity S-wave (km/s) = 3.21563 3.88179 3.56431
# Velocity P-wave (km/s) = 4.73399 6.23489 5.53555
#
# Compressibility (1/GPa) = 0.05769263
#
# Stress axis : x y z
#
# Youngs Moduli (GPa) = 35.14178 23.49617 95.61085
#
# Poissons Ratio (x) = 0.06742 0.71995
# Poissons Ratio (y) = 0.10083 0.14266
# Poissons Ratio (z) = 0.26462 0.03506
#
# Static dielectric constant tensor:
#      x y z
#    x 1.715860 0.006920 0.000980 
#    y 0.006920 1.737210 0.022680 
#    z 0.000980 0.022680 1.740180 
# 
# From -- ./inp_files/431188.got.cif
#   From: 2010.05.17/outbox.cif.g08.bks.cpg/sg2_216_cif.got.tgz:431188.got - 2010.06.03 11:33:40.
