data_PCOD9076255
_publ_section_title
;
Structure prediction by ZEFSAII (Michael W. Deem and Ramdas Pophale) SiO2 
 PCOD9076255
Probable space group: P -1
;
_chemical_formula_sum "Si O2"
_cell_formula_units_Z 16
_cell_length_a 9.618138
_cell_length_b 9.513249
_cell_length_c 14.082059
_cell_angle_alpha 138.213001
_cell_angle_beta 126.228333
_cell_angle_gamma 63.851917
_cell_volume 692.615185
_symmetry_space_group_name_H-M "P -1"
_symmetry_group_IT_number 2
_symmetry_cell_setting 'triclinic'
loop_
_space_group_symop_operation_xyz
x,y,z
-x,-y,-z
loop_
_atom_site_type_symbol
_atom_site_label
_atom_site_fract_x
_atom_site_fract_y
_atom_site_fract_z
Si Si1 0.146219 0.029786 0.209381
Si Si2 0.767628 0.020214 0.004309
Si Si3 0.534859 0.140406 0.676014
Si Si4 0.740306 0.525459 0.518465
Si Si5 0.240745 0.876799 0.463588
Si Si6 0.366860 0.429473 0.278620
Si Si7 0.037715 0.267770 0.565587
Si Si8 0.629491 0.469844 0.128014
O O1 0.266779 0.848515 0.208724
O O2 0.232647 0.240744 0.389216
O O3 0.943244 0.046791 0.147574
O O4 0.178885 0.014667 0.101891
O O5 0.654319 0.233105 0.057414
O O6 0.692901 0.796962 0.896258
O O7 0.414524 0.000941 0.631229
O O8 0.500000 0.000000 0.500000
O O9 0.457617 0.371122 0.753257
O O10 0.572187 0.424268 0.356482
O O11 0.694201 0.552943 0.626184
O O12 0.917090 0.400275 0.514363
O O13 0.292866 0.654527 0.325076
O O14 0.105753 0.817435 0.461347
O O15 0.138714 0.064952 0.463744
O O16 0.177989 0.424973 0.751102
O O17 0.500000 0.500000 0.000000
#
# Coordination Sequence:
#
# PCOD9076255 Si02
#       8
#     2   2   2   2   2   2   2   2
#     4  10  18  33  53  81 115 144 187 232 285 339
#     4  10  20  31  54  88 115 141 182 241 298 335
#     4  11  23  38  58  82 114 157 197 230 276 345
#     4   9  15  27  47  76 109 140 180 231 280 328
#     4   9  18  32  50  77 109 143 186 233 275 329
#     4   9  17  26  49  79 110 139 179 230 288 334
#     4   9  18  29  51  81 111 140 182 239 288 324
#     4  11  21  35  57  85 120 147 187 238 294 337
#
# _framework density 23.100850999999999
#
# number of rings (size 3 to 8) (size 9 to 14) (size 15 to 20)
#    0.000    2.250    3.750    0.000    3.500    1.000 
#    0.000    0.625    0.000    3.750    0.000    0.000 
#    0.000    0.000    0.000    0.000    0.000    0.000 
#
# Total GULP energy -89167.928888 kJ/mol
# GULP energy per Si atom -5572.995555 kJ/mol
# Density = 2.304827 g / cm^3
# Si number density = 23.100851 Si / 1000 Ang^3
#
#
#
# Elastic Constant Matrix: (Units=GPa)
#
#
# Indices 1 2 3 4 5 6 
#
# 1 56.7981 40.0452 32.1861 -5.0542 7.4083 -13.4757
# 2 40.0452 170.3324 59.0920 22.5477 18.8129 -45.1754
# 3 32.1861 59.0920 97.6212 15.9711 19.6210 -20.6639
# 4 -5.0542 22.5477 15.9711 46.5723 -4.4233 -0.4884
# 5 7.4083 18.8129 19.6210 -4.4233 23.1562 -5.3976
# 6 -13.4757 -45.1754 -20.6639 -0.4884 -5.3976 40.8718
#
#
#
# Elastic Compliance Matrix: (Units=1/GPa)
#
#
# Indices 1 2 3 4 5 6 
#
# 1 0.025548 -0.004939 -0.007570 0.008112 0.003740 -0.000272
# 2 -0.004939 0.011391 -0.001096 -0.006114 -0.005679 0.009585
# 3 -0.007570 -0.001096 0.017915 -0.007581 -0.012474 0.003612
# 4 0.008112 -0.006114 -0.007581 0.029084 0.012987 -0.005853
# 5 0.003740 -0.005679 -0.012474 0.012987 0.058855 -0.003423
# 6 -0.000272 0.009585 0.003612 -0.005853 -0.003423 0.036275
#
#
# Mechanical properties :
#
#
# Convention : Reuss Voigt Hill
#
# Bulk Modulus (GPa) = 36.17520 65.26648 50.72084
# Shear Modulus (GPa) = 23.20264 35.01529 29.10896
#
# Velocity S-wave (km/s) = 3.17267 3.89750 3.55361
# Velocity P-wave (km/s) = 5.39582 6.96909 6.23229
#
# Compressibility (1/GPa) = 0.02764325
#
# Stress axis : x y z
#
# Youngs Moduli (GPa) = 39.14243 87.78871 55.81904
#
# Poissons Ratio (x) = 0.43361 0.42254
# Poissons Ratio (y) = 0.19334 0.06119
# Poissons Ratio (z) = 0.29630 0.09623
#
# Static dielectric constant tensor:
#      x y z
#    x 1.992290 0.023000 -0.005130 
#    y 0.023000 1.946720 0.025980 
#    z -0.005130 0.025980 1.848050 
# 
# From -- ./inp_files/392131.got.cif
#   From: 2010.05.17/outbox.cif.g08.bks.cpg/sg2_197_cif.got.tgz:392131.got - 2010.06.03 11:33:40.
