data_PCOD9076385
_publ_section_title
;
Structure prediction by ZEFSAII (Michael W. Deem and Ramdas Pophale) SiO2 
 PCOD9076385
Probable space group: P -1
;
_chemical_formula_sum "Si O2"
_cell_formula_units_Z 15
_cell_length_a 6.716509
_cell_length_b 11.483289
_cell_length_c 14.572967
_cell_angle_alpha 151.542798
_cell_angle_beta 105.243142
_cell_angle_gamma 68.467937
_cell_volume 493.652574
_symmetry_space_group_name_H-M "P -1"
_symmetry_group_IT_number 2
_symmetry_cell_setting 'triclinic'
loop_
_space_group_symop_operation_xyz
x,y,z
-x,-y,-z
loop_
_atom_site_type_symbol
_atom_site_label
_atom_site_fract_x
_atom_site_fract_y
_atom_site_fract_z
Si Si1 0.622821 0.735936 0.283286
Si Si2 0.238206 0.183035 0.104455
Si Si3 0.754841 0.512887 0.505836
Si Si4 0.112280 0.917060 0.642516
Si Si5 0.850310 0.396269 0.749786
Si Si6 0.000000 0.500000 0.000000
Si Si7 0.730217 0.257308 0.083313
Si Si8 0.337551 0.040993 0.310693
O O1 0.884658 0.642530 0.229442
O O2 0.605383 0.529529 0.214357
O O3 0.515461 0.812315 0.223436
O O4 0.500000 0.000000 0.500000
O O5 0.305631 0.325795 0.296675
O O6 0.265358 0.333220 0.121841
O O7 0.976804 0.253055 0.127158
O O8 0.322796 0.883287 0.929774
O O9 0.000000 0.500000 0.500000
O O10 0.620897 0.692354 0.532054
O O11 0.769089 0.236453 0.359169
O O12 0.101651 0.209124 0.852342
O O13 0.873785 0.882335 0.598629
O O14 0.173468 0.808121 0.470380
O O15 0.810639 0.391831 0.849156
O O16 0.729776 0.072273 0.869156
#
# Coordination Sequence:
#
# PCOD9076385 Si02
#       8
#     2   2   2   2   2   1   2   2
#     4  11  20  33  52  84 118 147 170 220 298 342
#     4   8  15  30  48  73 105 140 178 226 271 309
#     4   8  16  28  52  80 110 140 174 227 284 328
#     4  10  19  36  56  82 114 143 185 233 275 327
#     4  10  21  38  55  79 112 145 190 232 272 328
#     4  12  24  36  56  82 106 154 196 228 270 314
#     4   9  17  27  48  78 111 141 174 215 272 344
#     4  10  18  33  55  85 114 143 176 223 290 340
#
# _framework density 30.385743000000002
#
# number of rings (size 3 to 8) (size 9 to 14) (size 15 to 20)
#    0.000    2.400    1.333    2.400    1.867    1.067 
#    0.000    0.000    0.000    0.800    0.000    6.533 
#    0.000    0.000    0.000    0.000    0.000    0.000 
#
# Total GULP energy -83742.706702 kJ/mol
# GULP energy per Si atom -5582.847113 kJ/mol
# Density = 3.031658 g / cm^3
# Si number density = 30.385743 Si / 1000 Ang^3
#
#
#
# Elastic Constant Matrix: (Units=GPa)
#
#
# Indices 1 2 3 4 5 6 
#
# 1 105.6267 43.2665 7.8809 11.0441 -14.9257 -11.2025
# 2 43.2665 305.4879 108.5538 50.1530 13.9694 -9.4933
# 3 7.8809 108.5538 148.9258 47.8940 0.3362 -1.7258
# 4 11.0441 50.1530 47.8940 90.9783 15.4959 20.0991
# 5 -14.9257 13.9694 0.3362 15.4959 28.8935 7.0647
# 6 -11.2025 -9.4933 -1.7258 20.0991 7.0647 56.8376
#
#
#
# Elastic Compliance Matrix: (Units=1/GPa)
#
#
# Indices 1 2 3 4 5 6 
#
# 1 0.011971 -0.002201 0.002007 -0.003203 0.008419 0.002139
# 2 -0.002201 0.005050 -0.003460 -0.000269 -0.003601 0.000847
# 3 0.002007 -0.003460 0.010800 -0.005177 0.005030 0.001351
# 4 -0.003203 -0.000269 -0.005177 0.017092 -0.009230 -0.005730
# 5 0.008419 -0.003601 0.005030 -0.009230 0.045892 -0.001230
# 6 0.002139 0.000847 0.001351 -0.005730 -0.001230 0.020377
#
#
# Mechanical properties :
#
#
# Convention : Reuss Voigt Hill
#
# Bulk Modulus (GPa) = 48.75368 97.71585 73.23476
# Shear Modulus (GPa) = 39.89541 62.03114 50.96328
#
# Velocity S-wave (km/s) = 3.62742 4.52315 4.09982
# Velocity P-wave (km/s) = 5.79862 7.71406 6.82388
#
# Compressibility (1/GPa) = 0.02051127
#
# Stress axis : x y z
#
# Youngs Moduli (GPa) = 83.53774 198.02476 92.59508
#
# Poissons Ratio (x) = 0.43591 -0.18582
# Poissons Ratio (y) = 0.18389 0.32038
# Poissons Ratio (z) = -0.16764 0.68516
#
# Static dielectric constant tensor:
#      x y z
#    x 2.338340 -0.282890 0.346500 
#    y -0.282890 2.073210 0.249790 
#    z 0.346500 0.249790 2.145580 
# 
# From -- ./inp_files/519404.got.cif
#   From: 2010.05.17/outbox.cif.g08.bks.cpg/sg2_260_cif.got.tgz:519404.got - 2010.06.03 11:33:40.
