data_PCOD9076583
_publ_section_title
;
Structure prediction by ZEFSAII (Michael W. Deem and Ramdas Pophale) SiO2 
 PCOD9076583
Probable space group: P -1
;
_chemical_formula_sum "Si O2"
_cell_formula_units_Z 16
_cell_length_a 9.377066
_cell_length_b 18.538946
_cell_length_c 14.086460
_cell_angle_alpha 158.843076
_cell_angle_beta 123.210084
_cell_angle_gamma 51.438791
_cell_volume 686.182716
_symmetry_space_group_name_H-M "P -1"
_symmetry_group_IT_number 2
_symmetry_cell_setting 'triclinic'
loop_
_space_group_symop_operation_xyz
x,y,z
-x,-y,-z
loop_
_atom_site_type_symbol
_atom_site_label
_atom_site_fract_x
_atom_site_fract_y
_atom_site_fract_z
Si Si1 0.242621 0.107399 0.393008
Si Si2 0.100215 0.446774 0.584207
Si Si3 0.970641 0.918614 0.992870
Si Si4 0.162101 0.845541 0.278863
Si Si5 0.604025 0.036162 0.361844
Si Si6 0.830289 0.914529 0.118653
Si Si7 0.555849 0.476587 0.154089
Si Si8 0.182627 0.462690 0.961520
O O1 0.157610 0.287210 0.500763
O O2 0.449092 0.967663 0.265887
O O3 0.233678 0.240235 0.647985
O O4 0.129271 0.953527 0.154813
O O5 0.035179 0.311265 0.318293
O O6 0.287866 0.488589 0.679154
O O7 0.941974 0.661961 0.829364
O O8 0.803852 0.018302 0.130942
O O9 0.000000 0.000000 0.000000
O O10 0.222350 0.009001 0.563114
O O11 0.975533 0.969090 0.305059
O O12 0.326192 0.719101 0.110780
O O13 0.147218 0.654997 0.106694
O O14 0.514529 0.296513 0.649601
O O15 0.657485 0.963920 0.184737
O O16 0.359970 0.458757 0.082919
O O17 0.000000 0.500000 0.000000
#
# Coordination Sequence:
#
# PCOD9076583 Si02
#       8
#     2   2   2   2   2   2   2   2
#     4  10  19  39  59  85 120 151 192 241 292 337
#     4   9  19  40  64  75 111 157 200 235 279 343
#     4  10  23  40  61  84 113 153 198 252 288 336
#     4  10  18  37  57  86 121 161 192 225 282 361
#     4  10  18  33  57  89 121 148 191 239 278 357
#     4  11  21  35  63  86 111 155 203 234 290 347
#     4   9  17  35  61  82 115 160 196 223 280 353
#     4  11  19  31  61  91 120 151 190 235 287 346
#
# _framework density 23.317405000000001
#
# number of rings (size 3 to 8) (size 9 to 14) (size 15 to 20)
#    0.000    2.000    5.000    1.500    3.500    0.000 
#    0.000    9.375    0.000    0.000    0.000    0.000 
#    0.000    0.000    0.000    0.000    0.000    0.000 
#
# Total GULP energy -89203.981880 kJ/mol
# GULP energy per Si atom -5575.248867 kJ/mol
# Density = 2.326433 g / cm^3
# Si number density = 23.317405 Si / 1000 Ang^3
#
#
#
# Elastic Constant Matrix: (Units=GPa)
#
#
# Indices 1 2 3 4 5 6 
#
# 1 173.4274 23.5691 51.5025 -27.8934 -6.1362 -0.7492
# 2 23.5691 57.3627 18.0107 1.1125 -3.1562 12.5155
# 3 51.5025 18.0107 100.8079 -36.5344 15.0992 -13.7360
# 4 -27.8934 1.1125 -36.5344 37.5411 -1.0772 2.1381
# 5 -6.1362 -3.1562 15.0992 -1.0772 39.6240 -7.1077
# 6 -0.7492 12.5155 -13.7360 2.1381 -7.1077 32.1324
#
#
#
# Elastic Compliance Matrix: (Units=1/GPa)
#
#
# Indices 1 2 3 4 5 6 
#
# 1 0.007400 -0.002251 -0.002505 0.003173 0.002047 0.000220
# 2 -0.002251 0.024112 -0.008905 -0.010296 0.002532 -0.012005
# 3 -0.002505 -0.008905 0.022215 0.019244 -0.007241 0.010024
# 4 0.003173 -0.010296 0.019244 0.047427 -0.004926 0.008065
# 5 0.002047 0.002532 -0.007241 -0.004926 0.028862 0.002678
# 6 0.000220 -0.012005 0.010024 0.008065 0.002678 0.040143
#
#
# Mechanical properties :
#
#
# Convention : Reuss Voigt Hill
#
# Bulk Modulus (GPa) = 37.87001 57.52917 47.69959
# Shear Modulus (GPa) = 24.23872 37.76056 30.99964
#
# Velocity S-wave (km/s) = 3.22764 4.02856 3.65014
# Velocity P-wave (km/s) = 5.49241 6.80917 6.18593
#
# Compressibility (1/GPa) = 0.02640612
#
# Stress axis : x y z
#
# Youngs Moduli (GPa) = 135.14257 41.47327 45.01417
#
# Poissons Ratio (x) = 0.09335 0.11276
# Poissons Ratio (y) = 0.30417 0.40083
# Poissons Ratio (z) = 0.33852 0.36930
#
# Static dielectric constant tensor:
#      x y z
#    x 1.974000 0.054190 0.020690 
#    y 0.054190 2.043350 -0.021840 
#    z 0.020690 -0.021840 1.876130 
# 
# From -- ./inp_files/507784.got.cif
#   From: 2010.05.17/outbox.cif.g08.bks.cpg/sg2_254_cif.got.tgz:507784.got - 2010.06.03 11:33:40.
