data_PCOD9076922
_publ_section_title
;
Structure prediction by ZEFSAII (Michael W. Deem and Ramdas Pophale) SiO2 
 PCOD9076922
Probable space group: P -1
;
_chemical_formula_sum "Si O2"
_cell_formula_units_Z 14
_cell_length_a 11.580235
_cell_length_b 10.177321
_cell_length_c 11.890897
_cell_angle_alpha 127.795052
_cell_angle_beta 135.717966
_cell_angle_gamma 84.722416
_cell_volume 601.382830
_symmetry_space_group_name_H-M "P -1"
_symmetry_group_IT_number 2
_symmetry_cell_setting 'triclinic'
loop_
_space_group_symop_operation_xyz
x,y,z
-x,-y,-z
loop_
_atom_site_type_symbol
_atom_site_label
_atom_site_fract_x
_atom_site_fract_y
_atom_site_fract_z
Si Si1 0.044703 0.064750 0.734117
Si Si2 0.166961 0.994107 0.012422
Si Si3 0.541170 0.718259 0.167818
Si Si4 0.259574 0.357216 0.414534
Si Si5 0.646903 0.290557 0.503515
Si Si6 0.349904 0.988326 0.794262
Si Si7 0.334950 0.545924 0.155904
O O1 0.113266 0.084330 0.921029
O O2 0.208209 0.103360 0.537286
O O3 0.165880 0.990024 0.717666
O O4 0.137879 0.297532 0.878750
O O5 0.206428 0.136091 0.222066
O O6 0.403213 0.076902 0.206065
O O7 0.971263 0.742163 0.749330
O O8 0.399800 0.679518 0.156868
O O9 0.509346 0.803851 0.078331
O O10 0.500000 0.500000 0.000000
O O11 0.320953 0.516273 0.439038
O O12 0.466489 0.456828 0.685365
O O13 0.757586 0.220651 0.468949
O O14 0.691796 0.354466 0.699653
O O15 0.500000 0.000000 0.000000
#
# Coordination Sequence:
#
# PCOD9076922 Si02
#       7
#     2   2   2   2   2   2   2
#     4  12  22  45  72  98 133 184 234 274 333 420
#     4  10  18  33  66 101 133 180 227 269 323 414
#     4  12  28  47  73  99 132 186 239 277 336 418
#     4  10  18  34  63 106 134 175 228 272 329 402
#     4  11  22  40  64 105 145 172 218 290 346 383
#     4  12  26  46  70 102 144 178 221 287 351 401
#     4  11  21  40  72  96 135 182 229 275 335 410
#
# _framework density 23.279679000000002
#
# number of rings (size 3 to 8) (size 9 to 14) (size 15 to 20)
#    0.000    0.857    7.143    1.286    0.000    0.571 
#    2.571    2.143    0.000    0.000    0.000    0.000 
#    0.000    0.000    0.000    0.000    0.000    0.000 
#
# Total GULP energy -78180.043406 kJ/mol
# GULP energy per Si atom -5584.288815 kJ/mol
# Density = 2.322669 g / cm^3
# Si number density = 23.279679 Si / 1000 Ang^3
#
#
#
# Elastic Constant Matrix: (Units=GPa)
#
#
# Indices 1 2 3 4 5 6 
#
# 1 75.7416 31.8092 46.2976 1.6627 -10.2092 14.4171
# 2 31.8092 114.9991 19.0223 -0.6786 -8.0650 23.5841
# 3 46.2976 19.0223 118.8335 7.8886 10.2115 -2.5057
# 4 1.6627 -0.6786 7.8886 32.3343 5.5525 2.7618
# 5 -10.2092 -8.0650 10.2115 5.5525 33.9199 3.9476
# 6 14.4171 23.5841 -2.5057 2.7618 3.9476 32.4735
#
#
#
# Elastic Compliance Matrix: (Units=1/GPa)
#
#
# Indices 1 2 3 4 5 6 
#
# 1 0.023891 -0.001775 -0.010243 0.000302 0.011140 -0.011488
# 2 -0.001775 0.011367 -0.001652 0.000827 0.003471 -0.008087
# 3 -0.010243 -0.001652 0.013682 -0.002123 -0.008176 0.007977
# 4 0.000302 0.000827 -0.002123 0.032406 -0.004009 -0.003167
# 5 0.011140 0.003471 -0.008176 -0.004009 0.038221 -0.012403
# 6 -0.011488 -0.008087 0.007977 -0.003167 -0.012403 0.044161
#
#
# Mechanical properties :
#
#
# Convention : Reuss Voigt Hill
#
# Bulk Modulus (GPa) = 46.29688 55.98137 51.13913
# Shear Modulus (GPa) = 25.21848 33.90853 29.56351
#
# Velocity S-wave (km/s) = 3.29490 3.82065 3.56747
# Velocity P-wave (km/s) = 5.86562 6.60020 6.24372
#
# Compressibility (1/GPa) = 0.02159973
#
# Stress axis : x y z
#
# Youngs Moduli (GPa) = 41.85629 87.97607 73.08817
#
# Poissons Ratio (x) = 0.15616 0.74868
# Poissons Ratio (y) = 0.07429 0.12072
# Poissons Ratio (z) = 0.42875 0.14531
#
# Static dielectric constant tensor:
#      x y z
#    x 2.101860 0.042840 0.068000 
#    y 0.042840 1.872970 -0.005540 
#    z 0.068000 -0.005540 1.925400 
# 
# From -- ./inp_files/283794.got.cif
#   From: 2010.05.17/outbox.cif.g08.bks.cpg/sg2_142_cif.got.tgz:283794.got - 2010.06.03 11:33:40.
