data_PCOD9076599
_publ_section_title
;
Structure prediction by ZEFSAII (Michael W. Deem and Ramdas Pophale) SiO2 
 PCOD9076599
Probable space group: P -1
;
_chemical_formula_sum "Si O2"
_cell_formula_units_Z 12
_cell_length_a 11.559179
_cell_length_b 10.456054
_cell_length_c 7.383929
_cell_angle_alpha 62.995021
_cell_angle_beta 41.740091
_cell_angle_gamma 54.936565
_cell_volume 485.791811
_symmetry_space_group_name_H-M "P -1"
_symmetry_group_IT_number 2
_symmetry_cell_setting 'triclinic'
loop_
_space_group_symop_operation_xyz
x,y,z
-x,-y,-z
loop_
_atom_site_type_symbol
_atom_site_label
_atom_site_fract_x
_atom_site_fract_y
_atom_site_fract_z
Si Si1 0.219846 0.400957 0.267883
Si Si2 0.800177 0.348903 0.603526
Si Si3 0.719648 0.440854 0.238504
Si Si4 0.214450 0.890400 0.768731
Si Si5 0.843277 0.942038 0.635361
Si Si6 0.422675 0.869186 0.903197
O O1 0.292442 0.501618 0.257007
O O2 0.353164 0.222332 0.275017
O O3 0.000000 0.500000 0.500000
O O4 0.248674 0.433075 0.004769
O O5 0.816727 0.400702 0.345994
O O6 0.669088 0.250046 0.834787
O O7 0.015645 0.231390 0.477922
O O8 0.500000 0.500000 0.500000
O O9 0.250501 0.949261 0.495152
O O10 0.776945 0.283221 0.155627
O O11 0.354771 0.895870 0.758253
O O12 0.000000 0.000000 0.000000
O O13 0.684972 0.974402 0.953769
O O14 0.000000 0.000000 0.500000
#
# Coordination Sequence:
#
# PCOD9076599 Si02
#       6
#     2   2   2   2   2   2
#     4  12  26  41  56  85 126 161 194 240 292 346
#     4  11  20  37  63  88 116 150 200 246 288 345
#     4  12  21  35  62  88 112 154 200 241 289 342
#     4  12  18  30  60  94 116 141 190 250 294 335
#     4  10  18  33  57  96 115 139 191 254 290 336
#     4  11  20  36  60  89 116 151 194 242 286 347
#
# _framework density 24.701938999999999
#
# number of rings (size 3 to 8) (size 9 to 14) (size 15 to 20)
#    0.000    0.667   10.000    1.500    0.000    0.667 
#    0.000    0.833    0.000    7.000    0.000    0.000 
#    0.000    0.000    0.000    0.000    0.000    0.000 
#
# Total GULP energy -67147.167541 kJ/mol
# GULP energy per Si atom -5595.597295 kJ/mol
# Density = 2.464572 g / cm^3
# Si number density = 24.701939 Si / 1000 Ang^3
#
#
#
# Elastic Constant Matrix: (Units=GPa)
#
#
# Indices 1 2 3 4 5 6 
#
# 1 115.5614 18.8708 50.4937 -8.4732 9.3907 -50.7379
# 2 18.8708 79.0397 9.8609 28.2063 -2.1170 -12.2904
# 3 50.4937 9.8609 93.5047 18.4486 -3.5119 -21.6481
# 4 -8.4732 28.2063 18.4486 46.4372 -18.7015 0.6280
# 5 9.3907 -2.1170 -3.5119 -18.7015 59.5924 -0.2715
# 6 -50.7379 -12.2904 -21.6481 0.6280 -0.2715 48.7153
#
#
#
# Elastic Compliance Matrix: (Units=1/GPa)
#
#
# Indices 1 2 3 4 5 6 
#
# 1 0.022029 -0.005061 -0.009395 0.010222 -0.000918 0.017355
# 2 -0.005061 0.018961 0.003969 -0.015279 -0.003083 0.001456
# 3 -0.009395 0.003969 0.017343 -0.011378 -0.000931 -0.000936
# 4 0.010222 -0.015279 -0.011378 0.041263 0.010131 0.001260
# 5 -0.000918 -0.003083 -0.000931 0.010131 0.019930 -0.002167
# 6 0.017355 0.001456 -0.000936 0.001260 -0.002167 0.038526
#
#
# Mechanical properties :
#
#
# Convention : Reuss Voigt Hill
#
# Bulk Modulus (GPa) = 26.76749 49.61740 38.19245
# Shear Modulus (GPa) = 26.11237 44.87433 35.49335
#
# Velocity S-wave (km/s) = 3.25483 4.26682 3.79471
# Velocity P-wave (km/s) = 4.99850 6.66366 5.89022
#
# Compressibility (1/GPa) = 0.03735875
#
# Stress axis : x y z
#
# Youngs Moduli (GPa) = 45.39505 52.73879 57.66034
#
# Poissons Ratio (x) = 0.26691 0.54175
# Poissons Ratio (y) = 0.22975 -0.22887
# Poissons Ratio (z) = 0.42651 -0.20934
#
# Static dielectric constant tensor:
#      x y z
#    x 2.006070 0.046720 -0.062920 
#    y 0.046720 1.967490 -0.039160 
#    z -0.062920 -0.039160 1.960760 
# 
# From -- ./inp_files/300482.got.cif
#   From: 2010.05.17/outbox.cif.g08.bks.cpg/sg2_151_cif.got.tgz:300482.got - 2010.06.03 11:33:40.
