data_PCOD9076569
_publ_section_title
;
Structure prediction by ZEFSAII (Michael W. Deem and Ramdas Pophale) SiO2 
 PCOD9076569
Probable space group: P -1
;
_chemical_formula_sum "Si O2"
_cell_formula_units_Z 16
_cell_length_a 7.266829
_cell_length_b 9.092340
_cell_length_c 13.571359
_cell_angle_alpha 95.112259
_cell_angle_beta 74.790036
_cell_angle_gamma 51.682470
_cell_volume 640.251247
_symmetry_space_group_name_H-M "P -1"
_symmetry_group_IT_number 2
_symmetry_cell_setting 'triclinic'
loop_
_space_group_symop_operation_xyz
x,y,z
-x,-y,-z
loop_
_atom_site_type_symbol
_atom_site_label
_atom_site_fract_x
_atom_site_fract_y
_atom_site_fract_z
Si Si1 0.159914 0.363991 0.333158
Si Si2 0.357731 0.228841 0.517663
Si Si3 0.282524 0.992321 0.241397
Si Si4 0.020895 0.488377 0.115885
Si Si5 0.627684 0.276129 0.228096
Si Si6 0.861690 0.886562 0.938947
Si Si7 0.508518 0.652220 0.321053
Si Si8 0.814244 0.890595 0.174526
O O1 0.296431 0.287962 0.415927
O O2 0.090508 0.229347 0.307727
O O3 0.373406 0.324288 0.229752
O O4 0.925679 0.598657 0.386055
O O5 0.509040 0.270511 0.563119
O O6 0.500000 0.000000 0.500000
O O7 0.270063 0.962370 0.125265
O O8 0.551017 0.935562 0.226050
O O9 0.286849 0.845347 0.298986
O O10 0.770689 0.563696 0.218817
O O11 0.202182 0.251272 0.084633
O O12 0.036535 0.655568 0.147365
O O13 0.000000 0.500000 0.000000
O O14 0.517343 0.472052 0.314134
O O15 0.789275 0.058925 0.244126
O O16 0.834108 0.239204 0.123271
O O17 0.812828 0.938237 0.062698
#
# Coordination Sequence:
#
# PCOD9076569 Si02
#       8
#     2   2   2   2   2   2   2   2
#     4  10  22  40  64  89 113 149 200 249 301 358
#     4  11  22  42  68  87 111 152 204 250 297 356
#     4  10  19  36  56  85 117 158 207 237 286 355
#     4   8  16  31  55  81 107 151 198 232 279 338
#     4  10  21  37  54  86 123 152 191 246 305 353
#     4  10  18  33  57  86 121 160 196 246 295 343
#     4  10  20  37  58  83 120 156 191 246 297 348
#     4   9  18  33  56  83 119 160 205 244 282 348
#
# _framework density 24.990189000000001
#
# number of rings (size 3 to 8) (size 9 to 14) (size 15 to 20)
#    0.000    2.250    1.250    2.250    0.000    0.500 
#    2.250    2.500    0.000    0.000    0.000    0.000 
#    0.000    0.000    0.000    0.000    0.000    0.000 
#
# Total GULP energy -89073.270058 kJ/mol
# GULP energy per Si atom -5567.079379 kJ/mol
# Density = 2.493331 g / cm^3
# Si number density = 24.990189 Si / 1000 Ang^3
#
#
#
# Elastic Constant Matrix: (Units=GPa)
#
#
# Indices 1 2 3 4 5 6 
#
# 1 39.6246 37.6763 20.3977 2.3912 7.3227 12.4572
# 2 37.6763 187.6862 35.1023 15.3673 31.7791 25.3732
# 3 20.3977 35.1023 71.5818 3.4969 17.4981 -5.8524
# 4 2.3912 15.3673 3.4969 44.5596 -8.7336 14.6686
# 5 7.3227 31.7791 17.4981 -8.7336 40.0442 10.3202
# 6 12.4572 25.3732 -5.8524 14.6686 10.3202 46.2534
#
#
#
# Elastic Compliance Matrix: (Units=1/GPa)
#
#
# Indices 1 2 3 4 5 6 
#
# 1 0.038553 -0.005656 -0.011154 0.006075 0.006763 -0.012127
# 2 -0.005656 0.007885 -0.000848 -0.003166 -0.005360 -0.000709
# 3 -0.011154 -0.000848 0.021369 -0.006380 -0.010747 0.010594
# 4 0.006075 -0.003166 -0.006380 0.031104 0.014534 -0.013813
# 5 0.006763 -0.005360 -0.010747 0.014534 0.039369 -0.013634
# 6 -0.012127 -0.000709 0.010594 -0.013813 -0.013634 0.034038
#
#
# Mechanical properties :
#
#
# Convention : Reuss Voigt Hill
#
# Bulk Modulus (GPa) = 30.77731 53.91613 42.34672
# Shear Modulus (GPa) = 22.88714 39.88588 31.38651
#
# Velocity S-wave (km/s) = 3.02958 3.99941 3.54779
# Velocity P-wave (km/s) = 4.95785 6.55353 5.81072
#
# Compressibility (1/GPa) = 0.03249147
#
# Stress axis : x y z
#
# Youngs Moduli (GPa) = 25.93862 126.82726 46.79699
#
# Poissons Ratio (x) = 0.71734 0.52195
# Poissons Ratio (y) = 0.14671 0.03967
# Poissons Ratio (z) = 0.28931 0.10751
#
# Static dielectric constant tensor:
#      x y z
#    x 2.062720 -0.041800 -0.011330 
#    y -0.041800 2.091490 0.051340 
#    z -0.011330 0.051340 2.008510 
# 
# From -- ./inp_files/206178.got.cif
#   From: 2010.05.17/outbox.cif.g08.bks.cpg/sg2_104_cif.got.tgz:206178.got - 2010.06.03 11:33:40.
