data_PCOD9076526
_publ_section_title
;
Structure prediction by ZEFSAII (Michael W. Deem and Ramdas Pophale) SiO2 
 PCOD9076526
Probable space group: P -1
;
_chemical_formula_sum "Si O2"
_cell_formula_units_Z 16
_cell_length_a 11.720731
_cell_length_b 9.201605
_cell_length_c 17.254761
_cell_angle_alpha 90.866578
_cell_angle_beta 27.219856
_cell_angle_gamma 103.704120
_cell_volume 742.594113
_symmetry_space_group_name_H-M "P -1"
_symmetry_group_IT_number 2
_symmetry_cell_setting 'triclinic'
loop_
_space_group_symop_operation_xyz
x,y,z
-x,-y,-z
loop_
_atom_site_type_symbol
_atom_site_label
_atom_site_fract_x
_atom_site_fract_y
_atom_site_fract_z
Si Si1 0.261312 0.998193 0.954393
Si Si2 0.729139 0.488672 0.916361
Si Si3 0.259294 0.442580 0.920716
Si Si4 0.696724 0.246973 0.486919
Si Si5 0.731193 0.326422 0.638902
Si Si6 0.574047 0.501520 0.348969
Si Si7 0.979022 0.702478 0.239401
Si Si8 0.779657 0.097231 0.198520
O O1 0.271008 0.919354 0.864332
O O2 0.573594 0.156992 0.782442
O O3 0.151917 0.874369 0.091698
O O4 0.016648 0.046528 0.082076
O O5 0.021332 0.664250 0.733667
O O6 0.819853 0.351918 0.836265
O O7 0.500000 0.500000 0.000000
O O8 0.645926 0.453161 0.056694
O O9 0.471898 0.365369 0.788076
O O10 0.315364 0.517061 0.801394
O O11 0.935950 0.292233 0.122639
O O12 0.797202 0.276144 0.515576
O O13 0.521304 0.351688 0.588669
O O14 0.502839 0.049397 0.592646
O O15 0.000000 0.500000 0.500000
O O16 0.821456 0.567878 0.263974
O O17 0.291162 0.333870 0.544225
#
# Coordination Sequence:
#
# PCOD9076526 Si02
#       8
#     2   2   2   2   2   2   2   2
#     4   9  15  29  55  86 110 134 174 236 278 316
#     4  11  24  36  50  75 112 161 188 208 271 336
#     4  10  19  33  54  79 112 138 179 235 268 339
#     4   9  17  32  55  77 106 138 176 232 267 331
#     4   9  17  30  56  81 105 144 184 219 261 329
#     4   9  17  31  56  88 104 134 183 225 293 308
#     4  10  18  33  57  81 113 143 180 230 269 331
#     4   9  15  29  54  84 108 126 178 230 294 320
#
# _framework density 21.54609
#
# number of rings (size 3 to 8) (size 9 to 14) (size 15 to 20)
#    0.000    2.500    2.500    2.250    0.000    1.000 
#    0.000    0.000    0.000   25.500    0.000    0.000 
#    0.000    0.000    0.000    0.000    0.000    0.000 
#
# Total GULP energy -89100.743297 kJ/mol
# GULP energy per Si atom -5568.796456 kJ/mol
# Density = 2.149705 g / cm^3
# Si number density = 21.546090 Si / 1000 Ang^3
#
#
#
# Elastic Constant Matrix: (Units=GPa)
#
#
# Indices 1 2 3 4 5 6 
#
# 1 76.9330 30.3488 59.1675 -8.6763 -1.7910 -3.1239
# 2 30.3488 34.0700 38.7173 -20.3478 0.2553 -3.1643
# 3 59.1675 38.7173 136.7850 -38.9100 14.6122 -1.7797
# 4 -8.6763 -20.3478 -38.9100 41.3458 0.1938 2.4857
# 5 -1.7910 0.2553 14.6122 0.1938 32.7907 2.7411
# 6 -3.1239 -3.1643 -1.7797 2.4857 2.7411 31.8937
#
#
#
# Elastic Compliance Matrix: (Units=1/GPa)
#
#
# Indices 1 2 3 4 5 6 
#
# 1 0.028941 -0.022123 -0.011435 -0.015646 0.006889 0.000629
# 2 -0.022123 0.067121 -0.001662 0.026686 -0.001352 0.002436
# 3 -0.011435 -0.001662 0.017372 0.013207 -0.008379 -0.000625
# 4 -0.015646 0.026686 0.013207 0.046569 -0.007126 -0.001165
# 5 0.006889 -0.001352 -0.008379 -0.007126 0.034857 -0.002367
# 6 0.000629 0.002436 -0.000625 -0.001165 -0.002367 0.031917
#
#
# Mechanical properties :
#
#
# Convention : Reuss Voigt Hill
#
# Bulk Modulus (GPa) = 23.25938 56.02837 39.64388
# Shear Modulus (GPa) = 16.04888 29.17632 22.61260
#
# Velocity S-wave (km/s) = 2.73218 3.68385 3.24311
# Velocity P-wave (km/s) = 4.55760 6.64490 5.69765
#
# Compressibility (1/GPa) = 0.04299340
#
# Stress axis : x y z
#
# Youngs Moduli (GPa) = 34.55247 14.89850 57.56522
#
# Poissons Ratio (x) = 0.32960 0.65828
# Poissons Ratio (y) = 0.76439 0.09568
# Poissons Ratio (z) = 0.39512 0.02476
#
# Static dielectric constant tensor:
#      x y z
#    x 1.850270 0.017500 0.036230 
#    y 0.017500 1.861050 -0.009620 
#    z 0.036230 -0.009620 1.838700 
# 
# From -- ./inp_files/568033.got.cif
#   From: 2010.05.17/outbox.cif.g08.bks.cpg/sg2_285_cif.got.tgz:568033.got - 2010.06.03 11:33:40.
