data_PCOD9076142
_publ_section_title
;
Structure prediction by ZEFSAII (Michael W. Deem and Ramdas Pophale) SiO2 
 PCOD9076142
Probable space group: P -1
;
_chemical_formula_sum "Si O2"
_cell_formula_units_Z 16
_cell_length_a 16.836625
_cell_length_b 11.159256
_cell_length_c 8.465182
_cell_angle_alpha 127.103738
_cell_angle_beta 103.373053
_cell_angle_gamma 118.460062
_cell_volume 750.229647
_symmetry_space_group_name_H-M "P -1"
_symmetry_group_IT_number 2
_symmetry_cell_setting 'triclinic'
loop_
_space_group_symop_operation_xyz
x,y,z
-x,-y,-z
loop_
_atom_site_type_symbol
_atom_site_label
_atom_site_fract_x
_atom_site_fract_y
_atom_site_fract_z
Si Si1 0.260138 0.644552 0.242513
Si Si2 0.636030 0.293940 0.317993
Si Si3 0.929172 0.274766 0.398883
Si Si4 0.224859 0.981041 0.153498
Si Si5 0.037355 0.726828 0.150718
Si Si6 0.220971 0.620190 0.857187
Si Si7 0.536111 0.475417 0.331245
Si Si8 0.728530 0.012734 0.353126
O O1 0.323432 0.664425 0.445266
O O2 0.293145 0.872167 0.457973
O O3 0.286535 0.648583 0.071535
O O4 0.099961 0.386883 0.984957
O O5 0.736141 0.384861 0.295883
O O6 0.602638 0.415268 0.357632
O O7 0.500000 0.000000 0.000000
O O8 0.826686 0.210794 0.415072
O O9 0.000000 0.500000 0.500000
O O10 0.057717 0.377094 0.609491
O O11 0.827511 0.033541 0.050370
O O12 0.354602 0.259105 0.490393
O O13 0.097528 0.813613 0.074061
O O14 0.256859 0.850629 0.051954
O O15 0.169742 0.957723 0.497315
O O16 0.000000 0.500000 0.000000
O O17 0.500000 0.500000 0.500000
O O18 0.405993 0.252176 0.988043
#
# Coordination Sequence:
#
# PCOD9076142 Si02
#       8
#     2   2   2   2   2   2   2   2
#     4  11  20  41  70 101 132 168 224 286 330 382
#     4  12  26  44  66  96 138 180 224 272 330 408
#     4  10  18  32  65 100 124 163 221 277 318 380
#     4  11  20  37  67  99 132 176 218 273 337 393
#     4  10  18  36  65 104 131 161 224 284 323 385
#     4  11  21  41  72 103 128 167 229 283 334 386
#     4  12  26  45  64  92 139 184 219 269 340 407
#     4  11  19  38  63  97 133 166 219 272 320 393
#
# _framework density 21.326803000000002
#
# number of rings (size 3 to 8) (size 9 to 14) (size 15 to 20)
#    0.000    1.000    6.250    5.250    0.000    1.000 
#    0.000    3.750    0.000    2.250    0.000    0.000 
#    0.000    0.000    0.000    0.000    0.000    0.000 
#
# Total GULP energy -89178.090509 kJ/mol
# GULP energy per Si atom -5573.630657 kJ/mol
# Density = 2.127826 g / cm^3
# Si number density = 21.326803 Si / 1000 Ang^3
#
#
#
# Elastic Constant Matrix: (Units=GPa)
#
#
# Indices 1 2 3 4 5 6 
#
# 1 53.4237 16.2600 25.7782 0.7410 1.2717 -7.0224
# 2 16.2600 68.3671 32.7346 -16.6144 4.0733 8.8116
# 3 25.7782 32.7346 139.6407 -13.5345 28.0002 -10.4252
# 4 0.7410 -16.6144 -13.5345 44.3885 -4.4440 7.0063
# 5 1.2717 4.0733 28.0002 -4.4440 27.9237 -8.2171
# 6 -7.0224 8.8116 -10.4252 7.0063 -8.2171 24.7936
#
#
#
# Elastic Compliance Matrix: (Units=1/GPa)
#
#
# Indices 1 2 3 4 5 6 
#
# 1 0.024068 -0.007087 -0.003680 -0.005352 0.006109 0.011325
# 2 -0.007087 0.022469 -0.003730 0.009541 -0.002096 -0.014952
# 3 -0.003680 -0.003730 0.010821 0.000778 -0.009593 0.001434
# 4 -0.005352 0.009541 0.000778 0.028354 -0.001242 -0.013004
# 5 0.006109 -0.002096 -0.009593 -0.001242 0.049759 0.015283
# 6 0.011325 -0.014952 0.001434 -0.013004 0.015283 0.058198
#
#
# Mechanical properties :
#
#
# Convention : Reuss Voigt Hill
#
# Bulk Modulus (GPa) = 35.25493 45.66413 40.45953
# Shear Modulus (GPa) = 21.54082 31.86508 26.70295
#
# Velocity S-wave (km/s) = 3.18155 3.86960 3.54232
# Velocity P-wave (km/s) = 5.48298 6.43608 5.97855
#
# Compressibility (1/GPa) = 0.02836483
#
# Stress axis : x y z
#
# Youngs Moduli (GPa) = 41.54832 44.50567 92.41240
#
# Poissons Ratio (x) = 0.31539 0.34008
# Poissons Ratio (y) = 0.29444 0.34472
# Poissons Ratio (z) = 0.15290 0.16602
#
# Static dielectric constant tensor:
#      x y z
#    x 1.792740 0.025370 0.011430 
#    y 0.025370 1.886700 -0.101420 
#    z 0.011430 -0.101420 1.885070 
# 
# From -- ./inp_files/332477.got.cif
#   From: 2010.05.17/outbox.cif.g08.bks.cpg/sg2_167_cif.got.tgz:332477.got - 2010.06.03 11:33:40.
