data_PCOD9076978
_publ_section_title
;
Structure prediction by ZEFSAII (Michael W. Deem and Ramdas Pophale) SiO2 
 PCOD9076978
Probable space group: P -1
;
_chemical_formula_sum "Si O2"
_cell_formula_units_Z 16
_cell_length_a 9.765537
_cell_length_b 19.691076
_cell_length_c 8.866012
_cell_angle_alpha 128.808833
_cell_angle_beta 80.738157
_cell_angle_gamma 142.533584
_cell_volume 569.183084
_symmetry_space_group_name_H-M "P -1"
_symmetry_group_IT_number 2
_symmetry_cell_setting 'triclinic'
loop_
_space_group_symop_operation_xyz
x,y,z
-x,-y,-z
loop_
_atom_site_type_symbol
_atom_site_label
_atom_site_fract_x
_atom_site_fract_y
_atom_site_fract_z
Si Si1 0.197871 0.093831 0.943819
Si Si2 0.446148 0.660078 0.037183
Si Si3 0.109738 0.813873 0.907233
Si Si4 0.092303 0.712285 0.193698
Si Si5 0.000665 0.566525 0.730921
Si Si6 0.381730 0.148696 0.439833
Si Si7 0.615272 0.566487 0.876410
Si Si8 0.138329 0.864838 0.629782
O O1 0.513107 0.312089 0.112421
O O2 0.940058 0.978836 0.708346
O O3 0.278125 0.039121 0.862182
O O4 0.000000 0.000000 0.000000
O O5 0.547577 0.794780 0.318526
O O6 0.087679 0.435086 0.838195
O O7 0.632452 0.676553 0.076618
O O8 0.118429 0.722648 0.846665
O O9 0.757243 0.642667 0.788897
O O10 0.157559 0.835738 0.751642
O O11 0.319882 0.013053 0.215562
O O12 0.288877 0.894338 0.508397
O O13 0.171921 0.679892 0.020554
O O14 0.838122 0.629389 0.025938
O O15 0.646293 0.344006 0.556610
O O16 0.000000 0.500000 0.500000
O O17 0.240439 0.332865 0.612930
#
# Coordination Sequence:
#
# PCOD9076978 Si02
#       8
#     2   2   2   2   2   2   2   2
#     4  12  21  31  50  89 131 157 179 215 282 356
#     4  10  19  31  52  81 120 156 183 230 270 339
#     4  11  22  36  58  84 119 154 189 241 300 341
#     4   9  20  36  58  83 110 157 202 233 286 346
#     4  10  24  45  65  81 106 147 206 268 301 332
#     4  11  22  37  57  92 116 151 203 230 285 360
#     4  10  18  34  53  81 122 162 189 220 276 351
#     4  11  20  33  52  85 125 157 189 223 278 365
#
# _framework density 28.110461000000001
#
# number of rings (size 3 to 8) (size 9 to 14) (size 15 to 20)
#    0.000    1.500    2.500    5.250    3.500    3.500 
#    0.000    0.625    0.000    0.750    0.000    0.000 
#    0.000    0.000    0.000    0.000    0.000    0.000 
#
# Total GULP energy -89378.523159 kJ/mol
# GULP energy per Si atom -5586.157697 kJ/mol
# Density = 2.804648 g / cm^3
# Si number density = 28.110461 Si / 1000 Ang^3
#
#
#
# Elastic Constant Matrix: (Units=GPa)
#
#
# Indices 1 2 3 4 5 6 
#
# 1 107.7020 52.0098 54.3657 -25.2225 -10.6682 -7.4514
# 2 52.0098 189.0691 36.7314 -22.0240 -28.3383 3.5935
# 3 54.3657 36.7314 130.0807 -28.5481 -36.6438 -4.3592
# 4 -25.2225 -22.0240 -28.5481 50.5576 9.5306 -15.8398
# 5 -10.6682 -28.3383 -36.6438 9.5306 54.1244 -11.8353
# 6 -7.4514 3.5935 -4.3592 -15.8398 -11.8353 58.9720
#
#
#
# Elastic Compliance Matrix: (Units=1/GPa)
#
#
# Indices 1 2 3 4 5 6 
#
# 1 0.013901 -0.002792 -0.004599 0.004236 -0.002077 0.002307
# 2 -0.002792 0.006561 0.000435 0.001208 0.003012 0.000209
# 3 -0.004599 0.000435 0.012835 0.004650 0.007886 0.003173
# 4 0.004236 0.001208 0.004650 0.027395 0.001649 0.008495
# 5 -0.002077 0.003012 0.007886 0.001649 0.025958 0.005790
# 6 0.002307 0.000209 0.003173 0.008495 0.005790 0.020914
#
#
# Mechanical properties :
#
#
# Convention : Reuss Voigt Hill
#
# Bulk Modulus (GPa) = 51.58911 79.22951 65.40931
# Shear Modulus (GPa) = 39.08109 51.64712 45.36410
#
# Velocity S-wave (km/s) = 3.73268 4.29101 4.02155
# Velocity P-wave (km/s) = 6.08024 7.26613 6.69948
#
# Compressibility (1/GPa) = 0.01938393
#
# Stress axis : x y z
#
# Youngs Moduli (GPa) = 71.93835 152.41866 77.90993
#
# Poissons Ratio (x) = 0.42557 0.35834
# Poissons Ratio (y) = 0.20086 -0.03389
# Poissons Ratio (z) = 0.33088 -0.06630
#
# Static dielectric constant tensor:
#      x y z
#    x 2.287060 0.049300 0.034860 
#    y 0.049300 2.248970 0.065430 
#    z 0.034860 0.065430 2.210640 
# 
# From -- ./inp_files/283244.got.cif
#   From: 2010.05.17/outbox.cif.g08.bks.cpg/sg2_142_cif.got.tgz:283244.got - 2010.06.03 11:33:40.
