data_PCOD9076770
_publ_section_title
;
Structure prediction by ZEFSAII (Michael W. Deem and Ramdas Pophale) SiO2 
 PCOD9076770
Probable space group: P -1
;
_chemical_formula_sum "Si O2"
_cell_formula_units_Z 16
_cell_length_a 7.402701
_cell_length_b 11.904449
_cell_length_c 9.049671
_cell_angle_alpha 127.519540
_cell_angle_beta 72.554319
_cell_angle_gamma 110.585956
_cell_volume 588.192256
_symmetry_space_group_name_H-M "P -1"
_symmetry_group_IT_number 2
_symmetry_cell_setting 'triclinic'
loop_
_space_group_symop_operation_xyz
x,y,z
-x,-y,-z
loop_
_atom_site_type_symbol
_atom_site_label
_atom_site_fract_x
_atom_site_fract_y
_atom_site_fract_z
Si Si1 0.193312 0.737312 0.477809
Si Si2 0.929123 0.324091 0.014851
Si Si3 0.284582 0.972769 0.091370
Si Si4 0.576301 0.361813 0.928828
Si Si5 0.375084 0.288183 0.226846
Si Si6 0.790412 0.447150 0.398685
Si Si7 0.901701 0.826301 0.397670
Si Si8 0.538103 0.934744 0.593574
O O1 0.148330 0.624710 0.528700
O O2 0.020903 0.775073 0.458078
O O3 0.319156 0.875106 0.649067
O O4 0.351799 0.705869 0.293372
O O5 0.774491 0.376185 0.986195
O O6 0.949856 0.449562 0.232033
O O7 0.079507 0.273119 0.827875
O O8 0.865861 0.177012 0.014167
O O9 0.249510 0.129566 0.180914
O O10 0.334351 0.950277 0.235349
O O11 0.500000 0.000000 0.000000
O O12 0.418532 0.291909 0.041228
O O13 0.500000 0.500000 0.000000
O O14 0.590585 0.341318 0.293428
O O15 0.272148 0.409700 0.413915
O O16 0.675070 0.819216 0.470171
O O17 0.000000 0.000000 0.500000
O O18 0.500000 0.000000 0.500000
#
# Coordination Sequence:
#
# PCOD9076770 Si02
#       8
#     2   2   2   2   2   2   2   2
#     4  11  21  37  65  92 124 171 217 266 314 392
#     4  10  21  37  61  89 133 171 207 276 326 380
#     4  12  20  36  59  96 130 162 214 273 322 378
#     4  10  18  33  59  94 128 169 221 259 323 386
#     4  10  20  32  58  94 129 169 219 270 317 388
#     4  10  19  36  58  95 123 168 222 257 328 390
#     4  11  22  41  61  94 134 166 209 271 329 378
#     4  12  23  38  64  95 130 169 213 260 328 393
#
# _framework density 27.201989000000001
#
# number of rings (size 3 to 8) (size 9 to 14) (size 15 to 20)
#    0.000    1.250    7.500    0.750    0.000    0.000 
#    0.000    1.875    0.000    7.500    0.000    0.000 
#    0.000    0.000    0.000    0.000    0.000    0.000 
#
# Total GULP energy -89295.272230 kJ/mol
# GULP energy per Si atom -5580.954514 kJ/mol
# Density = 2.714008 g / cm^3
# Si number density = 27.201989 Si / 1000 Ang^3
#
#
#
# Elastic Constant Matrix: (Units=GPa)
#
#
# Indices 1 2 3 4 5 6 
#
# 1 93.4812 34.1932 22.4873 -5.4380 2.9662 -23.4076
# 2 34.1932 174.8164 32.1290 5.3307 1.4688 -27.9103
# 3 22.4873 32.1290 117.8019 -13.3261 -24.0150 -18.6420
# 4 -5.4380 5.3307 -13.3261 46.2389 -5.0254 -0.6271
# 5 2.9662 1.4688 -24.0150 -5.0254 40.2015 -0.3941
# 6 -23.4076 -27.9103 -18.6420 -0.6271 -0.3941 43.1289
#
#
#
# Elastic Compliance Matrix: (Units=1/GPa)
#
#
# Indices 1 2 3 4 5 6 
#
# 1 0.013072 -0.001435 -0.001402 0.001206 -0.001544 0.005564
# 2 -0.001435 0.006806 -0.001535 -0.001489 -0.001217 0.002930
# 3 -0.001402 -0.001535 0.011799 0.004305 0.007780 0.003479
# 4 0.001206 -0.001489 0.004305 0.023809 0.005533 0.001949
# 5 -0.001544 -0.001217 0.007780 0.005533 0.030393 0.002095
# 6 0.005564 0.002930 0.003479 0.001949 0.002095 0.029653
#
#
# Mechanical properties :
#
#
# Convention : Reuss Voigt Hill
#
# Bulk Modulus (GPa) = 43.60549 62.63538 53.12043
# Shear Modulus (GPa) = 37.90183 45.73320 41.81751
#
# Velocity S-wave (km/s) = 3.73681 4.10475 3.92509
# Velocity P-wave (km/s) = 5.88926 6.74843 6.33343
#
# Compressibility (1/GPa) = 0.02293289
#
# Stress axis : x y z
#
# Youngs Moduli (GPa) = 76.50176 146.91960 84.75410
#
# Poissons Ratio (x) = 0.21078 0.11881
# Poissons Ratio (y) = 0.10975 0.13014
# Poissons Ratio (z) = 0.10724 0.22559
#
# Static dielectric constant tensor:
#      x y z
#    x 2.252730 0.161430 0.031450 
#    y 0.161430 2.218350 0.041120 
#    z 0.031450 0.041120 2.319930 
# 
# From -- ./inp_files/190673.got.cif
#   From: 2010.05.17/outbox.cif.g08.bks.cpg/sg2_96_cif.got.tgz:190673.got - 2010.06.03 11:33:40.
