data_PCOD9076349
_publ_section_title
;
Structure prediction by ZEFSAII (Michael W. Deem and Ramdas Pophale) SiO2 
 PCOD9076349
Probable space group: P -1
;
_chemical_formula_sum "Si O2"
_cell_formula_units_Z 16
_cell_length_a 19.781430
_cell_length_b 11.430117
_cell_length_c 10.056993
_cell_angle_alpha 115.134500
_cell_angle_beta 152.587981
_cell_angle_gamma 52.636145
_cell_volume 790.657413
_symmetry_space_group_name_H-M "P -1"
_symmetry_group_IT_number 2
_symmetry_cell_setting 'triclinic'
loop_
_space_group_symop_operation_xyz
x,y,z
-x,-y,-z
loop_
_atom_site_type_symbol
_atom_site_label
_atom_site_fract_x
_atom_site_fract_y
_atom_site_fract_z
Si Si1 0.884359 0.657896 0.293738
Si Si2 0.637923 0.150729 0.672023
Si Si3 0.319643 0.623323 0.819055
Si Si4 0.820108 0.507345 0.676972
Si Si5 0.473344 0.060096 0.131303
Si Si6 0.725469 0.526693 0.802728
Si Si7 0.553501 0.162275 0.824676
Si Si8 0.178147 0.696264 0.886748
O O1 0.000000 0.500000 0.500000
O O2 0.697214 0.766456 0.088052
O O3 0.835479 0.607754 0.049393
O O4 0.991352 0.738150 0.524658
O O5 0.622705 0.066305 0.476952
O O6 0.476376 0.332301 0.468403
O O7 0.599904 0.101641 0.724094
O O8 0.807061 0.159660 0.985364
O O9 0.179240 0.599676 0.490028
O O10 0.500000 0.500000 0.000000
O O11 0.318537 0.779559 0.886948
O O12 0.309931 0.599608 0.948006
O O13 0.775537 0.453377 0.709841
O O14 0.648125 0.684761 0.446421
O O15 0.000000 0.500000 0.000000
O O16 0.429533 0.961971 0.103861
O O17 0.500000 0.000000 0.000000
O O18 0.775943 0.405881 0.950185
#
# Coordination Sequence:
#
# PCOD9076349 Si02
#       8
#     2   2   2   2   2   2   2   2
#     4   9  20  37  57  82 110 143 184 228 274 329
#     4   9  19  35  53  75 105 145 182 219 274 335
#     4   9  19  33  52  80 115 150 182 226 280 328
#     4  10  19  32  53  84 115 145 183 233 278 316
#     4  11  23  38  58  82 109 146 186 230 282 331
#     4   9  18  31  53  80 107 144 186 222 270 332
#     4   9  20  37  53  74 110 149 185 220 272 343
#     4  10  18  33  55  79 107 144 188 230 267 326
#
# _framework density 20.236322999999999
#
# number of rings (size 3 to 8) (size 9 to 14) (size 15 to 20)
#    0.000    2.500    0.000    2.250    0.000    9.000 
#    0.000    4.375    0.000    0.000    0.000    0.000 
#    0.000    0.000    0.000    0.000    0.000    0.000 
#
# Total GULP energy -89117.376873 kJ/mol
# GULP energy per Si atom -5569.836055 kJ/mol
# Density = 2.019026 g / cm^3
# Si number density = 20.236323 Si / 1000 Ang^3
#
#
#
# Elastic Constant Matrix: (Units=GPa)
#
#
# Indices 1 2 3 4 5 6 
#
# 1 88.2372 27.3692 23.3358 18.4787 -28.3428 -3.7344
# 2 27.3692 43.8927 30.8245 22.4964 -13.4944 0.5070
# 3 23.3358 30.8245 107.6654 42.1467 -1.2181 1.3035
# 4 18.4787 22.4964 42.1467 39.9943 -1.9371 -3.1151
# 5 -28.3428 -13.4944 -1.2181 -1.9371 36.3234 10.4510
# 6 -3.7344 0.5070 1.3035 -3.1151 10.4510 25.8155
#
#
#
# Elastic Compliance Matrix: (Units=1/GPa)
#
#
# Indices 1 2 3 4 5 6 
#
# 1 0.017853 -0.004179 -0.000560 -0.004925 0.013008 -0.003167
# 2 -0.004179 0.041172 -0.003919 -0.017125 0.013507 -0.008750
# 3 -0.000560 -0.003919 0.016453 -0.015108 -0.001564 -0.002025
# 4 -0.004925 -0.017125 -0.015108 0.053175 -0.011130 0.011309
# 5 0.013008 0.013507 -0.001564 -0.011130 0.047482 -0.018870
# 6 -0.003167 -0.008750 -0.002025 0.011309 -0.018870 0.047556
#
#
# Mechanical properties :
#
#
# Convention : Reuss Voigt Hill
#
# Bulk Modulus (GPa) = 17.19353 44.76159 30.97756
# Shear Modulus (GPa) = 19.20168 30.97769 25.08968
#
# Velocity S-wave (km/s) = 3.08372 3.91678 3.52495
# Velocity P-wave (km/s) = 4.60368 6.52858 5.64873
#
# Compressibility (1/GPa) = 0.05816143
#
# Stress axis : x y z
#
# Youngs Moduli (GPa) = 56.01303 24.28830 60.78089
#
# Poissons Ratio (x) = 0.10151 0.03401
# Poissons Ratio (y) = 0.23410 0.23821
# Poissons Ratio (z) = 0.03134 0.09519
#
# Static dielectric constant tensor:
#      x y z
#    x 2.168060 0.652980 0.204360 
#    y 0.652980 2.709550 0.330940 
#    z 0.204360 0.330940 1.895700 
# 
# From -- ./inp_files/332291.got.cif
#   From: 2010.05.17/outbox.cif.g08.bks.cpg/sg2_167_cif.got.tgz:332291.got - 2010.06.03 11:33:40.
