data_PCOD9076969
_publ_section_title
;
Structure prediction by ZEFSAII (Michael W. Deem and Ramdas Pophale) SiO2 
 PCOD9076969
Probable space group: P -1
;
_chemical_formula_sum "Si O2"
_cell_formula_units_Z 14
_cell_length_a 7.199236
_cell_length_b 13.451242
_cell_length_c 15.313998
_cell_angle_alpha 137.373781
_cell_angle_beta 56.699953
_cell_angle_gamma 125.417648
_cell_volume 797.998102
_symmetry_space_group_name_H-M "P -1"
_symmetry_group_IT_number 2
_symmetry_cell_setting 'triclinic'
loop_
_space_group_symop_operation_xyz
x,y,z
-x,-y,-z
loop_
_atom_site_type_symbol
_atom_site_label
_atom_site_fract_x
_atom_site_fract_y
_atom_site_fract_z
Si Si1 0.804858 0.815652 0.343979
Si Si2 0.172065 0.397356 0.051661
Si Si3 0.673166 0.971791 0.646509
Si Si4 0.755105 0.922252 0.236086
Si Si5 0.608477 0.484474 0.104861
Si Si6 0.646219 0.244097 0.076885
Si Si7 0.284023 0.082353 0.204701
O O1 0.706779 0.866451 0.489952
O O2 0.725622 0.891374 0.327722
O O3 0.719234 0.633854 0.232094
O O4 0.086306 0.885287 0.318304
O O5 0.355086 0.481576 0.132279
O O6 0.900300 0.348176 0.112116
O O7 0.229740 0.238480 0.911818
O O8 0.231511 0.495480 0.010260
O O9 0.654369 0.887672 0.690182
O O10 0.453196 0.029424 0.720812
O O11 0.008003 0.049432 0.239993
O O12 0.587210 0.332477 0.066678
O O13 0.448780 0.205996 0.177154
O O14 0.673611 0.081633 0.933463
#
# Coordination Sequence:
#
# PCOD9076969 Si02
#       7
#     2   2   2   2   2   2   2
#     4   9  20  32  50  77  97 124 167 197 240 295
#     4   9  19  31  50  77  98 124 162 194 245 300
#     4  10  18  34  53  71  99 129 159 205 241 278
#     4   9  17  32  52  74  97 124 160 205 243 280
#     4  10  19  32  49  74 102 126 157 201 244 288
#     4  10  19  34  51  71 102 130 157 203 242 282
#     4   9  20  33  50  75  96 127 171 195 234 295
#
# _framework density 17.543900000000001
#
# number of rings (size 3 to 8) (size 9 to 14) (size 15 to 20)
#    0.000    2.571    0.000    2.571    0.000    4.571 
#    0.000    5.000    0.000    1.714    0.000    0.000 
#    0.000    0.000    0.000    0.000    0.000    0.000 
#
# Total GULP energy -78115.815939 kJ/mol
# GULP energy per Si atom -5579.701138 kJ/mol
# Density = 1.750397 g / cm^3
# Si number density = 17.543900 Si / 1000 Ang^3
#
#
#
# Elastic Constant Matrix: (Units=GPa)
#
#
# Indices 1 2 3 4 5 6 
#
# 1 105.2131 46.4294 31.0170 -4.2531 -1.0961 -1.2563
# 2 46.4294 111.9137 23.8457 -12.0029 -6.5983 2.8759
# 3 31.0170 23.8457 41.3818 -10.2910 8.4689 2.3603
# 4 -4.2531 -12.0029 -10.2910 16.1908 7.0465 -2.9080
# 5 -1.0961 -6.5983 8.4689 7.0465 21.9570 6.6712
# 6 -1.2563 2.8759 2.3603 -2.9080 6.6712 13.6177
#
#
#
# Elastic Compliance Matrix: (Units=1/GPa)
#
#
# Indices 1 2 3 4 5 6 
#
# 1 0.014887 -0.003912 -0.013909 -0.012661 0.009888 -0.002937
# 2 -0.003912 0.012235 -0.004848 0.001243 0.006475 -0.005011
# 3 -0.013909 -0.004848 0.062039 0.060982 -0.054351 0.028636
# 4 -0.012661 0.001243 0.060982 0.149539 -0.091436 0.064727
# 5 0.009888 0.006475 -0.054351 -0.091436 0.119249 -0.068979
# 6 -0.002937 -0.005011 0.028636 0.064727 -0.068979 0.116872
#
#
# Mechanical properties :
#
#
# Convention : Reuss Voigt Hill
#
# Bulk Modulus (GPa) = 22.81897 51.23253 37.02575
# Shear Modulus (GPa) = 9.34983 20.83419 15.09201
#
# Velocity S-wave (km/s) = 2.31105 3.44982 2.93617
# Velocity P-wave (km/s) = 4.48958 6.71820 5.71360
#
# Compressibility (1/GPa) = 0.04382318
#
# Stress axis : x y z
#
# Youngs Moduli (GPa) = 67.17073 81.72981 16.11880
#
# Poissons Ratio (x) = 0.31974 0.22420
# Poissons Ratio (y) = 0.26278 0.07815
# Poissons Ratio (z) = 0.93427 0.39626
#
# Static dielectric constant tensor:
#      x y z
#    x 1.607500 0.010940 0.006200 
#    y 0.010940 1.593190 -0.001610 
#    z 0.006200 -0.001610 1.589800 
# 
# From -- ./inp_files/65873.got.cif
#   From: 2010.05.17/outbox.cif.g08.bks.cpg/sg2_33_cif.got.tgz:65873.got - 2010.06.03 11:33:40.
