data_PCOD9076303
_publ_section_title
;
Structure prediction by ZEFSAII (Michael W. Deem and Ramdas Pophale) SiO2 
 PCOD9076303
Probable space group: P -1
;
_chemical_formula_sum "Si O2"
_cell_formula_units_Z 16
_cell_length_a 10.685819
_cell_length_b 8.200544
_cell_length_c 15.664269
_cell_angle_alpha 121.795819
_cell_angle_beta 80.609624
_cell_angle_gamma 140.739466
_cell_volume 657.418932
_symmetry_space_group_name_H-M "P -1"
_symmetry_group_IT_number 2
_symmetry_cell_setting 'triclinic'
loop_
_space_group_symop_operation_xyz
x,y,z
-x,-y,-z
loop_
_atom_site_type_symbol
_atom_site_label
_atom_site_fract_x
_atom_site_fract_y
_atom_site_fract_z
Si Si1 0.357354 0.583033 0.766476
Si Si2 0.932196 0.737274 0.775891
Si Si3 0.046436 0.131598 0.436871
Si Si4 0.656889 0.070487 0.566306
Si Si5 0.610262 0.460572 0.066424
Si Si6 0.318120 0.766204 0.655564
Si Si7 0.616572 0.437509 0.869294
Si Si8 0.606418 0.578275 0.648323
O O1 0.390204 0.671001 0.885810
O O2 0.281803 0.644467 0.722175
O O3 0.558129 0.719970 0.736382
O O4 0.165067 0.181878 0.681407
O O5 0.888048 0.468536 0.668004
O O6 0.838161 0.636499 0.854725
O O7 0.753694 0.641106 0.716138
O O8 0.167836 0.131921 0.853095
O O9 0.125526 0.449073 0.527477
O O10 0.244110 0.251972 0.406014
O O11 0.000000 0.000000 0.500000
O O12 0.500000 0.000000 0.500000
O O13 0.529427 0.921507 0.630122
O O14 0.621093 0.816612 0.460228
O O15 0.411832 0.369011 0.073284
O O16 0.596093 0.344353 0.943792
O O17 0.410203 0.093635 0.743598
#
# Coordination Sequence:
#
# PCOD9076303 Si02
#       8
#     2   2   2   2   2   2   2   2
#     4  11  21  35  57  86 110 150 182 218 279 332
#     4  10  18  36  58  80 108 144 184 231 273 317
#     4   9  19  34  53  82 114 142 180 218 269 332
#     4   8  17  31  53  81 110 143 177 219 273 322
#     4  11  22  36  61  82 105 145 192 225 277 327
#     4   9  20  37  56  79 116 144 180 227 275 323
#     4  10  22  40  56  82 109 142 187 237 271 320
#     4  10  18  33  54  81 115 144 176 224 270 325
#
# _framework density 24.337602
#
# number of rings (size 3 to 8) (size 9 to 14) (size 15 to 20)
#    0.000    2.250    2.500    0.375    0.000    6.000 
#    0.000    5.000    0.000    0.750    0.000    0.000 
#    0.000    0.000    0.000    0.000    0.000    0.000 
#
# Total GULP energy -89256.666855 kJ/mol
# GULP energy per Si atom -5578.541678 kJ/mol
# Density = 2.428221 g / cm^3
# Si number density = 24.337602 Si / 1000 Ang^3
#
#
#
# Elastic Constant Matrix: (Units=GPa)
#
#
# Indices 1 2 3 4 5 6 
#
# 1 37.9433 -0.1002 5.6085 -11.9970 1.3327 6.7255
# 2 -0.1002 86.2064 37.3538 -15.1282 -0.4293 9.0941
# 3 5.6085 37.3538 106.4703 -8.6206 -1.7108 4.0464
# 4 -11.9970 -15.1282 -8.6206 43.6396 -1.7766 8.5494
# 5 1.3327 -0.4293 -1.7108 -1.7766 28.4331 -11.5343
# 6 6.7255 9.0941 4.0464 8.5494 -11.5343 21.8392
#
#
#
# Elastic Compliance Matrix: (Units=1/GPa)
#
#
# Indices 1 2 3 4 5 6 
#
# 1 0.037062 0.006621 -0.002098 0.016772 -0.011416 -0.026377
# 2 0.006621 0.017006 -0.005080 0.009402 -0.005832 -0.014940
# 3 -0.002098 -0.005080 0.011219 -0.000364 0.001284 0.001503
# 4 0.016772 0.009402 -0.000364 0.035849 -0.009895 -0.028273
# 5 -0.011416 -0.005832 0.001284 -0.009895 0.049586 0.035769
# 6 -0.026377 -0.014940 0.001503 -0.028273 0.035769 0.089814
#
#
# Mechanical properties :
#
#
# Convention : Reuss Voigt Hill
#
# Bulk Modulus (GPa) = 15.58271 35.14935 25.36603
# Shear Modulus (GPa) = 19.00844 31.29957 25.15401
#
# Velocity S-wave (km/s) = 2.79773 3.59006 3.21837
# Velocity P-wave (km/s) = 4.10524 5.62658 4.92501
#
# Compressibility (1/GPa) = 0.06417369
#
# Stress axis : x y z
#
# Youngs Moduli (GPa) = 26.98164 58.80373 89.13425
#
# Poissons Ratio (x) = -0.38936 0.18703
# Poissons Ratio (y) = -0.17866 0.45278
# Poissons Ratio (z) = 0.05662 0.29871
#
# Static dielectric constant tensor:
#      x y z
#    x 1.942680 0.015350 -0.021480 
#    y 0.015350 2.017020 0.008020 
#    z -0.021480 0.008020 1.966640 
# 
# From -- ./inp_files/67239.got.cif
#   From: 2010.05.17/outbox.cif.g08.bks.cpg/sg2_34_cif.got.tgz:67239.got - 2010.06.03 11:33:40.
