data_PCOD9076001
_publ_section_title
;
Structure prediction by ZEFSAII (Michael W. Deem and Ramdas Pophale) SiO2 
 PCOD9076001
Probable space group: P -1
;
_chemical_formula_sum "Si O2"
_cell_formula_units_Z 16
_cell_length_a 18.375410
_cell_length_b 11.585677
_cell_length_c 17.907183
_cell_angle_alpha 151.999428
_cell_angle_beta 149.529972
_cell_angle_gamma 41.108782
_cell_volume 907.127106
_symmetry_space_group_name_H-M "P -1"
_symmetry_group_IT_number 2
_symmetry_cell_setting 'triclinic'
loop_
_space_group_symop_operation_xyz
x,y,z
-x,-y,-z
loop_
_atom_site_type_symbol
_atom_site_label
_atom_site_fract_x
_atom_site_fract_y
_atom_site_fract_z
Si Si1 0.689038 0.851297 0.847727
Si Si2 0.818016 0.770332 0.350858
Si Si3 0.336149 0.642695 0.741157
Si Si4 0.889827 0.927083 0.199326
Si Si5 0.049276 0.285959 0.718785
Si Si6 0.263593 0.519114 0.453655
Si Si7 0.341465 0.573712 0.875442
Si Si8 0.434879 0.961430 0.788545
O O1 0.690141 0.668672 0.675622
O O2 0.555053 0.819192 0.767634
O O3 0.829212 0.826988 0.010128
O O4 0.677927 0.132717 0.970910
O O5 0.854728 0.658318 0.237470
O O6 0.776960 0.566803 0.259366
O O7 0.678057 0.928980 0.305848
O O8 0.950912 0.951091 0.594334
O O9 0.311878 0.461222 0.547193
O O10 0.326205 0.516846 0.741319
O O11 0.212044 0.844657 0.741532
O O12 0.482793 0.810221 0.967510
O O13 0.881802 0.728856 0.146314
O O14 0.906609 0.442304 0.680592
O O15 0.000000 0.000000 0.500000
O O16 0.344942 0.780317 0.658512
O O17 0.500000 0.500000 0.000000
#
# Coordination Sequence:
#
# PCOD9076001 Si02
#       8
#     2   2   2   2   2   2   2   2
#     4  10  24  36  56  86 118 147 183 233 286 327
#     4  11  17  35  67  79 105 146 202 227 265 326
#     4  10  20  34  59  88 105 150 195 228 268 330
#     4   9  18  37  56  88 107 147 192 219 279 335
#     4  10  18  32  58  86 111 143 184 228 275 327
#     4  12  20  37  56  87 124 140 178 242 287 325
#     4  10  20  40  60  79 110 147 200 229 266 337
#     4  10  19  35  61  84 108 150 187 229 277 340
#
# _framework density 17.638100999999999
#
# number of rings (size 3 to 8) (size 9 to 14) (size 15 to 20)
#    0.000    2.000    7.500    0.750    0.000    3.500 
#    0.000    1.250    0.000    0.000    0.000    0.000 
#    0.000    0.000    0.000    0.000    0.000    0.000 
#
# Total GULP energy -89163.272514 kJ/mol
# GULP energy per Si atom -5572.704532 kJ/mol
# Density = 1.759796 g / cm^3
# Si number density = 17.638101 Si / 1000 Ang^3
#
#
#
# Elastic Constant Matrix: (Units=GPa)
#
#
# Indices 1 2 3 4 5 6 
#
# 1 108.3362 31.1828 39.9428 -6.6156 -12.7822 26.2372
# 2 31.1828 54.8010 26.6688 -25.1575 -7.4789 15.2004
# 3 39.9428 26.6688 67.4665 -24.7485 -14.5148 5.6285
# 4 -6.6156 -25.1575 -24.7485 25.7065 2.3698 1.6060
# 5 -12.7822 -7.4789 -14.5148 2.3698 33.5225 0.8278
# 6 26.2372 15.2004 5.6285 1.6060 0.8278 33.7845
#
#
#
# Elastic Compliance Matrix: (Units=1/GPa)
#
#
# Indices 1 2 3 4 5 6 
#
# 1 0.016610 -0.009085 -0.011028 -0.014909 0.000741 -0.006284
# 2 -0.009085 0.053386 0.010121 0.060169 0.009112 -0.021734
# 3 -0.011028 0.010121 0.034327 0.039411 0.010225 -0.003832
# 4 -0.014909 0.060169 0.039411 0.132195 0.016168 -0.028739
# 5 0.000741 0.009112 0.010225 0.016168 0.035628 -0.008020
# 6 -0.006284 -0.021734 -0.003832 -0.028739 -0.008020 0.046459
#
#
# Mechanical properties :
#
#
# Convention : Reuss Voigt Hill
#
# Bulk Modulus (GPa) = 11.85698 47.35470 29.60584
# Shear Modulus (GPa) = 13.63500 27.45664 20.54582
#
# Velocity S-wave (km/s) = 2.78338 3.94974 3.41670
# Velocity P-wave (km/s) = 4.13117 6.90702 5.69093
#
# Compressibility (1/GPa) = 0.08433847
#
# Stress axis : x y z
#
# Youngs Moduli (GPa) = 60.20312 18.73164 29.13147
#
# Poissons Ratio (x) = 0.17017 0.32127
# Poissons Ratio (y) = 0.54694 -0.29483
# Poissons Ratio (z) = 0.66394 -0.18958
#
# Static dielectric constant tensor:
#      x y z
#    x 1.650180 0.019770 -0.010240 
#    y 0.019770 1.603340 -0.025890 
#    z -0.010240 -0.025890 1.623210 
# 
# From -- ./inp_files/189395.got.cif
#   From: 2010.05.17/outbox.cif.g08.bks.cpg/sg2_95_cif.got.tgz:189395.got - 2010.06.03 11:33:40.
