data_PCOD9076365
_publ_section_title
;
Structure prediction by ZEFSAII (Michael W. Deem and Ramdas Pophale) SiO2 
 PCOD9076365
Probable space group: P -1
;
_chemical_formula_sum "Si O2"
_cell_formula_units_Z 14
_cell_length_a 8.895134
_cell_length_b 6.937131
_cell_length_c 13.612452
_cell_angle_alpha 86.189070
_cell_angle_beta 133.661458
_cell_angle_gamma 99.707313
_cell_volume 597.496147
_symmetry_space_group_name_H-M "P -1"
_symmetry_group_IT_number 2
_symmetry_cell_setting 'triclinic'
loop_
_space_group_symop_operation_xyz
x,y,z
-x,-y,-z
loop_
_atom_site_type_symbol
_atom_site_label
_atom_site_fract_x
_atom_site_fract_y
_atom_site_fract_z
Si Si1 0.240263 0.313478 0.148816
Si Si2 0.788452 0.369212 0.022658
Si Si3 0.579807 0.946690 0.644082
Si Si4 0.001694 0.099289 0.742768
Si Si5 0.636803 0.924423 0.953350
Si Si6 0.845311 0.282066 0.255508
Si Si7 0.132391 0.840024 0.526716
O O1 0.312585 0.486237 0.097817
O O2 0.375937 0.273908 0.306032
O O3 0.253730 0.120953 0.097248
O O4 0.010147 0.337721 0.077302
O O5 0.649665 0.155008 0.965234
O O6 0.844347 0.430563 0.158789
O O7 0.375778 0.950146 0.620234
O O8 0.500000 0.000000 0.500000
O O9 0.813752 0.079474 0.739285
O O10 0.949701 0.216325 0.618694
O O11 0.014998 0.878190 0.715229
O O12 0.222630 0.151711 0.896059
O O13 0.398188 0.821643 0.847719
O O14 0.891133 0.318743 0.390319
O O15 0.000000 0.000000 0.500000
#
# Coordination Sequence:
#
# PCOD9076365 Si02
#       7
#     2   2   2   2   2   2   2
#     4  11  21  36  57  86 112 150 192 231 288 332
#     4  10  22  35  54  86 119 145 184 245 277 337
#     4  10  18  33  55  82 108 153 195 225 278 345
#     4   9  18  31  52  82 111 142 191 230 272 338
#     4  11  20  35  59  86 113 148 190 236 285 330
#     4  10  18  33  55  83 113 147 188 230 285 332
#     4   9  18  31  51  83 110 146 191 230 278 339
#
# _framework density 23.431114999999998
#
# number of rings (size 3 to 8) (size 9 to 14) (size 15 to 20)
#    0.000    2.000    4.286    2.143    0.000    0.571 
#    0.000    0.000    0.000    1.714   26.000    0.000 
#    0.000    0.000    0.000    0.000    0.000    0.000 
#
# Total GULP energy -77970.064371 kJ/mol
# GULP energy per Si atom -5569.290312 kJ/mol
# Density = 2.337778 g / cm^3
# Si number density = 23.431115 Si / 1000 Ang^3
#
#
#
# Elastic Constant Matrix: (Units=GPa)
#
#
# Indices 1 2 3 4 5 6 
#
# 1 135.0361 17.8970 34.4101 -6.9408 -2.2878 19.1754
# 2 17.8970 46.3865 40.6367 -32.1137 -10.9474 -1.2770
# 3 34.4101 40.6367 131.0456 -34.5318 -10.4635 9.2552
# 4 -6.9408 -32.1137 -34.5318 41.2783 12.6509 -10.6436
# 5 -2.2878 -10.9474 -10.4635 12.6509 55.2465 -6.6558
# 6 19.1754 -1.2770 9.2552 -10.6436 -6.6558 12.4301
#
#
#
# Elastic Compliance Matrix: (Units=1/GPa)
#
#
# Indices 1 2 3 4 5 6 
#
# 1 0.044754 -0.122420 0.004703 -0.132192 -0.016179 -0.206976
# 2 -0.122420 0.438829 -0.027255 0.455014 0.053553 0.672526
# 3 0.004703 -0.027255 0.012276 -0.018713 -0.003034 -0.036844
# 4 -0.132192 0.455014 -0.018713 0.513138 0.051796 0.731732
# 5 -0.016179 0.053553 -0.003034 0.051796 0.026609 0.091320
# 6 -0.206976 0.672526 -0.036844 0.731732 0.091320 1.171737
#
#
# Mechanical properties :
#
#
# Convention : Reuss Voigt Hill
#
# Bulk Modulus (GPa) = 4.85637 55.37288 30.11462
# Shear Modulus (GPa) = 1.94861 36.42594 19.18728
#
# Velocity S-wave (km/s) = 0.91293 3.94712 2.86471
# Velocity P-wave (km/s) = 1.78560 6.66757 4.88082
#
# Compressibility (1/GPa) = 0.20591507
#
# Stress axis : x y z
#
# Youngs Moduli (GPa) = 22.34421 2.27879 81.45678
#
# Poissons Ratio (x) = 0.27897 -0.38306
# Poissons Ratio (y) = 2.73538 2.22009
# Poissons Ratio (z) = -0.10508 0.06211
#
# Static dielectric constant tensor:
#      x y z
#    x 1.941810 0.021610 -0.086410 
#    y 0.021610 1.941300 -0.050700 
#    z -0.086410 -0.050700 1.991330 
# 
# From -- ./inp_files/182704.got.cif
#   From: 2010.05.17/outbox.cif.g08.bks.cpg/sg2_92_cif.got.tgz:182704.got - 2010.06.03 11:33:40.
