data_PCOD9076807
_publ_section_title
;
Structure prediction by ZEFSAII (Michael W. Deem and Ramdas Pophale) SiO2 
 PCOD9076807
Probable space group: P -1
;
_chemical_formula_sum "Si O2"
_cell_formula_units_Z 16
_cell_length_a 8.700158
_cell_length_b 9.814347
_cell_length_c 17.838528
_cell_angle_alpha 145.414621
_cell_angle_beta 110.126421
_cell_angle_gamma 89.610401
_cell_volume 694.027040
_symmetry_space_group_name_H-M "P -1"
_symmetry_group_IT_number 2
_symmetry_cell_setting 'triclinic'
loop_
_space_group_symop_operation_xyz
x,y,z
-x,-y,-z
loop_
_atom_site_type_symbol
_atom_site_label
_atom_site_fract_x
_atom_site_fract_y
_atom_site_fract_z
Si Si1 0.537486 0.070405 0.950824
Si Si2 0.892294 0.049604 0.937654
Si Si3 0.195693 0.000211 0.470591
Si Si4 0.180190 0.294317 0.911465
Si Si5 0.168917 0.653152 0.181671
Si Si6 0.192016 0.485830 0.600826
Si Si7 0.045710 0.265732 0.311961
Si Si8 0.258306 0.289145 0.754469
O O1 0.722077 0.069336 0.952823
O O2 0.365917 0.798767 0.759892
O O3 0.587936 0.386339 0.088944
O O4 0.500000 0.000000 0.000000
O O5 0.833484 0.794911 0.754153
O O6 0.030348 0.346977 0.055676
O O7 0.000000 0.000000 0.000000
O O8 0.232990 0.289913 0.570860
O O9 0.275272 0.082920 0.605493
O O10 0.272984 0.861252 0.362454
O O11 0.962549 0.791231 0.336329
O O12 0.262925 0.260744 0.832072
O O13 0.972289 0.255282 0.837394
O O14 0.278724 0.591018 0.106373
O O15 0.140723 0.045081 0.847439
O O16 0.130573 0.352520 0.448268
O O17 0.024674 0.523304 0.626204
#
# Coordination Sequence:
#
# PCOD9076807 Si02
#       8
#     2   2   2   2   2   2   2   2
#     4  12  23  38  58  93 126 159 198 258 307 356
#     4  11  23  39  63  90 120 161 206 251 303 369
#     4  10  18  33  60  87 112 161 204 245 285 372
#     4   9  16  33  58  83 115 152 205 242 287 362
#     4   9  17  33  58  87 109 153 206 245 288 357
#     4  11  22  38  62  92 128 154 204 254 308 354
#     4  10  22  39  61  93 121 165 202 250 297 371
#     4  10  19  32  57  89 113 154 206 241 293 362
#
# _framework density 23.053857000000001
#
# number of rings (size 3 to 8) (size 9 to 14) (size 15 to 20)
#    0.000    1.750    6.250    0.750    0.000    0.500 
#    0.000    0.625    0.000    0.750    0.000    0.000 
#    0.000    0.000    0.000    0.000    0.000    0.000 
#
# Total GULP energy -89327.406782 kJ/mol
# GULP energy per Si atom -5582.962924 kJ/mol
# Density = 2.300139 g / cm^3
# Si number density = 23.053857 Si / 1000 Ang^3
#
#
#
# Elastic Constant Matrix: (Units=GPa)
#
#
# Indices 1 2 3 4 5 6 
#
# 1 53.5703 29.8935 42.7401 -17.9664 -35.7491 12.2647
# 2 29.8935 55.3180 12.2904 2.6434 -20.9037 17.5290
# 3 42.7401 12.2904 129.7748 -9.9816 -33.0648 15.4646
# 4 -17.9664 2.6434 -9.9816 34.9536 22.3429 -15.0700
# 5 -35.7491 -20.9037 -33.0648 22.3429 50.4032 -12.3024
# 6 12.2647 17.5290 15.4646 -15.0700 -12.3024 30.1545
#
#
#
# Elastic Compliance Matrix: (Units=1/GPa)
#
#
# Indices 1 2 3 4 5 6 
#
# 1 0.065922 -0.038039 -0.015627 0.036571 0.010869 0.026025
# 2 -0.038039 0.058124 0.012615 -0.049577 0.016971 -0.042638
# 3 -0.015627 0.012615 0.013714 -0.014754 0.006585 -0.012697
# 4 0.036571 -0.049577 -0.014754 0.090001 -0.031061 0.053818
# 5 0.010869 0.016971 0.006585 -0.031061 0.049506 -0.012989
# 6 0.026025 -0.042638 -0.012697 0.053818 -0.012989 0.075471
#
#
# Mechanical properties :
#
#
# Convention : Reuss Voigt Hill
#
# Bulk Modulus (GPa) = 17.96737 45.39013 31.67875
# Shear Modulus (GPa) = 11.02799 33.35153 22.18976
#
# Velocity S-wave (km/s) = 2.18951 3.80765 3.10581
# Velocity P-wave (km/s) = 3.76862 6.24999 5.16066
#
# Compressibility (1/GPa) = 0.05565645
#
# Stress axis : x y z
#
# Youngs Moduli (GPa) = 15.16952 17.20474 72.91964
#
# Poissons Ratio (x) = 0.65445 1.13954
# Poissons Ratio (y) = 0.57703 -0.91987
# Poissons Ratio (z) = 0.23706 -0.21703
#
# Static dielectric constant tensor:
#      x y z
#    x 1.967770 -0.015340 -0.055780 
#    y -0.015340 1.884010 0.002000 
#    z -0.055780 0.002000 1.944270 
# 
# From -- ./inp_files/589228.got.cif
#   From: 2010.05.17/outbox.cif.g08.bks.cpg/sg2_295_cif.got.tgz:589228.got - 2010.06.03 11:33:40.
