data_PCOD9076487
_publ_section_title
;
Structure prediction by ZEFSAII (Michael W. Deem and Ramdas Pophale) SiO2 
 PCOD9076487
Probable space group: P -1
;
_chemical_formula_sum "Si O2"
_cell_formula_units_Z 16
_cell_length_a 12.587129
_cell_length_b 9.127273
_cell_length_c 11.469431
_cell_angle_alpha 116.421375
_cell_angle_beta 83.520415
_cell_angle_gamma 51.668574
_cell_volume 770.950039
_symmetry_space_group_name_H-M "P -1"
_symmetry_group_IT_number 2
_symmetry_cell_setting 'triclinic'
loop_
_space_group_symop_operation_xyz
x,y,z
-x,-y,-z
loop_
_atom_site_type_symbol
_atom_site_label
_atom_site_fract_x
_atom_site_fract_y
_atom_site_fract_z
Si Si1 0.806408 0.018134 0.716745
Si Si2 0.510654 0.509967 0.202864
Si Si3 0.043447 0.149041 0.621964
Si Si4 0.246153 0.617803 0.395683
Si Si5 0.569069 0.813719 0.320780
Si Si6 0.738721 0.738745 0.599022
Si Si7 0.111332 0.999387 0.058387
Si Si8 0.900238 0.547120 0.251894
O O1 0.624392 0.299541 0.815381
O O2 0.903050 0.999189 0.798816
O O3 0.888083 0.920634 0.544749
O O4 0.805134 0.826281 0.682917
O O5 0.419586 0.488514 0.291045
O O6 0.535476 0.664633 0.303726
O O7 0.694232 0.241445 0.064043
O O8 0.061612 0.307816 0.727759
O O9 0.859200 0.304105 0.679973
O O10 0.154043 0.875748 0.560958
O O11 0.244791 0.452885 0.409075
O O12 0.756345 0.640743 0.222694
O O13 0.500000 0.000000 0.500000
O O14 0.452127 0.999478 0.296661
O O15 0.824965 0.628978 0.422379
O O16 0.048244 0.251711 0.121187
O O17 0.000000 0.000000 0.000000
#
# Coordination Sequence:
#
# PCOD9076487 Si02
#       8
#     2   2   2   2   2   2   2   2
#     4   9  19  37  60  84 108 143 195 231 274 316
#     4  10  21  37  54  84 117 147 181 226 279 338
#     4   9  19  35  60  84 110 142 179 243 280 321
#     4  10  18  33  56  86 116 134 183 230 289 331
#     4   9  17  34  56  79 110 144 183 232 278 315
#     4   9  18  33  61  87 104 141 188 239 274 326
#     4  12  22  34  58  84 112 148 192 232 262 328
#     4  10  19  36  57  82 114 142 191 230 279 315
#
# _framework density 20.753615
#
# number of rings (size 3 to 8) (size 9 to 14) (size 15 to 20)
#    0.000    2.250    1.250    4.125    0.000    2.000 
#    0.000    8.125    5.500    3.750    0.000    0.000 
#    0.000    0.000    0.000    0.000    0.000    0.000 
#
# Total GULP energy -89156.327400 kJ/mol
# GULP energy per Si atom -5572.270462 kJ/mol
# Density = 2.070638 g / cm^3
# Si number density = 20.753615 Si / 1000 Ang^3
#
#
#
# Elastic Constant Matrix: (Units=GPa)
#
#
# Indices 1 2 3 4 5 6 
#
# 1 137.0638 45.1356 42.0838 15.5626 8.1267 2.0213
# 2 45.1356 74.1184 34.8106 32.8188 8.0899 12.1009
# 3 42.0838 34.8106 63.8738 22.9600 -3.5200 -2.4185
# 4 15.5626 32.8188 22.9600 27.5420 -9.1763 6.4898
# 5 8.1267 8.0899 -3.5200 -9.1763 30.5898 7.0064
# 6 2.0213 12.1009 -2.4185 6.4898 7.0064 44.8728
#
#
#
# Elastic Compliance Matrix: (Units=1/GPa)
#
#
# Indices 1 2 3 4 5 6 
#
# 1 0.010499 -0.007155 -0.005722 0.007630 0.000750 -0.000073
# 2 -0.007155 0.051690 -0.000723 -0.068103 -0.032575 0.001280
# 3 -0.005722 -0.000723 0.027378 -0.020864 -0.002623 0.005356
# 4 0.007630 -0.068103 -0.020864 0.155452 0.063775 -0.015543
# 5 0.000750 -0.032575 -0.002623 0.063775 0.062304 -0.010342
# 6 -0.000073 0.001280 0.005356 -0.015543 -0.010342 0.026095
#
#
# Mechanical properties :
#
#
# Convention : Reuss Voigt Hill
#
# Bulk Modulus (GPa) = 16.03412 57.67957 36.85684
# Shear Modulus (GPa) = 13.10930 30.80263 21.95596
#
# Velocity S-wave (km/s) = 2.51602 3.85672 3.25612
# Velocity P-wave (km/s) = 4.02283 6.90545 5.65104
#
# Compressibility (1/GPa) = 0.06236702
#
# Stress axis : x y z
#
# Youngs Moduli (GPa) = 95.24554 19.34595 36.52509
#
# Poissons Ratio (x) = 0.13841 0.20901
# Poissons Ratio (y) = 0.68144 0.02642
# Poissons Ratio (z) = 0.54504 0.01400
#
# Static dielectric constant tensor:
#      x y z
#    x 1.818770 -0.033500 -0.014350 
#    y -0.033500 1.807540 0.006530 
#    z -0.014350 0.006530 1.777630 
# 
# From -- ./inp_files/386837.got.cif
#   From: 2010.05.17/outbox.cif.g08.bks.cpg/sg2_194_cif.got.tgz:386837.got - 2010.06.03 11:33:40.
