data_PCOD9076258
_publ_section_title
;
Structure prediction by ZEFSAII (Michael W. Deem and Ramdas Pophale) SiO2 
 PCOD9076258
Probable space group: P -1
;
_chemical_formula_sum "Si O2"
_cell_formula_units_Z 16
_cell_length_a 14.558270
_cell_length_b 20.980059
_cell_length_c 6.922913
_cell_angle_alpha 67.364978
_cell_angle_beta 113.206805
_cell_angle_gamma 159.928246
_cell_volume 666.240422
_symmetry_space_group_name_H-M "P -1"
_symmetry_group_IT_number 2
_symmetry_cell_setting 'triclinic'
loop_
_space_group_symop_operation_xyz
x,y,z
-x,-y,-z
loop_
_atom_site_type_symbol
_atom_site_label
_atom_site_fract_x
_atom_site_fract_y
_atom_site_fract_z
Si Si1 0.107165 0.340285 0.045746
Si Si2 0.883369 0.343705 0.789158
Si Si3 0.105739 0.397520 0.411609
Si Si4 0.381152 0.370960 0.723385
Si Si5 0.305234 0.190113 0.612745
Si Si6 0.170958 0.914162 0.356668
Si Si7 0.758622 0.304477 0.290085
Si Si8 0.330598 0.045164 0.784848
O O1 0.129057 0.375503 0.249672
O O2 0.406782 0.505407 0.072988
O O3 0.902440 0.146709 0.080762
O O4 0.989351 0.334545 0.869411
O O5 0.809477 0.322284 0.539130
O O6 0.612077 0.184652 0.868521
O O7 0.120250 0.543611 0.831646
O O8 0.409081 0.606487 0.497168
O O9 0.913816 0.220459 0.567668
O O10 0.942204 0.362624 0.284851
O O11 0.500000 0.500000 0.500000
O O12 0.311273 0.251517 0.713257
O O13 0.106021 0.224670 0.748333
O O14 0.347376 0.135854 0.751541
O O15 0.000000 0.000000 0.500000
O O16 0.439963 0.098556 0.243062
O O17 0.247360 0.986865 0.555348
#
# Coordination Sequence:
#
# PCOD9076258 Si02
#       8
#     2   2   2   2   2   2   2   2
#     4  10  21  35  59  86 113 143 182 243 281 322
#     4  10  21  36  56  84 115 147 187 229 283 327
#     4  10  20  35  57  86 111 144 188 229 281 327
#     4  11  18  35  55  86 113 144 185 232 287 327
#     4  11  18  28  55  87 113 137 184 236 273 324
#     4  10  19  34  57  81 111 150 188 222 276 341
#     4  10  21  37  57  81 112 155 188 221 274 347
#     4  10  18  33  53  83 114 143 183 232 281 322
#
# _framework density 24.015352
#
# number of rings (size 3 to 8) (size 9 to 14) (size 15 to 20)
#    0.000    1.750    6.250    0.750    0.000    0.500 
#    0.000    0.625    0.000    0.750    0.000    0.000 
#    0.000    0.000    0.000    0.000    0.000    0.000 
#
# Total GULP energy -89368.360121 kJ/mol
# GULP energy per Si atom -5585.522508 kJ/mol
# Density = 2.396069 g / cm^3
# Si number density = 24.015352 Si / 1000 Ang^3
#
#
#
# Elastic Constant Matrix: (Units=GPa)
#
#
# Indices 1 2 3 4 5 6 
#
# 1 106.2571 52.5739 49.7213 5.7957 21.2631 -8.6687
# 2 52.5739 209.5141 54.2762 15.6963 13.7190 10.0855
# 3 49.7213 54.2762 49.3761 3.7471 16.0082 5.9299
# 4 5.7957 15.6963 3.7471 28.9324 0.0244 14.8923
# 5 21.2631 13.7190 16.0082 0.0244 27.3392 -0.9837
# 6 -8.6687 10.0855 5.9299 14.8923 -0.9837 56.5967
#
#
#
# Elastic Compliance Matrix: (Units=1/GPa)
#
#
# Indices 1 2 3 4 5 6 
#
# 1 0.019989 0.000403 -0.019653 -0.004901 -0.004012 0.006269
# 2 0.000403 0.006928 -0.008183 -0.003039 0.001022 0.000502
# 3 -0.019653 -0.008183 0.053664 0.006061 -0.012360 -0.008984
# 4 -0.004901 -0.003039 0.006061 0.042600 0.001317 -0.012031
# 5 -0.004012 0.001022 -0.012360 0.001317 0.046455 0.000959
# 6 0.006269 0.000502 -0.008984 -0.012031 0.000959 0.022663
#
#
# Mechanical properties :
#
#
# Convention : Reuss Voigt Hill
#
# Bulk Modulus (GPa) = 38.88468 75.36555 57.12511
# Shear Modulus (GPa) = 19.55138 36.47873 28.01506
#
# Velocity S-wave (km/s) = 2.85637 3.90163 3.41918
# Velocity P-wave (km/s) = 5.20627 7.19356 6.27904
#
# Compressibility (1/GPa) = 0.02571707
#
# Stress axis : x y z
#
# Youngs Moduli (GPa) = 50.02698 144.33872 18.63455
#
# Poissons Ratio (x) = -0.05821 0.36622
# Poissons Ratio (y) = -0.02018 0.15248
# Poissons Ratio (z) = 0.98316 1.18109
#
# Static dielectric constant tensor:
#      x y z
#    x 1.925610 0.034480 -0.049290 
#    y 0.034480 1.927130 0.048140 
#    z -0.049290 0.048140 2.061240 
# 
# From -- ./inp_files/269466.got.cif
#   From: 2010.05.17/outbox.cif.g08.bks.cpg/sg2_135_cif.got.tgz:269466.got - 2010.06.03 11:33:40.
