data_PCOD9076523
_publ_section_title
;
Structure prediction by ZEFSAII (Michael W. Deem and Ramdas Pophale) SiO2 
 PCOD9076523
Probable space group: P -1
;
_chemical_formula_sum "Si O2"
_cell_formula_units_Z 16
_cell_length_a 7.232590
_cell_length_b 20.215229
_cell_length_c 20.979647
_cell_angle_alpha 26.829613
_cell_angle_beta 147.462286
_cell_angle_gamma 143.590684
_cell_volume 726.996801
_symmetry_space_group_name_H-M "P -1"
_symmetry_group_IT_number 2
_symmetry_cell_setting 'triclinic'
loop_
_space_group_symop_operation_xyz
x,y,z
-x,-y,-z
loop_
_atom_site_type_symbol
_atom_site_label
_atom_site_fract_x
_atom_site_fract_y
_atom_site_fract_z
Si Si1 0.806681 0.426564 0.933022
Si Si2 0.592721 0.309694 0.097624
Si Si3 0.782090 0.315414 0.536790
Si Si4 0.503413 0.416441 0.719564
Si Si5 0.273210 0.210262 0.222923
Si Si6 0.392279 0.020996 0.621001
Si Si7 0.847418 0.577275 0.572653
Si Si8 0.885629 0.118366 0.558098
O O1 0.612814 0.369218 0.860723
O O2 0.028062 0.597805 0.845067
O O3 0.562597 0.402724 0.944788
O O4 0.101829 0.325849 0.113036
O O5 0.343193 0.281060 0.111613
O O6 0.571356 0.143310 0.207793
O O7 0.630364 0.430991 0.435891
O O8 0.519572 0.155340 0.591721
O O9 0.167423 0.307613 0.682998
O O10 0.851605 0.388411 0.423248
O O11 0.830518 0.466377 0.723366
O O12 0.645597 0.184639 0.380534
O O13 0.034597 0.040622 0.302793
O O14 0.636100 0.066714 0.590808
O O15 0.000000 0.000000 0.500000
O O16 0.500000 0.500000 0.500000
O O17 0.830534 0.741257 0.454298
#
# Coordination Sequence:
#
# PCOD9076523 Si02
#       8
#     2   2   2   2   2   2   2   2
#     4  11  22  35  52  75 107 143 178 211 262 320
#     4  10  22  34  49  77 108 139 176 215 260 315
#     4   9  20  36  56  82 107 133 179 225 258 309
#     4  10  20  35  56  80 106 142 178 214 262 315
#     4  10  20  35  53  77 108 137 171 222 264 306
#     4  10  18  33  57  81 108 139 173 222 269 306
#     4   9  18  34  57  81 106 136 173 220 265 307
#     4   9  19  34  56  83 105 133 180 220 263 316
#
# _framework density 22.008351000000001
#
# number of rings (size 3 to 8) (size 9 to 14) (size 15 to 20)
#    0.000    2.250    0.000    2.625    0.000    7.000 
#    0.000    0.625    0.000   13.500    0.000    0.000 
#    0.000    0.000    0.000    0.000    0.000    0.000 
#
# Total GULP energy -89235.325561 kJ/mol
# GULP energy per Si atom -5577.207848 kJ/mol
# Density = 2.195826 g / cm^3
# Si number density = 22.008351 Si / 1000 Ang^3
#
#
#
# Elastic Constant Matrix: (Units=GPa)
#
#
# Indices 1 2 3 4 5 6 
#
# 1 89.9007 22.5446 25.2476 -5.1351 -20.9249 6.3627
# 2 22.5446 155.5434 41.8825 -29.3913 0.9887 -13.4472
# 3 25.2476 41.8825 65.7175 -3.2913 -18.2047 0.0103
# 4 -5.1351 -29.3913 -3.2913 27.8050 -8.9871 -6.3824
# 5 -20.9249 0.9887 -18.2047 -8.9871 38.3943 -4.0667
# 6 6.3627 -13.4472 0.0103 -6.3824 -4.0667 32.0955
#
#
#
# Elastic Compliance Matrix: (Units=1/GPa)
#
#
# Indices 1 2 3 4 5 6 
#
# 1 0.014029 -0.000869 -0.002750 0.003219 0.006946 -0.001624
# 2 -0.000869 0.011278 -0.006195 0.012760 0.000074 0.007446
# 3 -0.002750 -0.006195 0.022564 -0.001846 0.008788 -0.001311
# 4 0.003219 0.012760 -0.001846 0.059409 0.016427 0.018604
# 5 0.006946 0.000074 0.008788 0.016427 0.038562 0.006804
# 6 -0.001624 0.007446 -0.001311 0.018604 0.006804 0.039161
#
#
# Mechanical properties :
#
#
# Convention : Reuss Voigt Hill
#
# Bulk Modulus (GPa) = 35.40907 54.50121 44.95514
# Shear Modulus (GPa) = 23.35960 34.42476 28.89218
#
# Velocity S-wave (km/s) = 3.26144 3.95925 3.62716
# Velocity P-wave (km/s) = 5.50514 6.76154 6.16543
#
# Compressibility (1/GPa) = 0.02824135
#
# Stress axis : x y z
#
# Youngs Moduli (GPa) = 71.27989 88.67129 44.31911
#
# Poissons Ratio (x) = 0.07707 0.12189
# Poissons Ratio (y) = 0.06196 0.27456
# Poissons Ratio (z) = 0.19605 0.54932
#
# Static dielectric constant tensor:
#      x y z
#    x 1.833680 -0.026270 -0.009640 
#    y -0.026270 1.826510 0.014810 
#    z -0.009640 0.014810 1.837190 
# 
# From -- ./inp_files/477480.got.cif
#   From: 2010.05.17/outbox.cif.g08.bks.cpg/sg2_239_cif.got.tgz:477480.got - 2010.06.03 11:33:40.
