data_PCOD9076322
_publ_section_title
;
Structure prediction by ZEFSAII (Michael W. Deem and Ramdas Pophale) SiO2 
 PCOD9076322
Probable space group: P -1
;
_chemical_formula_sum "Si O2"
_cell_formula_units_Z 16
_cell_length_a 11.467082
_cell_length_b 8.998749
_cell_length_c 8.256844
_cell_angle_alpha 75.807320
_cell_angle_beta 54.639599
_cell_angle_gamma 87.682306
_cell_volume 668.067328
_symmetry_space_group_name_H-M "P -1"
_symmetry_group_IT_number 2
_symmetry_cell_setting 'triclinic'
loop_
_space_group_symop_operation_xyz
x,y,z
-x,-y,-z
loop_
_atom_site_type_symbol
_atom_site_label
_atom_site_fract_x
_atom_site_fract_y
_atom_site_fract_z
Si Si1 0.329277 0.422394 0.031067
Si Si2 0.605287 0.904179 0.841389
Si Si3 0.805337 0.175106 0.723714
Si Si4 0.815984 0.501958 0.534241
Si Si5 0.924554 0.807832 0.276714
Si Si6 0.606775 0.229980 0.180391
Si Si7 0.149996 0.861108 0.784741
Si Si8 0.028335 0.401016 0.161018
O O1 0.401604 0.267970 0.033446
O O2 0.253305 0.451514 0.255134
O O3 0.194574 0.385153 0.031053
O O4 0.411607 0.587835 0.866326
O O5 0.541011 0.874462 0.720849
O O6 0.756536 0.011037 0.721254
O O7 0.500000 0.000000 0.000000
O O8 0.758183 0.320432 0.622356
O O9 0.972331 0.196931 0.644908
O O10 0.714407 0.189798 0.959351
O O11 0.806516 0.656979 0.398001
O O12 0.979761 0.484821 0.340420
O O13 0.847347 0.959507 0.296359
O O14 0.036549 0.821496 0.034630
O O15 0.697733 0.193598 0.274328
O O16 0.068524 0.762083 0.733819
O O17 0.000000 0.500000 0.000000
#
# Coordination Sequence:
#
# PCOD9076322 Si02
#       8
#     2   2   2   2   2   2   2   2
#     4  11  21  36  62  89 118 152 189 239 301 340
#     4  10  21  37  59  88 112 148 207 253 271 326
#     4   9  18  34  56  84 115 148 192 240 290 336
#     4  11  22  37  59  87 126 153 182 238 300 354
#     4  10  18  33  54  85 117 152 182 231 298 351
#     4   9  18  36  56  84 112 152 194 241 284 330
#     4  10  20  32  54  85 119 147 191 234 285 349
#     4  12  20  35  58  93 121 147 188 230 288 362
#
# _framework density 23.949681999999999
#
# number of rings (size 3 to 8) (size 9 to 14) (size 15 to 20)
#    0.000    1.750    2.500    4.125    0.000    2.000 
#    0.000    2.500    0.000    4.500    0.000    0.000 
#    0.000    0.000    0.000    0.000    0.000    0.000 
#
# Total GULP energy -89141.911385 kJ/mol
# GULP energy per Si atom -5571.369462 kJ/mol
# Density = 2.389517 g / cm^3
# Si number density = 23.949682 Si / 1000 Ang^3
#
#
#
# Elastic Constant Matrix: (Units=GPa)
#
#
# Indices 1 2 3 4 5 6 
#
# 1 97.8452 53.9523 6.1484 -2.1998 2.1417 6.5783
# 2 53.9523 173.7265 20.3111 -16.6720 11.8030 -9.5071
# 3 6.1484 20.3111 56.5673 -1.5612 -0.4211 -3.3771
# 4 -2.1998 -16.6720 -1.5612 33.5014 -4.5862 0.1947
# 5 2.1417 11.8030 -0.4211 -4.5862 12.4535 -0.2004
# 6 6.5783 -9.5071 -3.3771 0.1947 -0.2004 30.9552
#
#
#
# Elastic Compliance Matrix: (Units=1/GPa)
#
#
# Indices 1 2 3 4 5 6 
#
# 1 0.012882 -0.004426 -0.000075 -0.001132 0.001494 -0.004088
# 2 -0.004426 0.008253 -0.002259 0.002867 -0.006030 0.003172
# 3 -0.000075 -0.002259 0.018604 0.000120 0.002849 0.001370
# 4 -0.001132 0.002867 0.000120 0.032498 0.009465 0.000991
# 5 0.001494 -0.006030 0.002849 0.009465 0.089317 -0.001340
# 6 -0.004088 0.003172 0.001370 0.000991 -0.001340 0.034282
#
#
# Mechanical properties :
#
#
# Convention : Reuss Voigt Hill
#
# Bulk Modulus (GPa) = 38.13982 54.32918 46.23450
# Shear Modulus (GPa) = 22.92579 31.89716 27.41147
#
# Velocity S-wave (km/s) = 3.09730 3.65340 3.38678
# Velocity P-wave (km/s) = 5.36196 6.36635 5.88562
#
# Compressibility (1/GPa) = 0.02621932
#
# Stress axis : x y z
#
# Youngs Moduli (GPa) = 77.62777 121.16636 53.75319
#
# Poissons Ratio (x) = 0.53624 0.00405
# Poissons Ratio (y) = 0.34355 0.12141
# Poissons Ratio (z) = 0.00584 0.27368
#
# Static dielectric constant tensor:
#      x y z
#    x 1.993600 0.035660 0.027030 
#    y 0.035660 1.929800 -0.011900 
#    z 0.027030 -0.011900 1.981320 
# 
# From -- ./inp_files/238243.got.cif
#   From: 2010.05.17/outbox.cif.g08.bks.cpg/sg2_120_cif.got.tgz:238243.got - 2010.06.03 11:33:40.
