data_PCOD9076792
_publ_section_title
;
Structure prediction by ZEFSAII (Michael W. Deem and Ramdas Pophale) SiO2 
 PCOD9076792
Probable space group: P -1
;
_chemical_formula_sum "Si O2"
_cell_formula_units_Z 16
_cell_length_a 7.801926
_cell_length_b 12.699679
_cell_length_c 11.454339
_cell_angle_alpha 44.114124
_cell_angle_beta 80.599531
_cell_angle_gamma 60.254321
_cell_volume 650.042626
_symmetry_space_group_name_H-M "P -1"
_symmetry_group_IT_number 2
_symmetry_cell_setting 'triclinic'
loop_
_space_group_symop_operation_xyz
x,y,z
-x,-y,-z
loop_
_atom_site_type_symbol
_atom_site_label
_atom_site_fract_x
_atom_site_fract_y
_atom_site_fract_z
Si Si1 0.526688 0.081100 0.600531
Si Si2 0.714015 0.512947 0.751871
Si Si3 0.259077 0.614690 0.407031
Si Si4 0.521102 0.128082 0.035797
Si Si5 0.146272 0.990421 0.095006
Si Si6 0.114151 0.523143 0.710969
Si Si7 0.158075 0.087095 0.492396
Si Si8 0.209346 0.790336 0.885209
O O1 0.466451 0.284710 0.428413
O O2 0.338415 0.084661 0.551309
O O3 0.526891 0.006917 0.786954
O O4 0.744719 0.948424 0.618343
O O5 0.764206 0.398665 0.717545
O O6 0.913508 0.517130 0.757464
O O7 0.666781 0.426103 0.935429
O O8 0.500000 0.500000 0.500000
O O9 0.192388 0.812355 0.296827
O O10 0.140293 0.549715 0.549637
O O11 0.666397 0.153040 0.089449
O O12 0.657807 0.040838 0.973077
O O13 0.320383 0.331698 0.875904
O O14 0.008582 0.147728 0.076028
O O15 0.000000 0.000000 0.000000
O O16 0.051859 0.713534 0.626526
O O17 0.162610 0.911854 0.678828
#
# Coordination Sequence:
#
# PCOD9076792 Si02
#       8
#     2   2   2   2   2   2   2   2
#     4   9  21  39  58  86 119 155 201 240 291 338
#     4  11  23  37  57  89 124 150 190 252 293 340
#     4  12  21  38  60  89 117 156 196 236 294 362
#     4  10  20  38  59  85 118 157 195 236 290 360
#     4  10  18  33  60  84 111 151 201 227 285 356
#     4  11  22  36  59  92 120 151 195 246 297 338
#     4   9  19  38  64  82 113 165 198 234 287 362
#     4  10  19  37  63  84 115 157 201 235 289 356
#
# _framework density 24.613769999999999
#
# number of rings (size 3 to 8) (size 9 to 14) (size 15 to 20)
#    0.000    1.750    5.000    0.375    1.750    2.000 
#    2.250    1.250    0.000    3.750    0.000    0.000 
#    0.000    0.000    0.000    0.000    0.000    0.000 
#
# Total GULP energy -89372.274482 kJ/mol
# GULP energy per Si atom -5585.767155 kJ/mol
# Density = 2.455775 g / cm^3
# Si number density = 24.613770 Si / 1000 Ang^3
#
#
#
# Elastic Constant Matrix: (Units=GPa)
#
#
# Indices 1 2 3 4 5 6 
#
# 1 62.8528 17.0375 24.4744 7.5607 -3.7520 -6.8771
# 2 17.0375 90.1849 62.9111 0.1786 -6.4730 -24.6717
# 3 24.4744 62.9111 168.2650 -13.5747 -31.6107 -14.6644
# 4 7.5607 0.1786 -13.5747 33.9650 -3.8253 0.5062
# 5 -3.7520 -6.4730 -31.6107 -3.8253 39.3525 -4.3083
# 6 -6.8771 -24.6717 -14.6644 0.5062 -4.3083 25.1120
#
#
#
# Elastic Compliance Matrix: (Units=1/GPa)
#
#
# Indices 1 2 3 4 5 6 
#
# 1 0.018032 -0.000961 -0.002614 -0.005177 -0.000775 0.002439
# 2 -0.000961 0.019843 -0.006199 -0.002640 -0.000356 0.015604
# 3 -0.002614 -0.006199 0.010649 0.005752 0.007916 0.000655
# 4 -0.005177 -0.002640 0.005752 0.033693 0.006953 -0.000139
# 5 -0.000775 -0.000356 0.007916 0.006953 0.033370 0.009646
# 6 0.002439 0.015604 0.000655 -0.000139 0.009646 0.057860
#
#
# Mechanical properties :
#
#
# Convention : Reuss Voigt Hill
#
# Bulk Modulus (GPa) = 34.51219 58.90540 46.70880
# Shear Modulus (GPa) = 24.67277 34.14456 29.40867
#
# Velocity S-wave (km/s) = 3.16950 3.72857 3.46035
# Velocity P-wave (km/s) = 5.23892 6.52075 5.91466
#
# Compressibility (1/GPa) = 0.02897527
#
# Stress axis : x y z
#
# Youngs Moduli (GPa) = 55.45686 50.39683 93.90414
#
# Poissons Ratio (x) = 0.04844 0.24548
# Poissons Ratio (y) = 0.05330 0.58210
# Poissons Ratio (z) = 0.14497 0.31240
#
# Static dielectric constant tensor:
#      x y z
#    x 2.001020 0.049030 -0.032710 
#    y 0.049030 2.014830 0.009920 
#    z -0.032710 0.009920 1.786960 
# 
# From -- ./inp_files/343458.got.cif
#   From: 2010.05.17/outbox.cif.g08.bks.cpg/sg2_172_cif.got.tgz:343458.got - 2010.06.03 11:33:40.
