data_PCOD9076804
_publ_section_title
;
Structure prediction by ZEFSAII (Michael W. Deem and Ramdas Pophale) SiO2 
 PCOD9076804
Probable space group: P -1
;
_chemical_formula_sum "Si O2"
_cell_formula_units_Z 16
_cell_length_a 7.090526
_cell_length_b 11.741706
_cell_length_c 12.537466
_cell_angle_alpha 76.869784
_cell_angle_beta 123.663964
_cell_angle_gamma 123.488182
_cell_volume 719.876533
_symmetry_space_group_name_H-M "P -1"
_symmetry_group_IT_number 2
_symmetry_cell_setting 'triclinic'
loop_
_space_group_symop_operation_xyz
x,y,z
-x,-y,-z
loop_
_atom_site_type_symbol
_atom_site_label
_atom_site_fract_x
_atom_site_fract_y
_atom_site_fract_z
Si Si1 0.255574 0.420553 0.519329
Si Si2 0.633350 0.528655 0.872050
Si Si3 0.223956 0.240704 0.719514
Si Si4 0.751887 0.246576 0.260659
Si Si5 0.712594 0.250518 0.633679
Si Si6 0.779115 0.980409 0.347541
Si Si7 0.507745 0.318384 0.341694
Si Si8 0.870397 0.501337 0.150487
O O1 0.500000 0.500000 0.500000
O O2 0.257544 0.293561 0.597323
O O3 0.271199 0.519900 0.596979
O O4 0.986213 0.356375 0.386858
O O5 0.488895 0.368693 0.826203
O O6 0.703386 0.639832 0.775792
O O7 0.388178 0.522951 0.860215
O O8 0.861383 0.561150 0.020740
O O9 0.194292 0.094768 0.732120
O O10 0.954451 0.231248 0.676096
O O11 0.512151 0.225186 0.267197
O O12 0.798151 0.344260 0.154509
O O13 0.786793 0.118665 0.289689
O O14 0.505809 0.122664 0.666501
O O15 0.548137 0.258219 0.478301
O O16 0.867485 0.389348 0.724818
O O17 0.000000 0.000000 0.500000
#
# Coordination Sequence:
#
# PCOD9076804 Si02
#       8
#     2   2   2   2   2   2   2   2
#     4  11  19  32  55  88 116 148 191 251 299 341
#     4   8  18  34  62  91 115 149 198 257 295 346
#     4  10  21  38  58  85 126 158 196 241 303 353
#     4  11  21  34  55  85 120 154 196 241 295 355
#     4  11  21  38  66  87 120 160 197 247 303 350
#     4  12  25  38  55  92 129 158 197 246 297 359
#     4  10  18  33  60  86 115 144 198 246 298 346
#     4   9  18  36  63  90 112 154 203 247 301 350
#
# _framework density 22.226033999999999
#
# number of rings (size 3 to 8) (size 9 to 14) (size 15 to 20)
#    0.000    1.750    3.750    1.875    0.000    2.000 
#    0.000    1.250    0.000   13.500    0.000    0.000 
#    0.000    0.000    0.000    0.000    0.000    0.000 
#
# Total GULP energy -89079.360718 kJ/mol
# GULP energy per Si atom -5567.460045 kJ/mol
# Density = 2.217545 g / cm^3
# Si number density = 22.226034 Si / 1000 Ang^3
#
#
#
# Elastic Constant Matrix: (Units=GPa)
#
#
# Indices 1 2 3 4 5 6 
#
# 1 94.7250 44.4914 14.8390 1.0671 5.1122 -12.8737
# 2 44.4914 130.7849 28.2800 -16.2810 6.5787 -35.1062
# 3 14.8390 28.2800 95.6444 -22.7888 -3.4795 -4.0834
# 4 1.0671 -16.2810 -22.7888 23.5914 -0.8347 0.7858
# 5 5.1122 6.5787 -3.4795 -0.8347 6.5468 2.7316
# 6 -12.8737 -35.1062 -4.0834 0.7858 2.7316 42.9917
#
#
#
# Elastic Compliance Matrix: (Units=1/GPa)
#
#
# Indices 1 2 3 4 5 6 
#
# 1 0.013630 -0.004042 -0.002738 -0.006424 -0.009371 0.001234
# 2 -0.004042 0.014047 -0.001941 0.007084 -0.015652 0.010941
# 3 -0.002738 -0.001941 0.015273 0.014137 0.014909 -0.002160
# 4 -0.006424 0.007084 0.014137 0.061533 0.011869 0.003325
# 5 -0.009371 -0.015652 0.014909 0.011869 0.196442 -0.026870
# 6 0.001234 0.010941 -0.002160 0.003325 -0.026870 0.034005
#
#
# Mechanical properties :
#
#
# Convention : Reuss Voigt Hill
#
# Bulk Modulus (GPa) = 39.20395 55.15279 47.17837
# Shear Modulus (GPa) = 13.85528 30.19556 22.02542
#
# Velocity S-wave (km/s) = 2.49947 3.68987 3.15139
# Velocity P-wave (km/s) = 5.09969 6.55911 5.87489
#
# Compressibility (1/GPa) = 0.02550763
#
# Stress axis : x y z
#
# Youngs Moduli (GPa) = 73.36752 71.19103 65.47662
#
# Poissons Ratio (x) = 0.28773 0.17930
# Poissons Ratio (y) = 0.29653 0.12707
# Poissons Ratio (z) = 0.20091 0.13816
#
# Static dielectric constant tensor:
#      x y z
#    x 2.152720 0.001280 -0.060720 
#    y 0.001280 1.844350 -0.079500 
#    z -0.060720 -0.079500 1.908980 
# 
# From -- ./inp_files/497901.got.cif
#   From: 2010.05.17/outbox.cif.g08.bks.cpg/sg2_249_cif.got.tgz:497901.got - 2010.06.03 11:33:40.
