data_PCOD9076539
_publ_section_title
;
Structure prediction by ZEFSAII (Michael W. Deem and Ramdas Pophale) SiO2 
 PCOD9076539
Probable space group: P -1
;
_chemical_formula_sum "Si O2"
_cell_formula_units_Z 16
_cell_length_a 8.051932
_cell_length_b 19.068176
_cell_length_c 15.185131
_cell_angle_alpha 157.058731
_cell_angle_beta 59.568441
_cell_angle_gamma 107.586727
_cell_volume 683.565689
_symmetry_space_group_name_H-M "P -1"
_symmetry_group_IT_number 2
_symmetry_cell_setting 'triclinic'
loop_
_space_group_symop_operation_xyz
x,y,z
-x,-y,-z
loop_
_atom_site_type_symbol
_atom_site_label
_atom_site_fract_x
_atom_site_fract_y
_atom_site_fract_z
Si Si1 0.657129 0.598146 0.051098
Si Si2 0.634594 0.738510 0.027966
Si Si3 0.087946 0.338968 0.404995
Si Si4 0.569343 0.709390 0.388164
Si Si5 0.344316 0.609676 0.883609
Si Si6 0.687357 0.395957 0.401738
Si Si7 0.847753 0.641578 0.397043
Si Si8 0.870655 0.939997 0.090588
O O1 0.649470 0.722412 0.285171
O O2 0.500000 0.500000 0.000000
O O3 0.593592 0.738487 0.142920
O O4 0.907262 0.415612 0.761165
O O5 0.419972 0.778666 0.073878
O O6 0.742400 0.868396 0.110447
O O7 0.835923 0.505432 0.687061
O O8 0.188584 0.468620 0.479255
O O9 0.204207 0.266363 0.384860
O O10 0.112709 0.162901 0.128420
O O11 0.659169 0.469892 0.109700
O O12 0.677074 0.765418 0.507254
O O13 0.304602 0.822262 0.593500
O O14 0.550510 0.432261 0.568841
O O15 0.149752 0.583467 0.859588
O O16 0.500000 0.500000 0.500000
O O17 0.876290 0.161276 0.064683
#
# Coordination Sequence:
#
# PCOD9076539 Si02
#       8
#     2   2   2   2   2   2   2   2
#     4  11  20  38  65  78 105 152 199 234 270 339
#     4  10  19  35  60  82 104 153 199 222 268 343
#     4  10  18  33  57  83 110 153 189 224 269 342
#     4  10  23  37  52  88 117 148 181 242 291 310
#     4  10  18  35  57  85 108 143 198 227 274 332
#     4  11  18  34  58  84 114 154 193 220 273 339
#     4   9  21  35  58  86 109 145 200 231 269 339
#     4  11  22  35  56  85 126 146 176 238 285 336
#
# _framework density 23.406673000000001
#
# number of rings (size 3 to 8) (size 9 to 14) (size 15 to 20)
#    0.750    1.000    5.000    1.125    0.000    1.500 
#    0.000    1.250    0.000    1.500    0.000    0.000 
#    0.000    0.000    0.000    0.000    0.000    0.000 
#
# Total GULP energy -89084.677685 kJ/mol
# GULP energy per Si atom -5567.792355 kJ/mol
# Density = 2.335340 g / cm^3
# Si number density = 23.406673 Si / 1000 Ang^3
#
#
#
# Elastic Constant Matrix: (Units=GPa)
#
#
# Indices 1 2 3 4 5 6 
#
# 1 101.8382 35.9679 0.6389 -8.4385 -15.0117 -8.5689
# 2 35.9679 96.8469 21.6944 -35.6535 11.0899 -10.2944
# 3 0.6389 21.6944 34.3501 -19.0233 -7.4008 -10.2362
# 4 -8.4385 -35.6535 -19.0233 32.0885 -2.5978 5.7596
# 5 -15.0117 11.0899 -7.4008 -2.5978 24.1502 -12.4470
# 6 -8.5689 -10.2944 -10.2362 5.7596 -12.4470 40.5567
#
#
#
# Elastic Compliance Matrix: (Units=1/GPa)
#
#
# Indices 1 2 3 4 5 6 
#
# 1 0.022501 -0.014954 0.025009 0.003919 0.038487 0.018526
# 2 -0.014954 0.028608 -0.020949 0.015143 -0.034381 -0.013888
# 3 0.025009 -0.020949 0.091585 0.036421 0.078853 0.042110
# 4 0.003919 0.015143 0.036421 0.070417 0.019255 0.009774
# 5 0.038487 -0.034381 0.078853 0.019255 0.137673 0.058824
# 6 0.018526 -0.013888 0.042110 0.009774 0.058824 0.052339
#
#
# Mechanical properties :
#
#
# Convention : Reuss Voigt Hill
#
# Bulk Modulus (GPa) = 8.27089 38.84861 23.55975
# Shear Modulus (GPa) = 10.74777 31.00802 20.87789
#
# Velocity S-wave (km/s) = 2.14516 3.64366 2.98982
# Velocity P-wave (km/s) = 3.11077 5.85960 4.69105
#
# Compressibility (1/GPa) = 0.12090596
#
# Stress axis : x y z
#
# Youngs Moduli (GPa) = 44.44252 34.95555 10.91877
#
# Poissons Ratio (x) = 0.52273 -0.27307
# Poissons Ratio (y) = 0.66460 0.22874
# Poissons Ratio (z) = -1.11146 0.73228
#
# Static dielectric constant tensor:
#      x y z
#    x 2.021890 -0.011440 0.046170 
#    y -0.011440 1.933450 0.040150 
#    z 0.046170 0.040150 1.919610 
# 
# From -- ./inp_files/357578.got.cif
#   From: 2010.05.17/outbox.cif.g08.bks.cpg/sg2_179_cif.got.tgz:357578.got - 2010.06.03 11:33:40.
