data_PCOD9076161
_publ_section_title
;
Structure prediction by ZEFSAII (Michael W. Deem and Ramdas Pophale) SiO2 
 PCOD9076161
Probable space group: P -1
;
_chemical_formula_sum "Si O2"
_cell_formula_units_Z 16
_cell_length_a 12.403311
_cell_length_b 9.360413
_cell_length_c 11.601834
_cell_angle_alpha 62.821465
_cell_angle_beta 46.928983
_cell_angle_gamma 99.244059
_cell_volume 600.856956
_symmetry_space_group_name_H-M "P -1"
_symmetry_group_IT_number 2
_symmetry_cell_setting 'triclinic'
loop_
_space_group_symop_operation_xyz
x,y,z
-x,-y,-z
loop_
_atom_site_type_symbol
_atom_site_label
_atom_site_fract_x
_atom_site_fract_y
_atom_site_fract_z
Si Si1 0.079604 0.694466 0.503437
Si Si2 0.720964 0.800719 0.824792
Si Si3 0.847136 0.721741 0.205659
Si Si4 0.583932 0.247395 0.640981
Si Si5 0.001523 0.902202 0.793078
Si Si6 0.237870 0.378608 0.372911
Si Si7 0.218589 0.770699 0.983456
Si Si8 0.233978 0.764871 0.718710
O O1 0.947287 0.634739 0.506565
O O2 0.270459 0.719130 0.379101
O O3 0.880784 0.472871 0.807844
O O4 0.190871 0.952065 0.356910
O O5 0.736190 0.706697 0.732925
O O6 0.867839 0.832680 0.801707
O O7 0.481395 0.629530 0.114336
O O8 0.629778 0.474255 0.511123
O O9 0.826741 0.713234 0.085129
O O10 0.017626 0.721173 0.116595
O O11 0.000000 0.000000 0.000000
O O12 0.663973 0.245591 0.458876
O O13 0.351270 0.978374 0.904908
O O14 0.180025 0.903809 0.667087
O O15 0.138893 0.174881 0.611206
O O16 0.327901 0.827111 0.757547
O O17 0.000000 0.500000 0.000000
#
# Coordination Sequence:
#
# PCOD9076161 Si02
#       8
#     2   2   2   2   2   2   2   2
#     4  10  18  33  49  73 110 138 176 216 270 323
#     4  10  20  31  51  79 113 153 180 222 272 338
#     4  10  23  41  58  79 112 150 192 238 280 321
#     4  11  20  34  56  82 110 145 183 231 282 337
#     4  10  20  35  54  80 117 147 186 223 276 332
#     4  10  20  31  50  81 113 149 186 217 274 338
#     4  10  22  33  56  83 108 144 187 228 283 340
#     4  11  18  34  51  81 115 148 176 226 283 342
#
# _framework density 26.628634999999999
#
# number of rings (size 3 to 8) (size 9 to 14) (size 15 to 20)
#    0.000    1.750    3.750    4.125    0.000    3.500 
#    0.000    0.000    0.000   12.000    0.000   14.000 
#    0.000    0.000    0.000    0.000    0.000    0.000 
#
# Total GULP energy -89348.177541 kJ/mol
# GULP energy per Si atom -5584.261096 kJ/mol
# Density = 2.656803 g / cm^3
# Si number density = 26.628635 Si / 1000 Ang^3
#
#
#
# Elastic Constant Matrix: (Units=GPa)
#
#
# Indices 1 2 3 4 5 6 
#
# 1 112.6441 36.9237 76.6453 -14.2179 26.2334 6.4385
# 2 36.9237 89.9835 40.4806 -29.5513 4.4717 10.7371
# 3 76.6453 40.4806 182.8491 -23.0462 21.4320 1.7049
# 4 -14.2179 -29.5513 -23.0462 44.1604 -5.5239 -9.0122
# 5 26.2334 4.4717 21.4320 -5.5239 60.2320 -9.3508
# 6 6.4385 10.7371 1.7049 -9.0122 -9.3508 31.1529
#
#
#
# Elastic Compliance Matrix: (Units=1/GPa)
#
#
# Indices 1 2 3 4 5 6 
#
# 1 0.014554 -0.003653 -0.004878 -0.001639 -0.005020 -0.003463
# 2 -0.003653 0.016155 -0.001063 0.008877 0.001305 -0.001795
# 3 -0.004878 -0.001063 0.008037 0.002192 -0.000222 0.001502
# 4 -0.001639 0.008877 0.002192 0.031056 0.003227 0.007112
# 5 -0.005020 0.001305 -0.000222 0.003227 0.020249 0.007611
# 6 -0.003463 -0.001795 0.001502 0.007112 0.007611 0.037694
#
#
# Mechanical properties :
#
#
# Convention : Reuss Voigt Hill
#
# Bulk Modulus (GPa) = 51.12839 77.06399 64.09619
# Shear Modulus (GPa) = 32.58357 42.53754 37.56055
#
# Velocity S-wave (km/s) = 3.50184 4.00113 3.75978
# Velocity P-wave (km/s) = 5.96596 7.09567 6.55519
#
# Compressibility (1/GPa) = 0.01955860
#
# Stress axis : x y z
#
# Youngs Moduli (GPa) = 68.70904 61.90119 124.42248
#
# Poissons Ratio (x) = 0.22615 0.60691
# Poissons Ratio (y) = 0.25102 0.13220
# Poissons Ratio (z) = 0.33515 0.06577
#
# Static dielectric constant tensor:
#      x y z
#    x 2.020960 -0.000010 -0.041350 
#    y -0.000010 2.343000 -0.054310 
#    z -0.041350 -0.054310 2.300640 
# 
# From -- ./inp_files/427563.got.cif
#   From: 2010.05.17/outbox.cif.g08.bks.cpg/sg2_214_cif.got.tgz:427563.got - 2010.06.03 11:33:40.
