data_PCOD9076895
_publ_section_title
;
Structure prediction by ZEFSAII (Michael W. Deem and Ramdas Pophale) SiO2 
 PCOD9076895
Probable space group: P -1
;
_chemical_formula_sum "Si O2"
_cell_formula_units_Z 14
_cell_length_a 11.294107
_cell_length_b 8.098169
_cell_length_c 7.338080
_cell_angle_alpha 66.676006
_cell_angle_beta 71.383485
_cell_angle_gamma 90.310593
_cell_volume 577.319964
_symmetry_space_group_name_H-M "P -1"
_symmetry_group_IT_number 2
_symmetry_cell_setting 'triclinic'
loop_
_space_group_symop_operation_xyz
x,y,z
-x,-y,-z
loop_
_atom_site_type_symbol
_atom_site_label
_atom_site_fract_x
_atom_site_fract_y
_atom_site_fract_z
Si Si1 0.370059 0.758012 0.812991
Si Si2 0.619854 0.938510 0.630694
Si Si3 0.002277 0.212411 0.628090
Si Si4 0.848496 0.472853 0.083682
Si Si5 0.804434 0.462981 0.517529
Si Si6 0.553017 0.562670 0.644966
Si Si7 0.145129 0.139074 0.222525
O O1 0.481108 0.881839 0.818257
O O2 0.223725 0.680733 0.948538
O O3 0.432230 0.574161 0.825560
O O4 0.374908 0.883135 0.572582
O O5 0.620046 0.771494 0.558157
O O6 0.737043 0.938764 0.708492
O O7 0.895092 0.340220 0.619905
O O8 0.121237 0.329963 0.613760
O O9 0.054133 0.187932 0.408865
O O10 0.936428 0.010964 0.799131
O O11 0.798237 0.410312 0.333624
O O12 0.812382 0.669949 0.975805
O O13 0.000000 0.500000 0.000000
O O14 0.666193 0.450020 0.677998
O O15 0.500000 0.500000 0.500000
#
# Coordination Sequence:
#
# PCOD9076895 Si02
#       7
#     2   2   2   2   2   2   2
#     4   9  20  38  61  87 111 156 199 239 282 349
#     4   9  19  38  63  86 108 156 207 237 273 355
#     4  10  22  37  62  83 115 159 204 236 279 363
#     4  12  24  36  58  90 127 153 185 248 308 348
#     4  11  20  39  61  86 115 155 203 244 288 339
#     4  10  18  33  63  87 107 151 202 240 277 339
#     4  11  22  37  58  89 118 157 193 242 297 346
#
# _framework density 24.249984000000001
#
# number of rings (size 3 to 8) (size 9 to 14) (size 15 to 20)
#    0.857    0.857    4.286    0.857    2.000    1.143 
#    0.000    0.000    0.000    1.714    0.000    0.000 
#    0.000    0.000    0.000    0.000    0.000    0.000 
#
# Total GULP energy -77987.831124 kJ/mol
# GULP energy per Si atom -5570.559366 kJ/mol
# Density = 2.419479 g / cm^3
# Si number density = 24.249984 Si / 1000 Ang^3
#
#
#
# Elastic Constant Matrix: (Units=GPa)
#
#
# Indices 1 2 3 4 5 6 
#
# 1 160.0889 32.0889 19.7747 -13.2584 -17.4389 -1.7757
# 2 32.0889 54.8549 6.7194 -4.1009 -17.4148 31.7186
# 3 19.7747 6.7194 42.8196 -2.8238 -9.1501 1.5449
# 4 -13.2584 -4.1009 -2.8238 29.2754 9.9830 -5.8893
# 5 -17.4389 -17.4148 -9.1501 9.9830 28.7646 -9.0248
# 6 -1.7757 31.7186 1.5449 -5.8893 -9.0248 50.1199
#
#
#
# Elastic Compliance Matrix: (Units=1/GPa)
#
#
# Indices 1 2 3 4 5 6 
#
# 1 0.008466 -0.007523 -0.002641 0.003565 0.000261 0.005608
# 2 -0.007523 0.040959 0.000731 -0.007792 0.015541 -0.024327
# 3 -0.002641 0.000731 0.025982 -0.001163 0.007463 -0.000150
# 4 0.003565 -0.007792 -0.001163 0.041115 -0.014925 0.007237
# 5 0.000261 0.015541 0.007463 -0.014925 0.051065 -0.002615
# 6 0.005608 -0.024327 -0.000150 0.007237 -0.002615 0.035931
#
#
# Mechanical properties :
#
#
# Convention : Reuss Voigt Hill
#
# Bulk Modulus (GPa) = 17.68553 41.65882 29.67218
# Shear Modulus (GPa) = 20.72707 34.91066 27.81887
#
# Velocity S-wave (km/s) = 2.92674 3.79834 3.39066
# Velocity P-wave (km/s) = 4.32781 6.03761 5.25275
#
# Compressibility (1/GPa) = 0.05654339
#
# Stress axis : x y z
#
# Youngs Moduli (GPa) = 118.11303 24.41469 38.48793
#
# Poissons Ratio (x) = 0.18366 0.10165
# Poissons Ratio (y) = 0.88852 -0.02815
# Poissons Ratio (z) = 0.31194 -0.01786
#
# Static dielectric constant tensor:
#      x y z
#    x 2.036230 0.047160 -0.082870 
#    y 0.047160 1.959660 -0.020970 
#    z -0.082870 -0.020970 2.036350 
# 
# From -- ./inp_files/237111.got.cif
#   From: 2010.05.17/outbox.cif.g08.bks.cpg/sg2_119_cif.got.tgz:237111.got - 2010.06.03 11:33:40.
