data_PCOD9076018
_publ_section_title
;
Structure prediction by ZEFSAII (Michael W. Deem and Ramdas Pophale) SiO2 
 PCOD9076018
Probable space group: P -1
;
_chemical_formula_sum "Si O2"
_cell_formula_units_Z 16
_cell_length_a 21.154387
_cell_length_b 12.320425
_cell_length_c 18.066629
_cell_angle_alpha 151.277226
_cell_angle_beta 19.764586
_cell_angle_gamma 147.696001
_cell_volume 759.430851
_symmetry_space_group_name_H-M "P -1"
_symmetry_group_IT_number 2
_symmetry_cell_setting 'triclinic'
loop_
_space_group_symop_operation_xyz
x,y,z
-x,-y,-z
loop_
_atom_site_type_symbol
_atom_site_label
_atom_site_fract_x
_atom_site_fract_y
_atom_site_fract_z
Si Si1 0.037174 0.828001 0.252330
Si Si2 0.443689 0.587629 0.339322
Si Si3 0.681001 0.932974 0.804214
Si Si4 0.978969 0.767845 0.589488
Si Si5 0.143878 0.437300 0.117370
Si Si6 0.056060 0.629857 0.852170
Si Si7 0.926934 0.114198 0.280811
Si Si8 0.372250 0.607903 0.264452
O O1 0.857824 0.909456 0.541625
O O2 0.992455 0.555337 0.140946
O O3 0.228735 0.901396 0.131489
O O4 0.044840 0.979760 0.260985
O O5 0.378638 0.317654 0.248127
O O6 0.279445 0.688173 0.625924
O O7 0.458175 0.666479 0.285282
O O8 0.650622 0.619042 0.164188
O O9 0.500000 0.000000 0.000000
O O10 0.150401 0.658489 0.295650
O O11 0.995679 0.763888 0.656445
O O12 0.803720 0.589410 0.650384
O O13 0.026593 0.483353 0.201432
O O14 0.040642 0.226442 0.151988
O O15 0.956759 0.854765 0.101970
O O16 0.715811 0.173768 0.538840
O O17 0.500000 0.500000 0.000000
#
# Coordination Sequence:
#
# PCOD9076018 Si02
#       8
#     2   2   2   2   2   2   2   2
#     4  10  20  35  58  84 121 154 195 241 291 352
#     4  11  20  35  62  91 115 152 197 245 301 343
#     4  10  18  32  58  90 114 149 197 249 289 336
#     4  11  20  40  60  88 120 155 201 251 290 345
#     4  11  21  39  64  90 118 151 203 252 293 345
#     4  11  23  41  58  89 125 160 193 241 300 358
#     4  11  24  39  60  86 127 160 193 244 302 353
#     4  11  21  38  61  90 115 149 206 249 292 347
#
# _framework density 21.068408999999999
#
# number of rings (size 3 to 8) (size 9 to 14) (size 15 to 20)
#    0.000    1.250    3.750    6.375    0.000    1.000 
#    2.250    0.000    0.000    0.750    0.000    0.000 
#    0.000    0.000    0.000    0.000    0.000    0.000 
#
# Total GULP energy -89356.089199 kJ/mol
# GULP energy per Si atom -5584.755575 kJ/mol
# Density = 2.102046 g / cm^3
# Si number density = 21.068409 Si / 1000 Ang^3
#
#
#
# Elastic Constant Matrix: (Units=GPa)
#
#
# Indices 1 2 3 4 5 6 
#
# 1 57.8386 2.7897 11.2544 -1.8605 -17.8002 -10.8875
# 2 2.7897 56.1794 29.5900 24.3694 -3.0039 -23.4817
# 3 11.2544 29.5900 116.5719 7.9173 -28.2737 -5.0701
# 4 -1.8605 24.3694 7.9173 37.7123 1.9007 -12.9226
# 5 -17.8002 -3.0039 -28.2737 1.9007 30.1769 3.3431
# 6 -10.8875 -23.4817 -5.0701 -12.9226 3.3431 27.6947
#
#
#
# Elastic Compliance Matrix: (Units=1/GPa)
#
#
# Indices 1 2 3 4 5 6 
#
# 1 0.023277 0.002986 0.000507 0.002315 0.013108 0.011273
# 2 0.002986 0.039938 -0.009597 -0.013981 -0.005411 0.027409
# 3 0.000507 -0.009597 0.013801 0.000334 0.013010 -0.006825
# 4 0.002315 -0.013981 0.000334 0.038251 -0.002933 0.007319
# 5 0.013108 -0.005411 0.013010 -0.002933 0.053243 -0.004848
# 6 0.011273 0.027409 -0.006825 0.007319 -0.004848 0.066530
#
#
# Mechanical properties :
#
#
# Convention : Reuss Voigt Hill
#
# Bulk Modulus (GPa) = 15.42993 35.31758 25.37375
# Shear Modulus (GPa) = 18.59770 31.58050 25.08910
#
# Velocity S-wave (km/s) = 2.97430 3.87583 3.45460
# Velocity P-wave (km/s) = 4.37435 6.06870 5.28980
#
# Compressibility (1/GPa) = 0.06480911
#
# Stress axis : x y z
#
# Youngs Moduli (GPa) = 42.96010 25.03882 72.45728
#
# Poissons Ratio (x) = -0.07475 -0.03675
# Poissons Ratio (y) = -0.12826 0.69534
# Poissons Ratio (z) = -0.02179 0.24029
#
# Static dielectric constant tensor:
#      x y z
#    x 1.756060 -0.006140 0.000450 
#    y -0.006140 1.794290 0.001860 
#    z 0.000450 0.001860 1.814150 
# 
# From -- ./inp_files/272618.got.cif
#   From: 2010.05.17/outbox.cif.g08.bks.cpg/sg2_137_cif.got.tgz:272618.got - 2010.06.03 11:33:40.
