data_PCOD9076625
_publ_section_title
;
Structure prediction by ZEFSAII (Michael W. Deem and Ramdas Pophale) SiO2 
 PCOD9076625
Probable space group: P -1
;
_chemical_formula_sum "Si O2"
_cell_formula_units_Z 14
_cell_length_a 7.931977
_cell_length_b 18.476677
_cell_length_c 9.892158
_cell_angle_alpha 51.702969
_cell_angle_beta 87.653426
_cell_angle_gamma 132.330336
_cell_volume 515.838464
_symmetry_space_group_name_H-M "P -1"
_symmetry_group_IT_number 2
_symmetry_cell_setting 'triclinic'
loop_
_space_group_symop_operation_xyz
x,y,z
-x,-y,-z
loop_
_atom_site_type_symbol
_atom_site_label
_atom_site_fract_x
_atom_site_fract_y
_atom_site_fract_z
Si Si1 0.875100 0.696124 0.435594
Si Si2 0.015164 0.519293 0.740608
Si Si3 0.801411 0.985323 0.101258
Si Si4 0.522485 0.285262 0.251756
Si Si5 0.045902 0.357589 0.775250
Si Si6 0.219311 0.938565 0.720651
Si Si7 0.116799 0.262446 0.317687
O O1 0.451501 0.529744 0.629043
O O2 0.892837 0.624044 0.408117
O O3 0.988192 0.740276 0.535574
O O4 0.153452 0.906907 0.122498
O O5 0.375017 0.752985 0.415838
O O6 0.180129 0.546158 0.836888
O O7 0.931003 0.403960 0.764073
O O8 0.650443 0.380755 0.987609
O O9 0.990317 0.106568 0.097586
O O10 0.000000 0.000000 0.000000
O O11 0.178316 0.182189 0.425259
O O12 0.457448 0.143847 0.425320
O O13 0.753966 0.143394 0.097633
O O14 0.101957 0.838537 0.697177
O O15 0.500000 0.500000 0.000000
#
# Coordination Sequence:
#
# PCOD9076625 Si02
#       7
#     2   2   2   2   2   2   2
#     4  10  19  32  55  85 106 136 190 231 269 309
#     4  10  19  35  57  82 116 140 186 229 275 330
#     4  10  18  33  58  83 106 145 187 233 269 314
#     4  10  21  35  53  85 115 146 176 231 284 322
#     4  10  18  34  56  88 105 142 187 230 271 312
#     4  10  21  34  56  84 113 143 185 227 273 329
#     4  12  21  37  58  83 112 146 185 229 276 330
#
# _framework density 27.140277999999999
#
# number of rings (size 3 to 8) (size 9 to 14) (size 15 to 20)
#    0.000    1.714    4.286    1.286    0.000    0.571 
#    0.000    2.857    0.000    9.429    0.000    0.000 
#    0.000    0.000    0.000    0.000    0.000    0.000 
#
# Total GULP energy -78143.902097 kJ/mol
# GULP energy per Si atom -5581.707293 kJ/mol
# Density = 2.707851 g / cm^3
# Si number density = 27.140278 Si / 1000 Ang^3
#
#
#
# Elastic Constant Matrix: (Units=GPa)
#
#
# Indices 1 2 3 4 5 6 
#
# 1 71.4803 42.4078 21.0091 -2.4203 -3.9397 -25.1248
# 2 42.4078 180.1084 72.0157 38.8068 -9.1826 -31.1899
# 3 21.0091 72.0157 179.9644 12.6175 14.3009 -22.4349
# 4 -2.4203 38.8068 12.6175 56.2047 -16.8565 -3.1797
# 5 -3.9397 -9.1826 14.3009 -16.8565 24.3555 1.8629
# 6 -25.1248 -31.1899 -22.4349 -3.1797 1.8629 48.4374
#
#
#
# Elastic Compliance Matrix: (Units=1/GPa)
#
#
# Indices 1 2 3 4 5 6 
#
# 1 0.019731 -0.004106 -0.000573 0.005880 0.005476 0.007501
# 2 -0.004106 0.009158 -0.002510 -0.005784 0.000090 0.002222
# 3 -0.000573 -0.002510 0.007533 -0.001973 -0.006958 0.001714
# 4 0.005880 -0.005784 -0.001973 0.028323 0.019568 -0.000482
# 5 0.005476 0.000090 -0.006958 0.019568 0.059709 -0.001337
# 6 0.007501 0.002222 0.001714 -0.000482 -0.001337 0.026780
#
#
# Mechanical properties :
#
#
# Convention : Reuss Voigt Hill
#
# Bulk Modulus (GPa) = 45.36042 78.04647 61.70344
# Shear Modulus (GPa) = 28.90835 45.54090 37.22462
#
# Velocity S-wave (km/s) = 3.26720 4.10076 3.70748
# Velocity P-wave (km/s) = 5.56618 7.15827 6.41183
#
# Compressibility (1/GPa) = 0.02204565
#
# Stress axis : x y z
#
# Youngs Moduli (GPa) = 50.68046 109.19292 132.75145
#
# Poissons Ratio (x) = 0.44829 0.07604
# Poissons Ratio (y) = 0.20807 0.33322
# Poissons Ratio (z) = 0.02903 0.27409
#
# Static dielectric constant tensor:
#      x y z
#    x 2.251250 0.061990 -0.112380 
#    y 0.061990 2.116460 -0.057650 
#    z -0.112380 -0.057650 2.210340 
# 
# From -- ./inp_files/208349.got.cif
#   From: 2010.05.17/outbox.cif.g08.bks.cpg/sg2_105_cif.got.tgz:208349.got - 2010.06.03 11:33:40.
