data_PCOD9076077
_publ_section_title
;
Structure prediction by ZEFSAII (Michael W. Deem and Ramdas Pophale) SiO2 
 PCOD9076077
Probable space group: P -1
;
_chemical_formula_sum "Si O2"
_cell_formula_units_Z 16
_cell_length_a 8.364574
_cell_length_b 8.916634
_cell_length_c 16.919747
_cell_angle_alpha 129.123284
_cell_angle_beta 109.306912
_cell_angle_gamma 100.624692
_cell_volume 779.559314
_symmetry_space_group_name_H-M "P -1"
_symmetry_group_IT_number 2
_symmetry_cell_setting 'triclinic'
loop_
_space_group_symop_operation_xyz
x,y,z
-x,-y,-z
loop_
_atom_site_type_symbol
_atom_site_label
_atom_site_fract_x
_atom_site_fract_y
_atom_site_fract_z
Si Si1 0.307490 0.604815 0.538321
Si Si2 0.746393 0.259765 0.029200
Si Si3 0.669194 0.619666 0.684547
Si Si4 0.434494 0.429917 0.171221
Si Si5 0.318633 0.347330 0.858639
Si Si6 0.670001 0.176928 0.163145
Si Si7 0.889776 0.181058 0.345870
Si Si8 0.001941 0.093168 0.944327
O O1 0.499571 0.666517 0.642586
O O2 0.340269 0.560198 0.438694
O O3 0.238941 0.783101 0.597434
O O4 0.123853 0.357945 0.456983
O O5 0.793769 0.514641 0.116922
O O6 0.774774 0.200936 0.104285
O O7 0.871584 0.208773 0.971597
O O8 0.505935 0.077293 0.922167
O O9 0.631208 0.535266 0.741461
O O10 0.878003 0.866723 0.796304
O O11 0.586096 0.632440 0.205951
O O12 0.547234 0.298556 0.167720
O O13 0.236457 0.276937 0.033572
O O14 0.179079 0.079772 0.764499
O O15 0.500000 0.500000 0.000000
O O16 0.833028 0.271045 0.288652
O O17 0.000000 0.000000 0.000000
#
# Coordination Sequence:
#
# PCOD9076077 Si02
#       8
#     2   2   2   2   2   2   2   2
#     4  10  23  38  64  86 115 164 214 251 279 342
#     4  10  19  33  55  93 117 155 184 244 308 355
#     4  10  20  38  59  90 119 153 207 256 289 341
#     4  10  21  38  60  95 121 157 189 255 306 363
#     4  11  24  37  60  89 133 155 190 248 322 356
#     4  10  18  32  60  84 124 146 202 239 284 359
#     4  11  22  40  60  90 115 164 208 246 292 355
#     4  10  19  32  61  93 119 146 199 248 301 355
#
# _framework density 20.524418000000001
#
# number of rings (size 3 to 8) (size 9 to 14) (size 15 to 20)
#    0.000    1.750    5.000    0.000    5.250    0.000 
#    0.000    4.375    0.000    0.000    0.000    0.000 
#    0.000    0.000    0.000    0.000    0.000    0.000 
#
# Total GULP energy -89239.720652 kJ/mol
# GULP energy per Si atom -5577.482541 kJ/mol
# Density = 2.047770 g / cm^3
# Si number density = 20.524418 Si / 1000 Ang^3
#
#
#
# Elastic Constant Matrix: (Units=GPa)
#
#
# Indices 1 2 3 4 5 6 
#
# 1 73.2231 16.6132 15.9853 -3.0136 -1.2233 -4.6910
# 2 16.6132 52.2224 25.7386 7.1608 0.4562 0.1643
# 3 15.9853 25.7386 88.8011 -5.7620 7.1841 -6.4487
# 4 -3.0136 7.1608 -5.7620 31.6114 1.4540 -9.8372
# 5 -1.2233 0.4562 7.1841 1.4540 37.7244 -4.8728
# 6 -4.6910 0.1643 -6.4487 -9.8372 -4.8728 21.2232
#
#
#
# Elastic Compliance Matrix: (Units=1/GPa)
#
#
# Indices 1 2 3 4 5 6 
#
# 1 0.015535 -0.005183 -0.000728 0.004168 0.001251 0.005472
# 2 -0.005183 0.026220 -0.008006 -0.010588 0.000335 -0.008612
# 3 -0.000728 -0.008006 0.014832 0.006738 -0.002100 0.007049
# 4 0.004168 -0.010588 0.006738 0.042786 0.000295 0.022950
# 5 0.001251 0.000335 -0.002100 0.000295 0.027726 0.006139
# 6 0.005472 -0.008612 0.007049 0.022950 0.006139 0.062583
#
#
# Mechanical properties :
#
#
# Convention : Reuss Voigt Hill
#
# Bulk Modulus (GPa) = 34.77969 36.76898 35.77434
# Shear Modulus (GPa) = 22.01678 28.50577 25.26127
#
# Velocity S-wave (km/s) = 3.27878 3.73080 3.51207
# Velocity P-wave (km/s) = 5.59609 6.04253 5.82359
#
# Compressibility (1/GPa) = 0.02875241
#
# Stress axis : x y z
#
# Youngs Moduli (GPa) = 64.37227 38.13923 67.42340
#
# Poissons Ratio (x) = 0.19767 0.04906
# Poissons Ratio (y) = 0.33364 0.53981
# Poissons Ratio (z) = 0.04684 0.30535
#
# Static dielectric constant tensor:
#      x y z
#    x 1.822110 0.015770 -0.022570 
#    y 0.015770 1.716460 -0.021300 
#    z -0.022570 -0.021300 1.769260 
# 
# From -- ./inp_files/329004.got.cif
#   From: 2010.05.17/outbox.cif.g08.bks.cpg/sg2_165_cif.got.tgz:329004.got - 2010.06.03 11:33:40.
