data_PCOD9076706
_publ_section_title
;
Structure prediction by ZEFSAII (Michael W. Deem and Ramdas Pophale) SiO2 
 PCOD9076706
Probable space group: P -1
;
_chemical_formula_sum "Si O2"
_cell_formula_units_Z 16
_cell_length_a 12.092260
_cell_length_b 27.323478
_cell_length_c 11.394605
_cell_angle_alpha 139.574075
_cell_angle_beta 136.102495
_cell_angle_gamma 20.537078
_cell_volume 855.963224
_symmetry_space_group_name_H-M "P -1"
_symmetry_group_IT_number 2
_symmetry_cell_setting 'triclinic'
loop_
_space_group_symop_operation_xyz
x,y,z
-x,-y,-z
loop_
_atom_site_type_symbol
_atom_site_label
_atom_site_fract_x
_atom_site_fract_y
_atom_site_fract_z
Si Si1 0.278264 0.022454 0.075649
Si Si2 0.101503 0.853171 0.199998
Si Si3 0.830464 0.668714 0.209213
Si Si4 0.598007 0.726811 0.774221
Si Si5 0.928129 0.097695 0.467769
Si Si6 0.179110 0.467924 0.892336
Si Si7 0.748694 0.165444 0.072808
Si Si8 0.480228 0.958593 0.526857
O O1 0.461515 0.013336 0.264291
O O2 0.954270 0.142991 0.122332
O O3 0.160119 0.081330 0.959882
O O4 0.476204 0.863249 0.943487
O O5 0.049065 0.873237 0.335219
O O6 0.451993 0.681994 0.126329
O O7 0.067800 0.955704 0.325786
O O8 0.909508 0.578909 0.210005
O O9 0.745074 0.785875 0.402620
O O10 0.511016 0.764798 0.083214
O O11 0.078881 0.562341 0.097832
O O12 0.433507 0.764516 0.599153
O O13 0.435324 0.742953 0.781598
O O14 0.964492 0.573624 0.807856
O O15 0.145178 0.054024 0.462469
O O16 0.000000 0.000000 0.000000
O O17 0.500000 0.000000 0.500000
#
# Coordination Sequence:
#
# PCOD9076706 Si02
#       8
#     2   2   2   2   2   2   2   2
#     4  10  19  32  54  81 109 146 180 221 275 322
#     4  10  20  38  59  78 110 147 186 228 262 321
#     4  10  19  32  53  84 111 141 178 225 274 323
#     4   9  18  32  55  82 106 142 184 227 268 317
#     4  10  21  37  57  83 107 142 194 227 261 317
#     4  10  18  33  59  79 113 140 179 229 272 317
#     4   9  14  28  51  75 103 134 179 220 260 305
#     4  12  21  34  57  85 114 138 182 231 273 321
#
# _framework density 18.692392999999999
#
# number of rings (size 3 to 8) (size 9 to 14) (size 15 to 20)
#    0.000    2.000    2.500    4.500    0.000    1.000 
#    0.000    0.625    2.750    3.000    0.000    0.000 
#    0.000    0.000    0.000    0.000    0.000    0.000 
#
# Total GULP energy -89183.279989 kJ/mol
# GULP energy per Si atom -5573.954999 kJ/mol
# Density = 1.864985 g / cm^3
# Si number density = 18.692393 Si / 1000 Ang^3
#
#
#
# Elastic Constant Matrix: (Units=GPa)
#
#
# Indices 1 2 3 4 5 6 
#
# 1 44.0122 19.2332 17.1208 -0.3888 -5.1906 6.7916
# 2 19.2332 121.4417 34.4135 -9.5372 -9.5358 14.8174
# 3 17.1208 34.4135 95.0681 -8.6031 -6.3619 13.7457
# 4 -0.3888 -9.5372 -8.6031 22.9757 2.6616 -4.6915
# 5 -5.1906 -9.5358 -6.3619 2.6616 17.3353 -4.7302
# 6 6.7916 14.8174 13.7457 -4.6915 -4.7302 23.8955
#
#
#
# Elastic Compliance Matrix: (Units=1/GPa)
#
#
# Indices 1 2 3 4 5 6 
#
# 1 0.026224 -0.002682 -0.003197 -0.003154 0.004694 -0.003641
# 2 -0.002682 0.010098 -0.002324 0.002317 0.002676 -0.003178
# 3 -0.003197 -0.002324 0.012875 0.002817 0.000876 -0.004331
# 4 -0.003154 0.002317 0.002817 0.047256 -0.004175 0.006291
# 5 0.004694 0.002676 0.000876 -0.004175 0.063793 0.008311
# 6 -0.003641 -0.003178 -0.004331 0.006291 0.008311 0.050226
#
#
# Mechanical properties :
#
#
# Convention : Reuss Voigt Hill
#
# Bulk Modulus (GPa) = 30.49560 44.67298 37.58429
# Shear Modulus (GPa) = 21.02541 25.49160 23.25850
#
# Velocity S-wave (km/s) = 3.35746 3.69689 3.53126
# Velocity P-wave (km/s) = 5.60178 6.49412 6.06438
#
# Compressibility (1/GPa) = 0.03279161
#
# Stress axis : x y z
#
# Youngs Moduli (GPa) = 38.13273 99.03422 77.66810
#
# Poissons Ratio (x) = 0.26563 0.24827
# Poissons Ratio (y) = 0.10228 0.18050
# Poissons Ratio (z) = 0.12189 0.23015
#
# Static dielectric constant tensor:
#      x y z
#    x 1.674980 0.007030 -0.028480 
#    y 0.007030 1.668440 -0.006970 
#    z -0.028480 -0.006970 1.658500 
# 
# From -- ./inp_files/277217.got.cif
#   From: 2010.05.17/outbox.cif.g08.bks.cpg/sg2_139_cif.got.tgz:277217.got - 2010.06.03 11:33:40.
