data_PCOD9076157
_publ_section_title
;
Structure prediction by ZEFSAII (Michael W. Deem and Ramdas Pophale) SiO2 
 PCOD9076157
Probable space group: P -1
;
_chemical_formula_sum "Si O2"
_cell_formula_units_Z 16
_cell_length_a 14.104498
_cell_length_b 16.969634
_cell_length_c 13.997616
_cell_angle_alpha 133.157266
_cell_angle_beta 21.312722
_cell_angle_gamma 132.240904
_cell_volume 880.498227
_symmetry_space_group_name_H-M "P -1"
_symmetry_group_IT_number 2
_symmetry_cell_setting 'triclinic'
loop_
_space_group_symop_operation_xyz
x,y,z
-x,-y,-z
loop_
_atom_site_type_symbol
_atom_site_label
_atom_site_fract_x
_atom_site_fract_y
_atom_site_fract_z
Si Si1 0.231319 0.426003 0.217659
Si Si2 0.573024 0.144755 0.397610
Si Si3 0.145099 0.795002 0.313826
Si Si4 0.179173 0.064263 0.997119
Si Si5 0.659049 0.730004 0.847211
Si Si6 0.873513 0.779111 0.993653
Si Si7 0.212495 0.933630 0.195524
Si Si8 0.141251 0.028263 0.605218
O O1 0.269725 0.366822 0.233454
O O2 0.164616 0.331272 0.123015
O O3 0.000000 0.500000 0.500000
O O4 0.500000 0.500000 0.000000
O O5 0.394657 0.118956 0.448956
O O6 0.864905 0.210955 0.178520
O O7 0.622194 0.022537 0.281743
O O8 0.391762 0.204466 0.688043
O O9 0.859415 0.751562 0.588081
O O10 0.178520 0.820176 0.190799
O O11 0.207552 0.916213 0.403223
O O12 0.360095 0.721494 0.086103
O O13 0.300490 0.162970 0.033972
O O14 0.084193 0.122715 0.042142
O O15 0.953160 0.000523 0.222465
O O16 0.104926 0.933157 0.188302
O O17 0.000000 0.000000 0.500000
O O18 0.500000 0.000000 0.000000
#
# Coordination Sequence:
#
# PCOD9076157 Si02
#       8
#     2   2   2   2   2   2   2   2
#     4  11  23  42  59  77 103 133 171 228 281 317
#     4  12  21  34  47  76 109 142 182 207 242 307
#     4  10  18  33  48  74 107 140 184 214 245 303
#     4  10  20  33  47  73 109 146 177 207 241 298
#     4  10  20  33  55  77 101 138 178 216 261 311
#     4  11  25  33  53  74 102 140 182 213 256 307
#     4  10  20  31  47  70 105 151 189 214 246 294
#     4  10  21  30  49  71 110 152 178 207 252 289
#
# _framework density 18.171529
#
# number of rings (size 3 to 8) (size 9 to 14) (size 15 to 20)
#    0.000    1.500    2.500    4.500    3.500    2.000 
#    0.000    0.000    0.000    0.000    0.000    0.000 
#    0.000   20.000    0.000    0.000    0.000    0.000 
#
# Total GULP energy -89232.250588 kJ/mol
# GULP energy per Si atom -5577.015662 kJ/mol
# Density = 1.813017 g / cm^3
# Si number density = 18.171529 Si / 1000 Ang^3
#
#
#
# Elastic Constant Matrix: (Units=GPa)
#
#
# Indices 1 2 3 4 5 6 
#
# 1 55.7333 21.9742 29.5303 -4.8582 -21.3163 -3.7715
# 2 21.9742 70.1343 36.2793 4.8057 -7.6161 -1.0464
# 3 29.5303 36.2793 130.0023 1.5117 -19.5383 -0.9531
# 4 -4.8582 4.8057 1.5117 30.1420 -0.7182 -5.9217
# 5 -21.3163 -7.6161 -19.5383 -0.7182 30.2912 -3.6569
# 6 -3.7715 -1.0464 -0.9531 -5.9217 -3.6569 23.4811
#
#
#
# Elastic Compliance Matrix: (Units=1/GPa)
#
#
# Indices 1 2 3 4 5 6 
#
# 1 0.030817 -0.006830 -0.002117 0.008571 0.019994 0.009835
# 2 -0.006830 0.018403 -0.004017 -0.004303 -0.003115 -0.002010
# 3 -0.002117 -0.004017 0.009890 -0.000006 0.003939 0.000494
# 4 0.008571 -0.004303 -0.000006 0.037742 0.007269 0.011835
# 5 0.019994 -0.003115 0.003939 0.007269 0.050575 0.012942
# 6 0.009835 -0.002010 0.000494 0.011835 0.012942 0.049098
#
#
# Mechanical properties :
#
#
# Convention : Reuss Voigt Hill
#
# Bulk Modulus (GPa) = 30.13669 47.93750 39.03710
# Shear Modulus (GPa) = 21.41212 27.98858 24.70035
#
# Velocity S-wave (km/s) = 3.43641 3.92885 3.69085
# Velocity P-wave (km/s) = 5.68909 6.85704 6.30019
#
# Compressibility (1/GPa) = 0.03318214
#
# Stress axis : x y z
#
# Youngs Moduli (GPa) = 32.44993 54.33968 101.11523
#
# Poissons Ratio (x) = 0.37112 0.21403
# Poissons Ratio (y) = 0.22162 0.40619
# Poissons Ratio (z) = 0.06869 0.21829
#
# Static dielectric constant tensor:
#      x y z
#    x 1.720270 0.014010 -0.004990 
#    y 0.014010 1.609690 -0.024480 
#    z -0.004990 -0.024480 1.642970 
# 
# From -- ./inp_files/535094.got.cif
#   From: 2010.05.17/outbox.cif.g08.bks.cpg/sg2_268_cif.got.tgz:535094.got - 2010.06.03 11:33:40.
