data_PCOD9076560
_publ_section_title
;
Structure prediction by ZEFSAII (Michael W. Deem and Ramdas Pophale) SiO2 
 PCOD9076560
Probable space group: P -1
;
_chemical_formula_sum "Si O2"
_cell_formula_units_Z 16
_cell_length_a 23.482530
_cell_length_b 6.077992
_cell_length_c 17.633966
_cell_angle_alpha 120.190967
_cell_angle_beta 159.629813
_cell_angle_gamma 58.922620
_cell_volume 748.809098
_symmetry_space_group_name_H-M "P -1"
_symmetry_group_IT_number 2
_symmetry_cell_setting 'triclinic'
loop_
_space_group_symop_operation_xyz
x,y,z
-x,-y,-z
loop_
_atom_site_type_symbol
_atom_site_label
_atom_site_fract_x
_atom_site_fract_y
_atom_site_fract_z
Si Si1 0.305354 0.499733 0.169500
Si Si2 0.364494 0.193296 0.965166
Si Si3 0.030849 0.186781 0.840629
Si Si4 0.198113 0.382626 0.433488
Si Si5 0.083284 0.934829 0.012294
Si Si6 0.383052 0.666089 0.822464
Si Si7 0.481896 0.020770 0.249957
Si Si8 0.205713 0.701889 0.912502
O O1 0.465303 0.284470 0.323719
O O2 0.261640 0.757186 0.209554
O O3 0.272703 0.613872 0.064287
O O4 0.167445 0.329812 0.994961
O O5 0.217238 0.431027 0.836027
O O6 0.312491 0.940339 0.818004
O O7 0.501707 0.285090 0.096928
O O8 0.449989 0.105486 0.137200
O O9 0.857304 0.371330 0.647113
O O10 0.084127 0.156839 0.989900
O O11 0.045928 0.914264 0.767354
O O12 0.245409 0.504541 0.592428
O O13 0.043955 0.230068 0.215948
O O14 0.351215 0.174237 0.564020
O O15 0.000000 0.000000 0.000000
O O16 0.500000 0.500000 0.000000
O O17 0.336746 0.857733 0.062787
#
# Coordination Sequence:
#
# PCOD9076560 Si02
#       8
#     2   2   2   2   2   2   2   2
#     4   8  18  34  58  83 108 151 187 226 282 335
#     4  10  19  31  56  80 114 153 189 223 282 328
#     4   9  20  36  58  81 113 145 194 228 277 337
#     4  11  22  34  56  89 113 150 185 236 283 328
#     4  10  22  40  61  82 112 151 189 231 282 336
#     4  11  21  34  51  87 121 148 186 232 280 332
#     4  10  18  33  57  86 114 147 188 230 280 334
#     4   9  16  34  56  80 109 151 191 225 278 332
#
# _framework density 21.367260000000002
#
# number of rings (size 3 to 8) (size 9 to 14) (size 15 to 20)
#    0.000    2.250    2.500    0.000    1.750    2.000 
#    0.000    1.250    0.000   38.250    0.000    0.000 
#    0.000    0.000    0.000    0.000    0.000    0.000 
#
# Total GULP energy -89087.964562 kJ/mol
# GULP energy per Si atom -5567.997785 kJ/mol
# Density = 2.131863 g / cm^3
# Si number density = 21.367260 Si / 1000 Ang^3
#
#
#
# Elastic Constant Matrix: (Units=GPa)
#
#
# Indices 1 2 3 4 5 6 
#
# 1 127.6187 56.7051 16.9673 -14.0808 -1.0345 6.1015
# 2 56.7051 108.1168 9.8917 -62.3000 5.1369 13.4498
# 3 16.9673 9.8917 40.6907 -14.0124 -9.6931 13.5819
# 4 -14.0808 -62.3000 -14.0124 30.6519 -1.5402 27.9970
# 5 -1.0345 5.1369 -9.6931 -1.5402 13.2922 -9.4154
# 6 6.1015 13.4498 13.5819 27.9970 -9.4154 19.1677
#
#
#
# Elastic Compliance Matrix: (Units=1/GPa)
#
#
# Indices 1 2 3 4 5 6 
#
# 1 0.009775 -0.002818 -0.001452 0.002505 -0.002431 -0.004958
# 2 -0.002818 0.005006 -0.007074 -0.007690 0.002225 0.014723
# 3 -0.001452 -0.007074 0.029755 -0.005333 0.027801 0.005788
# 4 0.002505 -0.007690 -0.005333 -0.005438 0.015656 0.024011
# 5 -0.002431 0.002225 0.027801 0.015656 0.100545 0.006034
# 6 -0.004958 0.014723 0.005788 0.024011 0.006034 0.007210
#
#
# Mechanical properties :
#
#
# Convention : Reuss Voigt Hill
#
# Bulk Modulus (GPa) = 45.77450 49.28383 47.52916
# Shear Modulus (GPa) = 28.27664 25.47983 26.87823
#
# Velocity S-wave (km/s) = 3.64175 3.45696 3.55056
# Velocity P-wave (km/s) = 6.25719 6.24894 6.25307
#
# Compressibility (1/GPa) = 0.02184623
#
# Stress axis : x y z
#
# Youngs Moduli (GPa) = 102.30344 199.76812 33.60735
#
# Poissons Ratio (x) = 0.56296 0.04881
# Poissons Ratio (y) = 0.28830 0.23775
# Poissons Ratio (z) = 0.14859 1.41323
#
# Static dielectric constant tensor:
#      x y z
#    x 1.801640 -0.039300 0.007490 
#    y -0.039300 1.885330 -0.018770 
#    z 0.007490 -0.018770 1.768360 
# 
# From -- ./inp_files/80145.got.cif
#   From: 2010.05.17/outbox.cif.g08.bks.cpg/sg2_41_cif.got.tgz:80145.got - 2010.06.03 11:33:40.
