data_PCOD9076677
_publ_section_title
;
Structure prediction by ZEFSAII (Michael W. Deem and Ramdas Pophale) SiO2 
 PCOD9076677
Probable space group: P -1
;
_chemical_formula_sum "Si O2"
_cell_formula_units_Z 10
_cell_length_a 15.267295
_cell_length_b 12.683088
_cell_length_c 10.395191
_cell_angle_alpha 122.030113
_cell_angle_beta 127.805777
_cell_angle_gamma 18.682449
_cell_volume 499.259476
_symmetry_space_group_name_H-M "P -1"
_symmetry_group_IT_number 2
_symmetry_cell_setting 'triclinic'
loop_
_space_group_symop_operation_xyz
x,y,z
-x,-y,-z
loop_
_atom_site_type_symbol
_atom_site_label
_atom_site_fract_x
_atom_site_fract_y
_atom_site_fract_z
Si Si1 0.024407 0.008774 0.817509
Si Si2 0.556551 0.273091 0.157743
Si Si3 0.999632 0.815148 0.842128
Si Si4 0.184569 0.257318 0.887440
Si Si5 0.827640 0.715537 0.613144
O O1 0.690691 0.413423 0.765000
O O2 0.861041 0.045882 0.980542
O O3 0.237742 0.832808 0.783624
O O4 0.002120 0.888445 0.758987
O O5 0.748343 0.959035 0.178784
O O6 0.341260 0.443445 0.959955
O O7 0.833481 0.858680 0.718048
O O8 0.002742 0.479847 0.740605
O O9 0.000000 0.500000 0.000000
O O10 0.500000 0.000000 0.000000
O O11 0.000000 0.500000 0.500000
O O12 0.500000 0.000000 0.500000
#
# Coordination Sequence:
#
# PCOD9076677 Si02
#       5
#     2   2   2   2   2
#     4   9  19  31  61  92 109 146 204 273 283 329
#     4  10  18  33  58  90 109 141 206 261 292 329
#     4   9  20  35  59  86 120 150 205 250 298 351
#     4  12  22  40  65  87 121 165 212 257 287 357
#     4  12  27  40  59  91 134 167 192 245 322 378
#
# _framework density 20.029664
#
# number of rings (size 3 to 8) (size 9 to 14) (size 15 to 20)
#    1.200    0.400    2.000    4.200    2.800    0.000 
#    0.000    0.000    0.000    7.200    0.000    0.000 
#    0.000    0.000    0.000    0.000    0.000    0.000 
#
# Total GULP energy -55812.021995 kJ/mol
# GULP energy per Si atom -5581.202199 kJ/mol
# Density = 1.998408 g / cm^3
# Si number density = 20.029664 Si / 1000 Ang^3
#
#
#
# Elastic Constant Matrix: (Units=GPa)
#
#
# Indices 1 2 3 4 5 6 
#
# 1 140.3765 56.4134 54.9762 -21.8991 17.5163 7.5579
# 2 56.4134 80.7101 44.6214 -21.4719 5.7507 -3.3160
# 3 54.9762 44.6214 69.0164 -23.5519 -2.4082 3.1600
# 4 -21.8991 -21.4719 -23.5519 23.7121 -4.2329 4.0481
# 5 17.5163 5.7507 -2.4082 -4.2329 35.3714 3.4866
# 6 7.5579 -3.3160 3.1600 4.0481 3.4866 57.8298
#
#
#
# Elastic Compliance Matrix: (Units=1/GPa)
#
#
# Indices 1 2 3 4 5 6 
#
# 1 0.012544 -0.004411 -0.007587 -0.000837 -0.006007 -0.001057
# 2 -0.004411 0.022286 -0.008671 0.006916 -0.001391 0.001928
# 3 -0.007587 -0.008671 0.033920 0.021275 0.010364 -0.003473
# 4 -0.000837 0.006916 0.021275 0.071636 0.009929 -0.006270
# 5 -0.006007 -0.001391 0.010364 0.009929 0.033621 -0.002583
# 6 -0.001057 0.001928 -0.003473 -0.006270 -0.002583 0.018325
#
#
# Mechanical properties :
#
#
# Convention : Reuss Voigt Hill
#
# Bulk Modulus (GPa) = 36.48253 66.90280 51.69267
# Shear Modulus (GPa) = 20.59256 32.32211 26.45734
#
# Velocity S-wave (km/s) = 3.20988 4.02146 3.63837
# Velocity P-wave (km/s) = 5.65611 7.41871 6.59655
#
# Compressibility (1/GPa) = 0.02741038
#
# Stress axis : x y z
#
# Youngs Moduli (GPa) = 79.72256 44.87203 29.48143
#
# Poissons Ratio (x) = 0.19794 0.22367
# Poissons Ratio (y) = 0.35168 0.25564
# Poissons Ratio (z) = 0.60483 0.38910
#
# Static dielectric constant tensor:
#      x y z
#    x 1.695840 0.014320 0.000010 
#    y 0.014320 1.731440 0.010110 
#    z 0.000010 0.010110 1.689860 
# 
# From -- ./inp_files/15907.got.cif
#   From: 2010.05.17/outbox.cif.g08.bks.cpg/sg2_8_cif.got.tgz:15907.got - 2010.06.03 11:33:40.
