data_PCOD9076476
_publ_section_title
;
Structure prediction by ZEFSAII (Michael W. Deem and Ramdas Pophale) SiO2 
 PCOD9076476
Probable space group: P -1
;
_chemical_formula_sum "Si O2"
_cell_formula_units_Z 16
_cell_length_a 21.475822
_cell_length_b 8.735921
_cell_length_c 7.506522
_cell_angle_alpha 52.112611
_cell_angle_beta 54.586338
_cell_angle_gamma 34.776482
_cell_volume 625.078383
_symmetry_space_group_name_H-M "P -1"
_symmetry_group_IT_number 2
_symmetry_cell_setting 'triclinic'
loop_
_space_group_symop_operation_xyz
x,y,z
-x,-y,-z
loop_
_atom_site_type_symbol
_atom_site_label
_atom_site_fract_x
_atom_site_fract_y
_atom_site_fract_z
Si Si1 0.625215 0.677895 0.378372
Si Si2 0.548319 0.617048 0.212198
Si Si3 0.098405 0.792868 0.190789
Si Si4 0.872514 0.697645 0.525556
Si Si5 0.283951 0.025382 0.717710
Si Si6 0.682698 0.592543 0.719488
Si Si7 0.593424 0.177792 0.007747
Si Si8 0.138647 0.875824 0.689328
O O1 0.557430 0.670376 0.360367
O O2 0.637954 0.573605 0.629914
O O3 0.754048 0.452768 0.269722
O O4 0.577814 0.980645 0.230681
O O5 0.629383 0.285681 0.286615
O O6 0.610396 0.669494 0.954920
O O7 0.431016 0.790089 0.187012
O O8 0.144863 0.495818 0.261788
O O9 0.189985 0.696976 0.245562
O O10 0.099341 0.930701 0.920896
O O11 0.972796 0.985587 0.326193
O O12 0.000000 0.500000 0.500000
O O13 0.832765 0.787578 0.321827
O O14 0.820480 0.978359 0.511701
O O15 0.297871 0.975481 0.943329
O O16 0.316589 0.182788 0.492847
O O17 0.500000 0.500000 0.000000
#
# Coordination Sequence:
#
# PCOD9076476 Si02
#       8
#     2   2   2   2   2   2   2   2
#     4  11  21  35  60  89 113 149 202 240 281 350
#     4  11  20  40  61  80 119 155 191 244 290 333
#     4   9  18  33  56  81 116 156 185 226 296 340
#     4   9  16  29  53  81 111 148 186 230 282 337
#     4   9  18  35  56  82 113 149 194 230 283 348
#     4  10  21  36  58  86 118 155 188 237 293 340
#     4   9  21  38  59  84 116 156 190 241 299 337
#     4  10  18  33  56  85 113 149 194 236 278 344
#
# _framework density 25.596791
#
# number of rings (size 3 to 8) (size 9 to 14) (size 15 to 20)
#    0.000    2.250    2.500    0.375    0.000    2.500 
#    0.000    7.500    0.000    8.250    0.000   28.000 
#    0.000    0.000    0.000    0.000    0.000    0.000 
#
# Total GULP energy -89341.378339 kJ/mol
# GULP energy per Si atom -5583.836146 kJ/mol
# Density = 2.553853 g / cm^3
# Si number density = 25.596791 Si / 1000 Ang^3
#
#
#
# Elastic Constant Matrix: (Units=GPa)
#
#
# Indices 1 2 3 4 5 6 
#
# 1 200.8640 54.3106 59.7814 -5.4285 48.4827 -23.1439
# 2 54.3106 69.1165 17.3768 -11.1352 11.6685 -29.3478
# 3 59.7814 17.3768 94.2428 -20.9278 0.8407 -5.1933
# 4 -5.4285 -11.1352 -20.9278 35.1048 -5.7566 1.7044
# 5 48.4827 11.6685 0.8407 -5.7566 49.8556 -16.7628
# 6 -23.1439 -29.3478 -5.1933 1.7044 -16.7628 43.6033
#
#
#
# Elastic Compliance Matrix: (Units=1/GPa)
#
#
# Indices 1 2 3 4 5 6 
#
# 1 0.011464 -0.008215 -0.007437 -0.006919 -0.011392 -0.004439
# 2 -0.008215 0.027757 0.003203 0.009984 0.008503 0.017582
# 3 -0.007437 0.003203 0.017383 0.011482 0.008565 0.003123
# 4 -0.006919 0.009984 0.011482 0.038900 0.011097 0.007161
# 5 -0.011392 0.008503 0.008565 0.011097 0.034880 0.013672
# 6 -0.004439 0.017582 0.003123 0.007161 0.013672 0.037759
#
#
# Mechanical properties :
#
#
# Convention : Reuss Voigt Hill
#
# Bulk Modulus (GPa) = 31.53887 69.68455 50.61171
# Shear Modulus (GPa) = 24.55670 41.22970 32.89320
#
# Velocity S-wave (km/s) = 3.10072 4.01775 3.58865
# Velocity P-wave (km/s) = 5.01672 6.98614 6.08168
#
# Compressibility (1/GPa) = 0.03170691
#
# Stress axis : x y z
#
# Youngs Moduli (GPa) = 87.22678 36.02728 57.52694
#
# Poissons Ratio (x) = 0.29597 0.42783
# Poissons Ratio (y) = 0.71658 -0.18428
# Poissons Ratio (z) = 0.64870 -0.11541
#
# Static dielectric constant tensor:
#      x y z
#    x 2.105760 0.019740 0.006010 
#    y 0.019740 2.002780 -0.017020 
#    z 0.006010 -0.017020 2.008600 
# 
# From -- ./inp_files/220736.got.cif
#   From: 2010.05.17/outbox.cif.g08.bks.cpg/sg2_111_cif.got.tgz:220736.got - 2010.06.03 11:33:40.
