data_PCOD9076813
_publ_section_title
;
Structure prediction by ZEFSAII (Michael W. Deem and Ramdas Pophale) SiO2 
 PCOD9076813
Probable space group: P -1
;
_chemical_formula_sum "Si O2"
_cell_formula_units_Z 16
_cell_length_a 11.837416
_cell_length_b 8.230567
_cell_length_c 8.366622
_cell_angle_alpha 98.460215
_cell_angle_beta 55.128317
_cell_angle_gamma 105.288732
_cell_volume 645.100844
_symmetry_space_group_name_H-M "P -1"
_symmetry_group_IT_number 2
_symmetry_cell_setting 'triclinic'
loop_
_space_group_symop_operation_xyz
x,y,z
-x,-y,-z
loop_
_atom_site_type_symbol
_atom_site_label
_atom_site_fract_x
_atom_site_fract_y
_atom_site_fract_z
Si Si1 0.459587 0.088064 0.384954
Si Si2 0.067385 0.798044 0.927711
Si Si3 0.573608 0.570481 0.110108
Si Si4 0.675534 0.590816 0.480309
Si Si5 0.726191 0.359394 0.116574
Si Si6 0.917591 0.779463 0.515752
Si Si7 0.183333 0.161470 0.035866
Si Si8 0.826674 0.105954 0.502714
O O1 0.372195 0.236472 0.505877
O O2 0.604785 0.185537 0.197445
O O3 0.500000 0.000000 0.500000
O O4 0.342658 0.953950 0.358794
O O5 0.120801 0.668718 0.977433
O O6 0.139110 0.826807 0.696545
O O7 0.902938 0.755550 0.014114
O O8 0.123840 0.970352 0.004343
O O9 0.455010 0.511728 0.328048
O O10 0.697971 0.467917 0.007340
O O11 0.500000 0.500000 0.000000
O O12 0.650427 0.764275 0.093800
O O13 0.695167 0.470725 0.305617
O O14 0.815073 0.630941 0.483343
O O15 0.856601 0.800582 0.745644
O O16 0.080064 0.774176 0.421925
O O17 0.893516 0.941343 0.457070
#
# Coordination Sequence:
#
# PCOD9076813 Si02
#       8
#     2   2   2   2   2   2   2   2
#     4  10  18  33  60  89 114 143 196 252 288 341
#     4  10  22  41  63  91 112 159 210 251 288 348
#     4  11  22  40  63  85 125 165 191 241 312 364
#     4  10  22  38  62  92 117 159 196 249 299 356
#     4  11  24  38  62  91 123 151 207 247 296 362
#     4   9  18  37  60  88 117 154 199 244 300 348
#     4  10  22  40  65  84 121 161 203 244 297 359
#     4   9  18  33  61  86 117 148 196 254 290 336
#
# _framework density 24.802325
#
# number of rings (size 3 to 8) (size 9 to 14) (size 15 to 20)
#    0.000    2.000    2.500    1.500    5.250    0.500 
#    0.000    4.375    2.750    0.000    0.000    0.000 
#    0.000    0.000    0.000    0.000    0.000    0.000 
#
# Total GULP energy -89388.548714 kJ/mol
# GULP energy per Si atom -5586.784295 kJ/mol
# Density = 2.474587 g / cm^3
# Si number density = 24.802325 Si / 1000 Ang^3
#
#
#
# Elastic Constant Matrix: (Units=GPa)
#
#
# Indices 1 2 3 4 5 6 
#
# 1 182.2228 51.4845 21.5777 16.1221 21.5572 42.5295
# 2 51.4845 63.7667 19.4546 -9.9772 4.0831 37.4135
# 3 21.5777 19.4546 41.1337 -3.5917 16.5749 8.4230
# 4 16.1221 -9.9772 -3.5917 19.2538 7.8763 -1.9695
# 5 21.5572 4.0831 16.5749 7.8763 33.0637 -0.4340
# 6 42.5295 37.4135 8.4230 -1.9695 -0.4340 56.9349
#
#
#
# Elastic Compliance Matrix: (Units=1/GPa)
#
#
# Indices 1 2 3 4 5 6 
#
# 1 0.009637 -0.007768 -0.001118 -0.011725 -0.002002 -0.002350
# 2 -0.007768 0.038423 -0.007737 0.023887 -0.001722 -0.017489
# 3 -0.001118 -0.007737 0.037572 0.012201 -0.020049 0.000630
# 4 -0.011725 0.023887 0.012201 0.084662 -0.021668 -0.005980
# 5 -0.002002 -0.001722 -0.020049 -0.021668 0.047043 0.005202
# 6 -0.002350 -0.017489 0.000630 -0.005980 0.005202 0.030551
#
#
# Mechanical properties :
#
#
# Convention : Reuss Voigt Hill
#
# Bulk Modulus (GPa) = 19.08866 52.46186 35.77526
# Shear Modulus (GPa) = 16.74503 34.82422 25.78462
#
# Velocity S-wave (km/s) = 2.60116 3.75116 3.22779
# Velocity P-wave (km/s) = 4.09077 6.32135 5.32419
#
# Compressibility (1/GPa) = 0.05238713
#
# Stress axis : x y z
#
# Youngs Moduli (GPa) = 103.76160 26.02617 26.61571
#
# Poissons Ratio (x) = 0.20216 0.02975
# Poissons Ratio (y) = 0.80598 0.20593
# Poissons Ratio (z) = 0.11598 0.20137
#
# Static dielectric constant tensor:
#      x y z
#    x 2.345510 0.110960 0.062350 
#    y 0.110960 2.126890 0.029570 
#    z 0.062350 0.029570 1.990460 
# 
# From -- ./inp_files/239632.got.cif
#   From: 2010.05.17/outbox.cif.g08.bks.cpg/sg2_120_cif.got.tgz:239632.got - 2010.06.03 11:33:40.
