data_PCOD9076525
_publ_section_title
;
Structure prediction by ZEFSAII (Michael W. Deem and Ramdas Pophale) SiO2 
 PCOD9076525
Probable space group: P -1
;
_chemical_formula_sum "Si O2"
_cell_formula_units_Z 16
_cell_length_a 9.103382
_cell_length_b 11.032163
_cell_length_c 17.459899
_cell_angle_alpha 24.923660
_cell_angle_beta 67.068479
_cell_angle_gamma 78.826331
_cell_volume 620.369488
_symmetry_space_group_name_H-M "P -1"
_symmetry_group_IT_number 2
_symmetry_cell_setting 'triclinic'
loop_
_space_group_symop_operation_xyz
x,y,z
-x,-y,-z
loop_
_atom_site_type_symbol
_atom_site_label
_atom_site_fract_x
_atom_site_fract_y
_atom_site_fract_z
Si Si1 0.947639 0.394413 0.939363
Si Si2 0.308194 0.720881 0.688797
Si Si3 0.458797 0.562115 0.135674
Si Si4 0.077793 0.349596 0.374338
Si Si5 0.909036 0.042867 0.916368
Si Si6 0.392603 0.116062 0.678472
Si Si7 0.304511 0.027880 0.355393
Si Si8 0.442643 0.219950 0.779291
O O1 0.115612 0.662879 0.791317
O O2 0.912130 0.506958 0.797327
O O3 0.019063 0.121242 0.066715
O O4 0.765069 0.211300 0.123564
O O5 0.364963 0.461191 0.861404
O O6 0.500000 0.000000 0.500000
O O7 0.279507 0.774099 0.574457
O O8 0.273672 0.366134 0.331440
O O9 0.405042 0.373738 0.173542
O O10 0.492273 0.923999 0.933242
O O11 0.055896 0.591319 0.301148
O O12 0.892955 0.044668 0.588595
O O13 0.703854 0.863846 0.078918
O O14 0.000000 0.000000 0.000000
O O15 0.358574 0.204523 0.720683
O O16 0.419723 0.420048 0.447800
O O17 0.569507 0.057701 0.676437
#
# Coordination Sequence:
#
# PCOD9076525 Si02
#       8
#     2   2   2   2   2   2   2   2
#     4  10  18  33  57  81 109 145 184 218 268 331
#     4   9  20  38  59  75 104 148 189 225 265 322
#     4  10  19  38  56  79 110 141 188 232 267 309
#     4   9  17  32  55  84 103 135 186 232 266 311
#     4   9  14  29  51  79 105 132 185 218 260 312
#     4  11  20  33  55  84 115 144 179 217 278 334
#     4  10  21  34  59  82 109 145 182 222 277 331
#     4  10  20  32  54  83 113 143 176 228 274 315
#
# _framework density 25.791081999999999
#
# number of rings (size 3 to 8) (size 9 to 14) (size 15 to 20)
#    0.000    2.250    3.750    2.625    1.750    0.500 
#    0.000    8.750    2.750    0.000    0.000    0.000 
#    0.000    0.000    0.000    0.000    0.000    0.000 
#
# Total GULP energy -89188.510850 kJ/mol
# GULP energy per Si atom -5574.281928 kJ/mol
# Density = 2.573238 g / cm^3
# Si number density = 25.791082 Si / 1000 Ang^3
#
#
#
# Elastic Constant Matrix: (Units=GPa)
#
#
# Indices 1 2 3 4 5 6 
#
# 1 117.2208 2.5095 41.6468 11.1409 -28.8020 -20.1181
# 2 2.5095 65.8723 -1.6298 -4.9528 -3.8623 -12.8396
# 3 41.6468 -1.6298 117.3533 -3.9761 -23.5986 -10.4876
# 4 11.1409 -4.9528 -3.9761 25.6844 -15.5381 -1.2216
# 5 -28.8020 -3.8623 -23.5986 -15.5381 31.9423 -2.4214
# 6 -20.1181 -12.8396 -10.4876 -1.2216 -2.4214 35.9614
#
#
#
# Elastic Compliance Matrix: (Units=1/GPa)
#
#
# Indices 1 2 3 4 5 6 
#
# 1 0.013561 0.002331 -0.001007 0.003383 0.014108 0.009190
# 2 0.002331 0.018878 0.003474 0.011818 0.013486 0.010367
# 3 -0.001007 0.003474 0.013147 0.013159 0.016084 0.006041
# 4 0.003383 0.011818 0.013159 0.073483 0.051151 0.015890
# 5 0.014108 0.013486 0.016084 0.051151 0.084303 0.024812
# 6 0.009190 0.010367 0.006041 0.015890 0.024812 0.040622
#
#
# Mechanical properties :
#
#
# Convention : Reuss Voigt Hill
#
# Bulk Modulus (GPa) = 18.12226 42.83328 30.47777
# Shear Modulus (GPa) = 19.77900 35.91227 27.84564
#
# Velocity S-wave (km/s) = 2.77229 3.73558 3.28938
# Velocity P-wave (km/s) = 4.15803 5.93716 5.12538
#
# Compressibility (1/GPa) = 0.05518075
#
# Stress axis : x y z
#
# Youngs Moduli (GPa) = 73.74127 52.97185 76.06294
#
# Poissons Ratio (x) = -0.12349 0.07662
# Poissons Ratio (y) = -0.17191 -0.26421
# Poissons Ratio (z) = 0.07428 -0.18400
#
# Static dielectric constant tensor:
#      x y z
#    x 2.130290 0.038690 0.000010 
#    y 0.038690 2.172100 -0.075260 
#    z 0.000010 -0.075260 2.198070 
# 
# From -- ./inp_files/223611.got.cif
#   From: 2010.05.17/outbox.cif.g08.bks.cpg/sg2_112_cif.got.tgz:223611.got - 2010.06.03 11:33:40.
