data_PCOD9076632
_publ_section_title
;
Structure prediction by ZEFSAII (Michael W. Deem and Ramdas Pophale) SiO2 
 PCOD9076632
Probable space group: P -1
;
_chemical_formula_sum "Si O2"
_cell_formula_units_Z 16
_cell_length_a 11.489825
_cell_length_b 10.230669
_cell_length_c 12.880764
_cell_angle_alpha 57.886774
_cell_angle_beta 131.824086
_cell_angle_gamma 137.430388
_cell_volume 760.820855
_symmetry_space_group_name_H-M "P -1"
_symmetry_group_IT_number 2
_symmetry_cell_setting 'triclinic'
loop_
_space_group_symop_operation_xyz
x,y,z
-x,-y,-z
loop_
_atom_site_type_symbol
_atom_site_label
_atom_site_fract_x
_atom_site_fract_y
_atom_site_fract_z
Si Si1 0.674108 0.053546 0.395821
Si Si2 0.375438 0.390682 0.133794
Si Si3 0.775249 0.241467 0.687232
Si Si4 0.403863 0.887303 0.884232
Si Si5 0.688543 0.806491 0.032510
Si Si6 0.027592 0.858587 0.308439
Si Si7 0.731941 0.412607 0.393605
Si Si8 0.077133 0.465538 0.956813
O O1 0.675818 0.041234 0.278013
O O2 0.722718 0.258419 0.376886
O O3 0.829625 0.038818 0.552778
O O4 0.455035 0.893638 0.371906
O O5 0.530442 0.603762 0.083993
O O6 0.515309 0.358785 0.293748
O O7 0.283673 0.246011 0.042641
O O8 0.206589 0.389508 0.087747
O O9 0.806466 0.396261 0.555656
O O10 0.842472 0.127324 0.715145
O O11 0.903022 0.331589 0.828456
O O12 0.227672 0.669388 0.901665
O O13 0.579907 0.903380 0.923451
O O14 0.500000 0.000000 0.000000
O O15 0.891147 0.917699 0.167986
O O16 0.876229 0.628302 0.342525
O O17 0.000000 0.500000 0.000000
#
# Coordination Sequence:
#
# PCOD9076632 Si02
#       8
#     2   2   2   2   2   2   2   2
#     4  11  21  34  52  82 117 148 182 226 277 328
#     4   9  17  33  58  85 109 140 185 233 274 322
#     4  11  21  34  52  82 117 148 182 226 277 328
#     4  11  22  39  59  82 113 148 186 226 278 335
#     4   9  17  33  58  85 109 140 185 233 274 322
#     4  10  18  33  58  84 109 144 186 231 279 323
#     4  10  18  33  58  84 109 144 186 231 279 323
#     4  11  22  39  59  82 113 148 186 226 278 335
#
# _framework density 21.029917999999999
#
# number of rings (size 3 to 8) (size 9 to 14) (size 15 to 20)
#    0.000    1.750    2.500    5.250    0.000    0.000 
#    0.000    7.500    0.000    0.000    0.000    0.000 
#    0.000    0.000    0.000    0.000    0.000    0.000 
#
# Total GULP energy -89404.520061 kJ/mol
# GULP energy per Si atom -5587.782504 kJ/mol
# Density = 2.098205 g / cm^3
# Si number density = 21.029918 Si / 1000 Ang^3
#
#
#
# Elastic Constant Matrix: (Units=GPa)
#
#
# Indices 1 2 3 4 5 6 
#
# 1 99.4692 -2.3141 48.6819 12.8086 5.9124 10.4631
# 2 -2.3141 61.9588 8.6561 13.0706 0.7568 22.1184
# 3 48.6819 8.6561 144.2427 36.6364 11.8447 9.2134
# 4 12.8086 13.0706 36.6364 34.0201 5.0699 0.6007
# 5 5.9124 0.7568 11.8447 5.0699 35.7454 7.5646
# 6 10.4631 22.1184 9.2134 0.6007 7.5646 21.8724
#
#
#
# Elastic Compliance Matrix: (Units=1/GPa)
#
#
# Indices 1 2 3 4 5 6 
#
# 1 0.013389 0.005769 -0.003337 -0.003716 0.001691 -0.011316
# 2 0.005769 0.034731 0.002733 -0.019052 0.008909 -0.041590
# 3 -0.003337 0.002733 0.011266 -0.011767 -0.000418 -0.005445
# 4 -0.003716 -0.019052 -0.011767 0.051523 -0.008193 0.027419
# 5 0.001691 0.008909 -0.000418 -0.008193 0.033233 -0.020910
# 6 -0.011316 -0.041590 -0.005445 0.027419 -0.020910 0.101964
#
#
# Mechanical properties :
#
#
# Convention : Reuss Voigt Hill
#
# Bulk Modulus (GPa) = 14.34402 46.19096 30.26749
# Shear Modulus (GPa) = 19.30391 35.03736 27.17063
#
# Velocity S-wave (km/s) = 3.03302 4.08618 3.59834
# Velocity P-wave (km/s) = 4.37049 6.65392 5.62920
#
# Compressibility (1/GPa) = 0.06971545
#
# Stress axis : x y z
#
# Youngs Moduli (GPa) = 74.68691 28.79273 88.76215
#
# Poissons Ratio (x) = -0.16611 0.29623
# Poissons Ratio (y) = -0.43088 -0.24256
# Poissons Ratio (z) = 0.24926 -0.07868
#
# Static dielectric constant tensor:
#      x y z
#    x 1.737100 0.015260 0.004530 
#    y 0.015260 1.790040 -0.018910 
#    z 0.004530 -0.018910 1.795690 
# 
# From -- ./inp_files/257702.got.cif
#   From: 2010.05.17/outbox.cif.g08.bks.cpg/sg2_129_cif.got.tgz:257702.got - 2010.06.03 11:33:40.
