data_PCOD9076110
_publ_section_title
;
Structure prediction by ZEFSAII (Michael W. Deem and Ramdas Pophale) SiO2 
 PCOD9076110
Probable space group: P -1
;
_chemical_formula_sum "Si O2"
_cell_formula_units_Z 16
_cell_length_a 9.938612
_cell_length_b 8.528200
_cell_length_c 12.054015
_cell_angle_alpha 130.986545
_cell_angle_beta 89.452060
_cell_angle_gamma 102.407798
_cell_volume 741.161487
_symmetry_space_group_name_H-M "P -1"
_symmetry_group_IT_number 2
_symmetry_cell_setting 'triclinic'
loop_
_space_group_symop_operation_xyz
x,y,z
-x,-y,-z
loop_
_atom_site_type_symbol
_atom_site_label
_atom_site_fract_x
_atom_site_fract_y
_atom_site_fract_z
Si Si1 0.344626 0.960195 0.071500
Si Si2 0.156515 0.115470 0.319718
Si Si3 0.926661 0.688440 0.126415
Si Si4 0.638245 0.443786 0.528138
Si Si5 0.365651 0.584504 0.044182
Si Si6 0.516067 0.235225 0.654129
Si Si7 0.657104 0.217065 0.222455
Si Si8 0.221831 0.301706 0.643241
O O1 0.361506 0.729324 0.004040
O O2 0.256208 0.016284 0.197509
O O3 0.493410 0.136680 0.155038
O O4 0.284214 0.929496 0.932378
O O5 0.217160 0.365335 0.395768
O O6 0.176916 0.137504 0.463338
O O7 0.010121 0.936151 0.214685
O O8 0.893269 0.692578 0.260588
O O9 0.774930 0.606378 0.034228
O O10 0.000000 0.500000 0.000000
O O11 0.500000 0.500000 0.500000
O O12 0.596538 0.396584 0.633174
O O13 0.657908 0.233652 0.363631
O O14 0.392549 0.731076 0.220785
O O15 0.500000 0.500000 0.000000
O O16 0.360188 0.262675 0.680347
O O17 0.500000 0.000000 0.500000
O O18 0.728845 0.462616 0.303023
#
# Coordination Sequence:
#
# PCOD9076110 Si02
#       8
#     2   2   2   2   2   2   2   2
#     4  11  19  34  59  96 121 162 206 266 321 368
#     4  11  21  37  65  90 125 163 217 268 314 368
#     4  12  24  41  62  93 131 170 220 265 319 383
#     4  11  20  38  62  92 126 166 218 265 314 378
#     4  12  24  40  59  92 137 166 208 264 330 386
#     4  12  23  38  66  97 133 166 211 266 329 380
#     4  10  18  32  61  89 125 152 217 271 305 359
#     4  11  20  40  60  96 126 164 210 269 317 374
#
# _framework density 21.587738999999999
#
# number of rings (size 3 to 8) (size 9 to 14) (size 15 to 20)
#    0.000    0.750    7.500    1.875    0.000    0.000 
#    0.000    0.625    0.000    0.750    0.000    0.000 
#    0.000    0.000    0.000    0.000    0.000    0.000 
#
# Total GULP energy -89140.080981 kJ/mol
# GULP energy per Si atom -5571.255061 kJ/mol
# Density = 2.153860 g / cm^3
# Si number density = 21.587739 Si / 1000 Ang^3
#
#
#
# Elastic Constant Matrix: (Units=GPa)
#
#
# Indices 1 2 3 4 5 6 
#
# 1 66.0785 22.1879 47.7436 1.4707 2.1703 31.6470
# 2 22.1879 55.8225 12.7369 4.7435 6.7619 31.4359
# 3 47.7436 12.7369 161.2239 1.6002 -3.6637 16.4127
# 4 1.4707 4.7435 1.6002 35.7985 17.9634 8.4138
# 5 2.1703 6.7619 -3.6637 17.9634 44.4302 6.2530
# 6 31.6470 31.4359 16.4127 8.4138 6.2530 29.4630
#
#
#
# Elastic Compliance Matrix: (Units=1/GPa)
#
#
# Indices 1 2 3 4 5 6 
#
# 1 0.054185 0.029158 -0.009580 0.016034 -0.001952 -0.088139
# 2 0.029158 0.062287 -0.003666 0.015928 -0.003641 -0.099511
# 3 -0.009580 -0.003666 0.008369 -0.002503 0.001324 0.009974
# 4 0.016034 0.015928 -0.002503 0.042488 -0.014704 -0.041835
# 5 -0.001952 -0.003641 0.001324 -0.014704 0.028740 0.003343
# 6 -0.088139 -0.099511 0.009974 -0.041835 0.003343 0.240469
#
#
# Mechanical properties :
#
#
# Convention : Reuss Voigt Hill
#
# Bulk Modulus (GPa) = 6.38310 49.82907 28.10608
# Shear Modulus (GPa) = 10.94247 35.30213 23.12230
#
# Velocity S-wave (km/s) = 2.25385 4.04825 3.27629
# Velocity P-wave (km/s) = 3.12031 6.70696 5.23067
#
# Compressibility (1/GPa) = 0.15666379
#
# Stress axis : x y z
#
# Youngs Moduli (GPa) = 18.45541 16.05469 119.49151
#
# Poissons Ratio (x) = -0.46812 1.14475
# Poissons Ratio (y) = -0.53812 0.43804
# Poissons Ratio (z) = 0.17681 0.05885
#
# Static dielectric constant tensor:
#      x y z
#    x 1.820750 0.094560 -0.099640 
#    y 0.094560 2.079960 -0.157600 
#    z -0.099640 -0.157600 2.032910 
# 
# From -- ./inp_files/383560.got.cif
#   From: 2010.05.17/outbox.cif.g08.bks.cpg/sg2_192_cif.got.tgz:383560.got - 2010.06.03 11:33:40.
