data_PCOD9076127
_publ_section_title
;
Structure prediction by ZEFSAII (Michael W. Deem and Ramdas Pophale) SiO2 
 PCOD9076127
Probable space group: P -1
;
_chemical_formula_sum "Si O2"
_cell_formula_units_Z 14
_cell_length_a 14.978511
_cell_length_b 10.058718
_cell_length_c 6.602709
_cell_angle_alpha 53.188551
_cell_angle_beta 123.209354
_cell_angle_gamma 130.739659
_cell_volume 582.981316
_symmetry_space_group_name_H-M "P -1"
_symmetry_group_IT_number 2
_symmetry_cell_setting 'triclinic'
loop_
_space_group_symop_operation_xyz
x,y,z
-x,-y,-z
loop_
_atom_site_type_symbol
_atom_site_label
_atom_site_fract_x
_atom_site_fract_y
_atom_site_fract_z
Si Si1 0.370650 0.158749 0.317108
Si Si2 0.436508 0.545000 0.195869
Si Si3 0.226989 0.625090 0.885395
Si Si4 0.959324 0.734861 0.223971
Si Si5 0.531069 0.074968 0.203857
Si Si6 0.182188 0.928810 0.632477
Si Si7 0.855389 0.951886 0.111189
O O1 0.411997 0.379869 0.159272
O O2 0.294759 0.086645 0.501576
O O3 0.070013 0.809436 0.451166
O O4 0.265076 0.048661 0.122591
O O5 0.500000 0.500000 0.500000
O O6 0.508604 0.760017 0.998404
O O7 0.309609 0.530383 0.135580
O O8 0.323355 0.785429 0.707811
O O9 0.108446 0.473941 0.761010
O O10 0.208381 0.760059 0.898849
O O11 0.860057 0.773461 0.180723
O O12 0.021826 0.873681 0.984808
O O13 0.519735 0.894240 0.481467
O O14 0.500000 0.000000 0.000000
O O15 0.146628 0.028184 0.671528
#
# Coordination Sequence:
#
# PCOD9076127 Si02
#       7
#     2   2   2   2   2   2   2
#     4  10  18  36  58  81 118 150 188 237 278 340
#     4  10  18  32  62  87 108 150 196 233 289 341
#     4   9  19  33  53  83 116 146 188 237 280 337
#     4  10  19  35  54  82 120 149 193 232 274 343
#     4   9  17  30  55  87 104 142 194 231 284 337
#     4  10  21  34  57  85 118 153 190 230 283 340
#     4  10  20  34  57  84 116 157 188 229 284 337
#
# _framework density 24.014489000000001
#
# number of rings (size 3 to 8) (size 9 to 14) (size 15 to 20)
#    0.857    1.429    2.857    0.857    0.000    0.571 
#    0.000    0.000    3.143    8.571    0.000    0.000 
#    0.000    0.000    0.000    0.000    0.000    0.000 
#
# Total GULP energy -77949.974096 kJ/mol
# GULP energy per Si atom -5567.855293 kJ/mol
# Density = 2.395983 g / cm^3
# Si number density = 24.014489 Si / 1000 Ang^3
#
#
#
# Elastic Constant Matrix: (Units=GPa)
#
#
# Indices 1 2 3 4 5 6 
#
# 1 88.4794 31.2694 20.3872 -5.9373 2.7011 -15.6878
# 2 31.2694 126.8980 26.7321 -20.5628 -4.5045 -7.4354
# 3 20.3872 26.7321 96.3366 -18.7450 25.3425 -0.3344
# 4 -5.9373 -20.5628 -18.7450 32.8901 -4.4126 14.7785
# 5 2.7011 -4.5045 25.3425 -4.4126 29.1889 1.3021
# 6 -15.6878 -7.4354 -0.3344 14.7785 1.3021 29.1752
#
#
#
# Elastic Compliance Matrix: (Units=1/GPa)
#
#
# Indices 1 2 3 4 5 6 
#
# 1 0.014567 -0.003292 -0.003129 -0.005705 -0.000442 0.009867
# 2 -0.003292 0.010202 -0.002178 0.006382 0.004853 -0.002645
# 3 -0.003129 -0.002178 0.016685 0.008411 -0.013006 -0.005726
# 4 -0.005705 0.006382 0.008411 0.050804 0.003105 -0.027218
# 5 -0.000442 0.004853 -0.013006 0.003105 0.046936 -0.002818
# 6 0.009867 -0.002645 -0.005726 -0.027218 -0.002818 0.052755
#
#
# Mechanical properties :
#
#
# Convention : Reuss Voigt Hill
#
# Bulk Modulus (GPa) = 41.22816 52.05459 46.64138
# Shear Modulus (GPa) = 23.01690 33.80586 28.41138
#
# Velocity S-wave (km/s) = 3.09926 3.75604 3.44334
# Velocity P-wave (km/s) = 5.47837 6.36662 5.93912
#
# Compressibility (1/GPa) = 0.02425526
#
# Stress axis : x y z
#
# Youngs Moduli (GPa) = 68.64995 98.02097 59.93497
#
# Poissons Ratio (x) = 0.32272 0.18751
# Poissons Ratio (y) = 0.22602 0.13055
# Poissons Ratio (z) = 0.21477 0.21351
#
# Static dielectric constant tensor:
#      x y z
#    x 2.060580 -0.064360 0.061210 
#    y -0.064360 1.935310 -0.054780 
#    z 0.061210 -0.054780 2.035800 
# 
# From -- ./inp_files/324541.got.cif
#   From: 2010.05.17/outbox.cif.g08.bks.cpg/sg2_163_cif.got.tgz:324541.got - 2010.06.03 11:33:40.
