data_PCOD9076167
_publ_section_title
;
Structure prediction by ZEFSAII (Michael W. Deem and Ramdas Pophale) SiO2 
 PCOD9076167
Probable space group: P -1
;
_chemical_formula_sum "Si O2"
_cell_formula_units_Z 14
_cell_length_a 5.177948
_cell_length_b 11.903500
_cell_length_c 12.891231
_cell_angle_alpha 113.619073
_cell_angle_beta 63.843381
_cell_angle_gamma 80.465420
_cell_volume 594.169250
_symmetry_space_group_name_H-M "P -1"
_symmetry_group_IT_number 2
_symmetry_cell_setting 'triclinic'
loop_
_space_group_symop_operation_xyz
x,y,z
-x,-y,-z
loop_
_atom_site_type_symbol
_atom_site_label
_atom_site_fract_x
_atom_site_fract_y
_atom_site_fract_z
Si Si1 0.153568 0.454169 0.709102
Si Si2 0.394191 0.827954 0.439738
Si Si3 0.950547 0.634682 0.000650
Si Si4 0.669052 0.925414 0.607647
Si Si5 0.305887 0.784482 0.928524
Si Si6 0.293024 0.469326 0.362260
Si Si7 0.590063 0.901373 0.088529
O O1 0.324660 0.315413 0.689818
O O2 0.985214 0.585055 0.857436
O O3 0.451239 0.479328 0.621608
O O4 0.887702 0.451145 0.679172
O O5 0.388004 0.943880 0.405850
O O6 0.475733 0.857260 0.553789
O O7 0.043428 0.835190 0.504653
O O8 0.233851 0.682390 0.982827
O O9 0.000000 0.500000 0.000000
O O10 0.638542 0.772553 0.107793
O O11 0.564828 0.971853 0.761167
O O12 0.531074 0.686695 0.764601
O O13 0.421625 0.879490 0.008670
O O14 0.949566 0.871499 0.985356
O O15 0.000000 0.500000 0.500000
#
# Coordination Sequence:
#
# PCOD9076167 Si02
#       7
#     2   2   2   2   2   2   2
#     4  11  21  37  54  85 115 140 183 229 275 334
#     4  10  21  35  52  77 113 146 193 223 251 319
#     4   9  19  31  49  77 112 143 164 213 275 329
#     4  10  20  35  53  77 107 159 188 212 260 313
#     4   9  19  33  48  79 105 130 185 208 271 328
#     4  11  21  38  58  81 111 143 180 234 289 335
#     4  10  18  33  50  74 107 137 181 214 258 319
#
# _framework density 23.562311000000001
#
# number of rings (size 3 to 8) (size 9 to 14) (size 15 to 20)
#    0.857    1.143    1.429    3.000    0.000    0.571 
#    2.571    0.000    0.000    0.000    0.000   20.000 
#    0.000    0.000    0.000    0.000    0.000    0.000 
#
# Total GULP energy -78057.008120 kJ/mol
# GULP energy per Si atom -5575.500580 kJ/mol
# Density = 2.350868 g / cm^3
# Si number density = 23.562311 Si / 1000 Ang^3
#
#
#
# Elastic Constant Matrix: (Units=GPa)
#
#
# Indices 1 2 3 4 5 6 
#
# 1 141.9973 10.1199 34.3659 9.7599 16.0857 -1.9300
# 2 10.1199 47.1426 -1.6927 19.6171 2.1531 2.9686
# 3 34.3659 -1.6927 88.6006 12.9038 11.0487 -0.2867
# 4 9.7599 19.6171 12.9038 23.0941 3.8951 -3.1205
# 5 16.0857 2.1531 11.0487 3.8951 28.1340 7.6123
# 6 -1.9300 2.9686 -0.2867 -3.1205 7.6123 27.6425
#
#
#
# Elastic Compliance Matrix: (Units=1/GPa)
#
#
# Indices 1 2 3 4 5 6 
#
# 1 0.008332 -0.002234 -0.002892 0.000967 -0.004144 0.002042
# 2 -0.002234 0.037414 0.006405 -0.036220 0.003383 -0.009128
# 3 -0.002892 0.006405 0.014608 -0.012150 -0.002507 -0.001419
# 4 0.000967 -0.036220 -0.012150 0.084084 -0.008921 0.015780
# 5 -0.004144 0.003383 -0.002507 -0.008921 0.043577 -0.013686
# 6 0.002042 -0.009128 -0.001419 0.015780 -0.013686 0.042835
#
#
# Mechanical properties :
#
#
# Convention : Reuss Voigt Hill
#
# Bulk Modulus (GPa) = 15.89533 40.36965 28.13249
# Shear Modulus (GPa) = 20.05905 31.43727 25.74816
#
# Velocity S-wave (km/s) = 2.92090 3.65666 3.30929
# Velocity P-wave (km/s) = 4.25867 5.91596 5.15436
#
# Compressibility (1/GPa) = 0.06291156
#
# Stress axis : x y z
#
# Youngs Moduli (GPa) = 120.01581 26.72801 68.45405
#
# Poissons Ratio (x) = 0.05972 0.19798
# Poissons Ratio (y) = 0.26817 -0.43845
# Poissons Ratio (z) = 0.34710 -0.17119
#
# Static dielectric constant tensor:
#      x y z
#    x 1.870270 -0.001290 0.025440 
#    y -0.001290 2.004240 -0.030820 
#    z 0.025440 -0.030820 1.917870 
# 
# From -- ./inp_files/481130.got.cif
#   From: 2010.05.17/outbox.cif.g08.bks.cpg/sg2_241_cif.got.tgz:481130.got - 2010.06.03 11:33:40.
