data_PCOD9076274
_publ_section_title
;
Structure prediction by ZEFSAII (Michael W. Deem and Ramdas Pophale) SiO2 
 PCOD9076274
Probable space group: P -1
;
_chemical_formula_sum "Si O2"
_cell_formula_units_Z 16
_cell_length_a 13.299744
_cell_length_b 12.404111
_cell_length_c 5.770554
_cell_angle_alpha 133.668194
_cell_angle_beta 82.137724
_cell_angle_gamma 99.699353
_cell_volume 678.490043
_symmetry_space_group_name_H-M "P -1"
_symmetry_group_IT_number 2
_symmetry_cell_setting 'triclinic'
loop_
_space_group_symop_operation_xyz
x,y,z
-x,-y,-z
loop_
_atom_site_type_symbol
_atom_site_label
_atom_site_fract_x
_atom_site_fract_y
_atom_site_fract_z
Si Si1 0.511393 0.825686 0.278786
Si Si2 0.536940 0.720308 0.615986
Si Si3 0.320597 0.502104 0.845198
Si Si4 0.034851 0.673078 0.189955
Si Si5 0.815282 0.408793 0.359631
Si Si6 0.761637 0.217626 0.486450
Si Si7 0.159818 0.317254 0.957205
Si Si8 0.285626 0.130513 0.932783
O O1 0.487096 0.779404 0.485875
O O2 0.500000 0.000000 0.500000
O O3 0.633059 0.820686 0.221499
O O4 0.480633 0.743493 0.915899
O O5 0.568313 0.554410 0.300396
O O6 0.649649 0.806620 0.769626
O O7 0.262580 0.495269 0.609563
O O8 0.253151 0.397115 0.893054
O O9 0.301637 0.671184 0.177740
O O10 0.116301 0.747499 0.457268
O O11 0.932072 0.746540 0.275518
O O12 0.106977 0.667150 0.936000
O O13 0.000000 0.500000 0.000000
O O14 0.749470 0.277859 0.322690
O O15 0.875079 0.536264 0.686568
O O16 0.730989 0.046675 0.296099
O O17 0.187695 0.201510 0.972388
#
# Coordination Sequence:
#
# PCOD9076274 Si02
#       8
#     2   2   2   2   2   2   2   2
#     4  10  21  39  68  97 121 152 197 244 298 368
#     4  10  20  37  66  93 117 156 197 243 293 365
#     4  10  18  35  59  85 109 158 206 245 282 360
#     4  11  20  32  55  79 110 157 213 252 294 347
#     4  10  18  33  54  76 109 155 207 247 294 352
#     4  10  23  36  52  87 119 159 199 253 308 348
#     4  11  19  34  56  80 111 155 208 250 292 349
#     4  10  23  37  59  88 124 153 195 250 313 354
#
# _framework density 23.581778
#
# number of rings (size 3 to 8) (size 9 to 14) (size 15 to 20)
#    0.750    1.000    6.250    0.750    1.750    2.500 
#    0.000    0.625    0.000    1.500    0.000    0.000 
#    0.000    0.000    0.000    0.000    0.000    0.000 
#
# Total GULP energy -89140.110803 kJ/mol
# GULP energy per Si atom -5571.256925 kJ/mol
# Density = 2.352810 g / cm^3
# Si number density = 23.581778 Si / 1000 Ang^3
#
#
#
# Elastic Constant Matrix: (Units=GPa)
#
#
# Indices 1 2 3 4 5 6 
#
# 1 63.0066 37.5895 15.5964 1.8589 18.4667 -18.2245
# 2 37.5895 148.1819 57.1084 -17.5678 7.4992 -21.3456
# 3 15.5964 57.1084 70.3065 -2.9324 -0.9295 -2.4510
# 4 1.8589 -17.5678 -2.9324 24.8794 -0.4310 -4.6644
# 5 18.4667 7.4992 -0.9295 -0.4310 31.8775 -7.6734
# 6 -18.2245 -21.3456 -2.4510 -4.6644 -7.6734 40.3725
#
#
#
# Elastic Compliance Matrix: (Units=1/GPa)
#
#
# Indices 1 2 3 4 5 6 
#
# 1 0.024251 -0.004558 -0.001817 -0.004380 -0.011718 0.005694
# 2 -0.004558 0.013442 -0.009287 0.009830 0.000727 0.005760
# 3 -0.001817 -0.009287 0.021860 -0.004626 0.002749 -0.004415
# 4 -0.004380 0.009830 -0.004626 0.048678 0.002944 0.009123
# 5 -0.011718 0.000727 0.002749 0.002944 0.038825 0.002981
# 6 0.005694 0.005760 -0.004415 0.009123 0.002981 0.031737
#
#
# Mechanical properties :
#
#
# Convention : Reuss Voigt Hill
#
# Bulk Modulus (GPa) = 35.42407 55.78706 45.60557
# Shear Modulus (GPa) = 22.77630 30.83927 26.80779
#
# Velocity S-wave (km/s) = 3.11117 3.62022 3.37531
# Velocity P-wave (km/s) = 5.28775 6.41739 5.87976
#
# Compressibility (1/GPa) = 0.02822939
#
# Stress axis : x y z
#
# Youngs Moduli (GPa) = 41.23605 74.39254 45.74598
#
# Poissons Ratio (x) = 0.33905 0.08311
# Poissons Ratio (y) = 0.18794 0.42486
# Poissons Ratio (z) = 0.07491 0.69091
#
# Static dielectric constant tensor:
#      x y z
#    x 1.976720 -0.001850 -0.001640 
#    y -0.001850 1.886260 -0.015900 
#    z -0.001640 -0.015900 1.955310 
# 
# From -- ./inp_files/44223.got.cif
#   From: 2010.05.17/outbox.cif.g08.bks.cpg/sg2_23_cif.got.tgz:44223.got - 2010.06.03 11:33:40.
