data_PCOD9076010
_publ_section_title
;
Structure prediction by ZEFSAII (Michael W. Deem and Ramdas Pophale) SiO2 
 PCOD9076010
Probable space group: P -1
;
_chemical_formula_sum "Si O2"
_cell_formula_units_Z 16
_cell_length_a 22.801388
_cell_length_b 17.423809
_cell_length_c 10.275347
_cell_angle_alpha 151.948469
_cell_angle_beta 40.511923
_cell_angle_gamma 158.946657
_cell_volume 639.331735
_symmetry_space_group_name_H-M "P -1"
_symmetry_group_IT_number 2
_symmetry_cell_setting 'triclinic'
loop_
_space_group_symop_operation_xyz
x,y,z
-x,-y,-z
loop_
_atom_site_type_symbol
_atom_site_label
_atom_site_fract_x
_atom_site_fract_y
_atom_site_fract_z
Si Si1 0.412073 0.069548 0.322455
Si Si2 0.668799 0.656073 0.910728
Si Si3 0.690688 0.710081 0.496763
Si Si4 0.848700 0.486033 0.531491
Si Si5 0.249019 0.993683 0.911698
Si Si6 0.895554 0.191850 0.639488
Si Si7 0.607525 0.339017 0.787834
Si Si8 0.499333 0.084181 0.915987
O O1 0.261401 0.967491 0.413946
O O2 0.601756 0.443008 0.583513
O O3 0.417062 0.994866 0.061927
O O4 0.395476 0.920215 0.247145
O O5 0.791980 0.977779 0.111883
O O6 0.682909 0.551982 0.849170
O O7 0.500000 0.500000 0.000000
O O8 0.500000 0.500000 0.500000
O O9 0.771672 0.911544 0.792284
O O10 0.636421 0.437008 0.176096
O O11 0.807676 0.942702 0.524640
O O12 0.801203 0.558030 0.818401
O O13 0.993581 0.728650 0.538168
O O14 0.864597 0.339573 0.358939
O O15 0.670718 0.192089 0.300867
O O16 0.452231 0.231970 0.924427
O O17 0.000000 0.500000 0.000000
O O18 0.500000 0.000000 0.500000
#
# Coordination Sequence:
#
# PCOD9076010 Si02
#       8
#     2   2   2   2   2   2   2   2
#     4  11  21  35  57  87 122 157 202 248 298 358
#     4  10  19  34  59  91 113 152 212 256 289 341
#     4  12  19  35  58  91 119 157 203 245 295 363
#     4  11  20  38  59  90 123 159 198 246 313 359
#     4  10  18  32  58  87 114 151 206 248 286 353
#     4  12  22  37  60  91 132 163 190 248 321 364
#     4   9  20  35  58  86 110 159 204 248 288 359
#     4  11  21  34  59  88 119 157 205 251 290 360
#
# _framework density 25.026130999999999
#
# number of rings (size 3 to 8) (size 9 to 14) (size 15 to 20)
#    0.000    1.250    7.500    0.000    0.000    0.000 
#    0.000    1.875    0.000   13.500    0.000    0.000 
#    0.000    0.000    0.000    0.000    0.000    0.000 
#
# Total GULP energy -89071.245133 kJ/mol
# GULP energy per Si atom -5566.952821 kJ/mol
# Density = 2.496917 g / cm^3
# Si number density = 25.026131 Si / 1000 Ang^3
#
#
#
# Elastic Constant Matrix: (Units=GPa)
#
#
# Indices 1 2 3 4 5 6 
#
# 1 121.7387 37.8340 49.2288 28.3522 -39.8748 -34.6722
# 2 37.8340 141.0667 31.5370 3.9983 -16.3837 -32.9551
# 3 49.2288 31.5370 106.5614 19.1950 -26.0305 -8.7123
# 4 28.3522 3.9983 19.1950 35.7372 -9.8536 -4.4586
# 5 -39.8748 -16.3837 -26.0305 -9.8536 50.2949 7.1045
# 6 -34.6722 -32.9551 -8.7123 -4.4586 7.1045 29.8082
#
#
#
# Elastic Compliance Matrix: (Units=1/GPa)
#
#
# Indices 1 2 3 4 5 6 
#
# 1 0.020860 0.001751 -0.004334 -0.008987 0.010113 0.021179
# 2 0.001751 0.010256 -0.002544 0.000876 0.001843 0.012324
# 3 -0.004334 -0.002544 0.012903 -0.003154 0.002523 -0.005157
# 4 -0.008987 0.000876 -0.003154 0.035894 -0.000754 -0.004858
# 5 0.010113 0.001843 0.002523 -0.000754 0.028584 0.007613
# 6 0.021179 0.012324 -0.005157 -0.004858 0.007613 0.067759
#
#
# Mechanical properties :
#
#
# Convention : Reuss Voigt Hill
#
# Bulk Modulus (GPa) = 29.61722 67.39625 48.50674
# Shear Modulus (GPa) = 25.28245 39.88586 32.58415
#
# Velocity S-wave (km/s) = 3.18188 3.99653 3.61225
# Velocity P-wave (km/s) = 5.03581 6.94876 6.06814
#
# Compressibility (1/GPa) = 0.03376414
#
# Stress axis : x y z
#
# Youngs Moduli (GPa) = 47.93828 97.50101 77.50395
#
# Poissons Ratio (x) = -0.17075 0.33594
# Poissons Ratio (y) = -0.08395 0.19719
# Poissons Ratio (z) = 0.20779 0.24807
#
# Static dielectric constant tensor:
#      x y z
#    x 1.966020 -0.204320 0.120150 
#    y -0.204320 1.639780 0.073220 
#    z 0.120150 0.073220 2.225760 
# 
# From -- ./inp_files/475456.got.cif
#   From: 2010.05.17/outbox.cif.g08.bks.cpg/sg2_238_cif.got.tgz:475456.got - 2010.06.03 11:33:40.
