data_PCOD9076427
_publ_section_title
;
Structure prediction by ZEFSAII (Michael W. Deem and Ramdas Pophale) SiO2 
 PCOD9076427
Probable space group: P -1
;
_chemical_formula_sum "Si O2"
_cell_formula_units_Z 16
_cell_length_a 15.117288
_cell_length_b 8.231966
_cell_length_c 14.456963
_cell_angle_alpha 108.936707
_cell_angle_beta 141.903348
_cell_angle_gamma 44.522489
_cell_volume 651.664632
_symmetry_space_group_name_H-M "P -1"
_symmetry_group_IT_number 2
_symmetry_cell_setting 'triclinic'
loop_
_space_group_symop_operation_xyz
x,y,z
-x,-y,-z
loop_
_atom_site_type_symbol
_atom_site_label
_atom_site_fract_x
_atom_site_fract_y
_atom_site_fract_z
Si Si1 0.638250 0.754661 0.283538
Si Si2 0.838615 0.160751 0.782729
Si Si3 0.918115 0.842426 0.509830
Si Si4 0.647994 0.398016 0.458586
Si Si5 0.996139 0.678141 0.285715
Si Si6 0.897124 0.379833 0.177198
Si Si7 0.543909 0.276739 0.045330
Si Si8 0.865550 0.790401 0.983145
O O1 0.746991 0.840671 0.377443
O O2 0.535556 0.791855 0.107044
O O3 0.862968 0.419410 0.421441
O O4 0.413942 0.959925 0.203221
O O5 0.739067 0.282221 0.618230
O O6 0.623984 0.368657 0.713442
O O7 0.025206 0.134281 0.949160
O O8 0.955503 0.864288 0.819691
O O9 0.036851 0.752330 0.691748
O O10 0.765497 0.156207 0.438711
O O11 0.746227 0.491835 0.531369
O O12 0.956066 0.523635 0.257121
O O13 0.929441 0.734285 0.133385
O O14 0.808768 0.986260 0.231515
O O15 0.627218 0.590598 0.985501
O O16 0.500000 0.500000 0.000000
O O17 0.000000 0.500000 0.000000
#
# Coordination Sequence:
#
# PCOD9076427 Si02
#       8
#     2   2   2   2   2   2   2   2
#     4   9  17  29  51  77  97 125 171 209 242 291
#     4   9  18  31  49  71  96 133 174 206 245 300
#     4   9  17  31  52  74  99 130 165 209 252 299
#     4   9  17  31  49  70  96 131 173 208 241 293
#     4  10  20  32  51  78 102 130 167 209 258 302
#     4  10  19  32  51  77 107 130 159 210 262 301
#     4  10  18  33  56  78 101 133 171 206 242 297
#     4  10  19  33  52  73 100 135 176 212 245 296
#
# _framework density 24.552503000000002
#
# number of rings (size 3 to 8) (size 9 to 14) (size 15 to 20)
#    0.000    2.500    0.000    4.875    0.000    1.500 
#    0.000    0.625    0.000   19.500    0.000    0.000 
#    0.000    0.000    0.000    0.000    0.000    0.000 
#
# Total GULP energy -89426.542601 kJ/mol
# GULP energy per Si atom -5589.158913 kJ/mol
# Density = 2.449662 g / cm^3
# Si number density = 24.552503 Si / 1000 Ang^3
#
#
#
# Elastic Constant Matrix: (Units=GPa)
#
#
# Indices 1 2 3 4 5 6 
#
# 1 61.2903 36.3168 45.4423 -15.3395 24.4555 -1.0989
# 2 36.3168 163.1057 65.9076 -27.4072 43.7557 -5.1500
# 3 45.4423 65.9076 146.8242 -17.9565 45.4797 -7.1211
# 4 -15.3395 -27.4072 -17.9565 37.4704 -10.7501 7.4214
# 5 24.4555 43.7557 45.4797 -10.7501 58.4153 -0.5311
# 6 -1.0989 -5.1500 -7.1211 7.4214 -0.5311 32.9977
#
#
#
# Elastic Compliance Matrix: (Units=1/GPa)
#
#
# Indices 1 2 3 4 5 6 
#
# 1 0.023728 -0.001323 -0.004872 0.005578 -0.004139 -0.001789
# 2 -0.001323 0.008903 -0.001892 0.003942 -0.003916 -0.000013
# 3 -0.004872 -0.001892 0.010780 0.000024 -0.004915 0.001784
# 4 0.005578 0.003942 0.000024 0.033417 0.000782 -0.006697
# 5 -0.004139 -0.003916 -0.004915 0.000782 0.025741 -0.001571
# 6 -0.001789 -0.000013 0.001784 -0.006697 -0.001571 0.032110
#
#
# Mechanical properties :
#
#
# Convention : Reuss Voigt Hill
#
# Bulk Modulus (GPa) = 36.71757 74.06152 55.38954
# Shear Modulus (GPa) = 31.26317 40.68024 35.97171
#
# Velocity S-wave (km/s) = 3.57223 4.07488 3.83181
# Velocity P-wave (km/s) = 5.65700 7.23668 6.49504
#
# Compressibility (1/GPa) = 0.02723492
#
# Stress axis : x y z
#
# Youngs Moduli (GPa) = 42.14488 112.32364 92.76209
#
# Poissons Ratio (x) = 0.14864 0.45197
# Poissons Ratio (y) = 0.05577 0.17553
# Poissons Ratio (z) = 0.20534 0.21255
#
# Static dielectric constant tensor:
#      x y z
#    x 1.983730 -0.008460 -0.032730 
#    y -0.008460 1.971910 -0.100540 
#    z -0.032730 -0.100540 2.011370 
# 
# From -- ./inp_files/256911.got.cif
#   From: 2010.05.17/outbox.cif.g08.bks.cpg/sg2_129_cif.got.tgz:256911.got - 2010.06.03 11:33:40.
