data_PCOD9076021
_publ_section_title
;
Structure prediction by ZEFSAII (Michael W. Deem and Ramdas Pophale) SiO2 
 PCOD9076021
Probable space group: P -1
;
_chemical_formula_sum "Si O2"
_cell_formula_units_Z 16
_cell_length_a 5.610554
_cell_length_b 9.314753
_cell_length_c 22.846768
_cell_angle_alpha 137.850059
_cell_angle_beta 125.322679
_cell_angle_gamma 66.687776
_cell_volume 652.569963
_symmetry_space_group_name_H-M "P -1"
_symmetry_group_IT_number 2
_symmetry_cell_setting 'triclinic'
loop_
_space_group_symop_operation_xyz
x,y,z
-x,-y,-z
loop_
_atom_site_type_symbol
_atom_site_label
_atom_site_fract_x
_atom_site_fract_y
_atom_site_fract_z
Si Si1 0.307739 0.077359 0.286365
Si Si2 0.699954 0.567981 0.812175
Si Si3 0.800812 0.295009 0.926426
Si Si4 0.430719 0.951854 0.085089
Si Si5 0.670716 0.437957 0.564321
Si Si6 0.829304 0.107380 0.300786
Si Si7 0.271753 0.410355 0.600391
Si Si8 0.387048 0.553389 0.885942
O O1 0.156998 0.899936 0.169517
O O2 0.241870 0.316545 0.326004
O O3 0.649516 0.049822 0.316121
O O4 0.157947 0.046163 0.318267
O O5 0.487874 0.460618 0.700104
O O6 0.559445 0.497670 0.833985
O O7 0.034633 0.533671 0.830051
O O8 0.665059 0.823055 0.881947
O O9 0.820033 0.199426 0.964179
O O10 0.483026 0.386409 0.898052
O O11 0.000000 0.500000 0.000000
O O12 0.645006 0.017421 0.190477
O O13 0.508235 0.791890 0.995951
O O14 0.500000 0.500000 0.500000
O O15 0.459970 0.322012 0.547249
O O16 0.959583 0.318579 0.552639
O O17 0.823638 0.363313 0.372238
#
# Coordination Sequence:
#
# PCOD9076021 Si02
#       8
#     2   2   2   2   2   2   2   2
#     4   9  18  32  49  76 111 143 176 223 285 338
#     4  11  24  40  58  81 116 160 198 240 293 348
#     4  11  23  39  59  84 119 161 201 246 293 339
#     4  10  21  38  57  79 112 156 204 253 292 330
#     4  10  18  32  58  91 114 136 182 245 296 341
#     4   8  16  29  50  72 100 142 180 218 273 329
#     4   9  18  33  52  78 114 146 174 221 292 352
#     4  12  24  37  55  85 114 152 206 250 285 343
#
# _framework density 24.518445
#
# number of rings (size 3 to 8) (size 9 to 14) (size 15 to 20)
#    0.000    2.000    0.000    4.500    0.000   10.000 
#    0.000    0.000    0.000    0.000    0.000    5.250 
#    0.000    0.000    0.000    0.000    0.000    0.000 
#
# Total GULP energy -89292.182825 kJ/mol
# GULP energy per Si atom -5580.761427 kJ/mol
# Density = 2.446264 g / cm^3
# Si number density = 24.518445 Si / 1000 Ang^3
#
#
#
# Elastic Constant Matrix: (Units=GPa)
#
#
# Indices 1 2 3 4 5 6 
#
# 1 235.8865 11.2769 27.4992 -19.3772 -16.5553 3.7719
# 2 11.2769 41.5665 6.1604 -16.8375 0.9861 2.5830
# 3 27.4992 6.1604 88.3895 -22.8887 -7.2796 -4.3332
# 4 -19.3772 -16.8375 -22.8887 20.6504 0.5081 0.5978
# 5 -16.5553 0.9861 -7.2796 0.5081 16.6676 -12.6279
# 6 3.7719 2.5830 -4.3332 0.5978 -12.6279 28.5064
#
#
#
# Elastic Compliance Matrix: (Units=1/GPa)
#
#
# Indices 1 2 3 4 5 6 
#
# 1 0.005040 0.000439 0.000447 0.005354 0.006688 0.002212
# 2 0.000439 0.039989 0.007156 0.041200 -0.004034 -0.005245
# 3 0.000447 0.007156 0.019088 0.026869 0.013205 0.007480
# 4 0.005354 0.041200 0.026869 0.116401 0.013467 0.003167
# 5 0.006688 -0.004034 0.013205 0.013467 0.110100 0.049978
# 6 0.002212 -0.005245 0.007480 0.003167 0.049978 0.058472
#
#
# Mechanical properties :
#
#
# Convention : Reuss Voigt Hill
#
# Bulk Modulus (GPa) = 12.46870 50.63506 31.55188
# Shear Modulus (GPa) = 13.89896 34.55862 24.22879
#
# Velocity S-wave (km/s) = 2.38350 3.75840 3.14695
# Velocity P-wave (km/s) = 3.55967 6.28735 5.10891
#
# Compressibility (1/GPa) = 0.08020080
#
# Stress axis : x y z
#
# Youngs Moduli (GPa) = 198.41077 25.00705 52.38908
#
# Poissons Ratio (x) = -0.01098 -0.02342
# Poissons Ratio (y) = -0.08715 -0.37488
# Poissons Ratio (z) = -0.08871 -0.17894
#
# Static dielectric constant tensor:
#      x y z
#    x 2.126460 -0.007130 0.047200 
#    y -0.007130 1.874540 0.018140 
#    z 0.047200 0.018140 2.045340 
# 
# From -- ./inp_files/405538.got.cif
#   From: 2010.05.17/outbox.cif.g08.bks.cpg/sg2_203_cif.got.tgz:405538.got - 2010.06.03 11:33:40.
