data_PCOD9076214
_publ_section_title
;
Structure prediction by ZEFSAII (Michael W. Deem and Ramdas Pophale) SiO2 
 PCOD9076214
Probable space group: P -1
;
_chemical_formula_sum "Si O2"
_cell_formula_units_Z 14
_cell_length_a 15.787103
_cell_length_b 7.025800
_cell_length_c 9.242629
_cell_angle_alpha 123.784239
_cell_angle_beta 39.736860
_cell_angle_gamma 110.895990
_cell_volume 539.809262
_symmetry_space_group_name_H-M "P -1"
_symmetry_group_IT_number 2
_symmetry_cell_setting 'triclinic'
loop_
_space_group_symop_operation_xyz
x,y,z
-x,-y,-z
loop_
_atom_site_type_symbol
_atom_site_label
_atom_site_fract_x
_atom_site_fract_y
_atom_site_fract_z
Si Si1 0.670496 0.094394 0.195762
Si Si2 0.877725 0.255647 0.177756
Si Si3 0.470533 0.085133 0.241342
Si Si4 0.175474 0.227169 0.679221
Si Si5 0.848169 0.966414 0.681076
Si Si6 0.504405 0.522899 0.237529
Si Si7 0.724389 0.518350 0.721169
O O1 0.796180 0.066119 0.131037
O O2 0.570552 0.952808 0.170819
O O3 0.560889 0.246210 0.500890
O O4 0.758562 0.163082 0.971372
O O5 0.835313 0.503536 0.250232
O O6 0.826797 0.310783 0.430602
O O7 0.037224 0.208386 0.933807
O O8 0.319099 0.130533 0.515214
O O9 0.505459 0.340809 0.286929
O O10 0.500000 0.000000 0.000000
O O11 0.183993 0.072637 0.458066
O O12 0.811778 0.730210 0.702692
O O13 0.000000 0.000000 0.500000
O O14 0.395577 0.465508 0.234905
O O15 0.648407 0.490154 0.958209
#
# Coordination Sequence:
#
# PCOD9076214 Si02
#       7
#     2   2   2   2   2   2   2
#     4  11  20  31  55  84 108 143 179 225 272 322
#     4   9  18  33  57  78 103 142 185 226 266 314
#     4  12  21  34  55  83 114 141 177 228 276 324
#     4  10  18  33  52  82 106 138 182 223 274 307
#     4  11  19  32  55  84 110 138 186 230 267 311
#     4  10  20  35  54  78 113 144 179 223 277 324
#     4   9  19  36  54  79 111 143 180 228 272 319
#
# _framework density 25.935088
#
# number of rings (size 3 to 8) (size 9 to 14) (size 15 to 20)
#    0.000    1.714    7.143    0.429    0.000    0.571 
#    0.000    1.429    0.000    4.286    0.000    0.000 
#    0.000    0.000    0.000    0.000    0.000    0.000 
#
# Total GULP energy -78024.780374 kJ/mol
# GULP energy per Si atom -5573.198598 kJ/mol
# Density = 2.587606 g / cm^3
# Si number density = 25.935088 Si / 1000 Ang^3
#
#
#
# Elastic Constant Matrix: (Units=GPa)
#
#
# Indices 1 2 3 4 5 6 
#
# 1 72.7327 43.6387 54.5278 -9.2635 -4.2196 22.6900
# 2 43.6387 91.4537 60.9845 -23.5874 10.0954 14.7697
# 3 54.5278 60.9845 251.0897 -49.7651 1.1802 16.0814
# 4 -9.2635 -23.5874 -49.7651 52.8794 9.9332 3.6320
# 5 -4.2196 10.0954 1.1802 9.9332 50.2430 -4.3224
# 6 22.6900 14.7697 16.0814 3.6320 -4.3224 36.8972
#
#
#
# Elastic Compliance Matrix: (Units=1/GPa)
#
#
# Indices 1 2 3 4 5 6 
#
# 1 0.024267 -0.009203 -0.003005 -0.002745 0.003707 -0.009225
# 2 -0.009203 0.019039 -0.000939 0.007387 -0.006296 -0.003018
# 3 -0.003005 -0.000939 0.005907 0.004918 -0.001259 -0.000982
# 4 -0.002745 0.007387 0.004918 0.028357 -0.008051 -0.007147
# 5 0.003707 -0.006296 -0.001259 -0.008051 0.023474 0.004332
# 6 -0.009225 -0.003018 -0.000982 -0.007147 0.004332 0.035622
#
#
# Mechanical properties :
#
#
# Convention : Reuss Voigt Hill
#
# Bulk Modulus (GPa) = 43.63102 81.50867 62.56985
# Shear Modulus (GPa) = 29.30849 45.07890 37.19369
#
# Velocity S-wave (km/s) = 3.36530 4.17363 3.79107
# Velocity P-wave (km/s) = 5.65332 7.39741 6.58338
#
# Compressibility (1/GPa) = 0.02291948
#
# Stress axis : x y z
#
# Youngs Moduli (GPa) = 41.20851 52.52274 169.29601
#
# Poissons Ratio (x) = 0.48334 0.50881
# Poissons Ratio (y) = 0.37922 0.15894
# Poissons Ratio (z) = 0.12385 0.04931
#
# Static dielectric constant tensor:
#      x y z
#    x 2.108590 0.039610 -0.030350 
#    y 0.039610 2.198180 0.070420 
#    z -0.030350 0.070420 2.042560 
# 
# From -- ./inp_files/268982.got.cif
#   From: 2010.05.17/outbox.cif.g08.bks.cpg/sg2_135_cif.got.tgz:268982.got - 2010.06.03 11:33:40.
