data_PCOD9076305
_publ_section_title
;
Structure prediction by ZEFSAII (Michael W. Deem and Ramdas Pophale) SiO2 
 PCOD9076305
Probable space group: P -1
;
_chemical_formula_sum "Si O2"
_cell_formula_units_Z 14
_cell_length_a 15.947283
_cell_length_b 7.921137
_cell_length_c 11.170595
_cell_angle_alpha 140.062607
_cell_angle_beta 54.532710
_cell_angle_gamma 103.333181
_cell_volume 672.950161
_symmetry_space_group_name_H-M "P -1"
_symmetry_group_IT_number 2
_symmetry_cell_setting 'triclinic'
loop_
_space_group_symop_operation_xyz
x,y,z
-x,-y,-z
loop_
_atom_site_type_symbol
_atom_site_label
_atom_site_fract_x
_atom_site_fract_y
_atom_site_fract_z
Si Si1 0.958211 0.258827 0.948190
Si Si2 0.525263 0.845502 0.734889
Si Si3 0.552824 0.602438 0.333449
Si Si4 0.775832 0.700089 0.478111
Si Si5 0.800485 0.217470 0.844777
Si Si6 0.427322 0.504317 0.179222
Si Si7 0.811964 0.148714 0.530727
O O1 0.883395 0.217580 0.880633
O O2 0.878511 0.395334 0.202421
O O3 0.074736 0.977568 0.709162
O O4 0.000000 0.500000 0.000000
O O5 0.527667 0.839414 0.584864
O O6 0.454435 0.670733 0.740570
O O7 0.656035 0.685729 0.578148
O O8 0.475090 0.171418 0.997455
O O9 0.459365 0.679163 0.349858
O O10 0.677947 0.474616 0.106218
O O11 0.791394 0.907451 0.678579
O O12 0.773559 0.893920 0.466891
O O13 0.837752 0.248047 0.694313
O O14 0.296476 0.622743 0.320007
O O15 0.500000 0.500000 0.000000
#
# Coordination Sequence:
#
# PCOD9076305 Si02
#       7
#     2   2   2   2   2   2   2
#     4  10  19  33  53  79 113 147 183 230 274 331
#     4  11  22  38  56  87 111 155 194 220 287 334
#     4  11  23  36  59  84 114 153 191 231 273 346
#     4   9  18  32  55  80 107 143 185 231 265 328
#     4  10  18  33  54  82 106 143 187 234 267 327
#     4  12  20  38  54  86 123 143 179 237 296 331
#     4   9  20  33  50  82 117 140 179 223 288 331
#
# _framework density 20.803919
#
# number of rings (size 3 to 8) (size 9 to 14) (size 15 to 20)
#    0.857    0.857    5.714    0.857    0.000    0.571 
#    5.143    0.000    0.000    1.714    0.000    0.000 
#    0.000    0.000    0.000    0.000    0.000    0.000 
#
# Total GULP energy -78073.217240 kJ/mol
# GULP energy per Si atom -5576.658374 kJ/mol
# Density = 2.075657 g / cm^3
# Si number density = 20.803919 Si / 1000 Ang^3
#
#
#
# Elastic Constant Matrix: (Units=GPa)
#
#
# Indices 1 2 3 4 5 6 
#
# 1 102.7212 -11.5317 36.6157 1.5908 9.6619 2.6058
# 2 -11.5317 26.0098 -2.1543 -0.8651 -5.6992 1.4501
# 3 36.6157 -2.1543 104.4329 -12.5523 -11.9027 -3.2474
# 4 1.5908 -0.8651 -12.5523 12.9194 -3.0364 1.2451
# 5 9.6619 -5.6992 -11.9027 -3.0364 45.5169 -2.9682
# 6 2.6058 1.4501 -3.2474 1.2451 -2.9682 19.4596
#
#
#
# Elastic Compliance Matrix: (Units=1/GPa)
#
#
# Indices 1 2 3 4 5 6 
#
# 1 0.012993 0.004178 -0.006046 -0.007953 -0.004558 -0.003247
# 2 0.004178 0.041602 0.000267 0.003882 0.004443 -0.003186
# 3 -0.006046 0.000267 0.014446 0.015991 0.006367 0.003148
# 4 -0.007953 0.003882 0.015991 0.097265 0.012790 -0.000828
# 5 -0.004558 0.004443 0.006367 0.012790 0.026308 0.004536
# 6 -0.003247 -0.003186 0.003148 -0.000828 0.004536 0.053331
#
#
# Mechanical properties :
#
#
# Convention : Reuss Voigt Hill
#
# Bulk Modulus (GPa) = 15.18829 31.00259 23.09544
# Shear Modulus (GPa) = 18.44383 29.59480 24.01931
#
# Velocity S-wave (km/s) = 2.98074 3.77577 3.40156
# Velocity P-wave (km/s) = 4.37755 5.82608 5.15297
#
# Compressibility (1/GPa) = 0.06584022
#
# Stress axis : x y z
#
# Youngs Moduli (GPa) = 76.96186 24.03743 69.22134
#
# Poissons Ratio (x) = -0.10042 0.41850
# Poissons Ratio (y) = -0.32153 -0.01851
# Poissons Ratio (z) = 0.46530 -0.00643
#
# Static dielectric constant tensor:
#      x y z
#    x 1.719200 -0.015000 0.020970 
#    y -0.015000 1.754110 -0.012850 
#    z 0.020970 -0.012850 1.788650 
# 
# From -- ./inp_files/404119.got.cif
#   From: 2010.05.17/outbox.cif.g08.bks.cpg/sg2_203_cif.got.tgz:404119.got - 2010.06.03 11:33:40.
