data_PCOD9076324
_publ_section_title
;
Structure prediction by ZEFSAII (Michael W. Deem and Ramdas Pophale) SiO2 
 PCOD9076324
Probable space group: P -1
;
_chemical_formula_sum "Si O2"
_cell_formula_units_Z 14
_cell_length_a 14.139670
_cell_length_b 11.341179
_cell_length_c 11.524888
_cell_angle_alpha 124.139372
_cell_angle_beta 36.289932
_cell_angle_gamma 146.669324
_cell_volume 564.111470
_symmetry_space_group_name_H-M "P -1"
_symmetry_group_IT_number 2
_symmetry_cell_setting 'triclinic'
loop_
_space_group_symop_operation_xyz
x,y,z
-x,-y,-z
loop_
_atom_site_type_symbol
_atom_site_label
_atom_site_fract_x
_atom_site_fract_y
_atom_site_fract_z
Si Si1 0.624668 0.316125 0.113334
Si Si2 0.413618 0.582700 0.558406
Si Si3 0.816603 0.614086 0.723525
Si Si4 0.462889 0.105859 0.760181
Si Si5 0.214795 0.936150 0.679819
Si Si6 0.710219 0.175679 0.766811
Si Si7 0.238673 0.261377 0.372420
O O1 0.708911 0.409134 0.212060
O O2 0.501575 0.367880 0.205285
O O3 0.385767 0.038841 0.204497
O O4 0.797514 0.352952 0.871843
O O5 0.500000 0.500000 0.500000
O O6 0.630743 0.831829 0.417204
O O7 0.236393 0.402983 0.530676
O O8 0.585844 0.345795 0.788603
O O9 0.772191 0.714646 0.738698
O O10 0.053363 0.692747 0.475926
O O11 0.926910 0.734460 0.804637
O O12 0.234772 0.963327 0.814290
O O13 0.467344 0.055134 0.860811
O O14 0.645518 0.115387 0.521896
O O15 0.000000 0.000000 0.500000
#
# Coordination Sequence:
#
# PCOD9076324 Si02
#       7
#     2   2   2   2   2   2   2
#     4  10  20  35  57  82 114 150 179 233 288 333
#     4  10  18  33  56  82 108 147 187 230 278 329
#     4  11  19  35  60  85 107 150 193 233 271 329
#     4  10  20  33  57  84 111 151 189 230 275 331
#     4  10  18  33  54  86 110 138 195 236 269 324
#     4  10  19  35  57  81 117 147 182 228 290 332
#     4  11  20  35  58  84 111 145 195 234 276 333
#
# _framework density 24.817789999999999
#
# number of rings (size 3 to 8) (size 9 to 14) (size 15 to 20)
#    0.000    1.714    5.714    2.571    0.000    0.000 
#    0.000    1.429   12.571    0.857    0.000    0.000 
#    0.000    0.000    0.000    0.000    0.000    0.000 
#
# Total GULP energy -78163.893391 kJ/mol
# GULP energy per Si atom -5583.135242 kJ/mol
# Density = 2.476130 g / cm^3
# Si number density = 24.817790 Si / 1000 Ang^3
#
#
#
# Elastic Constant Matrix: (Units=GPa)
#
#
# Indices 1 2 3 4 5 6 
#
# 1 138.9065 33.1351 23.3588 11.5365 18.7936 9.8090
# 2 33.1351 109.2743 20.8462 17.5873 9.0614 7.0788
# 3 23.3588 20.8462 67.9020 16.4754 13.5449 9.7621
# 4 11.5365 17.5873 16.4754 19.8877 3.3113 14.1871
# 5 18.7936 9.0614 13.5449 3.3113 20.8849 9.8923
# 6 9.8090 7.0788 9.7621 14.1871 9.8923 48.4624
#
#
#
# Elastic Compliance Matrix: (Units=1/GPa)
#
#
# Indices 1 2 3 4 5 6 
#
# 1 0.008759 -0.001621 -0.000689 -0.002453 -0.006666 0.000681
# 2 -0.001621 0.011396 -0.000273 -0.010035 -0.002770 0.002221
# 3 -0.000689 -0.000273 0.021119 -0.017317 -0.011828 0.003409
# 4 -0.002453 -0.010035 -0.017317 0.089395 0.014870 -0.023755
# 5 -0.006666 -0.002770 -0.011828 0.014870 0.066972 -0.013887
# 6 0.000681 0.002221 0.003409 -0.023755 -0.013887 0.029274
#
#
# Mechanical properties :
#
#
# Convention : Reuss Voigt Hill
#
# Bulk Modulus (GPa) = 27.69465 52.30699 40.00082
# Shear Modulus (GPa) = 20.48203 33.76318 27.12261
#
# Velocity S-wave (km/s) = 2.87591 3.69242 3.30944
# Velocity P-wave (km/s) = 4.71288 6.26903 5.54581
#
# Compressibility (1/GPa) = 0.03610806
#
# Stress axis : x y z
#
# Youngs Moduli (GPa) = 114.16717 87.75202 47.35136
#
# Poissons Ratio (x) = 0.14227 0.03260
# Poissons Ratio (y) = 0.18509 0.01293
# Poissons Ratio (z) = 0.07861 0.02396
#
# Static dielectric constant tensor:
#      x y z
#    x 2.020310 -0.006510 0.017650 
#    y -0.006510 1.978190 0.017120 
#    z 0.017650 0.017120 2.052640 
# 
# From -- ./inp_files/214007.got.cif
#   From: 2010.05.17/outbox.cif.g08.bks.cpg/sg2_108_cif.got.tgz:214007.got - 2010.06.03 11:33:40.
