data_PCOD9076280
_publ_section_title
;
Structure prediction by ZEFSAII (Michael W. Deem and Ramdas Pophale) SiO2 
 PCOD9076280
Probable space group: P -1
;
_chemical_formula_sum "Si O2"
_cell_formula_units_Z 16
_cell_length_a 20.137386
_cell_length_b 17.153936
_cell_length_c 7.856865
_cell_angle_alpha 42.382585
_cell_angle_beta 36.123522
_cell_angle_gamma 32.444663
_cell_volume 844.324628
_symmetry_space_group_name_H-M "P -1"
_symmetry_group_IT_number 2
_symmetry_cell_setting 'triclinic'
loop_
_space_group_symop_operation_xyz
x,y,z
-x,-y,-z
loop_
_atom_site_type_symbol
_atom_site_label
_atom_site_fract_x
_atom_site_fract_y
_atom_site_fract_z
Si Si1 0.518515 0.776062 0.545377
Si Si2 0.708747 0.780316 0.893993
Si Si3 0.933494 0.658087 0.122276
Si Si4 0.778814 0.482605 0.109582
Si Si5 0.010156 0.642695 0.594737
Si Si6 0.309351 0.503520 0.103781
Si Si7 0.635725 0.935763 0.443014
Si Si8 0.512597 0.561111 0.700559
O O1 0.617332 0.637184 0.693711
O O2 0.474743 0.717116 0.578244
O O3 0.385338 0.917560 0.691652
O O4 0.608678 0.823672 0.195622
O O5 0.851284 0.766074 0.650121
O O6 0.635169 0.865695 0.734643
O O7 0.763675 0.615114 0.018773
O O8 0.779025 0.805316 0.257968
O O9 0.938274 0.514516 0.338351
O O10 0.983024 0.654089 0.834235
O O11 0.050158 0.641192 0.035617
O O12 0.676457 0.459872 0.459084
O O13 0.711212 0.532763 0.982974
O O14 0.147797 0.634387 0.290544
O O15 0.406415 0.556716 0.808545
O O16 0.500000 0.000000 0.500000
O O17 0.500000 0.500000 0.000000
#
# Coordination Sequence:
#
# PCOD9076280 Si02
#       8
#     2   2   2   2   2   2   2   2
#     4  10  21  35  51  75 109 141 173 211 256 316
#     4  10  20  34  53  77 106 140 169 209 265 313
#     4  10  20  33  52  78 106 137 168 214 267 309
#     4  10  19  33  55  82 105 128 174 223 260 302
#     4  10  18  33  54  77 105 134 174 215 258 309
#     4  11  19  33  57  80 102 134 177 223 259 295
#     4  12  22  33  51  79 112 139 169 208 262 320
#     4   9  19  35  55  76 102 138 176 217 258 298
#
# _framework density 18.950056
#
# number of rings (size 3 to 8) (size 9 to 14) (size 15 to 20)
#    0.000    1.750    0.000    8.250    0.000    2.000 
#    0.000    0.000    0.000    9.750    0.000    5.250 
#    0.000    0.000    0.000    0.000    0.000    0.000 
#
# Total GULP energy -89135.173277 kJ/mol
# GULP energy per Si atom -5570.948330 kJ/mol
# Density = 1.890692 g / cm^3
# Si number density = 18.950056 Si / 1000 Ang^3
#
#
#
# Elastic Constant Matrix: (Units=GPa)
#
#
# Indices 1 2 3 4 5 6 
#
# 1 77.5538 23.0808 26.9019 13.0846 -6.6824 -14.0371
# 2 23.0808 81.7545 32.4164 27.1724 -8.1684 -0.4353
# 3 26.9019 32.4164 79.5226 13.7692 -10.1323 -13.1217
# 4 13.0846 27.1724 13.7692 18.3718 -6.4726 3.4261
# 5 -6.6824 -8.1684 -10.1323 -6.4726 33.9575 1.5721
# 6 -14.0371 -0.4353 -13.1217 3.4261 1.5721 30.5822
#
#
#
# Elastic Compliance Matrix: (Units=1/GPa)
#
#
# Indices 1 2 3 4 5 6 
#
# 1 0.017246 0.000253 -0.002432 -0.012379 -0.000013 0.008263
# 2 0.000253 0.025660 -0.004021 -0.036387 -0.002050 0.002937
# 3 -0.002432 -0.004021 0.017487 -0.005885 0.002332 0.006869
# 4 -0.012379 -0.036387 -0.005885 0.130554 0.013052 -0.024022
# 5 -0.000013 -0.002050 0.002332 0.013052 0.032236 -0.002154
# 6 0.008263 0.002937 0.006869 -0.024022 -0.002154 0.042282
#
#
# Mechanical properties :
#
#
# Convention : Reuss Voigt Hill
#
# Bulk Modulus (GPa) = 20.83732 44.84767 32.84250
# Shear Modulus (GPa) = 17.01472 27.01111 22.01291
#
# Velocity S-wave (km/s) = 2.99970 3.77952 3.41196
# Velocity P-wave (km/s) = 4.79764 6.53942 5.73504
#
# Compressibility (1/GPa) = 0.04799081
#
# Stress axis : x y z
#
# Youngs Moduli (GPa) = 57.98527 38.97172 57.18689
#
# Poissons Ratio (x) = -0.00984 0.13907
# Poissons Ratio (y) = -0.01464 0.22997
# Poissons Ratio (z) = 0.14101 0.15672
#
# Static dielectric constant tensor:
#      x y z
#    x 1.719360 -0.003920 -0.019110 
#    y -0.003920 1.688000 0.034930 
#    z -0.019110 0.034930 1.715070 
# 
# From -- ./inp_files/348791.got.cif
#   From: 2010.05.17/outbox.cif.g08.bks.cpg/sg2_175_cif.got.tgz:348791.got - 2010.06.03 11:33:40.
