data_PCOD9076272
_publ_section_title
;
Structure prediction by ZEFSAII (Michael W. Deem and Ramdas Pophale) SiO2 
 PCOD9076272
Probable space group: P -1
;
_chemical_formula_sum "Si O2"
_cell_formula_units_Z 16
_cell_length_a 23.175293
_cell_length_b 12.560043
_cell_length_c 8.349649
_cell_angle_alpha 48.499082
_cell_angle_beta 48.993523
_cell_angle_gamma 27.545369
_cell_volume 825.093970
_symmetry_space_group_name_H-M "P -1"
_symmetry_group_IT_number 2
_symmetry_cell_setting 'triclinic'
loop_
_space_group_symop_operation_xyz
x,y,z
-x,-y,-z
loop_
_atom_site_type_symbol
_atom_site_label
_atom_site_fract_x
_atom_site_fract_y
_atom_site_fract_z
Si Si1 0.121670 0.121452 0.824711
Si Si2 0.702191 0.962636 0.585293
Si Si3 0.079782 0.347766 0.229726
Si Si4 0.280454 0.354602 0.330370
Si Si5 0.238501 0.326252 0.796892
Si Si6 0.030312 0.864579 0.736202
Si Si7 0.992363 0.834878 0.336962
Si Si8 0.477902 0.906310 0.006791
O O1 0.261410 0.964207 0.674011
O O2 0.041976 0.379216 0.766684
O O3 0.055152 0.153908 0.756005
O O4 0.093549 0.044466 0.084089
O O5 0.817521 0.789321 0.676610
O O6 0.707566 0.808692 0.629849
O O7 0.573206 0.149875 0.737858
O O8 0.849844 0.684273 0.017221
O O9 0.042804 0.237718 0.399124
O O10 0.279974 0.309991 0.561088
O O11 0.143831 0.623638 0.273179
O O12 0.394013 0.289598 0.134692
O O13 0.146985 0.584145 0.777976
O O14 0.362088 0.119783 0.887277
O O15 0.000000 0.000000 0.500000
O O16 0.062885 0.931843 0.745529
O O17 0.500000 0.000000 0.000000
#
# Coordination Sequence:
#
# PCOD9076272 Si02
#       8
#     2   2   2   2   2   2   2   2
#     4  10  18  33  54  75 109 138 177 218 261 314
#     4   9  16  32  52  79  99 134 174 226 259 299
#     4   9  17  31  54  77 107 133 178 222 259 311
#     4  11  18  30  55  80 110 131 179 216 267 304
#     4  10  21  35  52  80 111 142 173 215 266 314
#     4  11  23  34  48  81 118 142 166 210 271 329
#     4  11  19  33  52  84 107 142 171 214 270 321
#     4   9  20  34  55  81 101 135 184 232 255 294
#
# _framework density 19.391731
#
# number of rings (size 3 to 8) (size 9 to 14) (size 15 to 20)
#    0.000    2.000    3.750    1.500    1.750    1.500 
#    0.000    0.000    0.000    0.750    9.750   12.250 
#    0.000    0.000    0.000    0.000    0.000    0.000 
#
# Total GULP energy -89256.096347 kJ/mol
# GULP energy per Si atom -5578.506022 kJ/mol
# Density = 1.934759 g / cm^3
# Si number density = 19.391731 Si / 1000 Ang^3
#
#
#
# Elastic Constant Matrix: (Units=GPa)
#
#
# Indices 1 2 3 4 5 6 
#
# 1 46.9481 25.3520 18.2837 12.0767 -8.5994 -1.0123
# 2 25.3520 57.7832 43.1875 27.8743 -15.8362 -6.4064
# 3 18.2837 43.1875 153.9414 43.9514 -24.9886 -4.3208
# 4 12.0767 27.8743 43.9514 36.8726 -2.3254 -7.0647
# 5 -8.5994 -15.8362 -24.9886 -2.3254 31.9392 1.6275
# 6 -1.0123 -6.4064 -4.3208 -7.0647 1.6275 24.0753
#
#
#
# Elastic Compliance Matrix: (Units=1/GPa)
#
#
# Indices 1 2 3 4 5 6 
#
# 1 0.028145 -0.011822 0.000675 -0.001404 0.002265 -0.002406
# 2 -0.011822 0.037791 -0.000377 -0.023049 0.013489 0.001816
# 3 0.000675 -0.000377 0.011787 -0.013962 0.008334 -0.002617
# 4 -0.001404 -0.023049 -0.013962 0.062559 -0.018732 0.010926
# 5 0.002265 0.013489 0.008334 -0.018732 0.043931 -0.003286
# 6 -0.002406 0.001816 -0.002617 0.010926 -0.003286 0.044877
#
#
# Mechanical properties :
#
#
# Convention : Reuss Voigt Hill
#
# Bulk Modulus (GPa) = 18.28954 48.03546 33.16250
# Shear Modulus (GPa) = 18.49362 30.03406 24.26384
#
# Velocity S-wave (km/s) = 3.09153 3.93976 3.54113
# Velocity P-wave (km/s) = 4.71121 6.74689 5.81876
#
# Compressibility (1/GPa) = 0.05467607
#
# Stress axis : x y z
#
# Youngs Moduli (GPa) = 35.53019 26.46108 84.83844
#
# Poissons Ratio (x) = 0.31281 -0.05723
# Poissons Ratio (y) = 0.42002 0.03196
# Poissons Ratio (z) = -0.02397 0.00997
#
# Static dielectric constant tensor:
#      x y z
#    x 1.697330 0.007440 0.016580 
#    y 0.007440 1.648820 0.044560 
#    z 0.016580 0.044560 1.775870 
# 
# From -- ./inp_files/345945.got.cif
#   From: 2010.05.17/outbox.cif.g08.bks.cpg/sg2_173_cif.got.tgz:345945.got - 2010.06.03 11:33:40.
