data_PCOD9076944
_publ_section_title
;
Structure prediction by ZEFSAII (Michael W. Deem and Ramdas Pophale) SiO2 
 PCOD9076944
Probable space group: P -1
;
_chemical_formula_sum "Si O2"
_cell_formula_units_Z 14
_cell_length_a 17.455204
_cell_length_b 28.933734
_cell_length_c 9.299975
_cell_angle_alpha 148.775886
_cell_angle_beta 149.166814
_cell_angle_gamma 19.376558
_cell_volume 770.071591
_symmetry_space_group_name_H-M "P -1"
_symmetry_group_IT_number 2
_symmetry_cell_setting 'triclinic'
loop_
_space_group_symop_operation_xyz
x,y,z
-x,-y,-z
loop_
_atom_site_type_symbol
_atom_site_label
_atom_site_fract_x
_atom_site_fract_y
_atom_site_fract_z
Si Si1 0.267376 0.824137 0.063278
Si Si2 0.826452 0.461944 0.684372
Si Si3 0.744544 0.706554 0.263401
Si Si4 0.230108 0.006714 0.283841
Si Si5 0.089738 0.260679 0.853668
Si Si6 0.248933 0.334004 0.497392
Si Si7 0.367009 0.614162 0.460563
O O1 0.232533 0.938922 0.245840
O O2 0.516383 0.712368 0.255098
O O3 0.307525 0.738511 0.765222
O O4 0.025909 0.901297 0.956113
O O5 0.571825 0.529392 0.444952
O O6 0.029466 0.349612 0.593409
O O7 0.952085 0.378025 0.816120
O O8 0.760826 0.597373 0.942505
O O9 0.479186 0.870973 0.241584
O O10 0.766769 0.691055 0.430016
O O11 0.211367 0.116961 0.597516
O O12 0.883111 0.320542 0.789473
O O13 0.266636 0.242944 0.175638
O O14 0.000000 0.500000 0.500000
O O15 0.500000 0.500000 0.500000
#
# Coordination Sequence:
#
# PCOD9076944 Si02
#       7
#     2   2   2   2   2   2   2
#     4   9  17  30  51  73 107 131 174 209 256 298
#     4  10  18  34  51  79  99 140 173 214 245 310
#     4  10  20  32  55  74 107 134 175 206 261 304
#     4   9  18  33  50  78 100 141 168 213 249 311
#     4  10  20  30  55  79 105 128 174 217 260 293
#     4  11  18  33  52  83 103 133 170 220 256 303
#     4   9  15  30  50  76  97 130 173 212 237 298
#
# _framework density 18.180128
#
# number of rings (size 3 to 8) (size 9 to 14) (size 15 to 20)
#    0.000    2.286    4.286    0.857    0.000    2.857 
#    0.000    0.714    0.000    0.857    0.000    0.000 
#    0.000    0.000    0.000    0.000    0.000    0.000 
#
# Total GULP energy -77942.552476 kJ/mol
# GULP energy per Si atom -5567.325177 kJ/mol
# Density = 1.813875 g / cm^3
# Si number density = 18.180128 Si / 1000 Ang^3
#
#
#
# Elastic Constant Matrix: (Units=GPa)
#
#
# Indices 1 2 3 4 5 6 
#
# 1 58.3251 31.4654 5.8134 -5.4720 5.8251 -32.9741
# 2 31.4654 114.0806 30.9641 -3.6838 7.2069 -35.4754
# 3 5.8134 30.9641 59.8218 -3.4742 6.3898 -9.1470
# 4 -5.4720 -3.6838 -3.4742 27.2071 4.1276 2.1612
# 5 5.8251 7.2069 6.3898 4.1276 12.9472 -1.6676
# 6 -32.9741 -35.4754 -9.1470 2.1612 -1.6676 30.8312
#
#
#
# Elastic Compliance Matrix: (Units=1/GPa)
#
#
# Indices 1 2 3 4 5 6 
#
# 1 0.051212 0.005102 0.004708 0.010435 -0.023800 0.060020
# 2 0.005102 0.015882 -0.004549 0.001868 -0.006667 0.021889
# 3 0.004708 -0.004549 0.020757 0.004170 -0.010503 0.005099
# 4 0.010435 0.001868 0.004170 0.041799 -0.019760 0.010548
# 5 -0.023800 -0.006667 -0.010503 -0.019760 0.099342 -0.029484
# 6 0.060020 0.021889 0.005099 0.010548 -0.029484 0.120991
#
#
# Mechanical properties :
#
#
# Convention : Reuss Voigt Hill
#
# Bulk Modulus (GPa) = 10.16541 40.96814 25.56677
# Shear Modulus (GPa) = 13.43180 25.12938 19.28059
#
# Velocity S-wave (km/s) = 2.72107 3.72189 3.26011
# Velocity P-wave (km/s) = 3.93395 6.40729 5.31645
#
# Compressibility (1/GPa) = 0.09837279
#
# Stress axis : x y z
#
# Youngs Moduli (GPa) = 19.52670 62.96632 48.17675
#
# Poissons Ratio (x) = -0.32124 -0.22682
# Poissons Ratio (y) = -0.09962 0.21914
# Poissons Ratio (z) = -0.09193 0.28641
#
# Static dielectric constant tensor:
#      x y z
#    x 1.647630 -0.028180 0.038010 
#    y -0.028180 1.713360 -0.000370 
#    z 0.038010 -0.000370 1.635240 
# 
# From -- ./inp_files/206950.got.cif
#   From: 2010.05.17/outbox.cif.g08.bks.cpg/sg2_104_cif.got.tgz:206950.got - 2010.06.03 11:33:40.
