data_PCOD9076865
_publ_section_title
;
Structure prediction by ZEFSAII (Michael W. Deem and Ramdas Pophale) SiO2 
 PCOD9076865
Probable space group: P -1
;
_chemical_formula_sum "Si O2"
_cell_formula_units_Z 16
_cell_length_a 9.489081
_cell_length_b 11.684727
_cell_length_c 19.937288
_cell_angle_alpha 150.878772
_cell_angle_beta 99.699761
_cell_angle_gamma 99.846649
_cell_volume 793.548167
_symmetry_space_group_name_H-M "P -1"
_symmetry_group_IT_number 2
_symmetry_cell_setting 'triclinic'
loop_
_space_group_symop_operation_xyz
x,y,z
-x,-y,-z
loop_
_atom_site_type_symbol
_atom_site_label
_atom_site_fract_x
_atom_site_fract_y
_atom_site_fract_z
Si Si1 0.399281 0.843582 0.257563
Si Si2 0.332035 0.686949 0.369250
Si Si3 0.395985 0.397527 0.831720
Si Si4 0.625752 0.088122 0.859878
Si Si5 0.045980 0.541884 0.171839
Si Si6 0.984007 0.948410 0.552343
Si Si7 0.601867 0.754466 0.901626
Si Si8 0.348640 0.729852 0.763898
O O1 0.457290 0.633718 0.145957
O O2 0.365902 0.929242 0.227780
O O3 0.206892 0.629692 0.177536
O O4 0.576880 0.164430 0.474600
O O5 0.132865 0.579280 0.271714
O O6 0.314768 0.392662 0.198156
O O7 0.500000 0.000000 0.500000
O O8 0.436990 0.478548 0.797079
O O9 0.393789 0.653683 0.993718
O O10 0.185193 0.067804 0.653883
O O11 0.433720 0.783614 0.724258
O O12 0.828173 0.225369 0.978506
O O13 0.043214 0.818134 0.303927
O O14 0.819824 0.611894 0.397205
O O15 0.000000 0.000000 0.500000
O O16 0.526846 0.835235 0.877261
O O17 0.702917 0.054681 0.112433
#
# Coordination Sequence:
#
# PCOD9076865 Si02
#       8
#     2   2   2   2   2   2   2   2
#     4  11  20  37  62  90 127 159 204 246 298 364
#     4  10  18  33  61  90 120 154 202 251 295 341
#     4  10  19  35  63  88 113 159 214 248 290 354
#     4  10  23  38  58  93 125 165 195 243 311 366
#     4  10  21  37  64  91 121 156 212 249 293 359
#     4  11  20  35  63  91 113 156 211 254 297 355
#     4  10  18  35  57  90 117 155 195 258 302 340
#     4  10  21  36  59  88 129 154 199 256 307 356
#
# _framework density 20.162607000000001
#
# number of rings (size 3 to 8) (size 9 to 14) (size 15 to 20)
#    0.000    1.750    3.750    3.000    1.750    0.000 
#    0.000    3.750    2.750    0.000    0.000    0.000 
#    0.000    0.000    0.000    0.000    0.000    0.000 
#
# Total GULP energy -89098.410115 kJ/mol
# GULP energy per Si atom -5568.650632 kJ/mol
# Density = 2.011672 g / cm^3
# Si number density = 20.162607 Si / 1000 Ang^3
#
#
#
# Elastic Constant Matrix: (Units=GPa)
#
#
# Indices 1 2 3 4 5 6 
#
# 1 89.7802 4.8443 21.3352 3.5747 5.1462 -7.4662
# 2 4.8443 66.3966 22.3935 -2.8062 19.5298 10.2486
# 3 21.3352 22.3935 46.6761 5.1336 14.7024 2.4269
# 4 3.5747 -2.8062 5.1336 27.1535 -1.4100 2.8942
# 5 5.1462 19.5298 14.7024 -1.4100 24.6590 7.6035
# 6 -7.4662 10.2486 2.4269 2.8942 7.6035 23.0373
#
#
#
# Elastic Compliance Matrix: (Units=1/GPa)
#
#
# Indices 1 2 3 4 5 6 
#
# 1 0.013083 0.000603 -0.006008 -0.001142 -0.001287 0.005173
# 2 0.000603 0.021746 -0.007324 0.003563 -0.011084 -0.005497
# 3 -0.006008 -0.007324 0.032674 -0.007221 -0.013875 0.003356
# 4 -0.001142 0.003563 -0.007221 0.039948 0.006593 -0.008389
# 5 -0.001287 -0.011084 -0.013875 0.006593 0.063082 -0.015673
# 6 0.005173 -0.005497 0.003356 -0.008389 -0.015673 0.053403
#
#
# Mechanical properties :
#
#
# Convention : Reuss Voigt Hill
#
# Bulk Modulus (GPa) = 23.78277 33.33322 28.55800
# Shear Modulus (GPa) = 18.98199 25.25528 22.11864
#
# Velocity S-wave (km/s) = 3.07163 3.54302 3.31571
# Velocity P-wave (km/s) = 4.93973 5.77108 5.37152
#
# Compressibility (1/GPa) = 0.04204724
#
# Stress axis : x y z
#
# Youngs Moduli (GPa) = 76.43645 45.98504 30.60536
#
# Poissons Ratio (x) = -0.02775 0.18386
# Poissons Ratio (y) = -0.04612 0.22414
# Poissons Ratio (z) = 0.45920 0.33678
#
# Static dielectric constant tensor:
#      x y z
#    x 1.751440 0.018330 -0.008470 
#    y 0.018330 1.740010 -0.030950 
#    z -0.008470 -0.030950 1.748620 
# 
# From -- ./inp_files/188417.got.cif
#   From: 2010.05.17/outbox.cif.g08.bks.cpg/sg2_95_cif.got.tgz:188417.got - 2010.06.03 11:33:40.
