data_PCOD9076482
_publ_section_title
;
Structure prediction by ZEFSAII (Michael W. Deem and Ramdas Pophale) SiO2 
 PCOD9076482
Probable space group: P -1
;
_chemical_formula_sum "Si O2"
_cell_formula_units_Z 16
_cell_length_a 12.235083
_cell_length_b 21.438229
_cell_length_c 8.371931
_cell_angle_alpha 66.981462
_cell_angle_beta 86.647452
_cell_angle_gamma 29.724545
_cell_volume 789.445431
_symmetry_space_group_name_H-M "P -1"
_symmetry_group_IT_number 2
_symmetry_cell_setting 'triclinic'
loop_
_space_group_symop_operation_xyz
x,y,z
-x,-y,-z
loop_
_atom_site_type_symbol
_atom_site_label
_atom_site_fract_x
_atom_site_fract_y
_atom_site_fract_z
Si Si1 0.233785 0.455301 0.464239
Si Si2 0.574589 0.235926 0.374887
Si Si3 0.622148 0.125074 0.190540
Si Si4 0.946591 0.852712 0.932334
Si Si5 0.829094 0.235028 0.338330
Si Si6 0.075986 0.923998 0.901637
Si Si7 0.392110 0.214182 0.796526
Si Si8 0.396535 0.509004 0.364155
O O1 0.288686 0.414963 0.310744
O O2 0.349015 0.319001 0.659797
O O3 0.398763 0.430624 0.505851
O O4 0.910604 0.645649 0.345441
O O5 0.520701 0.202314 0.299526
O O6 0.697419 0.237059 0.294776
O O7 0.819025 0.078579 0.641004
O O8 0.668555 0.175217 0.074484
O O9 0.471883 0.167837 0.024304
O O10 0.927416 0.919858 0.400128
O O11 0.023214 0.812894 0.776749
O O12 0.113983 0.822738 0.015606
O O13 0.633203 0.045182 0.832336
O O14 0.083492 0.708117 0.139688
O O15 0.586678 0.408117 0.289197
O O16 0.000000 0.000000 0.000000
O O17 0.500000 0.500000 0.500000
#
# Coordination Sequence:
#
# PCOD9076482 Si02
#       8
#     2   2   2   2   2   2   2   2
#     4  10  23  43  54  87 118 154 198 239 286 342
#     4  10  18  33  56  85 120 146 185 252 283 329
#     4  11  18  31  59  91 111 150 189 245 289 336
#     4  12  21  37  58  88 114 158 188 233 298 344
#     4  10  20  36  56  86 122 145 190 243 296 337
#     4  11  18  29  56  89 115 143 192 238 283 341
#     4  11  23  37  65  81 116 159 197 238 281 352
#     4  11  26  38  61  87 119 150 190 245 295 347
#
# _framework density 20.267392999999998
#
# number of rings (size 3 to 8) (size 9 to 14) (size 15 to 20)
#    0.000    1.250    5.000    1.875    5.250    1.000 
#    0.000    0.000    0.000    1.500    0.000    0.000 
#    0.000    0.000    0.000    0.000    0.000    0.000 
#
# Total GULP energy -89120.096941 kJ/mol
# GULP energy per Si atom -5570.006059 kJ/mol
# Density = 2.022126 g / cm^3
# Si number density = 20.267393 Si / 1000 Ang^3
#
#
#
# Elastic Constant Matrix: (Units=GPa)
#
#
# Indices 1 2 3 4 5 6 
#
# 1 31.5142 24.0676 4.5229 4.6838 -3.9324 2.0312
# 2 24.0676 140.5641 42.0022 -9.1629 13.6804 4.0946
# 3 4.5229 42.0022 45.8316 -1.2739 0.7830 -2.3040
# 4 4.6838 -9.1629 -1.2739 33.4259 6.9605 4.6448
# 5 -3.9324 13.6804 0.7830 6.9605 22.3215 0.0251
# 6 2.0312 4.0946 -2.3040 4.6448 0.0251 27.0533
#
#
#
# Elastic Compliance Matrix: (Units=1/GPa)
#
#
# Indices 1 2 3 4 5 6 
#
# 1 0.044614 -0.012329 0.006254 -0.013633 0.019446 0.001372
# 2 -0.012329 0.014837 -0.012100 0.008686 -0.013545 -0.003829
# 3 0.006254 -0.012100 0.032235 -0.005566 0.009117 0.005054
# 4 -0.013633 0.008686 -0.005566 0.039142 -0.019727 -0.007467
# 5 0.019446 -0.013545 0.009117 -0.019727 0.062354 0.004696
# 6 0.001372 -0.003829 0.005054 -0.007467 0.004696 0.039149
#
#
# Mechanical properties :
#
#
# Convention : Reuss Voigt Hill
#
# Bulk Modulus (GPa) = 18.07170 39.89949 28.98559
# Shear Modulus (GPa) = 17.41401 26.38130 21.89765
#
# Velocity S-wave (km/s) = 2.93441 3.61177 3.29057
# Velocity P-wave (km/s) = 4.51852 6.09282 5.36374
#
# Compressibility (1/GPa) = 0.05533513
#
# Stress axis : x y z
#
# Youngs Moduli (GPa) = 22.41451 67.39957 31.02241
#
# Poissons Ratio (x) = 0.83095 -0.19401
# Poissons Ratio (y) = 0.27634 0.37538
# Poissons Ratio (z) = -0.14018 0.81555
#
# Static dielectric constant tensor:
#      x y z
#    x 1.713860 -0.014110 -0.036890 
#    y -0.014110 1.823250 0.040550 
#    z -0.036890 0.040550 1.798360 
# 
# From -- ./inp_files/281841.got.cif
#   From: 2010.05.17/outbox.cif.g08.bks.cpg/sg2_141_cif.got.tgz:281841.got - 2010.06.03 11:33:40.
