data_PCOD9076379
_publ_section_title
;
Structure prediction by ZEFSAII (Michael W. Deem and Ramdas Pophale) SiO2 
 PCOD9076379
Probable space group: P -1
;
_chemical_formula_sum "Si O2"
_cell_formula_units_Z 16
_cell_length_a 9.564791
_cell_length_b 8.579235
_cell_length_c 21.332700
_cell_angle_alpha 100.741593
_cell_angle_beta 28.781453
_cell_angle_gamma 101.756784
_cell_volume 825.034066
_symmetry_space_group_name_H-M "P -1"
_symmetry_group_IT_number 2
_symmetry_cell_setting 'triclinic'
loop_
_space_group_symop_operation_xyz
x,y,z
-x,-y,-z
loop_
_atom_site_type_symbol
_atom_site_label
_atom_site_fract_x
_atom_site_fract_y
_atom_site_fract_z
Si Si1 0.945249 0.702855 0.607910
Si Si2 0.052752 0.256990 0.250813
Si Si3 0.836941 0.066209 0.869911
Si Si4 0.124445 0.164864 0.893793
Si Si5 0.383562 0.865381 0.817256
Si Si6 0.802712 0.384146 0.230312
Si Si7 0.590033 0.402028 0.664819
Si Si8 0.336404 0.602142 0.022857
O O1 0.059192 0.703791 0.633920
O O2 0.709974 0.833126 0.704655
O O3 0.770881 0.533735 0.645923
O O4 0.201042 0.719023 0.457452
O O5 0.901962 0.340158 0.257738
O O6 0.022626 0.066373 0.236412
O O7 0.400253 0.319754 0.117506
O O8 0.820643 0.251887 0.873089
O O9 0.986648 0.074550 0.879803
O O10 0.500000 0.000000 0.000000
O O11 0.336417 0.310791 0.797557
O O12 0.311772 0.046830 0.850787
O O13 0.848929 0.207205 0.045762
O O14 0.307012 0.773528 0.775906
O O15 0.549612 0.501957 0.329779
O O16 0.078785 0.475497 0.092032
O O17 0.500000 0.500000 0.000000
#
# Coordination Sequence:
#
# PCOD9076379 Si02
#       8
#     2   2   2   2   2   2   2   2
#     4  10  23  42  57  87 116 164 195 249 293 349
#     4  10  20  35  58  83 122 152 190 241 299 350
#     4  10  18  33  55  84 121 151 180 240 299 342
#     4  11  21  38  62  90 114 159 195 246 292 360
#     4  10  22  36  61  88 119 148 200 241 301 347
#     4  10  19  35  58  88 116 152 194 248 287 356
#     4  10  23  40  63  80 121 157 205 241 297 347
#     4   9  18  30  52  86 117 147 182 233 296 343
#
# _framework density 19.393139999999999
#
# number of rings (size 3 to 8) (size 9 to 14) (size 15 to 20)
#    0.000    2.000    2.500    1.500    1.750    2.000 
#    0.000    0.625    0.000    0.000    0.000    0.000 
#    0.000    0.000    0.000    0.000    0.000    0.000 
#
# Total GULP energy -89138.487435 kJ/mol
# GULP energy per Si atom -5571.155465 kJ/mol
# Density = 1.934900 g / cm^3
# Si number density = 19.393140 Si / 1000 Ang^3
#
#
#
# Elastic Constant Matrix: (Units=GPa)
#
#
# Indices 1 2 3 4 5 6 
#
# 1 86.3997 12.2562 20.4178 6.5435 5.4797 -4.7909
# 2 12.2562 42.1965 0.7653 11.6027 -1.3261 -24.7499
# 3 20.4178 0.7653 45.1380 23.9989 -1.1629 -21.5455
# 4 6.5435 11.6027 23.9989 23.8889 0.9434 -6.2060
# 5 5.4797 -1.3261 -1.1629 0.9434 18.9220 3.2228
# 6 -4.7909 -24.7499 -21.5455 -6.2060 3.2228 26.6985
#
#
#
# Elastic Compliance Matrix: (Units=1/GPa)
#
#
# Indices 1 2 3 4 5 6 
#
# 1 0.010048 0.009564 0.009493 -0.012674 -0.003721 0.015833
# 2 0.009564 -0.021856 -0.054977 0.050006 -0.001468 -0.051110
# 3 0.009493 -0.054977 -0.037794 0.043951 0.000744 -0.069634
# 4 -0.012674 0.050006 0.043951 -0.002333 -0.003537 0.079434
# 5 -0.003721 -0.001468 0.000744 -0.003537 0.055571 -0.008959
# 6 0.015833 -0.051110 -0.069634 0.079434 -0.008959 -0.043732
#
#
# Mechanical properties :
#
#
# Convention : Reuss Voigt Hill
#
# Bulk Modulus (GPa) = -8.23440 26.73476 9.25018
# Shear Modulus (GPa) = -572.15992 23.25487 -274.45252
#
# Velocity S-wave (km/s) = -17.19513 3.46660 -11.90914
# Velocity P-wave (km/s) = 19.96210 5.46248 13.57657
#
# Compressibility (1/GPa) = -0.12144175
#
# Stress axis : x y z
#
# Youngs Moduli (GPa) = 99.52421 -45.75308 -26.45889
#
# Poissons Ratio (x) = 0.43760 0.25118
# Poissons Ratio (y) = -0.95188 -1.45462
# Poissons Ratio (z) = -0.94480 -2.51536
#
# Static dielectric constant tensor:
#      x y z
#    x 1.676570 -0.013470 -0.026450 
#    y -0.013470 1.717050 0.018700 
#    z -0.026450 0.018700 1.694180 
# 
# From -- ./inp_files/182405.got.cif
#   From: 2010.05.17/outbox.cif.g08.bks.cpg/sg2_92_cif.got.tgz:182405.got - 2010.06.03 11:33:40.
