data_PCOD9076056
_publ_section_title
;
Structure prediction by ZEFSAII (Michael W. Deem and Ramdas Pophale) SiO2 
 PCOD9076056
Probable space group: P -1
;
_chemical_formula_sum "Si O2"
_cell_formula_units_Z 16
_cell_length_a 7.279948
_cell_length_b 6.336596
_cell_length_c 31.052911
_cell_angle_alpha 46.331081
_cell_angle_beta 41.104013
_cell_angle_gamma 68.076183
_cell_volume 647.878665
_symmetry_space_group_name_H-M "P -1"
_symmetry_group_IT_number 2
_symmetry_cell_setting 'triclinic'
loop_
_space_group_symop_operation_xyz
x,y,z
-x,-y,-z
loop_
_atom_site_type_symbol
_atom_site_label
_atom_site_fract_x
_atom_site_fract_y
_atom_site_fract_z
Si Si1 0.437618 0.132806 0.204986
Si Si2 0.795573 0.828800 0.367049
Si Si3 0.406304 0.444365 0.334271
Si Si4 0.723400 0.258270 0.952459
Si Si5 0.679438 0.321863 0.223088
Si Si6 0.868052 0.413982 0.487682
Si Si7 0.502361 0.149240 0.096816
Si Si8 0.120215 0.291474 0.720545
O O1 0.587833 0.348887 0.186640
O O2 0.606506 0.192568 0.121615
O O3 0.426024 0.793769 0.269512
O O4 0.092751 0.109735 0.265748
O O5 0.829585 0.701658 0.426336
O O6 0.459656 0.824659 0.422405
O O7 0.822663 0.604006 0.353994
O O8 0.428065 0.298041 0.305181
O O9 0.110334 0.321546 0.430546
O O10 0.681592 0.477250 0.312854
O O11 0.620537 0.562052 0.928353
O O12 0.046891 0.377681 0.858504
O O13 0.709735 0.152826 0.019437
O O14 0.500000 0.000000 0.000000
O O15 0.771193 0.012790 0.254157
O O16 0.000000 0.500000 0.500000
O O17 0.222938 0.840590 0.189535
#
# Coordination Sequence:
#
# PCOD9076056 Si02
#       8
#     2   2   2   2   2   2   2   2
#     4   9  20  37  56  77 112 148 185 231 275 337
#     4   9  18  34  58  82 113 147 187 231 276 327
#     4  10  19  34  56  80 111 148 184 226 285 328
#     4  10  20  35  55  80 109 141 188 238 280 331
#     4  10  21  35  55  82 111 145 188 230 276 341
#     4  10  18  32  59  89 111 147 191 231 279 335
#     4   9  19  35  55  78 106 148 188 225 283 332
#     4   9  17  35  57  77 109 150 184 226 272 332
#
# _framework density 24.695983999999999
#
# number of rings (size 3 to 8) (size 9 to 14) (size 15 to 20)
#    0.000    2.500    1.250    0.750    0.000    2.500 
#    0.000   10.000    0.000    0.000    0.000    0.000 
#    0.000    0.000    0.000    0.000    0.000    0.000 
#
# Total GULP energy -89396.194206 kJ/mol
# GULP energy per Si atom -5587.262138 kJ/mol
# Density = 2.463977 g / cm^3
# Si number density = 24.695984 Si / 1000 Ang^3
#
#
#
# Elastic Constant Matrix: (Units=GPa)
#
#
# Indices 1 2 3 4 5 6 
#
# 1 118.5622 34.4032 34.9793 12.2637 16.4661 37.0148
# 2 34.4032 63.7378 38.8812 6.0589 0.2133 16.2319
# 3 34.9793 38.8812 102.6702 20.9904 28.1812 15.6849
# 4 12.2637 6.0589 20.9904 34.7363 8.9888 0.8490
# 5 16.4661 0.2133 28.1812 8.9888 33.2649 9.2202
# 6 37.0148 16.2319 15.6849 0.8490 9.2202 40.1908
#
#
#
# Elastic Compliance Matrix: (Units=1/GPa)
#
#
# Indices 1 2 3 4 5 6 
#
# 1 0.013578 -0.004593 0.000127 -0.002987 -0.003251 -0.009891
# 2 -0.004593 0.026176 -0.011252 0.000658 0.012820 -0.004906
# 3 0.000127 -0.011252 0.019127 -0.005836 -0.014748 0.000469
# 4 -0.002987 0.000658 -0.005836 0.034223 -0.004218 0.005007
# 5 -0.003251 0.012820 -0.014748 -0.004218 0.047210 -0.007169
# 6 -0.009891 -0.004906 0.000469 0.005007 -0.007169 0.037328
#
#
# Mechanical properties :
#
#
# Convention : Reuss Voigt Hill
#
# Bulk Modulus (GPa) = 36.43515 55.72197 46.07856
# Shear Modulus (GPa) = 22.91206 33.41883 28.16544
#
# Velocity S-wave (km/s) = 3.04923 3.68259 3.38077
# Velocity P-wave (km/s) = 5.21369 6.37919 5.82566
#
# Compressibility (1/GPa) = 0.02744602
#
# Stress axis : x y z
#
# Youngs Moduli (GPa) = 73.64967 38.20272 52.28156
#
# Poissons Ratio (x) = 0.17546 -0.00665
# Poissons Ratio (y) = 0.33826 0.58828
# Poissons Ratio (z) = -0.00937 0.42986
#
# Static dielectric constant tensor:
#      x y z
#    x 2.052600 -0.028720 0.021840 
#    y -0.028720 1.953900 -0.019580 
#    z 0.021840 -0.019580 1.944470 
# 
# From -- ./inp_files/321588.got.cif
#   From: 2010.05.17/outbox.cif.g08.bks.cpg/sg2_161_cif.got.tgz:321588.got - 2010.06.03 11:33:40.
