data_PCOD9076376
_publ_section_title
;
Structure prediction by ZEFSAII (Michael W. Deem and Ramdas Pophale) SiO2 
 PCOD9076376
Probable space group: P -1
;
_chemical_formula_sum "Si O2"
_cell_formula_units_Z 14
_cell_length_a 15.742703
_cell_length_b 16.701093
_cell_length_c 10.818227
_cell_angle_alpha 47.479588
_cell_angle_beta 35.625344
_cell_angle_gamma 25.531217
_cell_volume 695.014319
_symmetry_space_group_name_H-M "P -1"
_symmetry_group_IT_number 2
_symmetry_cell_setting 'triclinic'
loop_
_space_group_symop_operation_xyz
x,y,z
-x,-y,-z
loop_
_atom_site_type_symbol
_atom_site_label
_atom_site_fract_x
_atom_site_fract_y
_atom_site_fract_z
Si Si1 0.489714 0.428705 0.965578
Si Si2 0.282442 0.869739 0.824652
Si Si3 0.016830 0.586561 0.288324
Si Si4 0.232100 0.273639 0.200057
Si Si5 0.492817 0.064372 0.614118
Si Si6 0.679831 0.513803 0.535340
Si Si7 0.692105 0.694253 0.173860
O O1 0.633493 0.228618 0.039256
O O2 0.202260 0.568336 0.131786
O O3 0.500000 0.500000 0.000000
O O4 0.617974 0.424646 0.713032
O O5 0.305999 0.980741 0.646130
O O6 0.492135 0.687774 0.674211
O O7 0.000000 0.000000 0.000000
O O8 0.143699 0.445776 0.170172
O O9 0.000000 0.500000 0.500000
O O10 0.745405 0.794688 0.343939
O O11 0.973051 0.362603 0.384626
O O12 0.383106 0.121425 0.289292
O O13 0.392733 0.195991 0.966351
O O14 0.396571 0.182354 0.731480
O O15 0.619855 0.613921 0.374650
O O16 0.000000 0.500000 0.000000
#
# Coordination Sequence:
#
# PCOD9076376 Si02
#       7
#     2   2   2   2   2   2   2
#     4  10  20  37  56  78 117 164 191 241 302 354
#     4  10  18  33  55  84 119 149 198 239 288 363
#     4  12  22  40  58  87 131 152 201 254 295 357
#     4  11  21  38  65  90 119 158 201 250 298 351
#     4  11  21  37  62  95 118 159 201 246 298 355
#     4   9  18  36  58  84 115 156 196 242 293 350
#     4   9  17  37  65  88 119 154 202 249 290 358
#
# _framework density 20.143470000000001
#
# number of rings (size 3 to 8) (size 9 to 14) (size 15 to 20)
#    0.000    1.714    5.714    2.143    0.000    1.714 
#    5.143    0.714    0.000    0.857    0.000    0.000 
#    0.000    0.000    0.000    0.000    0.000    0.429 
#
# Total GULP energy -78063.026945 kJ/mol
# GULP energy per Si atom -5575.930496 kJ/mol
# Density = 2.009762 g / cm^3
# Si number density = 20.143470 Si / 1000 Ang^3
#
#
#
# Elastic Constant Matrix: (Units=GPa)
#
#
# Indices 1 2 3 4 5 6 
#
# 1 67.0468 21.5780 45.8092 -1.6171 -12.5658 -12.1061
# 2 21.5780 116.5172 50.4352 -20.7458 -3.1259 -27.3729
# 3 45.8092 50.4352 145.1981 -28.8969 -12.2388 -19.8759
# 4 -1.6171 -20.7458 -28.8969 39.5044 -6.8493 3.1223
# 5 -12.5658 -3.1259 -12.2388 -6.8493 28.5501 7.8840
# 6 -12.1061 -27.3729 -19.8759 3.1223 7.8840 35.4155
#
#
#
# Elastic Compliance Matrix: (Units=1/GPa)
#
#
# Indices 1 2 3 4 5 6 
#
# 1 0.020687 -0.001238 -0.006133 -0.003578 0.004962 0.001884
# 2 -0.001238 0.012227 -0.002107 0.003988 -0.001302 0.007783
# 3 -0.006133 -0.002107 0.011533 0.007577 0.003471 0.001307
# 4 -0.003578 0.003988 0.007577 0.034503 0.010165 0.000807
# 5 0.004962 -0.001302 0.003471 0.010165 0.043167 -0.007868
# 6 0.001884 0.007783 0.001307 0.000807 -0.007868 0.037310
#
#
# Mechanical properties :
#
#
# Convention : Reuss Voigt Hill
#
# Bulk Modulus (GPa) = 39.22715 62.71188 50.96951
# Shear Modulus (GPa) = 26.75503 34.75664 30.75583
#
# Velocity S-wave (km/s) = 3.64843 4.15837 3.91172
# Velocity P-wave (km/s) = 6.10444 7.36588 6.76463
#
# Compressibility (1/GPa) = 0.02549255
#
# Stress axis : x y z
#
# Youngs Moduli (GPa) = 48.33889 81.78318 86.70416
#
# Poissons Ratio (x) = 0.10124 0.53172
# Poissons Ratio (y) = 0.05984 0.18271
# Poissons Ratio (z) = 0.29644 0.17234
#
# Static dielectric constant tensor:
#      x y z
#    x 1.728490 -0.017850 0.023930 
#    y -0.017850 1.765700 -0.048130 
#    z 0.023930 -0.048130 1.751820 
# 
# From -- ./inp_files/270837.got.cif
#   From: 2010.05.17/outbox.cif.g08.bks.cpg/sg2_136_cif.got.tgz:270837.got - 2010.06.03 11:33:40.
