data_PCOD9076833
_publ_section_title
;
Structure prediction by ZEFSAII (Michael W. Deem and Ramdas Pophale) SiO2 
 PCOD9076833
Probable space group: P -1
;
_chemical_formula_sum "Si O2"
_cell_formula_units_Z 16
_cell_length_a 12.011522
_cell_length_b 14.423466
_cell_length_c 12.194729
_cell_angle_alpha 136.469003
_cell_angle_beta 126.188834
_cell_angle_gamma 87.701673
_cell_volume 841.030229
_symmetry_space_group_name_H-M "P -1"
_symmetry_group_IT_number 2
_symmetry_cell_setting 'triclinic'
loop_
_space_group_symop_operation_xyz
x,y,z
-x,-y,-z
loop_
_atom_site_type_symbol
_atom_site_label
_atom_site_fract_x
_atom_site_fract_y
_atom_site_fract_z
Si Si1 0.161093 0.635882 0.358329
Si Si2 0.088182 0.819003 0.649457
Si Si3 0.629214 0.922932 0.550836
Si Si4 0.237126 0.776803 0.277605
Si Si5 0.513279 0.845648 0.876485
Si Si6 0.674782 0.642996 0.307154
Si Si7 0.288321 0.579904 0.710958
Si Si8 0.133983 0.733535 0.848567
O O1 0.099345 0.709988 0.471447
O O2 0.226535 0.748276 0.377751
O O3 0.350490 0.691627 0.563597
O O4 0.976111 0.414135 0.047097
O O5 0.127757 0.782651 0.761655
O O6 0.882386 0.748904 0.467461
O O7 0.268253 0.040105 0.925041
O O8 0.404316 0.797541 0.338701
O O9 0.671071 0.794562 0.471463
O O10 0.698074 0.034035 0.570045
O O11 0.749617 0.089124 0.853538
O O12 0.452775 0.751525 0.878359
O O13 0.500000 0.000000 0.000000
O O14 0.658032 0.524290 0.293900
O O15 0.500000 0.500000 0.000000
O O16 0.231419 0.652873 0.831639
O O17 0.092117 0.432651 0.399066
#
# Coordination Sequence:
#
# PCOD9076833 Si02
#       8
#     2   2   2   2   2   2   2   2
#     4  10  19  38  59  94 120 154 203 258 300 354
#     4  10  21  37  64  91 120 156 207 253 300 364
#     4  11  24  39  60  91 123 164 205 255 295 363
#     4  10  23  36  62  87 125 163 205 246 301 362
#     4  10  18  33  60  93 114 146 208 260 292 344
#     4  11  26  42  58  86 133 166 200 243 316 367
#     4  10  21  36  63  93 117 160 201 255 301 357
#     4  10  20  37  65  93 116 155 213 255 298 344
#
# _framework density 19.024287000000001
#
# number of rings (size 3 to 8) (size 9 to 14) (size 15 to 20)
#    0.000    1.750    2.500    2.250    8.750    2.000 
#    0.000    5.000    0.000    3.000    0.000    0.000 
#    0.000    0.000    0.000    0.000    0.000    0.000 
#
# Total GULP energy -89307.892694 kJ/mol
# GULP energy per Si atom -5581.743293 kJ/mol
# Density = 1.898099 g / cm^3
# Si number density = 19.024287 Si / 1000 Ang^3
#
#
#
# Elastic Constant Matrix: (Units=GPa)
#
#
# Indices 1 2 3 4 5 6 
#
# 1 66.3301 52.9324 32.8111 12.2783 21.1029 0.0065
# 2 52.9324 122.8957 29.9876 20.6836 8.4589 0.3911
# 3 32.8111 29.9876 93.7114 4.6826 17.6580 -0.9625
# 4 12.2783 20.6836 4.6826 28.9636 3.5826 1.5271
# 5 21.1029 8.4589 17.6580 3.5826 38.4181 8.8130
# 6 0.0065 0.3911 -0.9625 1.5271 8.8130 38.5710
#
#
#
# Elastic Compliance Matrix: (Units=1/GPa)
#
#
# Indices 1 2 3 4 5 6 
#
# 1 0.030445 -0.010567 -0.004710 -0.003196 -0.012621 0.002995
# 2 -0.010567 0.013623 -0.001156 -0.005517 0.004051 -0.000872
# 3 -0.004710 -0.001156 0.013336 0.001057 -0.003647 0.001137
# 4 -0.003196 -0.005517 0.001057 0.039833 -0.000937 -0.001280
# 5 -0.012621 0.004051 -0.003647 -0.000937 0.035728 -0.008256
# 6 0.002995 -0.000872 0.001137 -0.001280 -0.008256 0.027900
#
#
# Mechanical properties :
#
#
# Convention : Reuss Voigt Hill
#
# Bulk Modulus (GPa) = 40.75193 57.15550 48.95371
# Shear Modulus (GPa) = 24.76360 32.33762 28.55061
#
# Velocity S-wave (km/s) = 3.61180 4.12734 3.87815
# Velocity P-wave (km/s) = 6.23386 7.26787 6.77063
#
# Compressibility (1/GPa) = 0.02453872
#
# Stress axis : x y z
#
# Youngs Moduli (GPa) = 32.84632 73.40658 74.98414
#
# Poissons Ratio (x) = 0.77566 0.35315
# Poissons Ratio (y) = 0.34708 0.08669
# Poissons Ratio (z) = 0.15470 0.08487
#
# Static dielectric constant tensor:
#      x y z
#    x 1.657200 0.032210 0.022130 
#    y 0.032210 1.683320 -0.006200 
#    z 0.022130 -0.006200 1.705520 
# 
# From -- ./inp_files/434333.got.cif
#   From: 2010.05.17/outbox.cif.g08.bks.cpg/sg2_218_cif.got.tgz:434333.got - 2010.06.03 11:33:40.
