data_PCOD9076633
_publ_section_title
;
Structure prediction by ZEFSAII (Michael W. Deem and Ramdas Pophale) SiO2 
 PCOD9076633
Probable space group: P -1
;
_chemical_formula_sum "Si O2"
_cell_formula_units_Z 16
_cell_length_a 15.523074
_cell_length_b 10.313991
_cell_length_c 7.403844
_cell_angle_alpha 103.794179
_cell_angle_beta 88.381453
_cell_angle_gamma 36.480171
_cell_volume 632.830370
_symmetry_space_group_name_H-M "P -1"
_symmetry_group_IT_number 2
_symmetry_cell_setting 'triclinic'
loop_
_space_group_symop_operation_xyz
x,y,z
-x,-y,-z
loop_
_atom_site_type_symbol
_atom_site_label
_atom_site_fract_x
_atom_site_fract_y
_atom_site_fract_z
Si Si1 0.905795 0.758889 0.539635
Si Si2 0.262084 0.707065 0.646970
Si Si3 0.940702 0.855877 0.937039
Si Si4 0.412288 0.056326 0.204743
Si Si5 0.180301 0.577575 0.357121
Si Si6 0.263388 0.414793 0.905039
Si Si7 0.253174 0.128710 0.938434
Si Si8 0.604812 0.195725 0.488541
O O1 0.890724 0.881422 0.747959
O O2 0.000000 0.500000 0.500000
O O3 0.022153 0.695878 0.385029
O O4 0.738851 0.949502 0.517388
O O5 0.424399 0.442396 0.635457
O O6 0.324490 0.748676 0.532746
O O7 0.176720 0.714091 0.521570
O O8 0.151699 0.909307 0.876250
O O9 0.126104 0.638675 0.858198
O O10 0.890193 0.786952 0.025819
O O11 0.300383 0.318677 0.361993
O O12 0.555084 0.825074 0.241235
O O13 0.500000 0.000000 0.000000
O O14 0.307100 0.080019 0.125183
O O15 0.243412 0.519272 0.130811
O O16 0.224426 0.310301 0.917969
O O17 0.389984 0.884145 0.732512
#
# Coordination Sequence:
#
# PCOD9076633 Si02
#       8
#     2   2   2   2   2   2   2   2
#     4  12  25  40  58  86 121 155 192 238 295 344
#     4  10  22  41  62  87 113 153 202 236 282 338
#     4  11  23  35  53  82 118 154 188 231 283 347
#     4   8  16  30  56  85 110 136 182 247 291 323
#     4  10  20  38  61  86 116 150 195 241 284 344
#     4  10  18  33  58  84 111 146 191 243 287 328
#     4   9  16  34  58  83 109 144 196 242 285 329
#     4  10  21  39  65  87 114 151 194 245 283 341
#
# _framework density 25.283235000000001
#
# number of rings (size 3 to 8) (size 9 to 14) (size 15 to 20)
#    0.000    2.250    0.000    6.375    0.000    3.000 
#    0.000    3.750    0.000    0.000    0.000    0.000 
#    0.000    0.000    0.000    0.000    0.000    0.000 
#
# Total GULP energy -89480.077624 kJ/mol
# GULP energy per Si atom -5592.504851 kJ/mol
# Density = 2.522569 g / cm^3
# Si number density = 25.283235 Si / 1000 Ang^3
#
#
#
# Elastic Constant Matrix: (Units=GPa)
#
#
# Indices 1 2 3 4 5 6 
#
# 1 101.0645 23.8126 16.1960 1.4244 22.8146 -7.4437
# 2 23.8126 101.1725 9.1134 18.0598 -5.1923 -19.7914
# 3 16.1960 9.1134 86.4689 13.7840 34.5789 -11.0434
# 4 1.4244 18.0598 13.7840 33.0258 -6.3182 -14.3700
# 5 22.8146 -5.1923 34.5789 -6.3182 39.0501 2.7802
# 6 -7.4437 -19.7914 -11.0434 -14.3700 2.7802 40.9311
#
#
#
# Elastic Compliance Matrix: (Units=1/GPa)
#
#
# Indices 1 2 3 4 5 6 
#
# 1 0.012742 -0.003224 0.002496 -0.001043 -0.010378 0.001770
# 2 -0.003224 0.012302 -0.001039 -0.003977 0.003550 0.003445
# 3 0.002496 -0.001039 0.023560 -0.012547 -0.024744 0.003584
# 4 -0.001043 -0.003977 -0.012547 0.045123 0.017842 0.009132
# 5 -0.010378 0.003550 -0.024744 0.017842 0.057259 -0.004472
# 6 0.001770 0.003445 0.003584 0.009132 -0.004472 0.030895
#
#
# Mechanical properties :
#
#
# Convention : Reuss Voigt Hill
#
# Bulk Modulus (GPa) = 22.18753 42.99444 32.59099
# Shear Modulus (GPa) = 24.94527 38.57365 31.75946
#
# Velocity S-wave (km/s) = 3.14448 3.91021 3.54806
# Velocity P-wave (km/s) = 4.68810 6.11787 5.45008
#
# Compressibility (1/GPa) = 0.04507035
#
# Stress axis : x y z
#
# Youngs Moduli (GPa) = 78.47939 81.28477 42.44548
#
# Poissons Ratio (x) = 0.26206 -0.10593
# Poissons Ratio (y) = 0.25301 0.04409
# Poissons Ratio (z) = -0.19586 0.08443
#
# Static dielectric constant tensor:
#      x y z
#    x 2.053310 0.001400 -0.120260 
#    y 0.001400 2.057350 -0.003450 
#    z -0.120260 -0.003450 2.053060 
# 
# From -- ./inp_files/354139.got.cif
#   From: 2010.05.17/outbox.cif.g08.bks.cpg/sg2_178_cif.got.tgz:354139.got - 2010.06.03 11:33:40.
