data_PCOD9076371
_publ_section_title
;
Structure prediction by ZEFSAII (Michael W. Deem and Ramdas Pophale) SiO2 
 PCOD9076371
Probable space group: P -1
;
_chemical_formula_sum "Si O2"
_cell_formula_units_Z 16
_cell_length_a 10.750266
_cell_length_b 13.159166
_cell_length_c 9.250981
_cell_angle_alpha 59.924321
_cell_angle_beta 75.831547
_cell_angle_gamma 48.514401
_cell_volume 840.663161
_symmetry_space_group_name_H-M "P -1"
_symmetry_group_IT_number 2
_symmetry_cell_setting 'triclinic'
loop_
_space_group_symop_operation_xyz
x,y,z
-x,-y,-z
loop_
_atom_site_type_symbol
_atom_site_label
_atom_site_fract_x
_atom_site_fract_y
_atom_site_fract_z
Si Si1 0.819344 0.215602 0.771627
Si Si2 0.239736 0.803743 0.524014
Si Si3 0.415894 0.449506 0.459639
Si Si4 0.621695 0.786287 0.261066
Si Si5 0.257454 0.105613 0.066174
Si Si6 0.327255 0.087320 0.574178
Si Si7 0.207783 0.974863 0.894947
Si Si8 0.920773 0.850963 0.630269
O O1 0.766465 0.186484 0.656275
O O2 0.745362 0.389822 0.671915
O O3 0.019610 0.090874 0.805248
O O4 0.753623 0.178060 0.951730
O O5 0.432703 0.672612 0.604615
O O6 0.116129 0.768595 0.620311
O O7 0.167784 0.968225 0.484881
O O8 0.500000 0.500000 0.500000
O O9 0.375156 0.355171 0.624939
O O10 0.692341 0.800554 0.379045
O O11 0.432876 0.949981 0.187351
O O12 0.710626 0.787110 0.093424
O O13 0.126642 0.175228 0.183189
O O14 0.206884 0.053476 0.983923
O O15 0.328421 0.965819 0.753220
O O16 0.168843 0.172685 0.450833
O O17 0.500000 0.000000 0.500000
#
# Coordination Sequence:
#
# PCOD9076371 Si02
#       8
#     2   2   2   2   2   2   2   2
#     4  10  19  34  58  83 113 146 185 239 273 331
#     4  10  19  32  56  86 113 145 190 227 277 336
#     4  10  19  36  58  82 112 148 189 230 284 329
#     4  10  20  34  56  86 111 143 192 230 272 336
#     4  10  18  33  55  83 112 143 185 234 268 326
#     4  11  20  33  55  85 117 143 180 237 278 329
#     4  10  20  34  55  88 112 135 197 232 276 323
#     4  11  19  33  57  86 116 148 182 234 279 321
#
# _framework density 19.032594
#
# number of rings (size 3 to 8) (size 9 to 14) (size 15 to 20)
#    0.000    1.750    5.000    0.750    0.000    0.000 
#    0.000    2.500    0.000   11.250    0.000    0.000 
#    0.000    0.000    0.000    0.000    0.000    0.000 
#
# Total GULP energy -89207.438646 kJ/mol
# GULP energy per Si atom -5575.464915 kJ/mol
# Density = 1.898927 g / cm^3
# Si number density = 19.032594 Si / 1000 Ang^3
#
#
#
# Elastic Constant Matrix: (Units=GPa)
#
#
# Indices 1 2 3 4 5 6 
#
# 1 71.2359 8.5895 47.4751 -1.5510 -15.2880 12.9977
# 2 8.5895 31.8470 35.9297 -10.1659 -10.2737 3.7892
# 3 47.4751 35.9297 131.8889 1.7805 -39.8405 -1.7022
# 4 -1.5510 -10.1659 1.7805 32.8059 1.7704 -7.4052
# 5 -15.2880 -10.2737 -39.8405 1.7704 50.5162 7.3387
# 6 12.9977 3.7892 -1.7022 -7.4052 7.3387 21.2716
#
#
#
# Elastic Compliance Matrix: (Units=1/GPa)
#
#
# Indices 1 2 3 4 5 6 
#
# 1 0.023689 0.007972 -0.009823 -0.000135 0.003662 -0.017991
# 2 0.007972 0.056997 -0.018681 0.016593 0.000263 -0.010833
# 3 -0.009823 -0.018681 0.018538 -0.006256 0.007172 0.006161
# 4 -0.000135 0.016593 -0.006256 0.038866 -0.004672 0.011768
# 5 0.003662 0.000263 0.007172 -0.004672 0.028701 -0.013238
# 6 -0.017991 -0.010833 0.006161 0.011768 -0.013238 0.069091
#
#
# Mechanical properties :
#
#
# Convention : Reuss Voigt Hill
#
# Bulk Modulus (GPa) = 17.19436 46.55117 31.87276
# Shear Modulus (GPa) = 16.87293 30.45057 23.66175
#
# Velocity S-wave (km/s) = 2.98069 4.00424 3.52976
# Velocity P-wave (km/s) = 4.57163 6.77424 5.77885
#
# Compressibility (1/GPa) = 0.05815860
#
# Stress axis : x y z
#
# Youngs Moduli (GPa) = 42.21408 17.54484 53.94371
#
# Poissons Ratio (x) = -0.13987 0.52990
# Poissons Ratio (y) = -0.33653 1.00773
# Poissons Ratio (z) = 0.41467 0.32776
#
# Static dielectric constant tensor:
#      x y z
#    x 1.728590 -0.016240 -0.008760 
#    y -0.016240 1.684050 0.000540 
#    z -0.008760 0.000540 1.695110 
# 
# From -- ./inp_files/266708.got.cif
#   From: 2010.05.17/outbox.cif.g08.bks.cpg/sg2_134_cif.got.tgz:266708.got - 2010.06.03 11:33:40.
