data_PCOD9076443
_publ_section_title
;
Structure prediction by ZEFSAII (Michael W. Deem and Ramdas Pophale) SiO2 
 PCOD9076443
Probable space group: P -1
;
_chemical_formula_sum "Si O2"
_cell_formula_units_Z 16
_cell_length_a 11.566150
_cell_length_b 9.759434
_cell_length_c 18.601688
_cell_angle_alpha 64.281601
_cell_angle_beta 42.097027
_cell_angle_gamma 99.330299
_cell_volume 758.286286
_symmetry_space_group_name_H-M "P -1"
_symmetry_group_IT_number 2
_symmetry_cell_setting 'triclinic'
loop_
_space_group_symop_operation_xyz
x,y,z
-x,-y,-z
loop_
_atom_site_type_symbol
_atom_site_label
_atom_site_fract_x
_atom_site_fract_y
_atom_site_fract_z
Si Si1 0.163631 0.618987 0.473786
Si Si2 0.911955 0.717997 0.657501
Si Si3 0.826144 0.125591 0.359613
Si Si4 0.474172 0.320532 0.222079
Si Si5 0.501137 0.384196 0.594237
Si Si6 0.326255 0.954904 0.701385
Si Si7 0.661207 0.472251 0.260260
Si Si8 0.721911 0.209593 0.089438
O O1 0.224319 0.507132 0.517635
O O2 0.000000 0.500000 0.500000
O O3 0.996456 0.621180 0.601252
O O4 0.481290 0.916740 0.244584
O O5 0.632192 0.598188 0.781384
O O6 0.910091 0.703949 0.747314
O O7 0.184034 0.023785 0.448620
O O8 0.629017 0.119458 0.487453
O O9 0.613822 0.827817 0.525229
O O10 0.885935 0.195750 0.233059
O O11 0.653307 0.480167 0.175735
O O12 0.602059 0.291634 0.112407
O O13 0.500000 0.500000 0.500000
O O14 0.364854 0.385183 0.721073
O O15 0.335190 0.121992 0.698250
O O16 0.275995 0.798360 0.822317
O O17 0.954901 0.602616 0.123309
#
# Coordination Sequence:
#
# PCOD9076443 Si02
#       8
#     2   2   2   2   2   2   2   2
#     4  10  20  36  54  80 118 148 182 232 288 326
#     4   9  16  31  51  79 108 141 186 231 260 333
#     4  10  18  33  56  81 106 148 180 229 279 321
#     4   9  17  30  52  83 109 137 185 226 273 325
#     4  11  21  35  54  88 110 147 193 230 273 341
#     4  10  19  34  51  81 115 140 185 227 276 323
#     4  11  20  32  57  85 112 146 182 229 289 326
#     4  10  20  35  54  85 112 143 184 237 275 334
#
# _framework density 21.100210000000001
#
# number of rings (size 3 to 8) (size 9 to 14) (size 15 to 20)
#    0.000    2.000    6.250    1.125    0.000    3.000 
#    0.000    0.000    0.000    1.500    3.250    0.000 
#    0.000    0.000    0.000    0.000    0.000    0.000 
#
# Total GULP energy -89185.603476 kJ/mol
# GULP energy per Si atom -5574.100217 kJ/mol
# Density = 2.105219 g / cm^3
# Si number density = 21.100210 Si / 1000 Ang^3
#
#
#
# Elastic Constant Matrix: (Units=GPa)
#
#
# Indices 1 2 3 4 5 6 
#
# 1 126.7280 39.3707 17.1787 3.1228 -21.3109 10.0451
# 2 39.3707 121.2694 27.6430 26.1887 -11.4148 6.5772
# 3 17.1787 27.6430 32.4459 1.1363 -13.5775 -3.0643
# 4 3.1228 26.1887 1.1363 35.2123 -5.1948 -10.1776
# 5 -21.3109 -11.4148 -13.5775 -5.1948 30.9306 3.1811
# 6 10.0451 6.5772 -3.0643 -10.1776 3.1811 40.3575
#
#
#
# Elastic Compliance Matrix: (Units=1/GPa)
#
#
# Indices 1 2 3 4 5 6 
#
# 1 0.009980 -0.002681 -0.000738 0.001377 0.006023 -0.002231
# 2 -0.002681 0.014619 -0.012579 -0.012333 -0.003479 -0.005506
# 3 -0.000738 -0.012579 0.049764 0.012730 0.018030 0.007801
# 4 0.001377 -0.012333 0.012730 0.041810 0.007714 0.012570
# 5 0.006023 -0.003479 0.018030 0.007714 0.044522 -0.001127
# 6 -0.002231 -0.005506 0.007801 0.012570 -0.001127 0.030082
#
#
# Mechanical properties :
#
#
# Convention : Reuss Voigt Hill
#
# Bulk Modulus (GPa) = 23.60381 49.86979 36.73680
# Shear Modulus (GPa) = 21.10633 34.38347 27.74490
#
# Velocity S-wave (km/s) = 3.16617 4.04113 3.63010
# Velocity P-wave (km/s) = 4.95752 6.74243 5.91765
#
# Compressibility (1/GPa) = 0.04236605
#
# Stress axis : x y z
#
# Youngs Moduli (GPa) = 100.20395 68.40645 20.09475
#
# Poissons Ratio (x) = 0.18340 0.01483
# Poissons Ratio (y) = 0.26866 0.25277
# Poissons Ratio (z) = 0.07395 0.86049
#
# Static dielectric constant tensor:
#      x y z
#    x 1.864350 -0.041350 -0.009390 
#    y -0.041350 1.743550 -0.002130 
#    z -0.009390 -0.002130 1.819610 
# 
# From -- ./inp_files/593543.got.cif
#   From: 2010.05.17/outbox.cif.g08.bks.cpg/sg2_297_cif.got.tgz:593543.got - 2010.06.03 11:33:40.
