data_PCOD9076820
_publ_section_title
;
Structure prediction by ZEFSAII (Michael W. Deem and Ramdas Pophale) SiO2 
 PCOD9076820
Probable space group: P -1
;
_chemical_formula_sum "Si O2"
_cell_formula_units_Z 16
_cell_length_a 14.143575
_cell_length_b 10.721458
_cell_length_c 9.325427
_cell_angle_alpha 74.058443
_cell_angle_beta 63.201197
_cell_angle_gamma 32.513454
_cell_volume 661.824167
_symmetry_space_group_name_H-M "P -1"
_symmetry_group_IT_number 2
_symmetry_cell_setting 'triclinic'
loop_
_space_group_symop_operation_xyz
x,y,z
-x,-y,-z
loop_
_atom_site_type_symbol
_atom_site_label
_atom_site_fract_x
_atom_site_fract_y
_atom_site_fract_z
Si Si1 0.008660 0.658467 0.826863
Si Si2 0.286303 0.243892 0.980648
Si Si3 0.445255 0.544859 0.762370
Si Si4 0.312338 0.049437 0.566728
Si Si5 0.401940 0.187360 0.293143
Si Si6 0.660626 0.502783 0.430938
Si Si7 0.096479 0.090844 0.887648
Si Si8 0.698628 0.503496 0.938213
O O1 0.143713 0.613485 0.653094
O O2 0.833056 0.749094 0.862056
O O3 0.162655 0.399775 0.871018
O O4 0.927558 0.825368 0.964155
O O5 0.287390 0.384132 0.005494
O O6 0.491544 0.984688 0.862945
O O7 0.625263 0.434292 0.602265
O O8 0.344622 0.568774 0.693002
O O9 0.293214 0.808987 0.832260
O O10 0.470605 0.416580 0.914308
O O11 0.435852 0.961334 0.650041
O O12 0.467852 0.792932 0.465489
O O13 0.264425 0.221166 0.446516
O O14 0.125872 0.171911 0.720829
O O15 0.326355 0.405129 0.227431
O O16 0.900832 0.223461 0.922295
#
# Coordination Sequence:
#
# PCOD9076820 Si02
#       8
#     2   2   2   2   2   2   2   2
#     4  10  18  33  60  90 110 150 203 230 287 344
#     4  10  19  33  57  88 119 148 187 243 289 355
#     4  10  20  36  60  87 118 153 200 237 287 339
#     4  10  21  37  57  84 116 153 199 228 300 354
#     4  11  21  35  58  86 121 154 188 245 295 350
#     4  10  19  35  60  87 109 153 198 245 271 349
#     4  10  20  36  59  86 114 158 199 239 276 350
#     4  11  22  35  57  92 121 151 192 243 297 337
#
# _framework density 24.175605999999998
#
# number of rings (size 3 to 8) (size 9 to 14) (size 15 to 20)
#    0.000    1.750    5.000    0.750    0.000    0.500 
#    0.000    2.500    0.000    1.500    0.000    0.000 
#    0.000    0.000    0.000    0.000    0.000    0.000 
#
# Total GULP energy -89344.071426 kJ/mol
# GULP energy per Si atom -5584.004464 kJ/mol
# Density = 2.412058 g / cm^3
# Si number density = 24.175606 Si / 1000 Ang^3
#
#
#
# Elastic Constant Matrix: (Units=GPa)
#
#
# Indices 1 2 3 4 5 6 
#
# 1 66.1440 4.3617 45.5973 -3.8816 -26.3703 10.4716
# 2 4.3617 55.4917 32.8029 2.6178 6.1371 9.7752
# 3 45.5973 32.8029 148.9816 -23.0262 -58.7892 6.6484
# 4 -3.8816 2.6178 -23.0262 40.3718 14.2480 1.9482
# 5 -26.3703 6.1371 -58.7892 14.2480 59.8110 2.3946
# 6 10.4716 9.7752 6.6484 1.9482 2.3946 22.1483
#
#
#
# Elastic Compliance Matrix: (Units=1/GPa)
#
#
# Indices 1 2 3 4 5 6 
#
# 1 0.022166 0.002628 -0.005101 -0.002375 0.005475 -0.010492
# 2 0.002628 0.027894 -0.011987 -0.003658 -0.012282 -0.008306
# 3 -0.005101 -0.011987 0.017632 0.004995 0.015108 0.000337
# 4 -0.002375 -0.003658 0.004995 0.028568 -0.002527 -0.001002
# 5 0.005475 -0.012282 0.015108 -0.002527 0.036061 -0.005379
# 6 -0.010492 -0.008306 0.000337 -0.001002 -0.005379 0.054345
#
#
# Mechanical properties :
#
#
# Convention : Reuss Voigt Hill
#
# Bulk Modulus (GPa) = 25.79273 48.46011 37.12642
# Shear Modulus (GPa) = 21.88084 36.98991 29.43537
#
# Velocity S-wave (km/s) = 3.01172 3.91583 3.49315
# Velocity P-wave (km/s) = 4.77347 6.36659 5.62670
#
# Compressibility (1/GPa) = 0.03877062
#
# Stress axis : x y z
#
# Youngs Moduli (GPa) = 45.11368 35.84965 56.71662
#
# Poissons Ratio (x) = -0.09421 0.28932
# Poissons Ratio (y) = -0.11855 0.67989
# Poissons Ratio (z) = 0.23013 0.42975
#
# Static dielectric constant tensor:
#      x y z
#    x 2.024300 -0.020360 -0.022760 
#    y -0.020360 1.940250 -0.033390 
#    z -0.022760 -0.033390 2.002490 
# 
# From -- ./inp_files/297775.got.cif
#   From: 2010.05.17/outbox.cif.g08.bks.cpg/sg2_149_cif.got.tgz:297775.got - 2010.06.03 11:33:40.
