data_PCOD9076314
_publ_section_title
;
Structure prediction by ZEFSAII (Michael W. Deem and Ramdas Pophale) SiO2 
 PCOD9076314
Probable space group: P -1
;
_chemical_formula_sum "Si O2"
_cell_formula_units_Z 16
_cell_length_a 11.460985
_cell_length_b 15.358536
_cell_length_c 11.607531
_cell_angle_alpha 122.145871
_cell_angle_beta 35.971896
_cell_angle_gamma 140.082899
_cell_volume 748.514575
_symmetry_space_group_name_H-M "P -1"
_symmetry_group_IT_number 2
_symmetry_cell_setting 'triclinic'
loop_
_space_group_symop_operation_xyz
x,y,z
-x,-y,-z
loop_
_atom_site_type_symbol
_atom_site_label
_atom_site_fract_x
_atom_site_fract_y
_atom_site_fract_z
Si Si1 0.525354 0.345534 0.416287
Si Si2 0.029511 0.224988 0.386934
Si Si3 0.017112 0.106570 0.981629
Si Si4 0.547686 0.640769 0.057199
Si Si5 0.058692 0.466626 0.199334
Si Si6 0.709565 0.177263 0.402815
Si Si7 0.535034 0.474213 0.274695
Si Si8 0.810049 0.939831 0.395390
O O1 0.541040 0.383905 0.298538
O O2 0.398067 0.397432 0.622981
O O3 0.351993 0.183340 0.468651
O O4 0.826449 0.438960 0.292242
O O5 0.227268 0.369451 0.399607
O O6 0.781123 0.183866 0.483720
O O7 0.229337 0.259200 0.148117
O O8 0.943764 0.093938 0.433817
O O9 0.309851 0.264867 0.877282
O O10 0.990695 0.062602 0.839590
O O11 0.800705 0.111723 0.206373
O O12 0.000000 0.000000 0.000000
O O13 0.271494 0.596474 0.205476
O O14 0.500000 0.500000 0.000000
O O15 0.901215 0.334380 0.315152
O O16 0.254550 0.477311 0.959775
O O17 0.409852 0.102348 0.554995
#
# Coordination Sequence:
#
# PCOD9076314 Si02
#       8
#     2   2   2   2   2   2   2   2
#     4  10  23  38  58  83 101 148 194 224 273 322
#     4  10  20  34  55  80 113 147 171 226 277 315
#     4  11  20  33  53  79 115 151 173 208 273 328
#     4  10  18  33  54  83 115 143 177 215 271 331
#     4  10  19  36  61  80 111 143 180 226 276 326
#     4  10  20  35  54  84 116 141 177 220 272 333
#     4  10  22  40  58  78 111 140 189 240 267 310
#     4  11  22  36  55  82 113 146 184 217 270 336
#
# _framework density 21.375668999999998
#
# number of rings (size 3 to 8) (size 9 to 14) (size 15 to 20)
#    0.000    1.750    5.000    1.500    1.750    1.500 
#    0.000    2.500    0.000    0.000    0.000   11.375 
#    0.000    0.000    0.000    0.000    0.000    0.000 
#
# Total GULP energy -89279.005734 kJ/mol
# GULP energy per Si atom -5579.937858 kJ/mol
# Density = 2.132702 g / cm^3
# Si number density = 21.375669 Si / 1000 Ang^3
#
#
#
# Elastic Constant Matrix: (Units=GPa)
#
#
# Indices 1 2 3 4 5 6 
#
# 1 63.7367 -5.2813 3.1164 -11.4734 1.1740 -14.7648
# 2 -5.2813 67.3358 9.4300 -15.1218 5.2075 -1.7712
# 3 3.1164 9.4300 43.3344 -5.5897 -1.8087 -1.7458
# 4 -11.4734 -15.1218 -5.5897 30.0221 -2.1418 3.4877
# 5 1.1740 5.2075 -1.8087 -2.1418 25.5456 -2.9729
# 6 -14.7648 -1.7712 -1.7458 3.4877 -2.9729 17.8236
#
#
#
# Elastic Compliance Matrix: (Units=1/GPa)
#
#
# Indices 1 2 3 4 5 6 
#
# 1 0.021338 0.003974 -0.000647 0.008170 0.000773 0.016538
# 2 0.003974 0.018021 -0.003004 0.009542 -0.002987 0.002423
# 3 -0.000647 -0.003004 0.024311 0.002794 0.002768 0.001462
# 4 0.008170 0.009542 0.002794 0.041853 0.001390 0.000032
# 5 0.000773 -0.002987 0.002768 0.001390 0.040865 0.007159
# 6 0.016538 0.002423 0.001462 0.000032 0.007159 0.071377
#
#
# Mechanical properties :
#
#
# Convention : Reuss Voigt Hill
#
# Bulk Modulus (GPa) = 15.54790 20.99299 18.27045
# Shear Modulus (GPa) = 20.95940 25.82105 23.39023
#
# Velocity S-wave (km/s) = 3.13473 3.47935 3.31153
# Velocity P-wave (km/s) = 4.51569 5.09740 4.81534
#
# Compressibility (1/GPa) = 0.06431736
#
# Stress axis : x y z
#
# Youngs Moduli (GPa) = 46.86482 55.49121 41.13317
#
# Poissons Ratio (x) = -0.22053 0.02661
# Poissons Ratio (y) = -0.18625 0.12355
# Poissons Ratio (z) = 0.03032 0.16667
#
# Static dielectric constant tensor:
#      x y z
#    x 1.810070 0.005120 -0.028050 
#    y 0.005120 1.833020 0.003790 
#    z -0.028050 0.003790 1.768260 
# 
# From -- ./inp_files/171583.got.cif
#   From: 2010.05.17/outbox.cif.g08.bks.cpg/sg2_86_cif.got.tgz:171583.got - 2010.06.03 11:33:40.
