data_PCOD9076971
_publ_section_title
;
Structure prediction by ZEFSAII (Michael W. Deem and Ramdas Pophale) SiO2 
 PCOD9076971
Probable space group: P -1
;
_chemical_formula_sum "Si O2"
_cell_formula_units_Z 14
_cell_length_a 6.373840
_cell_length_b 14.590556
_cell_length_c 20.552218
_cell_angle_alpha 30.782073
_cell_angle_beta 66.103860
_cell_angle_gamma 59.058611
_cell_volume 836.032960
_symmetry_space_group_name_H-M "P -1"
_symmetry_group_IT_number 2
_symmetry_cell_setting 'triclinic'
loop_
_space_group_symop_operation_xyz
x,y,z
-x,-y,-z
loop_
_atom_site_type_symbol
_atom_site_label
_atom_site_fract_x
_atom_site_fract_y
_atom_site_fract_z
Si Si1 0.877240 0.341987 0.712427
Si Si2 0.929149 0.737886 0.503164
Si Si3 0.932967 0.289497 0.344379
Si Si4 0.314223 0.704617 0.374310
Si Si5 0.401215 0.965987 0.463114
Si Si6 0.637038 0.911179 0.138573
Si Si7 0.404709 0.296683 0.861941
O O1 0.946385 0.526103 0.608286
O O2 0.826880 0.330589 0.649705
O O3 0.629656 0.357178 0.771954
O O4 0.096695 0.152761 0.823476
O O5 0.004142 0.726620 0.576444
O O6 0.121371 0.793010 0.401901
O O7 0.647953 0.878762 0.443393
O O8 0.814452 0.512263 0.206440
O O9 0.182206 0.163918 0.352581
O O10 0.733522 0.188194 0.420560
O O11 0.500000 0.500000 0.500000
O O12 0.467273 0.833017 0.252572
O O13 0.500000 0.000000 0.500000
O O14 0.668989 0.800203 0.132939
O O15 0.506060 0.133479 0.002833
#
# Coordination Sequence:
#
# PCOD9076971 Si02
#       7
#     2   2   2   2   2   2   2
#     4  11  19  32  50  76 104 139 168 203 253 304
#     4  11  19  31  52  76 105 135 162 209 259 300
#     4  10  18  34  53  76 103 131 168 216 259 293
#     4  11  22  32  48  75 109 140 170 202 249 308
#     4   9  20  32  50  79 100 127 173 213 262 297
#     4  10  21  33  47  76 107 139 173 199 246 311
#     4  10  19  33  52  73 104 138 171 210 248 297
#
# _framework density 16.745750999999998
#
# number of rings (size 3 to 8) (size 9 to 14) (size 15 to 20)
#    0.000    1.714    4.286    1.714    0.000    0.000 
#    0.000    0.000    0.000    0.857    0.000   10.000 
#    0.000    0.000    0.000    0.000    0.000    0.000 
#
# Total GULP energy -78090.229093 kJ/mol
# GULP energy per Si atom -5577.873507 kJ/mol
# Density = 1.670764 g / cm^3
# Si number density = 16.745751 Si / 1000 Ang^3
#
#
#
# Elastic Constant Matrix: (Units=GPa)
#
#
# Indices 1 2 3 4 5 6 
#
# 1 67.1211 11.3796 13.3075 -8.9018 23.0687 -2.0399
# 2 11.3796 58.0450 34.8959 -17.4009 15.7980 -26.6789
# 3 13.3075 34.8959 89.0828 -20.6073 26.6735 -10.0605
# 4 -8.9018 -17.4009 -20.6073 30.1561 -4.5871 6.7836
# 5 23.0687 15.7980 26.6735 -4.5871 24.4072 -9.2283
# 6 -2.0399 -26.6789 -10.0605 6.7836 -9.2283 30.5758
#
#
#
# Elastic Compliance Matrix: (Units=1/GPa)
#
#
# Indices 1 2 3 4 5 6 
#
# 1 0.026520 -0.003006 0.008495 0.008989 -0.034693 -0.010524
# 2 -0.003006 0.039832 -0.010063 0.008699 0.000875 0.029577
# 3 0.008495 -0.010063 0.024292 0.011354 -0.030439 -0.011927
# 4 0.008989 0.008699 0.011354 0.046603 -0.019389 -0.004265
# 5 -0.034693 0.000875 -0.030439 -0.019389 0.112960 0.026829
# 6 -0.010524 0.029577 -0.011927 -0.004265 0.026829 0.062931
#
#
# Mechanical properties :
#
#
# Convention : Reuss Voigt Hill
#
# Bulk Modulus (GPa) = 12.27086 37.04610 24.65848
# Shear Modulus (GPa) = 14.30816 27.33888 20.82352
#
# Velocity S-wave (km/s) = 2.92624 4.04491 3.53017
# Velocity P-wave (km/s) = 4.33138 6.63218 5.60119
#
# Compressibility (1/GPa) = 0.08149391
#
# Stress axis : x y z
#
# Youngs Moduli (GPa) = 37.70792 25.10574 41.16556
#
# Poissons Ratio (x) = 0.07547 -0.34969
# Poissons Ratio (y) = 0.11335 0.41426
# Poissons Ratio (z) = -0.32031 0.25265
#
# Static dielectric constant tensor:
#      x y z
#    x 1.584280 -0.013650 0.010260 
#    y -0.013650 1.572370 -0.019840 
#    z 0.010260 -0.019840 1.552210 
# 
# From -- ./inp_files/34534.got.cif
#   From: 2010.05.17/outbox.cif.g08.bks.cpg/sg2_18_cif.got.tgz:34534.got - 2010.06.03 11:33:40.
