data_PCOD9076919
_publ_section_title
;
Structure prediction by ZEFSAII (Michael W. Deem and Ramdas Pophale) SiO2 
 PCOD9076919
Probable space group: P -1
;
_chemical_formula_sum "Si O2"
_cell_formula_units_Z 14
_cell_length_a 9.063628
_cell_length_b 12.576871
_cell_length_c 7.626946
_cell_angle_alpha 100.141722
_cell_angle_beta 48.801427
_cell_angle_gamma 114.048008
_cell_volume 591.975769
_symmetry_space_group_name_H-M "P -1"
_symmetry_group_IT_number 2
_symmetry_cell_setting 'triclinic'
loop_
_space_group_symop_operation_xyz
x,y,z
-x,-y,-z
loop_
_atom_site_type_symbol
_atom_site_label
_atom_site_fract_x
_atom_site_fract_y
_atom_site_fract_z
Si Si1 0.149674 0.579411 0.056998
Si Si2 0.371543 0.987244 0.409475
Si Si3 0.607334 0.614155 0.573380
Si Si4 0.288333 0.508755 0.251636
Si Si5 0.177778 0.147239 0.745120
Si Si6 0.768731 0.188583 0.091803
Si Si7 0.390580 0.764928 0.395618
O O1 0.119443 0.498875 0.229275
O O2 0.401252 0.617913 0.831738
O O3 0.137248 0.705663 0.087982
O O4 0.000000 0.500000 0.000000
O O5 0.189439 0.036095 0.600771
O O6 0.550008 0.082579 0.178007
O O7 0.500000 0.000000 0.500000
O O8 0.310807 0.851891 0.374834
O O9 0.500000 0.500000 0.500000
O O10 0.759591 0.583509 0.580040
O O11 0.721249 0.734292 0.415716
O O12 0.342835 0.638160 0.321091
O O13 0.500000 0.500000 0.000000
O O14 0.351677 0.173587 0.771003
O O15 0.946276 0.136909 0.977644
O O16 0.710004 0.241048 0.332366
#
# Coordination Sequence:
#
# PCOD9076919 Si02
#       7
#     2   2   2   2   2   2   2
#     4  11  22  37  60  90 119 161 207 256 309 361
#     4   8  18  34  58  91 122 157 207 248 294 362
#     4  11  18  37  61  87 126 163 198 250 306 367
#     4  10  23  38  63  90 124 161 209 249 309 367
#     4  10  18  33  65  89 121 165 197 242 312 361
#     4  10  19  35  61  91 120 161 204 245 306 361
#     4  10  20  39  61  89 124 159 204 255 298 363
#
# _framework density 23.649616999999999
#
# number of rings (size 3 to 8) (size 9 to 14) (size 15 to 20)
#    0.000    2.286    4.286    0.857    2.000    5.143 
#    0.000    7.143    0.000    0.857    0.000    0.000 
#    0.000    0.000    0.000    0.000    0.000    0.000 
#
# Total GULP energy -78157.414440 kJ/mol
# GULP energy per Si atom -5582.672460 kJ/mol
# Density = 2.359579 g / cm^3
# Si number density = 23.649617 Si / 1000 Ang^3
#
#
#
# Elastic Constant Matrix: (Units=GPa)
#
#
# Indices 1 2 3 4 5 6 
#
# 1 104.2409 29.6838 23.9391 12.2963 -2.0365 -24.0215
# 2 29.6838 147.6548 36.8371 13.4641 6.8303 -35.3093
# 3 23.9391 36.8371 87.2763 13.7642 -22.8225 -5.6081
# 4 12.2963 13.4641 13.7642 41.4728 -20.4849 -3.2366
# 5 -2.0365 6.8303 -22.8225 -20.4849 42.8402 2.1207
# 6 -24.0215 -35.3093 -5.6081 -3.2366 2.1207 33.8012
#
#
#
# Elastic Compliance Matrix: (Units=1/GPa)
#
#
# Indices 1 2 3 4 5 6 
#
# 1 0.012737 0.001260 -0.003823 -0.004201 -0.004116 0.009590
# 2 0.001260 0.011724 -0.005774 -0.005268 -0.008007 0.012182
# 3 -0.003823 -0.005774 0.017114 0.002427 0.011333 -0.006388
# 4 -0.004201 -0.005268 0.002427 0.035219 0.019066 -0.005910
# 5 -0.004116 -0.008007 0.011333 0.019066 0.040078 -0.010098
# 6 0.009590 0.012182 -0.006388 -0.005910 -0.010098 0.048134
#
#
# Mechanical properties :
#
#
# Convention : Reuss Voigt Hill
#
# Bulk Modulus (GPa) = 40.16007 57.78800 48.97403
# Shear Modulus (GPa) = 26.31857 40.20365 33.26111
#
# Velocity S-wave (km/s) = 3.33957 4.12754 3.75428
# Velocity P-wave (km/s) = 5.64698 6.87049 6.28856
#
# Compressibility (1/GPa) = 0.02490036
#
# Stress axis : x y z
#
# Youngs Moduli (GPa) = 78.50878 85.29689 58.43215
#
# Poissons Ratio (x) = -0.10746 0.22338
# Poissons Ratio (y) = -0.09891 0.33740
# Poissons Ratio (z) = 0.30013 0.49252
#
# Static dielectric constant tensor:
#      x y z
#    x 1.973330 -0.052910 0.023440 
#    y -0.052910 1.982490 0.022980 
#    z 0.023440 0.022980 2.029590 
# 
# From -- ./inp_files/179804.got.cif
#   From: 2010.05.17/outbox.cif.g08.bks.cpg/sg2_90_cif.got.tgz:179804.got - 2010.06.03 11:33:40.
