data_PCOD9076074
_publ_section_title
;
Structure prediction by ZEFSAII (Michael W. Deem and Ramdas Pophale) SiO2 
 PCOD9076074
Probable space group: P -1
;
_chemical_formula_sum "Si O2"
_cell_formula_units_Z 15
_cell_length_a 8.460165
_cell_length_b 7.995295
_cell_length_c 14.700640
_cell_angle_alpha 91.401195
_cell_angle_beta 46.050589
_cell_angle_gamma 77.026323
_cell_volume 674.206049
_symmetry_space_group_name_H-M "P -1"
_symmetry_group_IT_number 2
_symmetry_cell_setting 'triclinic'
loop_
_space_group_symop_operation_xyz
x,y,z
-x,-y,-z
loop_
_atom_site_type_symbol
_atom_site_label
_atom_site_fract_x
_atom_site_fract_y
_atom_site_fract_z
Si Si1 0.230056 0.467741 0.202548
Si Si2 0.790610 0.765207 0.320996
Si Si3 0.592876 0.299397 0.425469
Si Si4 0.497115 0.757429 0.071178
Si Si5 0.955559 0.956861 0.800479
Si Si6 0.242884 0.374949 0.861570
Si Si7 0.000000 0.000000 0.000000
Si Si8 0.537071 0.321732 0.240919
O O1 0.369261 0.609538 0.134314
O O2 0.314303 0.374545 0.264216
O O3 0.964150 0.590428 0.298599
O O4 0.320244 0.324725 0.083581
O O5 0.531597 0.799572 0.459239
O O6 0.898823 0.918767 0.290818
O O7 0.802366 0.726376 0.208272
O O8 0.500000 0.500000 0.500000
O O9 0.509505 0.275131 0.355870
O O10 0.873908 0.230142 0.307057
O O11 0.628871 0.759000 0.112378
O O12 0.304075 0.944342 0.128908
O O13 0.957608 0.960990 0.908556
O O14 0.386124 0.502995 0.780348
O O15 0.000000 0.500000 0.000000
O O16 0.252492 0.831986 0.892898
#
# Coordination Sequence:
#
# PCOD9076074 Si02
#       8
#     2   2   2   2   2   2   1   2
#     4   9  17  32  57  85 115 144 191 242 282 345
#     4  11  21  37  60  87 115 152 203 233 278 350
#     4  11  23  40  60  81 120 161 192 236 287 347
#     4   9  17  32  55  89 114 147 184 241 298 333
#     4  10  21  38  63  85 115 152 198 238 286 347
#     4  11  19  31  59  89 118 146 189 242 291 340
#     4  10  18  32  60  84 114 144 192 234 290 336
#     4  10  20  35  57  84 114 158 191 231 296 341
#
# _framework density 22.248393
#
# number of rings (size 3 to 8) (size 9 to 14) (size 15 to 20)
#    0.000    1.867    4.000    1.200    0.000    0.533 
#    0.000    0.667   11.733    5.600    0.000    0.000 
#    0.000    0.000    0.000    0.000    0.000    0.000 
#
# Total GULP energy -83631.538194 kJ/mol
# GULP energy per Si atom -5575.435880 kJ/mol
# Density = 2.219775 g / cm^3
# Si number density = 22.248393 Si / 1000 Ang^3
#
#
#
# Elastic Constant Matrix: (Units=GPa)
#
#
# Indices 1 2 3 4 5 6 
#
# 1 80.4026 17.8291 24.6033 14.1982 -8.8952 -43.5298
# 2 17.8291 60.0194 20.3712 17.9699 -6.3191 -2.8847
# 3 24.6033 20.3712 119.0196 24.7058 -2.6167 -8.6355
# 4 14.1982 17.9699 24.7058 42.7473 -0.5685 -12.0674
# 5 -8.8952 -6.3191 -2.6167 -0.5685 27.7793 3.2985
# 6 -43.5298 -2.8847 -8.6355 -12.0674 3.2985 46.7593
#
#
#
# Elastic Compliance Matrix: (Units=1/GPa)
#
#
# Indices 1 2 3 4 5 6 
#
# 1 0.029484 -0.006602 -0.003464 0.002597 0.004490 0.026754
# 2 -0.006602 0.021452 -0.001055 -0.008256 0.003375 -0.007386
# 3 -0.003464 -0.001055 0.010144 -0.005034 -0.000176 -0.002703
# 4 0.002597 -0.008256 -0.005034 0.031494 -0.001974 0.009245
# 5 0.004490 0.003375 -0.000176 -0.001974 0.038008 0.001165
# 6 0.026754 -0.007386 -0.002703 0.009245 0.001165 0.047642
#
#
# Mechanical properties :
#
#
# Convention : Reuss Voigt Hill
#
# Bulk Modulus (GPa) = 25.74748 42.78320 34.26534
# Shear Modulus (GPa) = 23.42889 36.56639 29.99764
#
# Velocity S-wave (km/s) = 3.24861 4.05847 3.67591
# Velocity P-wave (km/s) = 5.06647 6.42130 5.78370
#
# Compressibility (1/GPa) = 0.03883876
#
# Stress axis : x y z
#
# Youngs Moduli (GPa) = 33.91653 46.61463 98.58479
#
# Poissons Ratio (x) = 0.30773 0.34151
# Poissons Ratio (y) = 0.22390 0.10402
# Poissons Ratio (z) = 0.11749 0.04918
#
# Static dielectric constant tensor:
#      x y z
#    x 1.818050 0.031900 -0.033740 
#    y 0.031900 1.931390 -0.014060 
#    z -0.033740 -0.014060 1.782680 
# 
# From -- ./inp_files/182814.got.cif
#   From: 2010.05.17/outbox.cif.g08.bks.cpg/sg2_92_cif.got.tgz:182814.got - 2010.06.03 11:33:40.
