data_PCOD9076087
_publ_section_title
;
Structure prediction by ZEFSAII (Michael W. Deem and Ramdas Pophale) SiO2 
 PCOD9076087
Probable space group: P -1
;
_chemical_formula_sum "Si O2"
_cell_formula_units_Z 16
_cell_length_a 14.967399
_cell_length_b 17.599349
_cell_length_c 24.170884
_cell_angle_alpha 18.743782
_cell_angle_beta 146.906880
_cell_angle_gamma 154.786025
_cell_volume 863.178384
_symmetry_space_group_name_H-M "P -1"
_symmetry_group_IT_number 2
_symmetry_cell_setting 'triclinic'
loop_
_space_group_symop_operation_xyz
x,y,z
-x,-y,-z
loop_
_atom_site_type_symbol
_atom_site_label
_atom_site_fract_x
_atom_site_fract_y
_atom_site_fract_z
Si Si1 0.561120 0.112965 0.221135
Si Si2 0.978743 0.416223 0.815064
Si Si3 0.652384 0.592574 0.095509
Si Si4 0.991541 0.921327 0.141355
Si Si5 0.528478 0.960526 0.478353
Si Si6 0.011272 0.721589 0.514351
Si Si7 0.357409 0.572264 0.401459
Si Si8 0.796408 0.354935 0.551370
O O1 0.800163 0.304678 0.235295
O O2 0.498608 0.888104 0.292127
O O3 0.392113 0.881232 0.339984
O O4 0.511626 0.343730 0.024241
O O5 0.991333 0.464914 0.720075
O O6 0.780980 0.407544 0.729287
O O7 0.938647 0.106320 0.020927
O O8 0.550854 0.247053 0.267515
O O9 0.805997 0.811316 0.974949
O O10 0.801382 0.700514 0.152133
O O11 0.079862 0.764662 0.321862
O O12 0.739445 0.005566 0.543964
O O13 0.500000 0.000000 0.500000
O O14 0.329849 0.651872 0.560334
O O15 0.171376 0.300445 0.533626
O O16 0.952260 0.636668 0.478523
O O17 0.500000 0.500000 0.500000
#
# Coordination Sequence:
#
# PCOD9076087 Si02
#       8
#     2   2   2   2   2   2   2   2
#     4  10  17  27  51  68  93 124 147 194 237 278
#     4  10  16  27  44  69  93 117 150 183 229 278
#     4  10  16  29  43  69  91 122 158 184 230 272
#     4  10  14  26  50  64  91 121 150 194 229 273
#     4  12  22  31  44  67 100 133 161 183 214 274
#     4   9  18  32  43  62  96 122 156 186 222 277
#     4   9  18  30  46  71  97 118 145 193 249 286
#     4  10  17  29  47  65  90 127 157 185 231 265
#
# _framework density 18.536145999999999
#
# number of rings (size 3 to 8) (size 9 to 14) (size 15 to 20)
#    0.750    1.250    5.000    1.500    0.000    3.000 
#    0.000    0.000    0.000    0.000    0.000    0.875 
#    0.000    6.250    0.000    0.000    0.000    0.000 
#
# Total GULP energy -89071.679202 kJ/mol
# GULP energy per Si atom -5566.979950 kJ/mol
# Density = 1.849396 g / cm^3
# Si number density = 18.536146 Si / 1000 Ang^3
#
#
#
# Elastic Constant Matrix: (Units=GPa)
#
#
# Indices 1 2 3 4 5 6 
#
# 1 73.7476 43.7009 21.5068 15.2039 25.3485 18.1134
# 2 43.7009 141.4994 21.6248 20.5631 20.3763 5.8589
# 3 21.5068 21.6248 32.5933 11.4394 12.8375 6.2237
# 4 15.2039 20.5631 11.4394 25.4298 5.3385 3.2035
# 5 25.3485 20.3763 12.8375 5.3385 31.1626 10.6073
# 6 18.1134 5.8589 6.2237 3.2035 10.6073 26.0607
#
#
#
# Elastic Compliance Matrix: (Units=1/GPa)
#
#
# Indices 1 2 3 4 5 6 
#
# 1 0.024967 -0.004048 -0.005596 -0.005572 -0.011021 -0.009937
# 2 -0.004048 0.009422 -0.001647 -0.004292 -0.002327 0.002563
# 3 -0.005596 -0.001647 0.044116 -0.012971 -0.010134 -0.000557
# 4 -0.005572 -0.004292 -0.012971 0.051134 0.003901 0.000062
# 5 -0.011021 -0.002327 -0.010134 0.003901 0.049493 -0.010021
# 6 -0.009937 0.002563 -0.000557 0.000062 -0.010021 0.048906
#
#
# Mechanical properties :
#
#
# Convention : Reuss Voigt Hill
#
# Bulk Modulus (GPa) = 17.88102 46.83391 32.35746
# Shear Modulus (GPa) = 18.56942 27.26449 22.91696
#
# Velocity S-wave (km/s) = 3.16855 3.83937 3.51998
# Velocity P-wave (km/s) = 4.80143 6.70637 5.83220
#
# Compressibility (1/GPa) = 0.05592522
#
# Stress axis : x y z
#
# Youngs Moduli (GPa) = 40.05224 106.13912 22.66746
#
# Poissons Ratio (x) = 0.42962 0.12684
# Poissons Ratio (y) = 0.16212 0.03732
# Poissons Ratio (z) = 0.22412 0.17477
#
# Static dielectric constant tensor:
#      x y z
#    x 1.667550 0.005540 -0.043540 
#    y 0.005540 1.708920 0.002930 
#    z -0.043540 0.002930 1.705250 
# 
# From -- ./inp_files/580081.got.cif
#   From: 2010.05.17/outbox.cif.g08.bks.cpg/sg2_291_cif.got.tgz:580081.got - 2010.06.03 11:33:40.
