data_PCOD9076177
_publ_section_title
;
Structure prediction by ZEFSAII (Michael W. Deem and Ramdas Pophale) SiO2 
 PCOD9076177
Probable space group: P -1
;
_chemical_formula_sum "Si O2"
_cell_formula_units_Z 16
_cell_length_a 14.655508
_cell_length_b 8.951438
_cell_length_c 10.068730
_cell_angle_alpha 51.823699
_cell_angle_beta 43.119999
_cell_angle_gamma 47.167651
_cell_volume 642.258752
_symmetry_space_group_name_H-M "P -1"
_symmetry_group_IT_number 2
_symmetry_cell_setting 'triclinic'
loop_
_space_group_symop_operation_xyz
x,y,z
-x,-y,-z
loop_
_atom_site_type_symbol
_atom_site_label
_atom_site_fract_x
_atom_site_fract_y
_atom_site_fract_z
Si Si1 0.833674 0.879377 0.295217
Si Si2 0.875873 0.713212 0.063536
Si Si3 0.428753 0.217176 0.765801
Si Si4 0.682182 0.577446 0.700362
Si Si5 0.546169 0.189955 0.389383
Si Si6 0.490352 0.751686 0.059903
Si Si7 0.995024 0.712789 0.453801
Si Si8 0.151567 0.018967 0.303567
O O1 0.737735 0.763455 0.525157
O O2 0.938487 0.880785 0.301440
O O3 0.719764 0.094783 0.230932
O O4 0.909579 0.740782 0.163944
O O5 0.863945 0.893786 0.876102
O O6 0.718549 0.708341 0.207311
O O7 0.000000 0.500000 0.000000
O O8 0.538943 0.229214 0.532552
O O9 0.421482 0.326297 0.853309
O O10 0.478086 0.976664 0.891675
O O11 0.566995 0.617645 0.680298
O O12 0.833208 0.365852 0.646930
O O13 0.588534 0.603512 0.918829
O O14 0.500000 0.000000 0.500000
O O15 0.316134 0.834082 0.240256
O O16 0.000000 0.500000 0.500000
O O17 0.877554 0.801211 0.650343
O O18 0.000000 0.000000 0.500000
#
# Coordination Sequence:
#
# PCOD9076177 Si02
#       8
#     2   2   2   2   2   2   2   2
#     4  10  18  31  52  86 122 147 191 257 318 348
#     4  11  21  33  58  93 120 154 205 260 303 354
#     4  10  18  28  51  85 120 142 200 256 303 349
#     4  10  18  31  53  89 120 145 195 264 308 342
#     4  10  14  27  44  73 115 143 177 241 313 350
#     4  10  20  32  56  85 116 163 204 246 302 375
#     4  10  22  36  59  91 123 156 203 262 305 352
#     4  11  25  44  60  85 131 176 200 238 320 396
#
# _framework density 24.912078999999999
#
# number of rings (size 3 to 8) (size 9 to 14) (size 15 to 20)
#    0.000    1.750    5.000    3.000   10.500    0.000 
#    0.000    1.250    0.000    0.750    0.000    0.000 
#    0.000    0.000    0.000    0.000    0.000    0.000 
#
# Total GULP energy -89258.791131 kJ/mol
# GULP energy per Si atom -5578.674446 kJ/mol
# Density = 2.485538 g / cm^3
# Si number density = 24.912079 Si / 1000 Ang^3
#
#
#
# Elastic Constant Matrix: (Units=GPa)
#
#
# Indices 1 2 3 4 5 6 
#
# 1 75.9110 18.4612 32.1722 -3.5936 28.0994 -25.6754
# 2 18.4612 83.1050 23.4953 21.9746 -3.1273 -31.9434
# 3 32.1722 23.4953 134.1062 30.5483 24.3463 3.8979
# 4 -3.5936 21.9746 30.5483 28.0219 -2.4129 -2.9344
# 5 28.0994 -3.1273 24.3463 -2.4129 43.4082 -1.0938
# 6 -25.6754 -31.9434 3.8979 -2.9344 -1.0938 45.5111
#
#
#
# Elastic Compliance Matrix: (Units=1/GPa)
#
#
# Indices 1 2 3 4 5 6 
#
# 1 0.027258 -0.002355 -0.007489 0.014002 -0.012458 0.014970
# 2 -0.002355 0.021961 -0.000810 -0.014989 0.003062 0.013262
# 3 -0.007489 -0.000810 0.014267 -0.017009 -0.004340 -0.007216
# 4 0.014002 -0.014989 -0.017009 0.068409 0.003282 0.003325
# 5 -0.012458 0.003062 -0.004340 0.003282 0.033851 -0.003483
# 6 0.014970 0.013262 -0.007216 0.003325 -0.003483 0.040475
#
#
# Mechanical properties :
#
#
# Convention : Reuss Voigt Hill
#
# Bulk Modulus (GPa) = 23.70892 49.04220 36.37556
# Shear Modulus (GPa) = 20.69636 37.98780 29.34208
#
# Velocity S-wave (km/s) = 2.88545 3.90920 3.43567
# Velocity P-wave (km/s) = 4.54299 6.33282 5.51105
#
# Compressibility (1/GPa) = 0.04217821
#
# Stress axis : x y z
#
# Youngs Moduli (GPa) = 36.68676 45.53510 70.09016
#
# Poissons Ratio (x) = 0.10723 0.52494
# Poissons Ratio (y) = 0.08639 0.05675
# Poissons Ratio (z) = 0.27476 0.03687
#
# Static dielectric constant tensor:
#      x y z
#    x 2.233240 0.111520 -0.007230 
#    y 0.111520 2.108460 0.042350 
#    z -0.007230 0.042350 2.031660 
# 
# From -- ./inp_files/302757.got.cif
#   From: 2010.05.17/outbox.cif.g08.bks.cpg/sg2_152_cif.got.tgz:302757.got - 2010.06.03 11:33:40.
