data_PCOD9076694
_publ_section_title
;
Structure prediction by ZEFSAII (Michael W. Deem and Ramdas Pophale) SiO2 
 PCOD9076694
Probable space group: P -1
;
_chemical_formula_sum "Si O2"
_cell_formula_units_Z 14
_cell_length_a 5.300055
_cell_length_b 14.569075
_cell_length_c 9.397574
_cell_angle_alpha 117.921118
_cell_angle_beta 70.547820
_cell_angle_gamma 120.544107
_cell_volume 547.884674
_symmetry_space_group_name_H-M "P -1"
_symmetry_group_IT_number 2
_symmetry_cell_setting 'triclinic'
loop_
_space_group_symop_operation_xyz
x,y,z
-x,-y,-z
loop_
_atom_site_type_symbol
_atom_site_label
_atom_site_fract_x
_atom_site_fract_y
_atom_site_fract_z
Si Si1 0.765710 0.747099 0.055479
Si Si2 0.072098 0.900072 0.852217
Si Si3 0.717892 0.585006 0.400512
Si Si4 0.605865 0.855898 0.683529
Si Si5 0.787407 0.369347 0.478433
Si Si6 0.467579 0.118301 0.612395
Si Si7 0.111749 0.665948 0.147688
O O1 0.904307 0.792960 0.909992
O O2 0.765100 0.857418 0.224304
O O3 0.937668 0.686638 0.064418
O O4 0.419675 0.663255 0.047585
O O5 0.914318 0.883031 0.716862
O O6 0.417899 0.928066 0.807988
O O7 0.000000 0.000000 0.000000
O O8 0.500000 0.500000 0.500000
O O9 0.493839 0.623869 0.387928
O O10 0.909035 0.566809 0.223378
O O11 0.988065 0.667980 0.508683
O O12 0.383119 0.725128 0.675267
O O13 0.608683 0.855888 0.513016
O O14 0.000000 0.500000 0.500000
O O15 0.765489 0.213916 0.697017
O O16 0.500000 0.000000 0.500000
#
# Coordination Sequence:
#
# PCOD9076694 Si02
#       7
#     2   2   2   2   2   2   2
#     4  10  23  40  58  81 130 171 201 251 325 372
#     4  12  27  43  61  90 136 182 222 256 314 390
#     4  10  18  33  58  94 125 150 193 265 332 369
#     4  12  24  40  67  95 128 167 225 270 315 377
#     4  10  20  36  59  95 129 150 200 275 336 359
#     4  10  23  36  62  91 124 161 214 267 319 371
#     4  10  20  36  59  84 125 153 215 246 330 372
#
# _framework density 25.552821999999999
#
# number of rings (size 3 to 8) (size 9 to 14) (size 15 to 20)
#    0.857    0.571    1.429    4.714    4.000    0.571 
#    0.000    0.000    0.000    0.000    0.000  106.000 
#    0.000    0.000    0.000    0.000    0.000    0.000 
#
# Total GULP energy -77966.479059 kJ/mol
# GULP energy per Si atom -5569.034219 kJ/mol
# Density = 2.549466 g / cm^3
# Si number density = 25.552822 Si / 1000 Ang^3
#
#
#
# Elastic Constant Matrix: (Units=GPa)
#
#
# Indices 1 2 3 4 5 6 
#
# 1 157.6594 0.3057 32.9697 -27.8133 22.1193 -6.1903
# 2 0.3057 62.2174 17.6906 -14.8955 15.5225 -5.5782
# 3 32.9697 17.6906 63.8688 -25.8123 10.3417 -1.7536
# 4 -27.8133 -14.8955 -25.8123 53.0047 3.3619 -4.5632
# 5 22.1193 15.5225 10.3417 3.3619 41.5479 -7.4377
# 6 -6.1903 -5.5782 -1.7536 -4.5632 -7.4377 23.6263
#
#
#
# Elastic Compliance Matrix: (Units=1/GPa)
#
#
# Indices 1 2 3 4 5 6 
#
# 1 0.008479 0.003245 -0.002518 0.004638 -0.005101 0.002091
# 2 0.003245 0.021184 -0.003188 0.007018 -0.008656 0.004245
# 3 -0.002518 -0.003188 0.021977 0.008777 -0.003504 0.000811
# 4 0.004638 0.007018 0.008777 0.028633 -0.008448 0.006394
# 5 -0.005101 -0.008656 -0.003504 -0.008448 0.032459 0.004946
# 6 0.002091 0.004245 0.000811 0.006394 0.004946 0.046728
#
#
# Mechanical properties :
#
#
# Convention : Reuss Voigt Hill
#
# Bulk Modulus (GPa) = 21.40552 42.85306 32.12929
# Shear Modulus (GPa) = 27.78483 39.15444 33.46964
#
# Velocity S-wave (km/s) = 3.30107 3.91870 3.62307
# Velocity P-wave (km/s) = 4.78797 6.10588 5.48664
#
# Compressibility (1/GPa) = 0.04671693
#
# Stress axis : x y z
#
# Youngs Moduli (GPa) = 117.93835 47.20650 45.50268
#
# Poissons Ratio (x) = -0.15317 0.11456
# Poissons Ratio (y) = -0.38268 0.14507
# Poissons Ratio (z) = 0.29694 0.15050
#
# Static dielectric constant tensor:
#      x y z
#    x 1.952080 0.106570 -0.056170 
#    y 0.106570 1.827170 0.091390 
#    z -0.056170 0.091390 2.019910 
# 
# From -- ./inp_files/135530.got.cif
#   From: 2010.05.17/outbox.cif.g08.bks.cpg/sg2_68_cif.got.tgz:135530.got - 2010.06.03 11:33:40.
