data_PCOD9076958
_publ_section_title
;
Structure prediction by ZEFSAII (Michael W. Deem and Ramdas Pophale) SiO2 
 PCOD9076958
Probable space group: P -1
;
_chemical_formula_sum "Si O2"
_cell_formula_units_Z 16
_cell_length_a 13.877702
_cell_length_b 14.388980
_cell_length_c 5.168470
_cell_angle_alpha 47.736297
_cell_angle_beta 81.503555
_cell_angle_gamma 72.725130
_cell_volume 727.363106
_symmetry_space_group_name_H-M "P -1"
_symmetry_group_IT_number 2
_symmetry_cell_setting 'triclinic'
loop_
_space_group_symop_operation_xyz
x,y,z
-x,-y,-z
loop_
_atom_site_type_symbol
_atom_site_label
_atom_site_fract_x
_atom_site_fract_y
_atom_site_fract_z
Si Si1 0.253682 0.767159 0.361055
Si Si2 0.590717 0.095208 0.048589
Si Si3 0.966347 0.348663 0.783703
Si Si4 0.106067 0.874323 0.582126
Si Si5 0.180001 0.273009 0.112271
Si Si6 0.366955 0.081850 0.131978
Si Si7 0.149890 0.542525 0.852340
Si Si8 0.892562 0.957894 0.305794
O O1 0.217910 0.789079 0.631703
O O2 0.221920 0.635114 0.565482
O O3 0.363001 0.782000 0.228294
O O4 0.179115 0.907046 0.029594
O O5 0.470459 0.126454 0.001935
O O6 0.618438 0.025972 0.443670
O O7 0.638681 0.990628 0.000063
O O8 0.944162 0.411669 0.394746
O O9 0.938193 0.211536 0.040333
O O10 0.892383 0.424351 0.902598
O O11 0.079995 0.325847 0.877441
O O12 0.015273 0.905438 0.347664
O O13 0.117091 0.006748 0.449528
O O14 0.273568 0.200039 0.033524
O O15 0.151817 0.162490 0.507762
O O16 0.197563 0.391531 0.051598
#
# Coordination Sequence:
#
# PCOD9076958 Si02
#       8
#     2   2   2   2   2   2   2   2
#     4  11  20  35  58  79 115 155 186 233 295 340
#     4  10  22  39  64  86 116 147 191 245 300 338
#     4  10  22  40  57  82 122 162 195 230 282 348
#     4   9  19  32  52  83 112 149 191 242 273 343
#     4  11  22  38  60  86 118 158 196 240 289 338
#     4  10  22  41  60  91 114 144 195 248 289 345
#     4  11  24  39  56  86 123 158 195 231 281 354
#     4  10  18  34  52  82 113 145 197 233 286 336
#
# _framework density 21.997267000000001
#
# number of rings (size 3 to 8) (size 9 to 14) (size 15 to 20)
#    0.000    1.750    2.500    1.875    0.000    2.000 
#    4.500    0.625    0.000    0.000    0.000    7.875 
#    0.000    0.000    0.000    0.000    0.000    0.000 
#
# Total GULP energy -89211.958558 kJ/mol
# GULP energy per Si atom -5575.747410 kJ/mol
# Density = 2.194720 g / cm^3
# Si number density = 21.997267 Si / 1000 Ang^3
#
#
#
# Elastic Constant Matrix: (Units=GPa)
#
#
# Indices 1 2 3 4 5 6 
#
# 1 110.1426 33.6841 11.9674 -8.5907 -30.9037 6.3947
# 2 33.6841 102.2524 13.9648 -11.1197 -12.8918 6.5796
# 3 11.9674 13.9648 49.8576 -5.6367 -10.4264 17.9273
# 4 -8.5907 -11.1197 -5.6367 37.9138 10.6433 -11.7819
# 5 -30.9037 -12.8918 -10.4264 10.6433 24.7364 -5.2051
# 6 6.3947 6.5796 17.9273 -11.7819 -5.2051 29.3385
#
#
#
# Elastic Compliance Matrix: (Units=1/GPa)
#
#
# Indices 1 2 3 4 5 6 
#
# 1 0.014919 -0.002977 0.001253 -0.002909 0.018611 -0.001216
# 2 -0.002977 0.011340 -0.002323 0.002390 0.000296 0.000537
# 3 0.001253 -0.002323 0.028189 -0.004423 0.010589 -0.016875
# 4 -0.002909 0.002390 -0.004423 0.034613 -0.016238 0.013820
# 5 0.018611 0.000296 0.010589 -0.016238 0.074460 -0.003904
# 6 -0.001216 0.000537 -0.016875 0.013820 -0.003904 0.049398
#
#
# Mechanical properties :
#
#
# Convention : Reuss Voigt Hill
#
# Bulk Modulus (GPa) = 21.57275 42.38725 31.98000
# Shear Modulus (GPa) = 21.14477 31.90684 26.52580
#
# Velocity S-wave (km/s) = 3.10376 3.81266 3.47633
# Velocity P-wave (km/s) = 4.76159 6.22037 5.53921
#
# Compressibility (1/GPa) = 0.04635478
#
# Stress axis : x y z
#
# Youngs Moduli (GPa) = 67.02803 88.17993 35.47490
#
# Poissons Ratio (x) = 0.26255 -0.04446
# Poissons Ratio (y) = 0.19957 0.08240
# Poissons Ratio (z) = -0.08401 0.20482
#
# Static dielectric constant tensor:
#      x y z
#    x 1.828240 0.013540 -0.023670 
#    y 0.013540 1.929730 0.079730 
#    z -0.023670 0.079730 2.000170 
# 
# From -- ./inp_files/83853.got.cif
#   From: 2010.05.17/outbox.cif.g08.bks.cpg/sg2_42_cif.got.tgz:83853.got - 2010.06.03 11:33:40.
