data_PCOD9076208
_publ_section_title
;
Structure prediction by ZEFSAII (Michael W. Deem and Ramdas Pophale) SiO2 
 PCOD9076208
Probable space group: P -1
;
_chemical_formula_sum "Si O2"
_cell_formula_units_Z 16
_cell_length_a 19.121160
_cell_length_b 12.072781
_cell_length_c 10.753797
_cell_angle_alpha 144.284383
_cell_angle_beta 39.421117
_cell_angle_gamma 151.244612
_cell_volume 680.674499
_symmetry_space_group_name_H-M "P -1"
_symmetry_group_IT_number 2
_symmetry_cell_setting 'triclinic'
loop_
_space_group_symop_operation_xyz
x,y,z
-x,-y,-z
loop_
_atom_site_type_symbol
_atom_site_label
_atom_site_fract_x
_atom_site_fract_y
_atom_site_fract_z
Si Si1 0.862586 0.101101 0.604873
Si Si2 0.214168 0.289303 0.096951
Si Si3 0.330613 0.142454 0.972024
Si Si4 0.132033 0.216908 0.864161
Si Si5 0.806691 0.743873 0.538018
Si Si6 0.432182 0.114955 0.054958
Si Si7 0.373172 0.628113 0.748978
Si Si8 0.174332 0.573495 0.602854
O O1 0.734504 0.046998 0.810797
O O2 0.998921 0.395833 0.659774
O O3 0.819122 0.937774 0.391613
O O4 0.915144 0.982410 0.512066
O O5 0.228123 0.495351 0.348748
O O6 0.200707 0.327576 0.006291
O O7 0.047927 0.001770 0.085126
O O8 0.340126 0.286899 0.968715
O O9 0.260420 0.865975 0.768434
O O10 0.445249 0.207828 0.981930
O O11 0.222537 0.151436 0.211560
O O12 0.206832 0.448755 0.875057
O O13 0.655396 0.552783 0.486881
O O14 0.817262 0.541667 0.387419
O O15 0.533665 0.319584 0.210166
O O16 0.447784 0.904968 0.846858
#
# Coordination Sequence:
#
# PCOD9076208 Si02
#       8
#     2   2   2   2   2   2   2   2
#     4   9  19  31  52  81 108 138 176 215 266 324
#     4   9  20  38  55  82 108 141 180 217 259 319
#     4  10  20  33  56  80 108 141 178 217 264 319
#     4   9  19  38  56  75 111 144 174 219 268 307
#     4   9  18  32  51  78 108 139 170 216 271 319
#     4  10  21  34  53  86 105 138 185 215 270 324
#     4  10  20  36  56  75 113 142 172 229 268 310
#     4  10  18  33  52  80 113 140 169 218 269 312
#
# _framework density 23.506095999999999
#
# number of rings (size 3 to 8) (size 9 to 14) (size 15 to 20)
#    0.000    2.500    1.250    0.375    1.750    9.500 
#    2.250    2.500    0.000    0.750    0.000    0.000 
#    0.000    0.000    0.000    0.000    0.000    0.000 
#
# Total GULP energy -89132.206633 kJ/mol
# GULP energy per Si atom -5570.762915 kJ/mol
# Density = 2.345260 g / cm^3
# Si number density = 23.506096 Si / 1000 Ang^3
#
#
#
# Elastic Constant Matrix: (Units=GPa)
#
#
# Indices 1 2 3 4 5 6 
#
# 1 102.2590 25.9750 49.4835 15.8579 18.0499 -4.7883
# 2 25.9750 40.7895 17.9162 13.3884 3.7319 -15.5087
# 3 49.4835 17.9162 93.9995 33.1591 18.5844 -3.7018
# 4 15.8579 13.3884 33.1591 25.4134 6.6441 2.9571
# 5 18.0499 3.7319 18.5844 6.6441 39.1925 3.0898
# 6 -4.7883 -15.5087 -3.7018 2.9571 3.0898 23.2503
#
#
#
# Elastic Compliance Matrix: (Units=1/GPa)
#
#
# Indices 1 2 3 4 5 6 
#
# 1 0.015921 -0.011645 -0.009384 0.010008 -0.002929 -0.006866
# 2 -0.011645 0.058056 0.013166 -0.045077 -0.002271 0.044458
# 3 -0.009384 0.013166 0.028469 -0.038850 -0.005187 0.017013
# 4 0.010008 -0.045077 -0.038850 0.112475 0.002891 -0.048882
# 5 -0.002929 -0.002271 -0.005187 0.002891 0.029621 -0.007248
# 6 -0.006866 0.044458 0.017013 -0.048882 -0.007248 0.081140
#
#
# Mechanical properties :
#
#
# Convention : Reuss Voigt Hill
#
# Bulk Modulus (GPa) = 11.53126 47.08861 29.30994
# Shear Modulus (GPa) = 13.50204 27.14946 20.32575
#
# Velocity S-wave (km/s) = 2.39928 3.40221 2.94377
# Velocity P-wave (km/s) = 3.54847 5.95898 4.90413
#
# Compressibility (1/GPa) = 0.08672078
#
# Stress axis : x y z
#
# Youngs Moduli (GPa) = 62.80889 17.22481 35.12604
#
# Poissons Ratio (x) = 0.20058 0.32961
# Poissons Ratio (y) = 0.73140 -0.46247
# Poissons Ratio (z) = 0.58938 -0.22678
#
# Static dielectric constant tensor:
#      x y z
#    x 2.029030 0.082530 0.001760 
#    y 0.082530 1.974930 -0.017520 
#    z 0.001760 -0.017520 1.837280 
# 
# From -- ./inp_files/431218.got.cif
#   From: 2010.05.17/outbox.cif.g08.bks.cpg/sg2_216_cif.got.tgz:431218.got - 2010.06.03 11:33:40.
