data_PCOD9076645
_publ_section_title
;
Structure prediction by ZEFSAII (Michael W. Deem and Ramdas Pophale) SiO2 
 PCOD9076645
Probable space group: P -1
;
_chemical_formula_sum "Si O2"
_cell_formula_units_Z 14
_cell_length_a 12.453737
_cell_length_b 11.780726
_cell_length_c 11.936607
_cell_angle_alpha 140.922335
_cell_angle_beta 146.895964
_cell_angle_gamma 33.842369
_cell_volume 513.657696
_symmetry_space_group_name_H-M "P -1"
_symmetry_group_IT_number 2
_symmetry_cell_setting 'triclinic'
loop_
_space_group_symop_operation_xyz
x,y,z
-x,-y,-z
loop_
_atom_site_type_symbol
_atom_site_label
_atom_site_fract_x
_atom_site_fract_y
_atom_site_fract_z
Si Si1 0.001928 0.045562 0.679085
Si Si2 0.014318 0.244908 0.303721
Si Si3 0.342113 0.435010 0.580029
Si Si4 0.607907 0.980603 0.394469
Si Si5 0.496343 0.854717 0.987605
Si Si6 0.136356 0.757991 0.068128
Si Si7 0.987362 0.395677 0.793252
O O1 0.791597 0.011866 0.501897
O O2 0.986115 0.195851 0.884277
O O3 0.974562 0.190262 0.660430
O O4 0.266718 0.848825 0.760865
O O5 0.816677 0.405974 0.339721
O O6 0.945979 0.308283 0.164314
O O7 0.239644 0.213889 0.539768
O O8 0.078841 0.999520 0.177858
O O9 0.437557 0.184403 0.473467
O O10 0.593833 0.405346 0.795086
O O11 0.210611 0.492211 0.387900
O O12 0.459394 0.948987 0.150832
O O13 0.763139 0.673222 0.090446
O O14 0.500000 0.000000 0.000000
O O15 0.000000 0.500000 0.000000
#
# Coordination Sequence:
#
# PCOD9076645 Si02
#       7
#     2   2   2   2   2   2   2
#     4   9  21  39  57  87 117 154 200 237 290 355
#     4   9  17  36  58  87 118 152 195 238 300 339
#     4  10  18  33  58  85 114 155 192 236 293 348
#     4  10  21  38  61  89 116 154 197 241 292 350
#     4  10  20  38  58  78 120 158 185 245 293 339
#     4   9  20  35  58  88 118 152 195 247 286 351
#     4  11  22  37  57  85 122 158 191 244 298 349
#
# _framework density 27.255504999999999
#
# number of rings (size 3 to 8) (size 9 to 14) (size 15 to 20)
#    0.000    2.571    1.429    2.143    0.000    4.571 
#   10.286    0.714    0.000    3.429    0.000    0.000 
#    0.000    0.000    0.000    0.000    0.000    0.000 
#
# Total GULP energy -78134.576167 kJ/mol
# GULP energy per Si atom -5581.041155 kJ/mol
# Density = 2.719347 g / cm^3
# Si number density = 27.255505 Si / 1000 Ang^3
#
#
#
# Elastic Constant Matrix: (Units=GPa)
#
#
# Indices 1 2 3 4 5 6 
#
# 1 101.8726 47.0481 54.7148 -26.5133 2.6266 -0.8633
# 2 47.0481 131.3638 59.5618 -30.7876 16.5788 -27.4952
# 3 54.7148 59.5618 207.3342 -25.4499 1.3999 -19.7881
# 4 -26.5133 -30.7876 -25.4499 62.3705 -3.3370 7.3831
# 5 2.6266 16.5788 1.3999 -3.3370 36.4145 -1.8181
# 6 -0.8633 -27.4952 -19.7881 7.3831 -1.8181 49.9132
#
#
#
# Elastic Compliance Matrix: (Units=1/GPa)
#
#
# Indices 1 2 3 4 5 6 
#
# 1 0.013719 -0.003836 -0.002424 0.003394 0.000996 -0.003303
# 2 -0.003836 0.012061 -0.001565 0.002801 -0.004629 0.005375
# 3 -0.002424 -0.001565 0.006116 0.000561 0.000777 0.001466
# 4 0.003394 0.002801 0.000561 0.019216 0.000169 -0.001012
# 5 0.000996 -0.004629 0.000777 0.000169 0.029424 -0.001178
# 6 -0.003303 0.005375 0.001466 -0.001012 -0.001178 0.023626
#
#
# Mechanical properties :
#
#
# Convention : Reuss Voigt Hill
#
# Bulk Modulus (GPa) = 61.54906 84.80222 73.17564
# Shear Modulus (GPa) = 39.92726 48.35604 44.14165
#
# Velocity S-wave (km/s) = 3.83159 4.21667 4.02873
# Velocity P-wave (km/s) = 6.49661 7.40867 6.96758
#
# Compressibility (1/GPa) = 0.01624720
#
# Stress axis : x y z
#
# Youngs Moduli (GPa) = 72.89068 82.90934 163.51236
#
# Poissons Ratio (x) = 0.31806 0.39632
# Poissons Ratio (y) = 0.27962 0.25583
# Poissons Ratio (z) = 0.17667 0.12972
#
# Static dielectric constant tensor:
#      x y z
#    x 2.206970 0.073690 -0.001710 
#    y 0.073690 2.255780 0.136930 
#    z -0.001710 0.136930 2.161490 
# 
# From -- ./inp_files/454998.got.cif
#   From: 2010.05.17/outbox.cif.g08.bks.cpg/sg2_228_cif.got.tgz:454998.got - 2010.06.03 11:33:40.
