data_PCOD9076563
_publ_section_title
;
Structure prediction by ZEFSAII (Michael W. Deem and Ramdas Pophale) SiO2 
 PCOD9076563
Probable space group: P -1
;
_chemical_formula_sum "Si O2"
_cell_formula_units_Z 14
_cell_length_a 13.820200
_cell_length_b 8.859440
_cell_length_c 9.920038
_cell_angle_alpha 102.724430
_cell_angle_beta 67.727592
_cell_angle_gamma 147.470237
_cell_volume 592.255357
_symmetry_space_group_name_H-M "P -1"
_symmetry_group_IT_number 2
_symmetry_cell_setting 'triclinic'
loop_
_space_group_symop_operation_xyz
x,y,z
-x,-y,-z
loop_
_atom_site_type_symbol
_atom_site_label
_atom_site_fract_x
_atom_site_fract_y
_atom_site_fract_z
Si Si1 0.562765 0.607223 0.277677
Si Si2 0.705542 0.933566 0.538657
Si Si3 0.920910 0.792713 0.621890
Si Si4 0.936141 0.528715 0.230933
Si Si5 0.908054 0.797024 0.168742
Si Si6 0.314194 0.764799 0.454171
Si Si7 0.197793 0.933309 0.955650
O O1 0.592000 0.752512 0.422888
O O2 0.368532 0.272334 0.344698
O O3 0.607780 0.750907 0.142909
O O4 0.729076 0.682536 0.211818
O O5 0.673247 0.072000 0.618040
O O6 0.918892 0.141398 0.431743
O O7 0.726906 0.455950 0.627176
O O8 0.932442 0.910055 0.772446
O O9 0.000000 0.000000 0.500000
O O10 0.877720 0.433087 0.395113
O O11 0.833199 0.563055 0.255750
O O12 0.848172 0.276246 0.146659
O O13 0.150443 0.826310 0.114451
O O14 0.025103 0.845349 0.004477
O O15 0.500000 0.000000 0.500000
#
# Coordination Sequence:
#
# PCOD9076563 Si02
#       7
#     2   2   2   2   2   2   2
#     4  10  18  33  57  86 116 150 192 243 280 347
#     4  10  23  35  56  90 121 149 193 238 301 339
#     4  11  22  38  60  86 121 153 190 250 294 339
#     4   9  18  32  55  86 113 152 193 231 288 342
#     4   9  18  33  54  87 112 152 194 230 291 340
#     4  12  23  39  62  87 119 153 195 245 293 351
#     4   9  17  32  55  84 118 151 194 234 278 348
#
# _framework density 23.638452000000001
#
# number of rings (size 3 to 8) (size 9 to 14) (size 15 to 20)
#    0.857    1.143    2.857    1.714    4.000    0.000 
#    0.000    0.000    0.000   10.286    0.000    0.000 
#    0.000    0.000    0.000    0.000    0.000    0.000 
#
# Total GULP energy -78019.278750 kJ/mol
# GULP energy per Si atom -5572.805625 kJ/mol
# Density = 2.358465 g / cm^3
# Si number density = 23.638452 Si / 1000 Ang^3
#
#
#
# Elastic Constant Matrix: (Units=GPa)
#
#
# Indices 1 2 3 4 5 6 
#
# 1 72.6782 49.7673 2.8758 5.5076 -13.0033 -16.7029
# 2 49.7673 109.5805 40.8076 7.8989 -7.1457 -30.0919
# 3 2.8758 40.8076 57.7113 -22.9132 7.2063 -6.8164
# 4 5.5076 7.8989 -22.9132 41.7042 -14.8886 2.1843
# 5 -13.0033 -7.1457 7.2063 -14.8886 27.0629 -1.9962
# 6 -16.7029 -30.0919 -6.8164 2.1843 -1.9962 32.5219
#
#
#
# Elastic Compliance Matrix: (Units=1/GPa)
#
#
# Indices 1 2 3 4 5 6 
#
# 1 0.025925 -0.016905 0.013807 0.011066 0.010439 0.000464
# 2 -0.016905 0.034561 -0.030126 -0.022551 -0.002026 0.018372
# 3 0.013807 -0.030126 0.048993 0.032352 0.002507 -0.012534
# 4 0.011066 -0.022551 0.032352 0.051693 0.018394 -0.010744
# 5 0.010439 -0.002026 0.002507 0.018394 0.051320 0.005926
# 6 0.000464 0.018372 -0.012534 -0.010744 0.005926 0.046444
#
#
# Mechanical properties :
#
#
# Convention : Reuss Voigt Hill
#
# Bulk Modulus (GPa) = 23.23975 47.43015 35.33495
# Shear Modulus (GPa) = 14.71765 30.02575 22.37170
#
# Velocity S-wave (km/s) = 2.49793 3.56786 3.07972
# Velocity P-wave (km/s) = 4.26289 6.08944 5.25612
#
# Compressibility (1/GPa) = 0.04302972
#
# Stress axis : x y z
#
# Youngs Moduli (GPa) = 38.57319 28.93438 20.41110
#
# Poissons Ratio (x) = 0.48915 -0.28182
# Poissons Ratio (y) = 0.65209 0.61491
# Poissons Ratio (z) = -0.53258 0.87168
#
# Static dielectric constant tensor:
#      x y z
#    x 1.918790 -0.016370 0.040600 
#    y -0.016370 1.994180 -0.030710 
#    z 0.040600 -0.030710 1.940840 
# 
# From -- ./inp_files/170850.got.cif
#   From: 2010.05.17/outbox.cif.g08.bks.cpg/sg2_86_cif.got.tgz:170850.got - 2010.06.03 11:33:40.
