data_PCOD9076508
_publ_section_title
;
Structure prediction by ZEFSAII (Michael W. Deem and Ramdas Pophale) SiO2 
 PCOD9076508
Probable space group: P -1
;
_chemical_formula_sum "Si O2"
_cell_formula_units_Z 16
_cell_length_a 15.417909
_cell_length_b 9.206257
_cell_length_c 14.723725
_cell_angle_alpha 64.051042
_cell_angle_beta 137.382036
_cell_angle_gamma 140.663760
_cell_volume 853.781956
_symmetry_space_group_name_H-M "P -1"
_symmetry_group_IT_number 2
_symmetry_cell_setting 'triclinic'
loop_
_space_group_symop_operation_xyz
x,y,z
-x,-y,-z
loop_
_atom_site_type_symbol
_atom_site_label
_atom_site_fract_x
_atom_site_fract_y
_atom_site_fract_z
Si Si1 0.434239 0.136153 0.208483
Si Si2 0.882521 0.769386 0.849907
Si Si3 0.189362 0.615673 0.661685
Si Si4 0.914837 0.266722 0.853172
Si Si5 0.338175 0.972699 0.842608
Si Si6 0.922171 0.725337 0.185103
Si Si7 0.119137 0.774366 0.910908
Si Si8 0.413101 0.487212 0.152886
O O1 0.634598 0.245167 0.308443
O O2 0.461919 0.347567 0.203997
O O3 0.305979 0.921493 0.242411
O O4 0.297443 0.991690 0.052852
O O5 0.685404 0.592621 0.801485
O O6 0.934334 0.694432 0.829481
O O7 0.941021 0.993646 0.790922
O O8 0.028114 0.848594 0.021505
O O9 0.250981 0.797323 0.738270
O O10 0.145214 0.404929 0.735884
O O11 0.000000 0.500000 0.500000
O O12 0.965306 0.305665 0.776453
O O13 0.942042 0.469933 0.064882
O O14 0.187580 0.865565 0.836326
O O15 0.426642 0.225948 0.810860
O O16 0.500000 0.000000 0.000000
O O17 0.739993 0.600857 0.017527
#
# Coordination Sequence:
#
# PCOD9076508 Si02
#       8
#     2   2   2   2   2   2   2   2
#     4  11  21  36  60  92 126 155 199 246 315 352
#     4  10  19  31  56  95 130 148 183 252 323 349
#     4  12  28  44  59  83 125 171 206 243 301 363
#     4  10  18  33  56  98 127 147 188 258 307 353
#     4  12  22  38  61  93 120 157 205 255 297 351
#     4  11  18  37  61  84 129 152 195 245 307 356
#     4  11  20  31  59  98 126 150 190 250 309 358
#     4  11  20  34  61 100 123 146 196 264 303 357
#
# _framework density 18.740148999999999
#
# number of rings (size 3 to 8) (size 9 to 14) (size 15 to 20)
#    0.000    1.000    7.500    3.000    3.500    1.000 
#    0.000    1.250    0.000    0.750    0.000    0.000 
#    0.000    0.000    0.000    0.000    0.000    0.000 
#
# Total GULP energy -89183.520067 kJ/mol
# GULP energy per Si atom -5573.970004 kJ/mol
# Density = 1.869750 g / cm^3
# Si number density = 18.740149 Si / 1000 Ang^3
#
#
#
# Elastic Constant Matrix: (Units=GPa)
#
#
# Indices 1 2 3 4 5 6 
#
# 1 114.7888 28.5068 24.3387 16.7991 19.9692 3.1576
# 2 28.5068 121.8978 15.9673 4.9984 8.7975 -3.8778
# 3 24.3387 15.9673 41.2178 17.3532 5.7157 -2.8243
# 4 16.7991 4.9984 17.3532 11.2104 1.2934 2.0082
# 5 19.9692 8.7975 5.7157 1.2934 11.9807 4.8470
# 6 3.1576 -3.8778 -2.8243 2.0082 4.8470 34.7588
#
#
#
# Elastic Compliance Matrix: (Units=1/GPa)
#
#
# Indices 1 2 3 4 5 6 
#
# 1 0.018879 -0.001665 0.015117 -0.048155 -0.035091 0.007003
# 2 -0.001665 0.009179 -0.004346 0.005295 -0.002831 0.000911
# 3 0.015117 -0.004346 0.099924 -0.172785 -0.061037 0.024755
# 4 -0.048155 0.005295 -0.172785 0.420282 0.134517 -0.052114
# 5 -0.035091 -0.002831 -0.061037 0.134517 0.172344 -0.033892
# 6 0.007003 0.000911 0.024755 -0.052114 -0.033892 0.037984
#
#
# Mechanical properties :
#
#
# Convention : Reuss Voigt Hill
#
# Bulk Modulus (GPa) = 6.84034 46.16999 26.50516
# Shear Modulus (GPa) = 6.33624 25.52942 15.93283
#
# Velocity S-wave (km/s) = 1.84077 3.69492 2.91898
# Velocity P-wave (km/s) = 2.85936 6.54932 5.05320
#
# Compressibility (1/GPa) = 0.14619160
#
# Stress axis : x y z
#
# Youngs Moduli (GPa) = 52.96785 108.94974 10.00763
#
# Poissons Ratio (x) = 0.18144 -0.15128
# Poissons Ratio (y) = 0.08821 0.04350
# Poissons Ratio (z) = -0.80070 0.47355
#
# Static dielectric constant tensor:
#      x y z
#    x 1.715310 -0.002290 0.017070 
#    y -0.002290 1.681410 -0.000280 
#    z 0.017070 -0.000280 1.613690 
# 
# From -- ./inp_files/528310.got.cif
#   From: 2010.05.17/outbox.cif.g08.bks.cpg/sg2_265_cif.got.tgz:528310.got - 2010.06.03 11:33:40.
