data_PCOD9076360
_publ_section_title
;
Structure prediction by ZEFSAII (Michael W. Deem and Ramdas Pophale) SiO2 
 PCOD9076360
Probable space group: P -1
;
_chemical_formula_sum "Si O2"
_cell_formula_units_Z 16
_cell_length_a 8.024549
_cell_length_b 8.252628
_cell_length_c 12.175344
_cell_angle_alpha 67.311216
_cell_angle_beta 107.708679
_cell_angle_gamma 125.608537
_cell_volume 601.386051
_symmetry_space_group_name_H-M "P -1"
_symmetry_group_IT_number 2
_symmetry_cell_setting 'triclinic'
loop_
_space_group_symop_operation_xyz
x,y,z
-x,-y,-z
loop_
_atom_site_type_symbol
_atom_site_label
_atom_site_fract_x
_atom_site_fract_y
_atom_site_fract_z
Si Si1 0.264653 0.111516 0.731175
Si Si2 0.270541 0.930589 0.316846
Si Si3 0.272394 0.495464 0.606529
Si Si4 0.024677 0.454396 0.353622
Si Si5 0.352649 0.110505 0.511750
Si Si6 0.303096 0.808076 0.946761
Si Si7 0.531111 0.670224 0.872000
Si Si8 0.699286 0.462365 0.800538
O O1 0.214909 0.283148 0.707976
O O2 0.220258 0.067990 0.605148
O O3 0.515871 0.259484 0.754262
O O4 0.189925 0.919614 0.846965
O O5 0.126712 0.701551 0.304081
O O6 0.481103 0.944628 0.395994
O O7 0.222689 0.993888 0.408559
O O8 0.298895 0.091445 0.186861
O O9 0.124843 0.429109 0.489314
O O10 0.497263 0.649807 0.559082
O O11 0.210815 0.621420 0.643705
O O12 0.116137 0.402817 0.281838
O O13 0.363866 0.720444 0.876618
O O14 0.216574 0.625823 0.066174
O O15 0.500000 0.000000 0.000000
O O16 0.584940 0.567613 0.806807
O O17 0.500000 0.500000 0.000000
#
# Coordination Sequence:
#
# PCOD9076360 Si02
#       8
#     2   2   2   2   2   2   2   2
#     4  11  18  34  56  84 106 148 191 238 279 336
#     4  10  18  33  55  81 111 146 181 233 281 326
#     4  10  21  34  57  82 118 150 191 228 283 336
#     4  10  21  39  54  80 119 156 186 226 284 342
#     4  10  19  31  57  85 113 141 186 241 280 325
#     4   9  18  33  53  85 111 138 186 242 283 325
#     4  10  19  31  53  85 110 138 186 236 277 324
#     4  10  19  33  58  79 110 152 188 233 278 339
#
# _framework density 26.605205000000002
#
# number of rings (size 3 to 8) (size 9 to 14) (size 15 to 20)
#    0.000    2.000    3.750    1.875    1.750    0.000 
#    0.000    1.250    5.500    0.000    0.000   17.500 
#    0.000    0.000    0.000    0.000    0.000    0.000 
#
# Total GULP energy -89177.787118 kJ/mol
# GULP energy per Si atom -5573.611695 kJ/mol
# Density = 2.654465 g / cm^3
# Si number density = 26.605205 Si / 1000 Ang^3
#
#
#
# Elastic Constant Matrix: (Units=GPa)
#
#
# Indices 1 2 3 4 5 6 
#
# 1 90.8975 15.1373 28.8228 7.7003 -21.6641 -28.9385
# 2 15.1373 90.1090 39.8279 -18.8423 6.5420 -5.4623
# 3 28.8228 39.8279 132.8678 -13.1741 -13.2465 -18.7408
# 4 7.7003 -18.8423 -13.1741 53.3672 -15.9546 -0.9323
# 5 -21.6641 6.5420 -13.2465 -15.9546 31.0415 2.3864
# 6 -28.9385 -5.4623 -18.7408 -0.9323 2.3864 34.6984
#
#
#
# Elastic Compliance Matrix: (Units=1/GPa)
#
#
# Indices 1 2 3 4 5 6 
#
# 1 0.019365 -0.003373 0.000273 0.000340 0.013375 0.014856
# 2 -0.003373 0.014360 -0.004174 0.002834 -0.005525 -0.002351
# 3 0.000273 -0.004174 0.010381 0.003151 0.006751 0.004797
# 4 0.000340 0.002834 0.003151 0.024517 0.013420 0.002168
# 5 0.013375 -0.005525 0.006751 0.013420 0.051667 0.010739
# 6 0.014856 -0.002351 0.004797 0.002168 0.010739 0.042751
#
#
# Mechanical properties :
#
#
# Convention : Reuss Voigt Hill
#
# Bulk Modulus (GPa) = 33.83252 53.49448 43.66350
# Shear Modulus (GPa) = 26.67484 39.16052 32.91768
#
# Velocity S-wave (km/s) = 3.16985 3.84071 3.52129
# Velocity P-wave (km/s) = 5.11286 6.31019 5.74282
#
# Compressibility (1/GPa) = 0.02955736
#
# Stress axis : x y z
#
# Youngs Moduli (GPa) = 51.63870 69.63546 96.33421
#
# Poissons Ratio (x) = 0.23489 -0.02629
# Poissons Ratio (y) = 0.17418 0.40213
# Poissons Ratio (z) = -0.01409 0.29068
#
# Static dielectric constant tensor:
#      x y z
#    x 2.282200 0.002890 0.040540 
#    y 0.002890 2.170780 0.075560 
#    z 0.040540 0.075560 2.101280 
# 
# From -- ./inp_files/378348.got.cif
#   From: 2010.05.17/outbox.cif.g08.bks.cpg/sg2_190_cif.got.tgz:378348.got - 2010.06.03 11:33:40.
