data_PCOD9076125
_publ_section_title
;
Structure prediction by ZEFSAII (Michael W. Deem and Ramdas Pophale) SiO2 
 PCOD9076125
Probable space group: P -1
;
_chemical_formula_sum "Si O2"
_cell_formula_units_Z 13
_cell_length_a 7.494012
_cell_length_b 9.794488
_cell_length_c 23.459238
_cell_angle_alpha 34.259843
_cell_angle_beta 139.481821
_cell_angle_gamma 114.430882
_cell_volume 509.836290
_symmetry_space_group_name_H-M "P -1"
_symmetry_group_IT_number 2
_symmetry_cell_setting 'triclinic'
loop_
_space_group_symop_operation_xyz
x,y,z
-x,-y,-z
loop_
_atom_site_type_symbol
_atom_site_label
_atom_site_fract_x
_atom_site_fract_y
_atom_site_fract_z
Si Si1 0.981900 0.264558 0.113430
Si Si2 0.986829 0.128262 0.830563
Si Si3 0.936641 0.946866 0.612631
Si Si4 0.409960 0.187715 0.505903
Si Si5 0.245007 0.366772 0.955972
Si Si6 0.000000 0.000000 0.000000
Si Si7 0.689106 0.834184 0.320074
O O1 0.838463 0.122016 0.089029
O O2 0.338137 0.984133 0.321625
O O3 0.000000 0.500000 0.000000
O O4 0.789843 0.447802 0.060135
O O5 0.860555 0.460855 0.669105
O O6 0.159049 0.030299 0.967975
O O7 0.636703 0.158927 0.747538
O O8 0.763607 0.969177 0.503754
O O9 0.647731 0.137297 0.525932
O O10 0.188370 0.040738 0.645957
O O11 0.143602 0.599766 0.800964
O O12 0.581057 0.036538 0.166868
O O13 0.962150 0.299670 0.910954
O O14 0.000000 0.500000 0.500000
#
# Coordination Sequence:
#
# PCOD9076125 Si02
#       7
#     2   2   2   2   2   1   2
#     4  11  21  37  59  86 114 151 193 236 285 343
#     4  11  21  38  59  88 115 149 194 233 290 336
#     4  10  20  36  57  91 113 147 195 236 288 332
#     4  10  21  35  61  84 116 149 192 242 277 340
#     4  10  21  36  61  85 117 151 192 238 282 340
#     4  10  18  32  62  86 110 142 192 246 270 332
#     4  11  21  34  57  86 121 149 182 243 288 338
#
# _framework density 25.498380000000001
#
# number of rings (size 3 to 8) (size 9 to 14) (size 15 to 20)
#    0.000    1.538    6.154    0.923    0.000    0.000 
#    0.000    0.769    0.000    0.923    0.000    0.000 
#    0.000    0.000    0.000    0.000    0.000    0.000 
#
# Total GULP energy -72451.129120 kJ/mol
# GULP energy per Si atom -5573.163778 kJ/mol
# Density = 2.544034 g / cm^3
# Si number density = 25.498380 Si / 1000 Ang^3
#
#
#
# Elastic Constant Matrix: (Units=GPa)
#
#
# Indices 1 2 3 4 5 6 
#
# 1 51.7290 4.4116 -0.7564 -7.9622 1.6711 -4.3226
# 2 4.4116 106.0697 26.2828 -17.0573 -10.4817 -0.5924
# 3 -0.7564 26.2828 104.8106 -31.4358 -14.1688 -15.3945
# 4 -7.9622 -17.0573 -31.4358 46.4123 -0.2885 -6.5080
# 5 1.6711 -10.4817 -14.1688 -0.2885 31.2170 7.7197
# 6 -4.3226 -0.5924 -15.3945 -6.5080 7.7197 46.0174
#
#
#
# Elastic Compliance Matrix: (Units=1/GPa)
#
#
# Indices 1 2 3 4 5 6 
#
# 1 0.020586 -0.000657 0.002301 0.005352 -0.001129 0.003641
# 2 -0.000657 0.010561 -0.001520 0.002679 0.003057 -0.000568
# 3 0.002301 -0.001520 0.014583 0.010554 0.004652 0.005787
# 4 0.005352 0.002679 0.010554 0.031732 0.003736 0.007929
# 5 -0.001129 0.003057 0.004652 0.003736 0.036272 -0.004067
# 6 0.003641 -0.000568 0.005787 0.007929 -0.004067 0.025805
#
#
# Mechanical properties :
#
#
# Convention : Reuss Voigt Hill
#
# Bulk Modulus (GPa) = 21.74963 35.83169 28.79066
# Shear Modulus (GPa) = 32.33775 40.24076 36.28925
#
# Velocity S-wave (km/s) = 3.56508 3.97693 3.77662
# Velocity P-wave (km/s) = 5.04923 5.93051 5.50753
#
# Compressibility (1/GPa) = 0.04597779
#
# Stress axis : x y z
#
# Youngs Moduli (GPa) = 48.57738 94.68480 68.57250
#
# Poissons Ratio (x) = 0.06219 -0.15776
# Poissons Ratio (y) = 0.03191 0.10423
# Poissons Ratio (z) = -0.11176 0.14392
#
# Static dielectric constant tensor:
#      x y z
#    x 2.172460 -0.017570 0.076910 
#    y -0.017570 2.091540 0.079630 
#    z 0.076910 0.079630 2.061650 
# 
# From -- ./inp_files/219011.got.cif
#   From: 2010.05.17/outbox.cif.g08.bks.cpg/sg2_110_cif.got.tgz:219011.got - 2010.06.03 11:33:40.
