data_PCOD9076347
_publ_section_title
;
Structure prediction by ZEFSAII (Michael W. Deem and Ramdas Pophale) SiO2 
 PCOD9076347
Probable space group: P -1
;
_chemical_formula_sum "Si O2"
_cell_formula_units_Z 15
_cell_length_a 9.499354
_cell_length_b 12.349080
_cell_length_c 7.968857
_cell_angle_alpha 93.460642
_cell_angle_beta 75.185961
_cell_angle_gamma 139.265120
_cell_volume 576.413911
_symmetry_space_group_name_H-M "P -1"
_symmetry_group_IT_number 2
_symmetry_cell_setting 'triclinic'
loop_
_space_group_symop_operation_xyz
x,y,z
-x,-y,-z
loop_
_atom_site_type_symbol
_atom_site_label
_atom_site_fract_x
_atom_site_fract_y
_atom_site_fract_z
Si Si1 0.398331 0.057468 0.231789
Si Si2 0.194481 0.065655 0.572539
Si Si3 0.965882 0.877707 0.123888
Si Si4 0.176043 0.446788 0.799045
Si Si5 0.788540 0.696524 0.768602
Si Si6 0.569388 0.370596 0.937332
Si Si7 0.295178 0.769049 0.155927
Si Si8 0.500000 0.500000 0.500000
O O1 0.392254 0.123931 0.409673
O O2 0.203633 0.003237 0.168720
O O3 0.314850 0.886728 0.274377
O O4 0.609886 0.154876 0.054496
O O5 0.045164 0.886722 0.694268
O O6 0.000000 0.000000 0.500000
O O7 0.235492 0.192056 0.695408
O O8 0.913790 0.719387 0.103400
O O9 0.000000 0.000000 0.000000
O O10 0.301026 0.473591 0.601067
O O11 0.969864 0.404079 0.803176
O O12 0.328976 0.591704 0.905132
O O13 0.749880 0.549999 0.808595
O O14 0.643273 0.626931 0.637254
O O15 0.653864 0.686365 0.956842
O O16 0.560776 0.252208 0.833308
#
# Coordination Sequence:
#
# PCOD9076347 Si02
#       8
#     2   2   2   2   2   2   2   1
#     4   9  20  34  56  80 105 144 193 230 269 336
#     4  10  18  33  55  79 106 139 179 229 275 317
#     4  10  19  33  57  84 109 140 183 236 281 317
#     4  10  21  35  54  81 109 144 188 228 273 337
#     4  10  20  34  55  83 108 139 185 230 277 331
#     4  10  20  34  55  80 111 145 182 227 275 331
#     4  10  19  36  56  77 108 151 190 225 279 334
#     4  10  20  36  54  76 110 138 174 234 276 320
#
# _framework density 26.022966
#
# number of rings (size 3 to 8) (size 9 to 14) (size 15 to 20)
#    0.000    2.133    0.000    5.200    0.000    3.200 
#    0.000    2.667    0.000   17.600    0.000    0.000 
#    0.000    0.000    0.000    0.000    0.000    0.000 
#
# Total GULP energy -83502.566626 kJ/mol
# GULP energy per Si atom -5566.837775 kJ/mol
# Density = 2.596374 g / cm^3
# Si number density = 26.022966 Si / 1000 Ang^3
#
#
#
# Elastic Constant Matrix: (Units=GPa)
#
#
# Indices 1 2 3 4 5 6 
#
# 1 82.7671 -5.0216 14.9664 10.3536 -24.3535 -21.1096
# 2 -5.0216 71.5761 1.3301 12.1709 1.9787 -29.4676
# 3 14.9664 1.3301 81.3869 7.2907 -23.7152 -18.1910
# 4 10.3536 12.1709 7.2907 33.9809 -5.2069 -4.9963
# 5 -24.3535 1.9787 -23.7152 -5.2069 41.1534 -4.1278
# 6 -21.1096 -29.4676 -18.1910 -4.9963 -4.1278 46.8799
#
#
#
# Elastic Compliance Matrix: (Units=1/GPa)
#
#
# Indices 1 2 3 4 5 6 
#
# 1 0.022503 0.010082 0.005643 -0.006163 0.017262 0.019523
# 2 0.010082 0.025123 0.006399 -0.008623 0.009636 0.022744
# 3 0.005643 0.006399 0.019233 -0.003613 0.015160 0.014976
# 4 -0.006163 -0.008623 -0.003613 0.034022 -0.001623 -0.006114
# 5 0.017262 0.009636 0.015160 -0.001623 0.044939 0.023497
# 6 0.019523 0.022744 0.014976 -0.006114 0.023497 0.051647
#
#
# Mechanical properties :
#
#
# Convention : Reuss Voigt Hill
#
# Bulk Modulus (GPa) = 9.00030 28.69776 18.84903
# Shear Modulus (GPa) = 26.28060 39.36651 32.82356
#
# Velocity S-wave (km/s) = 3.18134 3.89364 3.55537
# Velocity P-wave (km/s) = 4.11833 5.59158 4.91052
#
# Compressibility (1/GPa) = 0.11110743
#
# Stress axis : x y z
#
# Youngs Moduli (GPa) = 44.43895 39.80403 51.99334
#
# Poissons Ratio (x) = -0.40131 -0.29338
# Poissons Ratio (y) = -0.44804 -0.33273
# Poissons Ratio (z) = -0.25076 -0.25472
#
# Static dielectric constant tensor:
#      x y z
#    x 1.876720 -0.213760 0.364270 
#    y -0.213760 2.063220 0.178850 
#    z 0.364270 0.178850 1.917760 
# 
# From -- ./inp_files/177606.got.cif
#   From: 2010.05.17/outbox.cif.g08.bks.cpg/sg2_89_cif.got.tgz:177606.got - 2010.06.03 11:33:40.
