data_PCOD9076238
_publ_section_title
;
Structure prediction by ZEFSAII (Michael W. Deem and Ramdas Pophale) SiO2 
 PCOD9076238
Probable space group: P -1
;
_chemical_formula_sum "Si O2"
_cell_formula_units_Z 14
_cell_length_a 11.426716
_cell_length_b 10.865282
_cell_length_c 11.820595
_cell_angle_alpha 44.577420
_cell_angle_beta 34.484162
_cell_angle_gamma 40.828295
_cell_volume 527.458197
_symmetry_space_group_name_H-M "P -1"
_symmetry_group_IT_number 2
_symmetry_cell_setting 'triclinic'
loop_
_space_group_symop_operation_xyz
x,y,z
-x,-y,-z
loop_
_atom_site_type_symbol
_atom_site_label
_atom_site_fract_x
_atom_site_fract_y
_atom_site_fract_z
Si Si1 0.945972 0.272850 0.799787
Si Si2 0.903524 0.376585 0.522036
Si Si3 0.401773 0.088486 0.657166
Si Si4 0.876180 0.290188 0.223407
Si Si5 0.589673 0.329627 0.216443
Si Si6 0.241201 0.042937 0.367721
Si Si7 0.652161 0.715048 0.195886
O O1 0.973044 0.236052 0.668708
O O2 0.994578 0.464297 0.651536
O O3 0.155615 0.105122 0.808057
O O4 0.696036 0.318908 0.015852
O O5 0.631586 0.482617 0.689570
O O6 0.022017 0.247636 0.402315
O O7 0.507901 0.161865 0.420689
O O8 0.592090 0.924976 0.690458
O O9 0.342337 0.258672 0.690009
O O10 0.801115 0.301508 0.145722
O O11 0.851795 0.107429 0.412902
O O12 0.697414 0.496527 0.278500
O O13 0.131211 0.268200 0.042218
O O14 0.420091 0.902419 0.225324
#
# Coordination Sequence:
#
# PCOD9076238 Si02
#       7
#     2   2   2   2   2   2   2
#     4  10  19  37  53  72 101 142 172 209 239 310
#     4  10  22  34  52  74 106 138 170 201 264 292
#     4   8  18  32  55  76  99 128 174 207 252 293
#     4  10  18  33  60  77  98 133 172 207 255 298
#     4  10  18  33  53  77  99 134 173 207 244 309
#     4   9  19  34  50  80 106 128 166 216 249 301
#     4   9  18  33  57  80  98 132 168 210 255 300
#
# _framework density 26.542387999999999
#
# number of rings (size 3 to 8) (size 9 to 14) (size 15 to 20)
#    0.857    1.714    1.429    0.857    0.000    1.714 
#    0.000    3.571    0.000    2.571    0.000    0.000 
#    0.000    0.000    0.000    0.000    0.000    0.000 
#
# Total GULP energy -78168.926858 kJ/mol
# GULP energy per Si atom -5583.494776 kJ/mol
# Density = 2.648198 g / cm^3
# Si number density = 26.542388 Si / 1000 Ang^3
#
#
#
# Elastic Constant Matrix: (Units=GPa)
#
#
# Indices 1 2 3 4 5 6 
#
# 1 35.6149 13.3687 6.9957 -4.7392 -7.4214 -4.0953
# 2 13.3687 148.9692 57.5527 42.0885 -12.3313 0.6589
# 3 6.9957 57.5527 160.7813 36.0283 -1.0568 13.2425
# 4 -4.7392 42.0885 36.0283 43.7772 -3.8146 -7.6205
# 5 -7.4214 -12.3313 -1.0568 -3.8146 19.8714 -4.9969
# 6 -4.0953 0.6589 13.2425 -7.6205 -4.9969 13.4103
#
#
#
# Elastic Compliance Matrix: (Units=1/GPa)
#
#
# Indices 1 2 3 4 5 6 
#
# 1 0.056194 -0.008176 -0.014420 0.041695 0.040941 0.070750
# 2 -0.008176 0.011202 0.000654 -0.014596 -0.002078 -0.012762
# 3 -0.014420 0.000654 0.014759 -0.022666 -0.018277 -0.038701
# 4 0.041695 -0.014596 -0.022666 0.081289 0.045834 0.099104
# 5 0.040941 -0.002078 -0.018277 0.045834 0.095342 0.092225
# 6 0.070750 -0.012762 -0.038701 0.099104 0.092225 0.225700
#
#
# Mechanical properties :
#
#
# Convention : Reuss Voigt Hill
#
# Bulk Modulus (GPa) = 26.12827 55.68885 40.90856
# Shear Modulus (GPa) = 9.23996 33.24167 21.24082
#
# Velocity S-wave (km/s) = 1.86782 3.54276 2.83196
# Velocity P-wave (km/s) = 3.81012 6.14504 5.11266
#
# Compressibility (1/GPa) = 0.03827272
#
# Stress axis : x y z
#
# Youngs Moduli (GPa) = 17.79537 89.26915 67.75327
#
# Poissons Ratio (x) = 0.72987 0.97697
# Poissons Ratio (y) = 0.14550 -0.04431
# Poissons Ratio (z) = 0.25660 -0.05838
#
# Static dielectric constant tensor:
#      x y z
#    x 2.206910 -0.038600 0.036530 
#    y -0.038600 2.136780 0.015890 
#    z 0.036530 0.015890 2.025180 
# 
# From -- ./inp_files/513303.got.cif
#   From: 2010.05.17/outbox.cif.g08.bks.cpg/sg2_257_cif.got.tgz:513303.got - 2010.06.03 11:33:40.
