data_PCOD9076884
_publ_section_title
;
Structure prediction by ZEFSAII (Michael W. Deem and Ramdas Pophale) SiO2 
 PCOD9076884
Probable space group: P -1
;
_chemical_formula_sum "Si O2"
_cell_formula_units_Z 14
_cell_length_a 11.835035
_cell_length_b 7.451095
_cell_length_c 10.814266
_cell_angle_alpha 67.212179
_cell_angle_beta 136.138572
_cell_angle_gamma 123.491851
_cell_volume 550.988730
_symmetry_space_group_name_H-M "P -1"
_symmetry_group_IT_number 2
_symmetry_cell_setting 'triclinic'
loop_
_space_group_symop_operation_xyz
x,y,z
-x,-y,-z
loop_
_atom_site_type_symbol
_atom_site_label
_atom_site_fract_x
_atom_site_fract_y
_atom_site_fract_z
Si Si1 0.284653 0.205236 0.733425
Si Si2 0.586532 0.590043 0.729635
Si Si3 0.052356 0.121896 0.139249
Si Si4 0.341011 0.074820 0.072653
Si Si5 0.089698 0.732477 0.602024
Si Si6 0.403511 0.810022 0.376883
Si Si7 0.899741 0.289175 0.653238
O O1 0.440020 0.369085 0.725264
O O2 0.109218 0.263102 0.576623
O O3 0.210285 0.960151 0.694858
O O4 0.373038 0.206551 0.936888
O O5 0.786000 0.646705 0.818577
O O6 0.494850 0.658414 0.526265
O O7 0.627692 0.758030 0.833459
O O8 0.098864 0.944506 0.293208
O O9 0.868512 0.097823 0.059046
O O10 0.000000 0.000000 0.000000
O O11 0.426820 0.919464 0.233439
O O12 0.172884 0.704528 0.544051
O O13 0.068153 0.523714 0.720660
O O14 0.203681 0.710816 0.303271
O O15 0.500000 0.000000 0.500000
#
# Coordination Sequence:
#
# PCOD9076884 Si02
#       7
#     2   2   2   2   2   2   2
#     4  11  21  40  55  92 126 151 200 244 303 345
#     4  10  20  35  63  90 120 154 196 246 298 355
#     4  10  18  33  62  90 113 149 202 244 290 352
#     4  10  20  35  63  90 120 154 196 246 298 355
#     4  10  24  34  61  84 121 166 195 243 292 365
#     4  10  18  33  62  90 113 149 202 244 290 352
#     4  11  18  38  60  85 110 162 204 233 290 356
#
# _framework density 25.408867999999998
#
# number of rings (size 3 to 8) (size 9 to 14) (size 15 to 20)
#    0.000    1.714    7.143    0.429    0.000    0.000 
#    0.000    1.429    6.286   12.000    0.000    0.000 
#    0.000    0.000    0.000    0.000    0.000    0.000 
#
# Total GULP energy -78060.330925 kJ/mol
# GULP energy per Si atom -5575.737923 kJ/mol
# Density = 2.535104 g / cm^3
# Si number density = 25.408868 Si / 1000 Ang^3
#
#
#
# Elastic Constant Matrix: (Units=GPa)
#
#
# Indices 1 2 3 4 5 6 
#
# 1 59.1701 54.3194 16.3727 -2.4082 11.4433 4.0887
# 2 54.3194 148.9041 44.0871 3.2837 -5.6695 30.3035
# 3 16.3727 44.0871 76.4689 -19.3737 2.9532 9.7890
# 4 -2.4082 3.2837 -19.3737 25.5391 11.3874 -12.6797
# 5 11.4433 -5.6695 2.9532 11.3874 4.7037 13.8937
# 6 4.0887 30.3035 9.7890 -12.6797 13.8937 50.5530
#
#
#
# Elastic Compliance Matrix: (Units=1/GPa)
#
#
# Indices 1 2 3 4 5 6 
#
# 1 0.016723 -0.001837 -0.005856 -0.014284 0.017713 -0.007568
# 2 -0.001837 0.006062 -0.000835 0.008046 -0.017654 0.003547
# 3 -0.005856 -0.000835 0.015496 0.002141 0.014476 -0.005468
# 4 -0.014284 0.008046 0.002141 0.015078 0.039791 -0.011236
# 5 0.017713 -0.017654 0.014476 0.039791 -0.028787 0.024239
# 6 -0.007568 0.003547 -0.005468 -0.011236 0.024239 0.009846
#
#
# Mechanical properties :
#
#
# Convention : Reuss Voigt Hill
#
# Bulk Modulus (GPa) = 47.11429 57.12238 52.11834
# Shear Modulus (GPa) = 85.39720 27.47675 56.43697
#
# Velocity S-wave (km/s) = 5.80363 3.29201 4.71802
# Velocity P-wave (km/s) = 7.96820 6.08111 7.08774
#
# Compressibility (1/GPa) = 0.02122498
#
# Stress axis : x y z
#
# Youngs Moduli (GPa) = 59.79680 164.96465 64.53314
#
# Poissons Ratio (x) = 0.30308 0.37788
# Poissons Ratio (y) = 0.10986 0.05390
# Poissons Ratio (z) = 0.35014 0.13779
#
# Static dielectric constant tensor:
#      x y z
#    x 2.299250 -0.040140 0.253320 
#    y -0.040140 2.108110 -0.100850 
#    z 0.253320 -0.100850 2.281770 
# 
# From -- ./inp_files/444256.got.cif
#   From: 2010.05.17/outbox.cif.g08.bks.cpg/sg2_223_cif.got.tgz:444256.got - 2010.06.03 11:33:40.
