data_PCOD9076695
_publ_section_title
;
Structure prediction by ZEFSAII (Michael W. Deem and Ramdas Pophale) SiO2 
 PCOD9076695
Probable space group: P -1
;
_chemical_formula_sum "Si O2"
_cell_formula_units_Z 14
_cell_length_a 11.596152
_cell_length_b 11.917802
_cell_length_c 12.025003
_cell_angle_alpha 138.039631
_cell_angle_beta 35.539508
_cell_angle_gamma 131.124452
_cell_volume 639.925555
_symmetry_space_group_name_H-M "P -1"
_symmetry_group_IT_number 2
_symmetry_cell_setting 'triclinic'
loop_
_space_group_symop_operation_xyz
x,y,z
-x,-y,-z
loop_
_atom_site_type_symbol
_atom_site_label
_atom_site_fract_x
_atom_site_fract_y
_atom_site_fract_z
Si Si1 0.964719 0.681878 0.115452
Si Si2 0.320948 0.197127 0.013663
Si Si3 0.507371 0.650390 0.517065
Si Si4 0.176088 0.205636 0.899513
Si Si5 0.326421 0.936618 0.003527
Si Si6 0.667157 0.105325 0.526066
Si Si7 0.614308 0.416630 0.680474
O O1 0.739423 0.702917 0.341832
O O2 0.970751 0.696130 0.985674
O O3 0.135306 0.827604 0.130595
O O4 0.000000 0.500000 0.000000
O O5 0.166926 0.159783 0.003324
O O6 0.537694 0.147832 0.765370
O O7 0.269212 0.088092 0.083901
O O8 0.341159 0.395304 0.170785
O O9 0.500000 0.500000 0.500000
O O10 0.417269 0.806019 0.754920
O O11 0.386221 0.589317 0.456131
O O12 0.386780 0.332721 0.826360
O O13 0.183208 0.033432 0.694961
O O14 0.500000 0.000000 0.000000
O O15 0.742842 0.283392 0.538741
O O16 0.500000 0.000000 0.500000
#
# Coordination Sequence:
#
# PCOD9076695 Si02
#       7
#     2   2   2   2   2   2   2
#     4  11  24  43  66  97 127 171 222 258 320 389
#     4  10  18  33  58  95 127 165 209 262 323 376
#     4  11  21  41  66  90 125 174 215 261 318 385
#     4   9  18  34  62  88 126 164 213 269 309 376
#     4  12  26  42  66  97 132 169 213 271 321 382
#     4   8  14  30  54  89 120 160 208 256 312 373
#     4   9  17  31  59  92 126 161 212 258 320 380
#
# _framework density 21.877545000000001
#
# number of rings (size 3 to 8) (size 9 to 14) (size 15 to 20)
#    0.000    2.286    1.429    6.000    2.000    1.143 
#    0.000    0.000    0.000    1.714    0.000    0.000 
#    0.000    0.000    0.000    0.000    0.000    0.000 
#
# Total GULP energy -78105.119465 kJ/mol
# GULP energy per Si atom -5578.937105 kJ/mol
# Density = 2.182775 g / cm^3
# Si number density = 21.877545 Si / 1000 Ang^3
#
#
#
# Elastic Constant Matrix: (Units=GPa)
#
#
# Indices 1 2 3 4 5 6 
#
# 1 107.8891 60.7749 18.9349 4.6255 5.2796 -14.5267
# 2 60.7749 161.4738 46.6808 26.8229 -3.1963 -18.0268
# 3 18.9349 46.6808 90.5289 20.8608 8.2681 10.6875
# 4 4.6255 26.8229 20.8608 45.1105 1.5623 -5.8566
# 5 5.2796 -3.1963 8.2681 1.5623 29.7136 2.2452
# 6 -14.5267 -18.0268 10.6875 -5.8566 2.2452 44.2399
#
#
#
# Elastic Compliance Matrix: (Units=1/GPa)
#
#
# Indices 1 2 3 4 5 6 
#
# 1 0.012399 -0.004529 -0.000873 0.002296 -0.002786 0.002882
# 2 -0.004529 0.010021 -0.004078 -0.003323 0.002966 0.002991
# 3 -0.000873 -0.004078 0.015672 -0.005410 -0.003887 -0.006253
# 4 0.002296 -0.003323 -0.005410 0.027007 -0.001008 0.004333
# 5 -0.002786 0.002966 -0.003887 -0.001008 0.035657 -0.000710
# 6 0.002882 0.002991 -0.006253 0.004333 -0.000710 0.026890
#
#
# Mechanical properties :
#
#
# Convention : Reuss Voigt Hill
#
# Bulk Modulus (GPa) = 52.27070 68.07476 60.17273
# Shear Modulus (GPa) = 32.68307 39.37955 36.03131
#
# Velocity S-wave (km/s) = 3.86931 4.24724 4.06267
# Velocity P-wave (km/s) = 6.62618 7.43209 7.04067
#
# Compressibility (1/GPa) = 0.01913118
#
# Stress axis : x y z
#
# Youngs Moduli (GPa) = 80.64978 99.78745 63.80924
#
# Poissons Ratio (x) = 0.45196 0.05569
# Poissons Ratio (y) = 0.36528 0.26025
# Poissons Ratio (z) = 0.07039 0.40698
#
# Static dielectric constant tensor:
#      x y z
#    x 1.887920 -0.075360 -0.048910 
#    y -0.075360 1.854780 -0.050450 
#    z -0.048910 -0.050450 1.869110 
# 
# From -- ./inp_files/426792.got.cif
#   From: 2010.05.17/outbox.cif.g08.bks.cpg/sg2_214_cif.got.tgz:426792.got - 2010.06.03 11:33:40.
