data_PCOD9076240
_publ_section_title
;
Structure prediction by ZEFSAII (Michael W. Deem and Ramdas Pophale) SiO2 
 PCOD9076240
Probable space group: P -1
;
_chemical_formula_sum "Si O2"
_cell_formula_units_Z 10
_cell_length_a 6.569347
_cell_length_b 11.105208
_cell_length_c 9.259161
_cell_angle_alpha 42.215518
_cell_angle_beta 115.497440
_cell_angle_gamma 103.760524
_cell_volume 406.006217
_symmetry_space_group_name_H-M "P -1"
_symmetry_group_IT_number 2
_symmetry_cell_setting 'triclinic'
loop_
_space_group_symop_operation_xyz
x,y,z
-x,-y,-z
loop_
_atom_site_type_symbol
_atom_site_label
_atom_site_fract_x
_atom_site_fract_y
_atom_site_fract_z
Si Si1 0.244678 0.546774 0.474989
Si Si2 0.664677 0.350078 0.269847
Si Si3 0.774337 0.955410 0.559065
Si Si4 0.793498 0.755399 0.473106
Si Si5 0.078003 0.909384 0.953500
O O1 0.357076 0.596066 0.615578
O O2 0.325562 0.376996 0.547626
O O3 0.000000 0.500000 0.500000
O O4 0.203505 0.717535 0.205255
O O5 0.629899 0.149479 0.376602
O O6 0.942087 0.336447 0.342481
O O7 0.500000 0.500000 0.000000
O O8 0.694626 0.814619 0.546835
O O9 0.000000 0.000000 0.500000
O O10 0.871288 0.882600 0.806999
O O11 0.792298 0.943084 0.217890
O O12 0.000000 0.000000 0.000000
#
# Coordination Sequence:
#
# PCOD9076240 Si02
#       5
#     2   2   2   2   2
#     4  10  17  28  49  73  89 122 162 190 221 276
#     4   9  16  28  48  70  94 123 152 188 236 275
#     4   8  16  30  47  68  94 124 151 190 233 269
#     4   9  19  32  50  71  93 121 158 192 228 271
#     4  10  14  27  50  71  92 117 159 197 220 264
#
# _framework density 24.630164000000001
#
# number of rings (size 3 to 8) (size 9 to 14) (size 15 to 20)
#    0.000    3.200    6.000    0.000    0.000    0.800 
#    0.000    1.000    0.000   40.800    0.000    0.000 
#    0.000    0.000    0.000    0.000    0.000    0.000 
#
# Total GULP energy -55831.661934 kJ/mol
# GULP energy per Si atom -5583.166193 kJ/mol
# Density = 2.457410 g / cm^3
# Si number density = 24.630164 Si / 1000 Ang^3
#
#
#
# Elastic Constant Matrix: (Units=GPa)
#
#
# Indices 1 2 3 4 5 6 
#
# 1 85.5843 70.2697 47.0633 2.7628 17.9331 -14.5120
# 2 70.2697 324.6622 115.7881 15.8253 -4.4416 -5.8188
# 3 47.0633 115.7881 236.1911 -0.5317 18.7762 5.6630
# 4 2.7628 15.8253 -0.5317 51.4609 -6.6451 -8.6630
# 5 17.9331 -4.4416 18.7762 -6.6451 11.6185 4.5383
# 6 -14.5120 -5.8188 5.6630 -8.6630 4.5383 62.2636
#
#
#
# Elastic Compliance Matrix: (Units=1/GPa)
#
#
# Indices 1 2 3 4 5 6 
#
# 1 0.033062 -0.008488 0.002543 -0.005852 -0.065899 0.010670
# 2 -0.008488 0.006206 -0.003028 0.000907 0.021898 -0.002593
# 3 0.002543 -0.003028 0.006506 -0.001147 -0.016551 0.000765
# 4 -0.005852 0.000907 -0.001147 0.022600 0.024074 0.000215
# 5 -0.065899 0.021898 -0.016551 0.024074 0.247008 -0.026462
# 6 0.010670 -0.002593 0.000765 0.000215 -0.026462 0.020195
#
#
# Mechanical properties :
#
#
# Convention : Reuss Voigt Hill
#
# Bulk Modulus (GPa) = 35.93427 123.63109 79.78268
# Shear Modulus (GPa) = 13.78178 52.62305 33.20241
#
# Velocity S-wave (km/s) = 2.36804 4.62727 3.67555
# Velocity P-wave (km/s) = 4.70086 8.87991 7.10461
#
# Compressibility (1/GPa) = 0.02782859
#
# Stress axis : x y z
#
# Youngs Moduli (GPa) = 30.24663 161.13767 153.69855
#
# Poissons Ratio (x) = 1.36770 -0.39083
# Poissons Ratio (y) = 0.25673 0.46534
# Poissons Ratio (z) = -0.07691 0.48786
#
# Static dielectric constant tensor:
#      x y z
#    x 2.415300 0.553780 -0.193750 
#    y 0.553780 2.527380 -0.065610 
#    z -0.193750 -0.065610 1.785510 
# 
# From -- ./inp_files/148090.got.cif
#   From: 2010.05.17/outbox.cif.g08.bks.cpg/sg2_75_cif.got.tgz:148090.got - 2010.06.03 11:33:40.
