data_PCOD9076014
_publ_section_title
;
Structure prediction by ZEFSAII (Michael W. Deem and Ramdas Pophale) SiO2 
 PCOD9076014
Probable space group: P -1
;
_chemical_formula_sum "Si O2"
_cell_formula_units_Z 16
_cell_length_a 12.897023
_cell_length_b 10.758546
_cell_length_c 16.827651
_cell_angle_alpha 146.871960
_cell_angle_beta 144.565903
_cell_angle_gamma 57.161835
_cell_volume 663.589234
_symmetry_space_group_name_H-M "P -1"
_symmetry_group_IT_number 2
_symmetry_cell_setting 'triclinic'
loop_
_space_group_symop_operation_xyz
x,y,z
-x,-y,-z
loop_
_atom_site_type_symbol
_atom_site_label
_atom_site_fract_x
_atom_site_fract_y
_atom_site_fract_z
Si Si1 0.620934 0.065601 0.989684
Si Si2 0.186331 0.748751 0.615075
Si Si3 0.813981 0.735734 0.589890
Si Si4 0.296449 0.376292 0.256047
Si Si5 0.937880 0.189073 0.015044
Si Si6 0.231629 0.375248 0.679824
Si Si7 0.434732 0.781819 0.225770
Si Si8 0.382027 0.645026 0.293129
O O1 0.381835 0.899127 0.763643
O O2 0.717191 0.901598 0.918730
O O3 0.724570 0.145037 0.184135
O O4 0.670485 0.322872 0.111283
O O5 0.112763 0.443554 0.413060
O O6 0.974694 0.753556 0.468453
O O7 0.843972 0.724017 0.509903
O O8 0.579596 0.600075 0.390842
O O9 0.870728 0.021266 0.802341
O O10 0.500000 0.500000 0.500000
O O11 0.268077 0.474275 0.204532
O O12 0.140410 0.416661 0.237329
O O13 0.749565 0.225258 0.943053
O O14 0.000000 0.000000 0.000000
O O15 0.412612 0.300431 0.765913
O O16 0.331601 0.619198 0.154334
O O17 0.561190 0.068594 0.490064
#
# Coordination Sequence:
#
# PCOD9076014 Si02
#       8
#     2   2   2   2   2   2   2   2
#     4  10  21  34  57  95 124 157 211 250 298 364
#     4  10  18  32  58  88 123 160 196 256 299 350
#     4   9  16  34  55  84 119 150 200 248 298 350
#     4  12  23  38  60  91 124 159 208 260 300 355
#     4  11  23  38  62  88 116 165 208 252 313 375
#     4  10  19  35  59  88 127 159 194 252 312 361
#     4   9  20  38  57  88 122 158 203 248 314 368
#     4   9  18  35  59  83 123 160 192 258 302 352
#
# _framework density 24.111302999999999
#
# number of rings (size 3 to 8) (size 9 to 14) (size 15 to 20)
#    0.000    2.000    1.250    5.250    1.750    0.500 
#    2.250    0.000    0.000    7.500    0.000    0.000 
#    0.000    0.000    0.000    0.000    0.000    0.000 
#
# Total GULP energy -89223.434099 kJ/mol
# GULP energy per Si atom -5576.464631 kJ/mol
# Density = 2.405642 g / cm^3
# Si number density = 24.111303 Si / 1000 Ang^3
#
#
#
# Elastic Constant Matrix: (Units=GPa)
#
#
# Indices 1 2 3 4 5 6 
#
# 1 82.0409 34.1419 25.6245 -14.0303 19.1903 -16.8322
# 2 34.1419 120.9677 30.6672 -18.6991 20.2382 -27.8765
# 3 25.6245 30.6672 77.5401 -6.3634 13.9374 -18.1490
# 4 -14.0303 -18.6991 -6.3634 29.5489 -16.3948 5.8930
# 5 19.1903 20.2382 13.9374 -16.3948 46.7259 -9.6824
# 6 -16.8322 -27.8765 -18.1490 5.8930 -9.6824 38.9650
#
#
#
# Elastic Compliance Matrix: (Units=1/GPa)
#
#
# Indices 1 2 3 4 5 6 
#
# 1 0.015801 -0.002065 -0.002958 0.003370 -0.002966 0.002724
# 2 -0.002065 0.011432 -0.002054 0.004237 -0.000870 0.005473
# 3 -0.002958 -0.002054 0.015996 -0.001374 -0.002247 0.004353
# 4 0.003370 0.004237 -0.001374 0.045007 0.013041 0.000281
# 5 -0.002966 -0.000870 -0.002247 0.013041 0.028700 0.002209
# 6 0.002724 0.005473 0.004353 0.000281 0.002209 0.033290
#
#
# Mechanical properties :
#
#
# Convention : Reuss Voigt Hill
#
# Bulk Modulus (GPa) = 34.39223 51.26841 42.83032
# Shear Modulus (GPa) = 28.72366 35.72229 32.22297
#
# Velocity S-wave (km/s) = 3.45526 3.85328 3.65968
# Velocity P-wave (km/s) = 5.49666 6.41143 5.97159
#
# Compressibility (1/GPa) = 0.02907633
#
# Stress axis : x y z
#
# Youngs Moduli (GPa) = 63.28609 87.47420 62.51434
#
# Poissons Ratio (x) = 0.18063 0.18491
# Poissons Ratio (y) = 0.13068 0.12839
# Poissons Ratio (z) = 0.18719 0.17966
#
# Static dielectric constant tensor:
#      x y z
#    x 2.031860 0.025850 -0.030160 
#    y 0.025850 1.946330 -0.050410 
#    z -0.030160 -0.050410 2.101040 
# 
# From -- ./inp_files/597903.got.cif
#   From: 2010.05.17/outbox.cif.g08.bks.cpg/sg2_299_cif.got.tgz:597903.got - 2010.06.03 11:33:40.
