data_PCOD9076215
_publ_section_title
;
Structure prediction by ZEFSAII (Michael W. Deem and Ramdas Pophale) SiO2 
 PCOD9076215
Probable space group: P -1
;
_chemical_formula_sum "Si O2"
_cell_formula_units_Z 16
_cell_length_a 16.253899
_cell_length_b 9.924408
_cell_length_c 11.815081
_cell_angle_alpha 53.636458
_cell_angle_beta 96.724700
_cell_angle_gamma 48.493960
_cell_volume 613.327985
_symmetry_space_group_name_H-M "P -1"
_symmetry_group_IT_number 2
_symmetry_cell_setting 'triclinic'
loop_
_space_group_symop_operation_xyz
x,y,z
-x,-y,-z
loop_
_atom_site_type_symbol
_atom_site_label
_atom_site_fract_x
_atom_site_fract_y
_atom_site_fract_z
Si Si1 0.422428 0.567917 0.128711
Si Si2 0.875956 0.333035 0.720681
Si Si3 0.944657 0.328441 0.507208
Si Si4 0.481182 0.892969 0.452098
Si Si5 0.006019 0.446203 0.734412
Si Si6 0.679486 0.712317 0.087423
Si Si7 0.316911 0.975599 0.205507
Si Si8 0.483512 0.293985 0.031037
O O1 0.466464 0.367638 0.338588
O O2 0.452325 0.424455 0.085266
O O3 0.554362 0.492763 0.174971
O O4 0.191106 0.046886 0.880967
O O5 0.002365 0.109814 0.734007
O O6 0.660145 0.632251 0.526757
O O7 0.861900 0.549034 0.661656
O O8 0.000000 0.000000 0.000000
O O9 0.061233 0.268093 0.494490
O O10 0.880349 0.343630 0.379728
O O11 0.722459 0.803164 0.288871
O O12 0.299231 0.145315 0.220902
O O13 0.500000 0.000000 0.500000
O O14 0.109587 0.285367 0.955944
O O15 0.664299 0.591391 0.056872
O O16 0.500000 0.000000 0.000000
O O17 0.626921 0.995106 0.897054
O O18 0.500000 0.500000 0.500000
#
# Coordination Sequence:
#
# PCOD9076215 Si02
#       8
#     2   2   2   2   2   2   2   2
#     4  10  18  33  52  83 119 152 192 241 301 340
#     4  12  22  38  58  90 120 155 200 245 297 362
#     4   9  19  34  56  81 113 154 204 236 292 348
#     4  12  24  38  62  90 123 155 199 249 305 349
#     4  10  21  37  57  86 117 160 194 246 289 358
#     4   9  17  30  52  82 113 152 198 244 288 339
#     4  11  20  36  58  90 122 153 199 247 292 353
#     4   9  18  32  56  84 117 149 201 249 287 350
#
# _framework density 26.08718
#
# number of rings (size 3 to 8) (size 9 to 14) (size 15 to 20)
#    0.000    1.750    2.500    4.125    0.000    0.000 
#    0.000    0.625    0.000    0.750    3.250    0.000 
#    0.000    0.000    0.000    0.000    0.000    0.000 
#
# Total GULP energy -89153.505162 kJ/mol
# GULP energy per Si atom -5572.094073 kJ/mol
# Density = 2.602780 g / cm^3
# Si number density = 26.087180 Si / 1000 Ang^3
#
#
#
# Elastic Constant Matrix: (Units=GPa)
#
#
# Indices 1 2 3 4 5 6 
#
# 1 161.1772 22.8524 68.0850 20.6308 -15.1417 3.1585
# 2 22.8524 95.9342 13.6637 7.4510 12.1923 8.9237
# 3 68.0850 13.6637 123.0726 31.5389 -9.6872 0.7091
# 4 20.6308 7.4510 31.5389 37.2048 -6.4338 17.8961
# 5 -15.1417 12.1923 -9.6872 -6.4338 45.9707 19.3940
# 6 3.1585 8.9237 0.7091 17.8961 19.3940 48.6141
#
#
#
# Elastic Compliance Matrix: (Units=1/GPa)
#
#
# Indices 1 2 3 4 5 6 
#
# 1 0.008577 -0.001705 -0.004495 0.000774 0.003167 -0.001727
# 2 -0.001705 0.011498 -0.000093 -0.002221 -0.004140 0.000471
# 3 -0.004495 -0.000093 0.013476 -0.012086 -0.002684 0.005632
# 4 0.000774 -0.002221 -0.012086 0.051970 0.016132 -0.025033
# 5 0.003167 -0.004140 -0.002684 0.016132 0.033475 -0.018700
# 6 -0.001727 0.000471 0.005632 -0.025033 -0.018700 0.037189
#
#
# Mechanical properties :
#
#
# Convention : Reuss Voigt Hill
#
# Bulk Modulus (GPa) = 47.69681 65.48736 56.59209
# Shear Modulus (GPa) = 28.44810 44.73010 36.58910
#
# Velocity S-wave (km/s) = 3.30586 4.14531 3.74915
# Velocity P-wave (km/s) = 5.73541 6.93320 6.36255
#
# Compressibility (1/GPa) = 0.02096576
#
# Stress axis : x y z
#
# Youngs Moduli (GPa) = 116.58991 86.97137 74.20865
#
# Poissons Ratio (x) = 0.14828 0.33355
# Poissons Ratio (y) = 0.19878 0.00688
# Poissons Ratio (z) = 0.52404 0.00807
#
# Static dielectric constant tensor:
#      x y z
#    x 2.149570 0.112780 0.006810 
#    y 0.112780 2.198530 -0.035340 
#    z 0.006810 -0.035340 2.259990 
# 
# From -- ./inp_files/463586.got.cif
#   From: 2010.05.17/outbox.cif.g08.bks.cpg/sg2_232_cif.got.tgz:463586.got - 2010.06.03 11:33:40.
