data_PCOD9076753
_publ_section_title
;
Structure prediction by ZEFSAII (Michael W. Deem and Ramdas Pophale) SiO2 
 PCOD9076753
Probable space group: P -1
;
_chemical_formula_sum "Si O2"
_cell_formula_units_Z 16
_cell_length_a 23.769098
_cell_length_b 12.736790
_cell_length_c 12.097916
_cell_angle_alpha 37.085926
_cell_angle_beta 28.160467
_cell_angle_gamma 26.746993
_cell_volume 776.980192
_symmetry_space_group_name_H-M "P -1"
_symmetry_group_IT_number 2
_symmetry_cell_setting 'triclinic'
loop_
_space_group_symop_operation_xyz
x,y,z
-x,-y,-z
loop_
_atom_site_type_symbol
_atom_site_label
_atom_site_fract_x
_atom_site_fract_y
_atom_site_fract_z
Si Si1 0.631813 0.849097 0.629516
Si Si2 0.165232 0.316309 0.931811
Si Si3 0.487485 0.513623 0.377603
Si Si4 0.384423 0.259642 0.027200
Si Si5 0.832469 0.093111 0.756200
Si Si6 0.697003 0.627384 0.169067
Si Si7 0.705517 0.112343 0.173541
Si Si8 0.612246 0.635681 0.632795
O O1 0.706435 0.708357 0.732373
O O2 0.594051 0.735662 0.702313
O O3 0.467503 0.107749 0.734970
O O4 0.740093 0.887508 0.349051
O O5 0.166922 0.404918 0.974259
O O6 0.293225 0.307974 0.648092
O O7 0.000000 0.500000 0.000000
O O8 0.197534 0.078095 0.085037
O O9 0.500000 0.500000 0.500000
O O10 0.340242 0.531466 0.589283
O O11 0.643276 0.283431 0.241086
O O12 0.494195 0.706755 0.172555
O O13 0.285147 0.402413 0.969129
O O14 0.500000 0.000000 0.000000
O O15 0.704416 0.362821 0.713645
O O16 0.832541 0.078057 0.902739
O O17 0.000000 0.000000 0.500000
O O18 0.552676 0.236862 0.252079
#
# Coordination Sequence:
#
# PCOD9076753 Si02
#       8
#     2   2   2   2   2   2   2   2
#     4  10  18  33  59  89 121 155 198 255 312 361
#     4  12  23  42  61  86 126 164 211 258 309 375
#     4   9  17  32  55  87 120 153 197 252 306 364
#     4   9  18  31  52  89 126 155 196 248 314 373
#     4  12  26  39  58  90 123 169 208 249 320 378
#     4   9  19  36  57  86 125 160 200 255 310 360
#     4  11  21  37  60  92 127 158 208 260 312 372
#     4  12  22  39  61  91 122 162 205 261 317 369
#
# _framework density 20.592547
#
# number of rings (size 3 to 8) (size 9 to 14) (size 15 to 20)
#    0.000    1.500    5.000    3.000    0.000    2.000 
#    0.000    0.000    0.000    0.750    0.000    6.125 
#    0.000    0.000    0.000    0.000    0.000    0.000 
#
# Total GULP energy -89224.109504 kJ/mol
# GULP energy per Si atom -5576.506844 kJ/mol
# Density = 2.054568 g / cm^3
# Si number density = 20.592547 Si / 1000 Ang^3
#
#
#
# Elastic Constant Matrix: (Units=GPa)
#
#
# Indices 1 2 3 4 5 6 
#
# 1 109.3923 29.1974 50.0997 -4.6308 17.2686 21.7443
# 2 29.1974 67.5336 45.3184 -28.9286 -8.8361 19.4171
# 3 50.0997 45.3184 132.1927 -15.6712 19.7509 2.6230
# 4 -4.6308 -28.9286 -15.6712 39.8516 7.9469 -4.0461
# 5 17.2686 -8.8361 19.7509 7.9469 39.4015 -2.7538
# 6 21.7443 19.4171 2.6230 -4.0461 -2.7538 29.3303
#
#
#
# Elastic Compliance Matrix: (Units=1/GPa)
#
#
# Indices 1 2 3 4 5 6 
#
# 1 0.014054 -0.002004 -0.003845 -0.001275 -0.005082 -0.009402
# 2 -0.002004 0.038183 -0.011139 0.019196 0.009809 -0.019227
# 3 -0.003845 -0.011139 0.013583 -0.000990 -0.006847 0.008230
# 4 -0.001275 0.019196 -0.000990 0.038383 -0.002846 -0.006647
# 5 -0.005082 0.009809 -0.006847 -0.002846 0.033860 0.000672
# 6 -0.009402 -0.019227 0.008230 -0.006647 0.000672 0.052203
#
#
# Mechanical properties :
#
#
# Convention : Reuss Voigt Hill
#
# Bulk Modulus (GPa) = 31.40241 62.03885 46.72063
# Shear Modulus (GPa) = 21.28974 34.01687 27.65331
#
# Velocity S-wave (km/s) = 3.21885 4.06877 3.66851
# Velocity P-wave (km/s) = 5.39418 7.22948 6.37819
#
# Compressibility (1/GPa) = 0.03184469
#
# Stress axis : x y z
#
# Youngs Moduli (GPa) = 71.15365 26.18981 73.62326
#
# Poissons Ratio (x) = 0.05248 0.28306
# Poissons Ratio (y) = 0.14259 0.82008
# Poissons Ratio (z) = 0.27356 0.29172
#
# Static dielectric constant tensor:
#      x y z
#    x 1.772610 0.013800 0.030310 
#    y 0.013800 1.778650 -0.007100 
#    z 0.030310 -0.007100 1.836790 
# 
# From -- ./inp_files/406670.got.cif
#   From: 2010.05.17/outbox.cif.g08.bks.cpg/sg2_204_cif.got.tgz:406670.got - 2010.06.03 11:33:40.
