data_PCOD9076213
_publ_section_title
;
Structure prediction by ZEFSAII (Michael W. Deem and Ramdas Pophale) SiO2 
 PCOD9076213
Probable space group: P -1
;
_chemical_formula_sum "Si O2"
_cell_formula_units_Z 14
_cell_length_a 9.169641
_cell_length_b 15.482624
_cell_length_c 5.585680
_cell_angle_alpha 106.538649
_cell_angle_beta 127.683515
_cell_angle_gamma 65.096713
_cell_volume 568.816640
_symmetry_space_group_name_H-M "P -1"
_symmetry_group_IT_number 2
_symmetry_cell_setting 'triclinic'
loop_
_space_group_symop_operation_xyz
x,y,z
-x,-y,-z
loop_
_atom_site_type_symbol
_atom_site_label
_atom_site_fract_x
_atom_site_fract_y
_atom_site_fract_z
Si Si1 0.951381 0.771377 0.432044
Si Si2 0.322803 0.694945 0.472654
Si Si3 0.003153 0.403808 0.288553
Si Si4 0.605735 0.534926 0.917848
Si Si5 0.605456 0.690763 0.390995
Si Si6 0.088244 0.949291 0.799184
Si Si7 0.509021 0.837791 0.055772
O O1 0.726658 0.823450 0.167991
O O2 0.096052 0.729000 0.322799
O O3 0.988210 0.683060 0.588441
O O4 0.035895 0.851287 0.682850
O O5 0.399149 0.692730 0.281025
O O6 0.443416 0.591618 0.614529
O O7 0.414565 0.771079 0.751413
O O8 0.801245 0.450097 0.982560
O O9 0.000000 0.500000 0.500000
O O10 0.203123 0.361021 0.302195
O O11 0.656189 0.623731 0.156719
O O12 0.500000 0.500000 0.000000
O O13 0.572568 0.795802 0.353089
O O14 0.321176 0.929567 0.985616
O O15 0.000000 0.000000 0.500000
O O16 0.000000 0.000000 0.000000
#
# Coordination Sequence:
#
# PCOD9076213 Si02
#       7
#     2   2   2   2   2   2   2
#     4  10  21  44  69  97 136 188 220 287 353 413
#     4  10  20  37  60  93 129 176 232 277 334 406
#     4   9  18  37  60  88 135 178 227 280 334 411
#     4  10  18  33  52  81 129 169 222 276 328 395
#     4   9  20  36  58  86 127 171 221 283 328 403
#     4  11  27  49  77 108 141 177 235 297 357 428
#     4   9  22  43  66  96 135 170 220 282 349 421
#
# _framework density 24.612497999999999
#
# number of rings (size 3 to 8) (size 9 to 14) (size 15 to 20)
#    0.000    2.286    1.429    0.857    4.000    2.286 
#    7.714    0.000    0.000    0.000    0.000    0.000 
#    0.000    0.000    0.000    0.000    0.000    0.000 
#
# Total GULP energy -78010.859103 kJ/mol
# GULP energy per Si atom -5572.204222 kJ/mol
# Density = 2.455648 g / cm^3
# Si number density = 24.612498 Si / 1000 Ang^3
#
#
#
# Elastic Constant Matrix: (Units=GPa)
#
#
# Indices 1 2 3 4 5 6 
#
# 1 141.3043 53.2090 42.4176 -20.9982 28.7833 -46.6566
# 2 53.2090 109.9740 38.1878 -6.5375 2.2287 -29.8368
# 3 42.4176 38.1878 92.4205 -16.6110 26.0459 -26.5051
# 4 -20.9982 -6.5375 -16.6110 45.2744 -8.8207 15.2580
# 5 28.7833 2.2287 26.0459 -8.8207 44.8185 -14.3134
# 6 -46.6566 -29.8368 -26.5051 15.2580 -14.3134 63.2503
#
#
#
# Elastic Compliance Matrix: (Units=1/GPa)
#
#
# Indices 1 2 3 4 5 6 
#
# 1 0.011646 -0.003888 -0.000563 0.002007 -0.004997 0.004906
# 2 -0.003888 0.013155 -0.004520 -0.001570 0.005112 0.002979
# 3 -0.000563 -0.004520 0.016136 0.002917 -0.007649 0.001780
# 4 0.002007 -0.001570 0.002917 0.025359 0.000817 -0.003971
# 5 -0.004997 0.005112 -0.007649 0.000817 0.030590 0.002245
# 6 0.004906 0.002979 0.001780 -0.003971 0.002245 0.023046
#
#
# Mechanical properties :
#
#
# Convention : Reuss Voigt Hill
#
# Bulk Modulus (GPa) = 43.48412 67.92531 55.70471
# Shear Modulus (GPa) = 34.35539 44.66091 39.50815
#
# Velocity S-wave (km/s) = 3.74016 4.26439 4.01085
# Velocity P-wave (km/s) = 6.02973 7.20448 6.64312
#
# Compressibility (1/GPa) = 0.02299690
#
# Stress axis : x y z
#
# Youngs Moduli (GPa) = 85.86887 76.01799 61.97262
#
# Poissons Ratio (x) = 0.29553 0.03487
# Poissons Ratio (y) = 0.33382 0.28009
# Poissons Ratio (z) = 0.04832 0.34356
#
# Static dielectric constant tensor:
#      x y z
#    x 2.073450 0.001780 0.024290 
#    y 0.001780 2.013150 0.044240 
#    z 0.024290 0.044240 2.314680 
# 
# From -- ./inp_files/45162.got.cif
#   From: 2010.05.17/outbox.cif.g08.bks.cpg/sg2_23_cif.got.tgz:45162.got - 2010.06.03 11:33:40.
