data_PCOD9076470
_publ_section_title
;
Structure prediction by ZEFSAII (Michael W. Deem and Ramdas Pophale) SiO2 
 PCOD9076470
Probable space group: P -1
;
_chemical_formula_sum "Si O2"
_cell_formula_units_Z 16
_cell_length_a 10.890376
_cell_length_b 9.165149
_cell_length_c 14.043113
_cell_angle_alpha 137.537286
_cell_angle_beta 102.612378
_cell_angle_gamma 89.914768
_cell_volume 895.942865
_symmetry_space_group_name_H-M "P -1"
_symmetry_group_IT_number 2
_symmetry_cell_setting 'triclinic'
loop_
_space_group_symop_operation_xyz
x,y,z
-x,-y,-z
loop_
_atom_site_type_symbol
_atom_site_label
_atom_site_fract_x
_atom_site_fract_y
_atom_site_fract_z
Si Si1 0.791603 0.300079 0.101209
Si Si2 0.110253 0.916576 0.538471
Si Si3 0.925056 0.576444 0.713814
Si Si4 0.792578 0.851641 0.971241
Si Si5 0.872480 0.298379 0.894614
Si Si6 0.360728 0.515319 0.104181
Si Si7 0.994301 0.901146 0.718826
Si Si8 0.652048 0.662371 0.199988
O O1 0.693901 0.458717 0.162006
O O2 0.923101 0.402921 0.230048
O O3 0.836450 0.288684 0.994747
O O4 0.743219 0.051129 0.011364
O O5 0.137678 0.681462 0.399387
O O6 0.059357 0.866892 0.614215
O O7 0.238932 0.114797 0.655210
O O8 0.000000 0.000000 0.500000
O O9 0.921914 0.680449 0.657865
O O10 0.868983 0.735190 0.851903
O O11 0.676567 0.672047 0.912396
O O12 0.896449 0.960220 0.123024
O O13 0.751092 0.351401 0.846026
O O14 0.902918 0.066887 0.760805
O O15 0.000000 0.500000 0.000000
O O16 0.506501 0.662162 0.204154
O O17 0.347202 0.394559 0.940135
#
# Coordination Sequence:
#
# PCOD9076470 Si02
#       8
#     2   2   2   2   2   2   2   2
#     4  10  18  33  56  84 118 139 192 235 283 334
#     4  12  24  37  58  85 120 155 189 232 292 345
#     4  11  21  35  57  89 118 149 184 241 293 342
#     4  11  19  35  60  90 110 153 190 244 284 333
#     4  11  17  31  58  87 110 141 186 246 277 329
#     4  10  21  34  62  84 113 150 197 237 292 324
#     4  11  20  36  57  86 117 147 194 237 288 333
#     4  10  21  40  53  86 117 155 189 241 282 346
#
# _framework density 17.858280000000001
#
# number of rings (size 3 to 8) (size 9 to 14) (size 15 to 20)
#    0.000    1.250    6.250    1.875    1.750    0.500 
#    0.000    0.625    0.000    0.750    0.000    0.000 
#    0.000    0.000    0.000    0.000    0.000    0.000 
#
# Total GULP energy -89294.758397 kJ/mol
# GULP energy per Si atom -5580.922400 kJ/mol
# Density = 1.781763 g / cm^3
# Si number density = 17.858280 Si / 1000 Ang^3
#
#
#
# Elastic Constant Matrix: (Units=GPa)
#
#
# Indices 1 2 3 4 5 6 
#
# 1 76.6574 31.7895 20.4372 8.5535 15.0345 -4.2230
# 2 31.7895 121.1498 30.6133 19.0183 5.4202 3.0546
# 3 20.4372 30.6133 58.9810 14.2983 9.5760 -6.1234
# 4 8.5535 19.0183 14.2983 25.4816 3.0362 -6.9885
# 5 15.0345 5.4202 9.5760 3.0362 27.4275 5.2463
# 6 -4.2230 3.0546 -6.1234 -6.9885 5.2463 21.6209
#
#
#
# Elastic Compliance Matrix: (Units=1/GPa)
#
#
# Indices 1 2 3 4 5 6 
#
# 1 0.017226 -0.003884 -0.002095 0.000995 -0.009176 0.005868
# 2 -0.003884 0.011453 -0.004099 -0.007176 0.003368 -0.006675
# 3 -0.002095 -0.004099 0.023147 -0.006765 -0.006546 0.006127
# 4 0.000995 -0.007176 -0.006765 0.053787 -0.006197 0.018182
# 5 -0.009176 0.003368 -0.006546 -0.006197 0.047156 -0.017568
# 6 0.005868 -0.006675 0.006127 0.018182 -0.017568 0.060216
#
#
# Mechanical properties :
#
#
# Convention : Reuss Voigt Hill
#
# Bulk Modulus (GPa) = 31.57532 46.94089 39.25811
# Shear Modulus (GPa) = 20.51710 26.50254 23.50982
#
# Velocity S-wave (km/s) = 3.39320 3.85651 3.63225
# Velocity P-wave (km/s) = 5.75075 6.79504 6.29459
#
# Compressibility (1/GPa) = 0.03167030
#
# Stress axis : x y z
#
# Youngs Moduli (GPa) = 58.05040 87.31044 43.20205
#
# Poissons Ratio (x) = 0.33915 0.09051
# Poissons Ratio (y) = 0.22549 0.17708
# Poissons Ratio (z) = 0.12162 0.35787
#
# Static dielectric constant tensor:
#      x y z
#    x 1.600710 -0.007860 -0.020630 
#    y -0.007860 1.638780 0.003740 
#    z -0.020630 0.003740 1.648140 
# 
# From -- ./inp_files/345443.got.cif
#   From: 2010.05.17/outbox.cif.g08.bks.cpg/sg2_173_cif.got.tgz:345443.got - 2010.06.03 11:33:40.
