data_PCOD9076555
_publ_section_title
;
Structure prediction by ZEFSAII (Michael W. Deem and Ramdas Pophale) SiO2 
 PCOD9076555
Probable space group: P -1
;
_chemical_formula_sum "Si O2"
_cell_formula_units_Z 16
_cell_length_a 13.715182
_cell_length_b 13.270213
_cell_length_c 10.555907
_cell_angle_alpha 56.870270
_cell_angle_beta 137.443357
_cell_angle_gamma 145.680711
_cell_volume 722.882794
_symmetry_space_group_name_H-M "P -1"
_symmetry_group_IT_number 2
_symmetry_cell_setting 'triclinic'
loop_
_space_group_symop_operation_xyz
x,y,z
-x,-y,-z
loop_
_atom_site_type_symbol
_atom_site_label
_atom_site_fract_x
_atom_site_fract_y
_atom_site_fract_z
Si Si1 0.162445 0.339068 0.772888
Si Si2 0.380090 0.290493 0.156514
Si Si3 0.522487 0.138547 0.496213
Si Si4 0.844905 0.519981 0.828763
Si Si5 0.700249 0.667611 0.667460
Si Si6 0.627845 0.875379 0.367044
Si Si7 0.017971 0.468418 0.684103
Si Si8 0.920472 0.256506 0.342747
O O1 0.395089 0.532260 0.816253
O O2 0.094386 0.380987 0.796559
O O3 0.014708 0.262969 0.560414
O O4 0.190386 0.223079 0.932982
O O5 0.392334 0.156963 0.280388
O O6 0.371812 0.345601 0.249796
O O7 0.430725 0.091085 0.581731
O O8 0.778955 0.326098 0.612342
O O9 0.500000 0.000000 0.500000
O O10 0.861917 0.653779 0.834787
O O11 0.606550 0.319032 0.765816
O O12 0.893332 0.606537 0.676824
O O13 0.000000 0.500000 0.000000
O O14 0.500000 0.500000 0.500000
O O15 0.764388 0.838579 0.552994
O O16 0.747792 0.049036 0.277361
O O17 0.000000 0.500000 0.500000
O O18 0.160411 0.658451 0.760170
#
# Coordination Sequence:
#
# PCOD9076555 Si02
#       8
#     2   2   2   2   2   2   2   2
#     4  10  20  35  59  90 123 167 204 253 312 370
#     4  10  20  35  58  91 128 159 212 256 306 366
#     4  11  19  35  58  89 127 167 202 249 305 378
#     4  11  24  43  68  91 121 159 210 268 308 364
#     4   9  20  40  62  85 121 169 207 252 313 362
#     4  10  22  40  63  89 120 167 206 250 316 373
#     4  10  18  33  57  85 121 165 202 242 310 368
#     4  11  21  40  65  89 124 162 209 252 316 385
#
# _framework density 22.133602
#
# number of rings (size 3 to 8) (size 9 to 14) (size 15 to 20)
#    0.000    1.750    3.750    3.000    1.750    1.000 
#    0.000    6.875    0.000    0.000    0.000    0.000 
#    0.000    0.000    0.000    0.000    0.000    0.000 
#
# Total GULP energy -89202.586172 kJ/mol
# GULP energy per Si atom -5575.161636 kJ/mol
# Density = 2.208323 g / cm^3
# Si number density = 22.133602 Si / 1000 Ang^3
#
#
#
# Elastic Constant Matrix: (Units=GPa)
#
#
# Indices 1 2 3 4 5 6 
#
# 1 108.4731 29.5626 36.9433 -17.9166 22.0670 -21.7649
# 2 29.5626 96.6005 16.3205 -4.4779 10.3061 -8.6588
# 3 36.9433 16.3205 83.0298 -17.4133 18.7193 -8.1941
# 4 -17.9166 -4.4779 -17.4133 13.6651 -5.3498 8.3864
# 5 22.0670 10.3061 18.7193 -5.3498 41.7993 -11.2298
# 6 -21.7649 -8.6588 -8.1941 8.3864 -11.2298 35.4175
#
#
#
# Elastic Compliance Matrix: (Units=1/GPa)
#
#
# Indices 1 2 3 4 5 6 
#
# 1 0.013954 -0.002692 -0.002281 0.010913 -0.003272 0.003767
# 2 -0.002692 0.011470 -0.001260 -0.002421 -0.000839 0.001165
# 3 -0.002281 -0.001260 0.018354 0.020374 -0.005150 -0.003921
# 4 0.010913 -0.002421 0.020374 0.123166 -0.003772 -0.019532
# 5 -0.003272 -0.000839 -0.005150 -0.003772 0.029521 0.006846
# 6 0.003767 0.001165 -0.003921 -0.019532 0.006846 0.036723
#
#
# Mechanical properties :
#
#
# Convention : Reuss Voigt Hill
#
# Bulk Modulus (GPa) = 31.93817 50.41736 41.17777
# Shear Modulus (GPa) = 19.52425 31.86152 25.69289
#
# Velocity S-wave (km/s) = 2.97325 3.79820 3.41076
# Velocity P-wave (km/s) = 5.12328 6.48562 5.84428
#
# Compressibility (1/GPa) = 0.03131050
#
# Stress axis : x y z
#
# Youngs Moduli (GPa) = 71.66652 87.18019 54.48509
#
# Poissons Ratio (x) = 0.23470 0.12429
# Poissons Ratio (y) = 0.19294 0.06867
# Poissons Ratio (z) = 0.16348 0.10987
#
# Static dielectric constant tensor:
#      x y z
#    x 1.859860 -0.036270 0.025380 
#    y -0.036270 1.860580 0.008580 
#    z 0.025380 0.008580 1.907590 
# 
# From -- ./inp_files/454675.got.cif
#   From: 2010.05.17/outbox.cif.g08.bks.cpg/sg2_228_cif.got.tgz:454675.got - 2010.06.03 11:33:40.
