data_PCOD9076009
_publ_section_title
;
Structure prediction by ZEFSAII (Michael W. Deem and Ramdas Pophale) SiO2 
 PCOD9076009
Probable space group: P -1
;
_chemical_formula_sum "Si O2"
_cell_formula_units_Z 14
_cell_length_a 9.652832
_cell_length_b 9.212799
_cell_length_c 17.547139
_cell_angle_alpha 143.644458
_cell_angle_beta 129.898859
_cell_angle_gamma 70.958785
_cell_volume 644.522381
_symmetry_space_group_name_H-M "P -1"
_symmetry_group_IT_number 2
_symmetry_cell_setting 'triclinic'
loop_
_space_group_symop_operation_xyz
x,y,z
-x,-y,-z
loop_
_atom_site_type_symbol
_atom_site_label
_atom_site_fract_x
_atom_site_fract_y
_atom_site_fract_z
Si Si1 0.194024 0.483611 0.092375
Si Si2 0.590937 0.906310 0.724353
Si Si3 0.124111 0.672017 0.417755
Si Si4 0.637963 0.883411 0.568853
Si Si5 0.816544 0.823547 0.447277
Si Si6 0.447838 0.563182 0.091251
Si Si7 0.769952 0.636808 0.783739
O O1 0.281793 0.364072 0.005541
O O2 0.152610 0.311648 0.081731
O O3 0.337202 0.806304 0.293542
O O4 0.000000 0.500000 0.000000
O O5 0.348669 0.767437 0.571012
O O6 0.693020 0.845030 0.659239
O O7 0.671505 0.819653 0.790242
O O8 0.635632 0.215917 0.864773
O O9 0.082712 0.400031 0.241562
O O10 0.977231 0.699074 0.440660
O O11 0.108471 0.873835 0.431726
O O12 0.746343 0.825930 0.510381
O O13 0.412085 0.660195 0.397037
O O14 0.639165 0.669475 0.259194
O O15 0.500000 0.500000 0.000000
#
# Coordination Sequence:
#
# PCOD9076009 Si02
#       7
#     2   2   2   2   2   2   2
#     4  11  23  35  61  88 112 156 201 239 278 346
#     4   9  21  36  60  86 114 153 188 241 296 344
#     4   9  18  29  55  89 112 140 189 241 285 323
#     4  10  18  37  60  87 113 151 200 232 282 340
#     4  10  18  32  58  87 111 150 196 246 272 332
#     4  10  22  39  58  81 117 156 195 237 294 348
#     4  11  19  38  60  85 120 150 193 242 292 340
#
# _framework density 21.721512000000001
#
# number of rings (size 3 to 8) (size 9 to 14) (size 15 to 20)
#    0.000    2.000    2.857    3.000    2.000    1.143 
#    0.000    6.429    3.143    0.000    0.000    0.000 
#    0.000    0.000    0.000    0.000    0.000    0.000 
#
# Total GULP energy -77949.063011 kJ/mol
# GULP energy per Si atom -5567.790215 kJ/mol
# Density = 2.167207 g / cm^3
# Si number density = 21.721512 Si / 1000 Ang^3
#
#
#
# Elastic Constant Matrix: (Units=GPa)
#
#
# Indices 1 2 3 4 5 6 
#
# 1 185.5001 37.4171 44.7234 -25.3557 -47.2096 -12.2827
# 2 37.4171 100.5944 30.0334 -41.5145 -9.7267 -3.0417
# 3 44.7234 30.0334 47.1075 -24.7740 -18.6363 5.6411
# 4 -25.3557 -41.5145 -24.7740 36.1206 10.0526 -2.7526
# 5 -47.2096 -9.7267 -18.6363 10.0526 36.3017 -3.3201
# 6 -12.2827 -3.0417 5.6411 -2.7526 -3.3201 20.6322
#
#
#
# Elastic Compliance Matrix: (Units=1/GPa)
#
#
# Indices 1 2 3 4 5 6 
#
# 1 0.010530 -0.000709 -0.006375 -0.000164 0.011163 0.009682
# 2 -0.000709 0.019812 -0.001931 0.021982 -0.002180 0.005608
# 3 -0.006375 -0.001931 0.043208 0.020156 0.006683 -0.012129
# 4 -0.000164 0.021982 0.020156 0.067740 -0.002157 0.006322
# 5 0.011163 -0.002180 0.006683 -0.002157 0.046578 0.011704
# 6 0.009682 0.005608 -0.012129 0.006322 0.011704 0.061102
#
#
# Mechanical properties :
#
#
# Convention : Reuss Voigt Hill
#
# Bulk Modulus (GPa) = 18.01173 61.94996 39.98085
# Shear Modulus (GPa) = 17.51263 33.34611 25.42937
#
# Velocity S-wave (km/s) = 2.84251 3.92237 3.42526
# Velocity P-wave (km/s) = 4.36844 7.00681 5.83860
#
# Compressibility (1/GPa) = 0.05551938
#
# Stress axis : x y z
#
# Youngs Moduli (GPa) = 94.96336 50.47475 23.14378
#
# Poissons Ratio (x) = 0.03581 0.14754
# Poissons Ratio (y) = 0.06736 0.04470
# Poissons Ratio (z) = 0.60538 0.09748
#
# Static dielectric constant tensor:
#      x y z
#    x 1.896440 0.029770 -0.008030 
#    y 0.029770 1.772450 0.021140 
#    z -0.008030 0.021140 1.965100 
# 
# From -- ./inp_files/147790.got.cif
#   From: 2010.05.17/outbox.cif.g08.bks.cpg/sg2_74_cif.got.tgz:147790.got - 2010.06.03 11:33:40.
