data_PCOD9076447
_publ_section_title
;
Structure prediction by ZEFSAII (Michael W. Deem and Ramdas Pophale) SiO2 
 PCOD9076447
Probable space group: P -1
;
_chemical_formula_sum "Si O2"
_cell_formula_units_Z 14
_cell_length_a 8.270106
_cell_length_b 5.710892
_cell_length_c 21.887526
_cell_angle_alpha 132.316562
_cell_angle_beta 140.971943
_cell_angle_gamma 50.402227
_cell_volume 466.578816
_symmetry_space_group_name_H-M "P -1"
_symmetry_group_IT_number 2
_symmetry_cell_setting 'triclinic'
loop_
_space_group_symop_operation_xyz
x,y,z
-x,-y,-z
loop_
_atom_site_type_symbol
_atom_site_label
_atom_site_fract_x
_atom_site_fract_y
_atom_site_fract_z
Si Si1 0.348898 0.174711 0.110490
Si Si2 0.924810 0.492060 0.678712
Si Si3 0.654347 0.170997 0.399743
Si Si4 0.637186 0.193287 0.839295
Si Si5 0.697504 0.225077 0.081974
Si Si6 0.979612 0.045267 0.292621
Si Si7 0.424278 0.192003 0.575523
O O1 0.243000 0.541017 0.115782
O O2 0.268727 0.132354 0.149133
O O3 0.674994 0.087739 0.186910
O O4 0.238050 0.920273 0.991794
O O5 0.483048 0.425833 0.889830
O O6 0.985610 0.590907 0.645532
O O7 0.615023 0.594991 0.611979
O O8 0.019930 0.145017 0.677648
O O9 0.722888 0.438054 0.420243
O O10 0.559108 0.905045 0.283979
O O11 0.745544 0.975115 0.456088
O O12 0.960250 0.250150 0.200039
O O13 0.500000 0.000000 0.000000
O O14 0.270425 0.839385 0.315167
O O15 0.500000 0.000000 0.500000
#
# Coordination Sequence:
#
# PCOD9076447 Si02
#       7
#     2   2   2   2   2   2   2
#     4  11  20  33  55  81 109 154 194 220 258 321
#     4  10  19  33  53  78 108 147 187 224 261 322
#     4  10  22  38  57  86 115 141 176 231 289 324
#     4  11  21  34  54  81 117 151 176 229 279 313
#     4  10  19  33  55  81 109 154 200 220 248 320
#     4  10  18  33  56  82 103 138 190 228 262 319
#     4  10  21  39  65  83 104 142 186 227 275 347
#
# _framework density 30.005648000000001
#
# number of rings (size 3 to 8) (size 9 to 14) (size 15 to 20)
#    0.000    1.714    4.286    1.714    0.000    0.000 
#    0.000    3.571    0.000    5.143    0.000    0.000 
#    0.000    0.000    0.000    0.000    0.000    0.000 
#
# Total GULP energy -77970.295596 kJ/mol
# GULP energy per Si atom -5569.306828 kJ/mol
# Density = 2.993735 g / cm^3
# Si number density = 30.005648 Si / 1000 Ang^3
#
#
#
# Elastic Constant Matrix: (Units=GPa)
#
#
# Indices 1 2 3 4 5 6 
#
# 1 99.7857 67.2182 -6.0215 -25.5350 5.9023 42.2144
# 2 67.2182 235.8164 68.7391 -18.2727 -20.4149 61.1842
# 3 -6.0215 68.7391 107.9917 -12.0226 -11.7895 26.2364
# 4 -25.5350 -18.2727 -12.0226 62.2681 -1.6685 -16.7168
# 5 5.9023 -20.4149 -11.7895 -1.6685 49.9301 -17.7471
# 6 42.2144 61.1842 26.2364 -16.7168 -17.7471 53.4930
#
#
#
# Elastic Compliance Matrix: (Units=1/GPa)
#
#
# Indices 1 2 3 4 5 6 
#
# 1 0.023307 -0.004633 0.008316 0.004502 -0.009227 -0.018827
# 2 -0.004633 0.007591 -0.004389 -0.001206 0.001609 -0.002717
# 3 0.008316 -0.004389 0.014663 0.002553 -0.002325 -0.008708
# 4 0.004502 -0.001206 0.002553 0.018849 0.001228 0.002872
# 5 -0.009227 0.001609 -0.002325 0.001228 0.026919 0.015896
# 6 -0.018827 -0.002717 -0.008708 0.002872 0.015896 0.047102
#
#
# Mechanical properties :
#
#
# Convention : Reuss Voigt Hill
#
# Bulk Modulus (GPa) = 22.64969 78.16283 50.40626
# Shear Modulus (GPa) = 32.35029 54.04876 43.19952
#
# Velocity S-wave (km/s) = 3.28707 4.24876 3.79847
# Velocity P-wave (km/s) = 4.68735 7.08345 6.00610
#
# Compressibility (1/GPa) = 0.04415071
#
# Stress axis : x y z
#
# Youngs Moduli (GPa) = 42.90623 131.72968 68.19735
#
# Poissons Ratio (x) = 0.61027 -0.56715
# Poissons Ratio (y) = 0.19877 0.29930
# Poissons Ratio (z) = -0.35682 0.57813
#
# Static dielectric constant tensor:
#      x y z
#    x 2.511730 -0.037690 0.013050 
#    y -0.037690 2.385820 -0.072940 
#    z 0.013050 -0.072940 2.416640 
# 
# From -- ./inp_files/140175.got.cif
#   From: 2010.05.17/outbox.cif.g08.bks.cpg/sg2_71_cif.got.tgz:140175.got - 2010.06.03 11:33:40.
