data_PCOD9076789
_publ_section_title
;
Structure prediction by ZEFSAII (Michael W. Deem and Ramdas Pophale) SiO2 
 PCOD9076789
Probable space group: P -1
;
_chemical_formula_sum "Si O2"
_cell_formula_units_Z 16
_cell_length_a 14.753754
_cell_length_b 18.451417
_cell_length_c 15.960020
_cell_angle_alpha 20.926655
_cell_angle_beta 144.366809
_cell_angle_gamma 141.055294
_cell_volume 900.466688
_symmetry_space_group_name_H-M "P -1"
_symmetry_group_IT_number 2
_symmetry_cell_setting 'triclinic'
loop_
_space_group_symop_operation_xyz
x,y,z
-x,-y,-z
loop_
_atom_site_type_symbol
_atom_site_label
_atom_site_fract_x
_atom_site_fract_y
_atom_site_fract_z
Si Si1 0.711792 0.715800 0.183410
Si Si2 0.065656 0.948939 0.735826
Si Si3 0.178265 0.965328 0.202849
Si Si4 0.129666 0.637509 0.396782
Si Si5 0.564323 0.443196 0.742186
Si Si6 0.607798 0.211441 0.854523
Si Si7 0.006673 0.015331 0.805345
Si Si8 0.109011 0.329387 0.233316
O O1 0.767234 0.500077 0.431515
O O2 0.547680 0.687891 0.136724
O O3 0.845329 0.829705 0.221130
O O4 0.716694 0.845808 0.960619
O O5 0.958928 0.790800 0.769562
O O6 0.989637 0.012592 0.696440
O O7 0.112651 0.152749 0.497149
O O8 0.222101 0.840627 0.990018
O O9 0.221989 0.771283 0.393438
O O10 0.146471 0.939544 0.304896
O O11 0.000000 0.000000 0.000000
O O12 0.000000 0.500000 0.500000
O O13 0.049651 0.793259 0.108188
O O14 0.613325 0.302271 0.854620
O O15 0.463712 0.617151 0.440104
O O16 0.720108 0.557631 0.773864
O O17 0.500000 0.000000 0.000000
O O18 0.000000 0.500000 0.000000
#
# Coordination Sequence:
#
# PCOD9076789 Si02
#       8
#     2   2   2   2   2   2   2   2
#     4  10  18  30  50  82 115 142 177 229 283 335
#     4  11  23  39  60  80 115 156 191 237 286 336
#     4   8  16  29  44  76 115 139 174 224 275 337
#     4  10  14  29  50  78 119 147 167 222 291 336
#     4  11  23  35  59  84 115 152 188 236 289 339
#     4  11  21  37  56  87 117 138 186 246 289 335
#     4  10  19  30  52  83 113 143 184 228 280 340
#     4  11  24  44  56  77 114 159 202 233 277 343
#
# _framework density 17.768564000000001
#
# number of rings (size 3 to 8) (size 9 to 14) (size 15 to 20)
#    0.000    2.000    6.250    1.500    1.750    2.000 
#    0.000    0.000    0.000    0.750    0.000    1.750 
#    0.000    0.000    0.000    0.000    0.000    0.000 
#
# Total GULP energy -89189.336410 kJ/mol
# GULP energy per Si atom -5574.333526 kJ/mol
# Density = 1.772812 g / cm^3
# Si number density = 17.768564 Si / 1000 Ang^3
#
#
#
# Elastic Constant Matrix: (Units=GPa)
#
#
# Indices 1 2 3 4 5 6 
#
# 1 88.1588 34.4092 7.7005 -3.1684 -20.5277 -3.0781
# 2 34.4092 73.1339 18.5954 -14.2259 -12.1789 -0.2374
# 3 7.7005 18.5954 36.2119 -16.0629 4.0662 -1.5307
# 4 -3.1684 -14.2259 -16.0629 23.3650 -0.4683 -0.0077
# 5 -20.5277 -12.1789 4.0662 -0.4683 27.3042 -6.2283
# 6 -3.0781 -0.2374 -1.5307 -0.0077 -6.2283 30.4717
#
#
#
# Elastic Compliance Matrix: (Units=1/GPa)
#
#
# Indices 1 2 3 4 5 6 
#
# 1 0.016428 -0.005713 -0.003020 -0.003104 0.011047 0.003721
# 2 -0.005713 0.020499 -0.006803 0.007152 0.006095 0.000488
# 3 -0.003020 -0.006803 0.044472 0.025789 -0.011597 -0.000488
# 4 -0.003104 0.007152 0.025789 0.064428 -0.001719 0.000702
# 5 0.011047 0.006095 -0.011597 -0.001719 0.051898 0.011188
# 6 0.003721 0.000488 -0.000488 0.000702 0.011188 0.035460
#
#
# Mechanical properties :
#
#
# Convention : Reuss Voigt Hill
#
# Bulk Modulus (GPa) = 19.87026 35.43495 27.65261
# Shear Modulus (GPa) = 17.79153 25.34814 21.56984
#
# Velocity S-wave (km/s) = 3.16775 3.78110 3.48793
# Velocity P-wave (km/s) = 4.95849 6.24884 5.64069
#
# Compressibility (1/GPa) = 0.05032647
#
# Stress axis : x y z
#
# Youngs Moduli (GPa) = 60.87315 48.78225 22.48600
#
# Poissons Ratio (x) = 0.27871 0.06790
# Poissons Ratio (y) = 0.34779 0.15298
# Poissons Ratio (z) = 0.18381 0.33188
#
# Static dielectric constant tensor:
#      x y z
#    x 1.648680 -0.025340 -0.011990 
#    y -0.025340 1.610190 -0.011820 
#    z -0.011990 -0.011820 1.625080 
# 
# From -- ./inp_files/535057.got.cif
#   From: 2010.05.17/outbox.cif.g08.bks.cpg/sg2_268_cif.got.tgz:535057.got - 2010.06.03 11:33:40.
