data_PCOD9076102
_publ_section_title
;
Structure prediction by ZEFSAII (Michael W. Deem and Ramdas Pophale) SiO2 
 PCOD9076102
Probable space group: P -1
;
_chemical_formula_sum "Si O2"
_cell_formula_units_Z 12
_cell_length_a 7.870590
_cell_length_b 19.463781
_cell_length_c 13.004060
_cell_angle_alpha 28.279291
_cell_angle_beta 134.315449
_cell_angle_gamma 146.352815
_cell_volume 518.403065
_symmetry_space_group_name_H-M "P -1"
_symmetry_group_IT_number 2
_symmetry_cell_setting 'triclinic'
loop_
_space_group_symop_operation_xyz
x,y,z
-x,-y,-z
loop_
_atom_site_type_symbol
_atom_site_label
_atom_site_fract_x
_atom_site_fract_y
_atom_site_fract_z
Si Si1 0.666483 0.486438 0.927629
Si Si2 0.553133 0.349409 0.710739
Si Si3 0.723574 0.415044 0.309946
Si Si4 0.731560 0.925671 0.569557
Si Si5 0.738267 0.798583 0.428734
Si Si6 0.657055 0.226040 0.116656
O O1 0.366326 0.451659 0.888379
O O2 0.759767 0.633268 0.677915
O O3 0.626039 0.315009 0.086013
O O4 0.971477 0.624284 0.944222
O O5 0.500000 0.500000 0.500000
O O6 0.354412 0.212610 0.711910
O O7 0.489471 0.235956 0.937574
O O8 0.917334 0.472914 0.678861
O O9 0.538384 0.267266 0.522287
O O10 0.546374 0.287505 0.301615
O O11 0.942738 0.007530 0.653264
O O12 0.590267 0.031835 0.360535
O O13 0.000000 0.000000 0.500000
#
# Coordination Sequence:
#
# PCOD9076102 Si02
#       6
#     2   2   2   2   2   2
#     4   8  17  34  57  79 101 151 189 208 266 331
#     4  12  21  33  55  88 112 139 184 233 268 313
#     4   9  19  36  60  77 111 145 186 218 272 327
#     4   9  17  38  58  78 106 151 181 218 274 331
#     4   8  17  34  56  75 111 142 178 210 282 320
#     4  10  18  32  61  81 109 140 186 226 265 326
#
# _framework density 23.148011
#
# number of rings (size 3 to 8) (size 9 to 14) (size 15 to 20)
#    1.000    1.667    3.333    0.500    0.000    0.667 
#    0.000    5.000    0.000    2.000    0.000    0.000 
#    0.000    0.000    0.000    0.000    0.000    0.000 
#
# Total GULP energy -66999.971636 kJ/mol
# GULP energy per Si atom -5583.330970 kJ/mol
# Density = 2.309533 g / cm^3
# Si number density = 23.148011 Si / 1000 Ang^3
#
#
#
# Elastic Constant Matrix: (Units=GPa)
#
#
# Indices 1 2 3 4 5 6 
#
# 1 75.6436 32.8774 29.8399 9.6536 25.2940 -17.6012
# 2 32.8774 120.4262 41.9788 16.2878 4.8236 -23.5560
# 3 29.8399 41.9788 86.2486 21.2455 22.6644 -13.8533
# 4 9.6536 16.2878 21.2455 50.1115 -13.8792 -15.3194
# 5 25.2940 4.8236 22.6644 -13.8792 46.9727 6.8916
# 6 -17.6012 -23.5560 -13.8533 -15.3194 6.8916 44.2855
#
#
#
# Elastic Compliance Matrix: (Units=1/GPa)
#
#
# Indices 1 2 3 4 5 6 
#
# 1 0.021520 -0.003289 0.000110 -0.004687 -0.013768 0.007360
# 2 -0.003289 0.011236 -0.004687 0.000613 0.002618 0.003008
# 3 0.000110 -0.004687 0.019814 -0.009592 -0.012317 0.002347
# 4 -0.004687 0.000613 -0.009592 0.030066 0.015465 0.003457
# 5 -0.013768 0.002618 -0.012317 0.015465 0.040244 -0.008845
# 6 0.007360 0.003008 0.002347 0.003457 -0.008845 0.030412
#
#
# Mechanical properties :
#
#
# Convention : Reuss Voigt Hill
#
# Bulk Modulus (GPa) = 27.14539 54.63449 40.88994
# Shear Modulus (GPa) = 27.57800 40.11543 33.84671
#
# Velocity S-wave (km/s) = 3.45538 4.16744 3.82800
# Velocity P-wave (km/s) = 5.26040 6.84180 6.10254
#
# Compressibility (1/GPa) = 0.03683867
#
# Stress axis : x y z
#
# Youngs Moduli (GPa) = 46.46751 88.99944 50.46934
#
# Poissons Ratio (x) = 0.29268 -0.00553
# Poissons Ratio (y) = 0.15281 0.23655
# Poissons Ratio (z) = -0.00510 0.41714
#
# Static dielectric constant tensor:
#      x y z
#    x 1.970090 0.005480 -0.119600 
#    y 0.005480 1.815060 -0.019300 
#    z -0.119600 -0.019300 1.934120 
# 
# From -- ./inp_files/244299.got.cif
#   From: 2010.05.17/outbox.cif.g08.bks.cpg/sg2_123_cif.got.tgz:244299.got - 2010.06.03 11:33:40.
