data_PCOD9076664
_publ_section_title
;
Structure prediction by ZEFSAII (Michael W. Deem and Ramdas Pophale) SiO2 
 PCOD9076664
Probable space group: P -1
;
_chemical_formula_sum "Si O2"
_cell_formula_units_Z 16
_cell_length_a 22.698380
_cell_length_b 10.159986
_cell_length_c 16.503741
_cell_angle_alpha 35.981371
_cell_angle_beta 155.637847
_cell_angle_gamma 145.676331
_cell_volume 858.387888
_symmetry_space_group_name_H-M "P -1"
_symmetry_group_IT_number 2
_symmetry_cell_setting 'triclinic'
loop_
_space_group_symop_operation_xyz
x,y,z
-x,-y,-z
loop_
_atom_site_type_symbol
_atom_site_label
_atom_site_fract_x
_atom_site_fract_y
_atom_site_fract_z
Si Si1 0.178159 0.830972 0.618908
Si Si2 0.718264 0.664763 0.443326
Si Si3 0.636651 0.439241 0.947838
Si Si4 0.713820 0.545232 0.315042
Si Si5 0.643983 0.745658 0.965631
Si Si6 0.323138 0.872337 0.308475
Si Si7 0.906999 0.344528 0.564112
Si Si8 0.119168 0.114453 0.020932
O O1 0.210274 0.788592 0.587051
O O2 0.019029 0.612807 0.546096
O O3 0.175666 0.091220 0.503003
O O4 0.302288 0.776049 0.857541
O O5 0.542980 0.642697 0.250084
O O6 0.749583 0.679260 0.378777
O O7 0.722743 0.412706 0.605170
O O8 0.668565 0.588296 0.999221
O O9 0.739892 0.629933 0.916382
O O10 0.537602 0.366328 0.189137
O O11 0.817807 0.387542 0.508059
O O12 0.723996 0.708957 0.166519
O O13 0.683941 0.009266 0.846540
O O14 0.500000 0.000000 0.500000
O O15 0.204466 0.944314 0.179338
O O16 0.013724 0.190973 0.787357
O O17 0.000000 0.000000 0.000000
#
# Coordination Sequence:
#
# PCOD9076664 Si02
#       8
#     2   2   2   2   2   2   2   2
#     4  10  21  36  55  84 110 149 189 232 289 336
#     4  11  21  34  60  86 112 146 194 240 277 328
#     4   9  17  35  56  83 110 148 186 239 274 333
#     4  10  18  33  58  88 107 149 190 239 275 328
#     4   9  18  31  58  86 111 145 198 222 277 343
#     4  11  19  36  57  84 117 152 190 228 285 349
#     4  10  21  36  60  76 114 152 187 233 286 348
#     4  10  20  33  58  87 111 148 196 228 278 349
#
# _framework density 18.639593000000001
#
# number of rings (size 3 to 8) (size 9 to 14) (size 15 to 20)
#    0.000    2.000    5.000    1.125    1.750    0.500 
#    0.000    0.625    5.500    1.500    0.000    0.000 
#    0.000    0.000    0.000    0.000    0.000    0.000 
#
# Total GULP energy -89137.476595 kJ/mol
# GULP energy per Si atom -5571.092287 kJ/mol
# Density = 1.859717 g / cm^3
# Si number density = 18.639593 Si / 1000 Ang^3
#
#
#
# Elastic Constant Matrix: (Units=GPa)
#
#
# Indices 1 2 3 4 5 6 
#
# 1 91.9606 35.1206 28.6813 -3.1869 9.1308 18.5767
# 2 35.1206 99.7297 40.3496 -32.8444 -8.8468 -3.8025
# 3 28.6813 40.3496 76.6651 -21.2519 11.8293 4.7218
# 4 -3.1869 -32.8444 -21.2519 26.2638 3.0627 -3.3064
# 5 9.1308 -8.8468 11.8293 3.0627 39.3356 -5.9054
# 6 18.5767 -3.8025 4.7218 -3.3064 -5.9054 17.1349
#
#
#
# Elastic Compliance Matrix: (Units=1/GPa)
#
#
# Indices 1 2 3 4 5 6 
#
# 1 0.032765 -0.025637 -0.002268 -0.034548 -0.018026 -0.053466
# 2 -0.025637 0.041181 -0.005306 0.048548 0.021301 0.055104
# 3 -0.002268 -0.005306 0.021335 0.010675 -0.008748 -0.005554
# 4 -0.034548 0.048548 0.010675 0.110291 0.018069 0.072797
# 5 -0.018026 0.021301 -0.008748 0.018069 0.042341 0.044760
# 6 -0.053466 0.055104 -0.005554 0.072797 0.044760 0.159557
#
#
# Mechanical properties :
#
#
# Convention : Reuss Voigt Hill
#
# Bulk Modulus (GPa) = 34.64748 52.96205 43.80476
# Shear Modulus (GPa) = 10.34102 27.49379 18.91740
#
# Velocity S-wave (km/s) = 2.35795 3.84477 3.18921
# Velocity P-wave (km/s) = 5.10311 6.94155 6.09207
#
# Compressibility (1/GPa) = 0.02886213
#
# Stress axis : x y z
#
# Youngs Moduli (GPa) = 30.52005 24.28299 46.87039
#
# Poissons Ratio (x) = 0.62253 0.10628
# Poissons Ratio (y) = 0.78243 0.24869
# Poissons Ratio (z) = 0.06920 0.12884
#
# Static dielectric constant tensor:
#      x y z
#    x 1.699570 0.018710 -0.016450 
#    y 0.018710 1.635130 -0.012260 
#    z -0.016450 -0.012260 1.689310 
# 
# From -- ./inp_files/515549.got.cif
#   From: 2010.05.17/outbox.cif.g08.bks.cpg/sg2_258_cif.got.tgz:515549.got - 2010.06.03 11:33:40.
