data_PCOD9076929
_publ_section_title
;
Structure prediction by ZEFSAII (Michael W. Deem and Ramdas Pophale) SiO2 
 PCOD9076929
Probable space group: P -1
;
_chemical_formula_sum "Si O2"
_cell_formula_units_Z 12
_cell_length_a 11.234107
_cell_length_b 11.025079
_cell_length_c 4.993182
_cell_angle_alpha 108.438802
_cell_angle_beta 63.731340
_cell_angle_gamma 68.725775
_cell_volume 424.365774
_symmetry_space_group_name_H-M "P -1"
_symmetry_group_IT_number 2
_symmetry_cell_setting 'triclinic'
loop_
_space_group_symop_operation_xyz
x,y,z
-x,-y,-z
loop_
_atom_site_type_symbol
_atom_site_label
_atom_site_fract_x
_atom_site_fract_y
_atom_site_fract_z
Si Si1 0.627873 0.201521 0.416637
Si Si2 0.097570 0.352974 0.084867
Si Si3 0.593344 0.072307 0.862062
Si Si4 0.281814 0.606625 0.223968
Si Si5 0.101808 0.114010 0.255983
Si Si6 0.244936 0.476129 0.675956
O O1 0.558935 0.134965 0.642085
O O2 0.790320 0.944319 0.620414
O O3 0.553190 0.213523 0.206586
O O4 0.625866 0.333915 0.671598
O O5 0.166668 0.200009 0.086694
O O6 0.226353 0.354510 0.772523
O O7 0.000000 0.500000 0.500000
O O8 0.953789 0.383704 0.054532
O O9 0.820600 0.057128 0.072679
O O10 0.500000 0.000000 0.000000
O O11 0.324440 0.534110 0.835852
O O12 0.093224 0.763346 0.478950
O O13 0.290546 0.480630 0.328783
#
# Coordination Sequence:
#
# PCOD9076929 Si02
#       6
#     2   2   2   2   2   2
#     4  10  22  35  56  78 112 139 173 223 269 324
#     4  10  18  34  48  77 112 149 176 211 257 314
#     4  10  22  38  54  78 106 143 184 220 262 308
#     4  11  20  34  50  84 112 144 167 210 279 328
#     4   9  22  31  56  81 112 141 174 217 265 320
#     4  10  20  30  51  71 115 144 175 206 250 331
#
# _framework density 28.277491999999999
#
# number of rings (size 3 to 8) (size 9 to 14) (size 15 to 20)
#    1.000    1.000    3.333    2.000    4.667    0.667 
#    0.000    0.000    0.000    0.000    0.000    7.000 
#    0.000    0.000    0.000    0.000    0.000    0.000 
#
# Total GULP energy -67125.289168 kJ/mol
# GULP energy per Si atom -5593.774097 kJ/mol
# Density = 2.821313 g / cm^3
# Si number density = 28.277492 Si / 1000 Ang^3
#
#
#
# Elastic Constant Matrix: (Units=GPa)
#
#
# Indices 1 2 3 4 5 6 
#
# 1 144.7751 13.2613 26.3444 12.9761 11.8975 -4.8035
# 2 13.2613 74.8663 2.8741 30.9178 6.2984 7.9906
# 3 26.3444 2.8741 93.9742 1.8739 23.9133 -5.8992
# 4 12.9761 30.9178 1.8739 52.1215 -2.2173 4.0099
# 5 11.8975 6.2984 23.9133 -2.2173 55.0107 5.4183
# 6 -4.8035 7.9906 -5.8992 4.0099 5.4183 47.0569
#
#
#
# Elastic Compliance Matrix: (Units=1/GPa)
#
#
# Indices 1 2 3 4 5 6 
#
# 1 0.007533 -0.000649 -0.001766 -0.001536 -0.000937 0.000896
# 2 -0.000649 0.018252 0.000302 -0.010624 -0.002316 -0.001956
# 3 -0.001766 0.000302 0.012631 -0.000577 -0.005365 0.002019
# 4 -0.001536 -0.010624 -0.000577 0.026092 0.002948 -0.000988
# 5 -0.000937 -0.002316 -0.005365 0.002948 0.021402 -0.003090
# 6 0.000896 -0.001956 0.002019 -0.000988 -0.003090 0.022368
#
#
# Mechanical properties :
#
#
# Convention : Reuss Voigt Hill
#
# Bulk Modulus (GPa) = 29.24993 44.28613 36.76803
# Shear Modulus (GPa) = 40.35544 48.91353 44.63448
#
# Velocity S-wave (km/s) = 3.78183 4.16356 3.97728
# Velocity P-wave (km/s) = 5.42549 6.22968 5.84144
#
# Compressibility (1/GPa) = 0.03418811
#
# Stress axis : x y z
#
# Youngs Moduli (GPa) = 132.75724 54.78995 79.17233
#
# Poissons Ratio (x) = 0.03557 0.13985
# Poissons Ratio (y) = 0.08618 -0.02393
# Poissons Ratio (z) = 0.23451 -0.01656
#
# Static dielectric constant tensor:
#      x y z
#    x 2.226340 -0.067630 -0.059980 
#    y -0.067630 2.306550 0.052510 
#    z -0.059980 0.052510 2.152040 
# 
# From -- ./inp_files/88558.got.cif
#   From: 2010.05.17/outbox.cif.g08.bks.cpg/sg2_45_cif.got.tgz:88558.got - 2010.06.03 11:33:40.
