data_PCOD9076622
_publ_section_title
;
Structure prediction by ZEFSAII (Michael W. Deem and Ramdas Pophale) SiO2 
 PCOD9076622
Probable space group: P -1
;
_chemical_formula_sum "Si O2"
_cell_formula_units_Z 16
_cell_length_a 30.211915
_cell_length_b 9.367839
_cell_length_c 15.478479
_cell_angle_alpha 22.234423
_cell_angle_beta 21.312381
_cell_angle_gamma 28.263302
_cell_volume 597.038289
_symmetry_space_group_name_H-M "P -1"
_symmetry_group_IT_number 2
_symmetry_cell_setting 'triclinic'
loop_
_space_group_symop_operation_xyz
x,y,z
-x,-y,-z
loop_
_atom_site_type_symbol
_atom_site_label
_atom_site_fract_x
_atom_site_fract_y
_atom_site_fract_z
Si Si1 0.102225 0.941748 0.144735
Si Si2 0.679593 0.761316 0.515357
Si Si3 0.076104 0.734833 0.845974
Si Si4 0.620504 0.732103 0.825806
Si Si5 0.440599 0.987125 0.709237
Si Si6 0.268904 0.169798 0.055734
Si Si7 0.993571 0.620665 0.666447
Si Si8 0.666670 0.989048 0.788665
O O1 0.999826 0.948716 0.252794
O O2 0.227383 0.018882 0.829832
O O3 0.065076 0.330597 0.048201
O O4 0.096031 0.608360 0.412276
O O5 0.668738 0.905836 0.553359
O O6 0.548517 0.835423 0.664545
O O7 0.718870 0.300330 0.698485
O O8 0.220295 0.769707 0.564175
O O9 0.012135 0.711611 0.067886
O O10 0.653832 0.811768 0.817507
O O11 0.657439 0.290079 0.983511
O O12 0.470917 0.806357 0.055458
O O13 0.500000 0.000000 0.500000
O O14 0.360619 0.291359 0.745976
O O15 0.300320 0.263651 0.044315
O O16 0.133893 0.321748 0.185637
O O17 0.000000 0.000000 0.500000
#
# Coordination Sequence:
#
# PCOD9076622 Si02
#       8
#     2   2   2   2   2   2   2   2
#     4  10  18  33  58  82 116 149 195 241 287 331
#     4  11  19  38  57  82 116 151 195 236 294 345
#     4  10  19  34  56  88 113 151 192 241 288 338
#     4  10  22  37  58  85 111 158 191 233 294 355
#     4  11  23  36  56  89 119 149 195 245 289 341
#     4  11  19  35  60  81 114 157 190 240 289 341
#     4  10  21  31  54  93 115 143 198 247 283 336
#     4  11  19  38  61  81 116 153 195 234 295 351
#
# _framework density 26.798950000000001
#
# number of rings (size 3 to 8) (size 9 to 14) (size 15 to 20)
#    0.000    1.500    5.000    2.250    5.250    0.000 
#    0.000    2.500    0.000    0.750    0.000    0.000 
#    0.000    0.000    0.000    0.000    0.000    0.000 
#
# Total GULP energy -89458.459467 kJ/mol
# GULP energy per Si atom -5591.153717 kJ/mol
# Density = 2.673795 g / cm^3
# Si number density = 26.798950 Si / 1000 Ang^3
#
#
#
# Elastic Constant Matrix: (Units=GPa)
#
#
# Indices 1 2 3 4 5 6 
#
# 1 206.0666 32.3175 66.0158 19.2698 31.9713 29.6970
# 2 32.3175 65.1136 14.3091 7.5062 8.7372 11.3162
# 3 66.0158 14.3091 159.1962 32.2689 56.0591 5.5643
# 4 19.2698 7.5062 32.2689 22.3441 0.4751 1.6466
# 5 31.9713 8.7372 56.0591 0.4751 64.6350 20.6435
# 6 29.6970 11.3162 5.5643 1.6466 20.6435 38.7564
#
#
#
# Elastic Compliance Matrix: (Units=1/GPa)
#
#
# Indices 1 2 3 4 5 6 
#
# 1 0.006565 -0.001897 -0.002177 -0.001574 0.000262 -0.004236
# 2 -0.001897 0.017371 0.000703 -0.004975 -0.001039 -0.002954
# 3 -0.002177 0.000703 0.017782 -0.024344 -0.017164 0.009087
# 4 -0.001574 -0.004975 -0.024344 0.083205 0.025446 -0.010935
# 5 0.000262 -0.001039 -0.017164 0.025446 0.035798 -0.017582
# 6 -0.004236 -0.002954 0.009087 -0.010935 -0.017582 0.038436
#
#
# Mechanical properties :
#
#
# Convention : Reuss Voigt Hill
#
# Bulk Modulus (GPa) = 28.59117 72.85124 50.72121
# Shear Modulus (GPa) = 22.98237 46.32937 34.65587
#
# Velocity S-wave (km/s) = 2.93163 4.16237 3.59998
# Velocity P-wave (km/s) = 4.70651 7.09533 6.02059
#
# Compressibility (1/GPa) = 0.03497583
#
# Stress axis : x y z
#
# Youngs Moduli (GPa) = 152.32720 57.56595 56.23580
#
# Poissons Ratio (x) = 0.10922 0.12242
# Poissons Ratio (y) = 0.28902 -0.03954
# Poissons Ratio (z) = 0.33161 -0.04047
#
# Static dielectric constant tensor:
#      x y z
#    x 2.102860 0.003370 0.086110 
#    y 0.003370 2.152930 -0.093510 
#    z 0.086110 -0.093510 2.194220 
# 
# From -- ./inp_files/306002.got.cif
#   From: 2010.05.17/outbox.cif.g08.bks.cpg/sg2_154_cif.got.tgz:306002.got - 2010.06.03 11:33:40.
