data_PCOD9076561
_publ_section_title
;
Structure prediction by ZEFSAII (Michael W. Deem and Ramdas Pophale) SiO2 
 PCOD9076561
Probable space group: P -1
;
_chemical_formula_sum "Si O2"
_cell_formula_units_Z 16
_cell_length_a 24.994358
_cell_length_b 13.016756
_cell_length_c 7.561407
_cell_angle_alpha 65.372216
_cell_angle_beta 53.160912
_cell_angle_gamma 21.849061
_cell_volume 647.033112
_symmetry_space_group_name_H-M "P -1"
_symmetry_group_IT_number 2
_symmetry_cell_setting 'triclinic'
loop_
_space_group_symop_operation_xyz
x,y,z
-x,-y,-z
loop_
_atom_site_type_symbol
_atom_site_label
_atom_site_fract_x
_atom_site_fract_y
_atom_site_fract_z
Si Si1 0.382446 0.733993 0.399563
Si Si2 0.646707 0.495425 0.867466
Si Si3 0.929577 0.856869 0.771000
Si Si4 0.576008 0.579268 0.552438
Si Si5 0.811429 0.807582 0.042650
Si Si6 0.011799 0.667138 0.145061
Si Si7 0.323102 0.305387 0.385571
Si Si8 0.285852 0.414299 0.807520
O O1 0.500000 0.500000 0.500000
O O2 0.369086 0.636808 0.390502
O O3 0.169097 0.102902 0.578173
O O4 0.506568 0.639752 0.151119
O O5 0.560357 0.642685 0.739526
O O6 0.680506 0.570516 0.801040
O O7 0.832959 0.128801 0.737125
O O8 0.815377 0.929189 0.874020
O O9 0.142798 0.519307 0.533038
O O10 0.932226 0.837111 0.992771
O O11 0.709502 0.456927 0.278273
O O12 0.362044 0.929497 0.670331
O O13 0.833705 0.670930 0.958473
O O14 0.000000 0.500000 0.000000
O O15 0.111739 0.616305 0.074248
O O16 0.292378 0.375978 0.608812
O O17 0.521499 0.934400 0.245201
#
# Coordination Sequence:
#
# PCOD9076561 Si02
#       8
#     2   2   2   2   2   2   2   2
#     4  12  23  39  58  87 122 158 187 237 298 352
#     4  11  21  37  59  89 120 151 195 242 290 341
#     4  10  18  33  59  88 115 150 197 238 288 344
#     4  11  22  38  64  85 118 152 198 246 283 343
#     4  10  18  33  57  86 114 151 196 237 277 343
#     4  10  20  35  58  86 116 155 196 234 290 348
#     4   9  18  33  59  87 114 148 197 248 283 334
#     4   9  18  36  57  85 114 151 196 241 290 339
#
# _framework density 24.728254
#
# number of rings (size 3 to 8) (size 9 to 14) (size 15 to 20)
#    0.000    1.750    2.500    5.250    0.000    0.500 
#    0.000    2.500    0.000    1.500    0.000    0.000 
#    0.000    0.000    0.000    0.000    0.000    0.000 
#
# Total GULP energy -89377.100976 kJ/mol
# GULP energy per Si atom -5586.068811 kJ/mol
# Density = 2.467197 g / cm^3
# Si number density = 24.728254 Si / 1000 Ang^3
#
#
#
# Elastic Constant Matrix: (Units=GPa)
#
#
# Indices 1 2 3 4 5 6 
#
# 1 44.7097 1.3419 30.0224 -1.1879 -30.3880 7.3734
# 2 1.3419 89.3427 16.4276 3.3469 -11.0767 11.1945
# 3 30.0224 16.4276 86.0812 -4.2971 -42.4366 -3.9897
# 4 -1.1879 3.3469 -4.2971 36.7130 2.9638 -7.8424
# 5 -30.3880 -11.0767 -42.4366 2.9638 42.0327 -5.4215
# 6 7.3734 11.1945 -3.9897 -7.8424 -5.4215 26.3399
#
#
#
# Elastic Compliance Matrix: (Units=1/GPa)
#
#
# Indices 1 2 3 4 5 6 
#
# 1 0.047147 0.005132 -0.002283 -0.004003 0.032085 -0.010313
# 2 0.005132 0.013232 -0.003370 -0.003377 0.003006 -0.007957
# 3 -0.002283 -0.003370 0.026348 0.003929 0.025392 0.012459
# 4 -0.004003 -0.003377 0.003929 0.030504 -0.000401 0.012151
# 5 0.032085 0.003006 0.025392 -0.000401 0.074581 0.008819
# 6 -0.010313 -0.007957 0.012459 0.012151 0.008819 0.051554
#
#
# Mechanical properties :
#
#
# Convention : Reuss Voigt Hill
#
# Bulk Modulus (GPa) = 11.67097 35.07970 23.37534
# Shear Modulus (GPa) = 18.31694 32.50658 25.41176
#
# Velocity S-wave (km/s) = 2.72459 3.62961 3.20916
# Velocity P-wave (km/s) = 3.82463 5.63758 4.81716
#
# Compressibility (1/GPa) = 0.08568267
#
# Stress axis : x y z
#
# Youngs Moduli (GPa) = 21.21011 75.57585 37.95369
#
# Poissons Ratio (x) = -0.38783 0.08666
# Poissons Ratio (y) = -0.10884 0.12792
# Poissons Ratio (z) = 0.04843 0.25473
#
# Static dielectric constant tensor:
#      x y z
#    x 2.266480 0.016080 -0.037800 
#    y 0.016080 1.955390 -0.010150 
#    z -0.037800 -0.010150 2.014490 
# 
# From -- ./inp_files/358753.got.cif
#   From: 2010.05.17/outbox.cif.g08.bks.cpg/sg2_180_cif.got.tgz:358753.got - 2010.06.03 11:33:40.
