data_PCOD9076108
_publ_section_title
;
Structure prediction by ZEFSAII (Michael W. Deem and Ramdas Pophale) SiO2 
 PCOD9076108
Probable space group: P -1
;
_chemical_formula_sum "Si O2"
_cell_formula_units_Z 16
_cell_length_a 8.228096
_cell_length_b 8.779658
_cell_length_c 15.047684
_cell_angle_alpha 100.974720
_cell_angle_beta 53.554615
_cell_angle_gamma 67.985350
_cell_volume 674.983764
_symmetry_space_group_name_H-M "P -1"
_symmetry_group_IT_number 2
_symmetry_cell_setting 'triclinic'
loop_
_space_group_symop_operation_xyz
x,y,z
-x,-y,-z
loop_
_atom_site_type_symbol
_atom_site_label
_atom_site_fract_x
_atom_site_fract_y
_atom_site_fract_z
Si Si1 0.744668 0.499480 0.231865
Si Si2 0.277259 0.818107 0.852661
Si Si3 0.370991 0.833717 0.999693
Si Si4 0.670553 0.106188 0.678352
Si Si5 0.228091 0.538600 0.589175
Si Si6 0.952819 0.036977 0.309929
Si Si7 0.287402 0.214139 0.976522
Si Si8 0.549894 0.842047 0.612866
O O1 0.725820 0.323899 0.227959
O O2 0.480089 0.694178 0.307067
O O3 0.811786 0.526043 0.310764
O O4 0.990375 0.392566 0.076027
O O5 0.410266 0.704957 0.888448
O O6 0.411355 0.881974 0.757057
O O7 0.000000 0.000000 0.000000
O O8 0.617556 0.721377 0.968049
O O9 0.137495 0.910266 0.151529
O O10 0.328704 0.022613 0.985785
O O11 0.918129 0.054035 0.645540
O O12 0.678663 0.948853 0.595672
O O13 0.471631 0.159673 0.828882
O O14 0.500000 0.500000 0.500000
O O15 0.247697 0.393031 0.495225
O O16 0.044619 0.773737 0.665642
O O17 0.679667 0.083975 0.377946
#
# Coordination Sequence:
#
# PCOD9076108 Si02
#       8
#     2   2   2   2   2   2   2   2
#     4  12  22  39  60  88 125 156 192 255 303 349
#     4  12  18  34  63  88 111 153 207 239 289 354
#     4  10  18  32  61  89 112 153 202 246 286 350
#     4  11  25  38  60  93 128 155 191 247 318 353
#     4  10  20  39  66  86 112 161 213 246 285 347
#     4  10  20  41  62  88 123 157 200 252 289 349
#     4  10  19  35  57  88 121 151 192 248 299 349
#     4  11  21  39  65  86 116 162 205 243 291 361
#
# _framework density 23.704273000000001
#
# number of rings (size 3 to 8) (size 9 to 14) (size 15 to 20)
#    0.000    1.250    7.500    0.375    0.000    1.000 
#    2.250    3.750    0.000    0.000    0.000    0.000 
#    0.000    0.000    0.000    0.000    0.000    0.000 
#
# Total GULP energy -89170.388877 kJ/mol
# GULP energy per Si atom -5573.149305 kJ/mol
# Density = 2.365032 g / cm^3
# Si number density = 23.704273 Si / 1000 Ang^3
#
#
#
# Elastic Constant Matrix: (Units=GPa)
#
#
# Indices 1 2 3 4 5 6 
#
# 1 87.2638 8.3832 27.5203 -1.9415 17.0923 -10.6318
# 2 8.3832 48.1922 18.1447 0.0024 1.4606 -13.4052
# 3 27.5203 18.1447 76.1480 0.6048 12.1144 10.0574
# 4 -1.9415 0.0024 0.6048 15.5200 9.4870 -4.4177
# 5 17.0923 1.4606 12.1144 9.4870 28.2804 -2.1605
# 6 -10.6318 -13.4052 10.0574 -4.4177 -2.1605 23.9754
#
#
#
# Elastic Compliance Matrix: (Units=1/GPa)
#
#
# Indices 1 2 3 4 5 6 
#
# 1 0.017826 0.004409 -0.007848 0.013605 -0.011044 0.015173
# 2 0.004409 0.032447 -0.013059 0.008501 0.000479 0.027184
# 3 -0.007848 -0.013059 0.022634 -0.005537 -0.004076 -0.021664
# 4 0.013605 0.008501 -0.005537 0.096565 -0.036575 0.027606
# 5 -0.011044 0.000479 -0.004076 -0.036575 0.055671 -0.004643
# 6 0.015173 0.027184 -0.021664 0.027606 -0.004643 0.077393
#
#
# Mechanical properties :
#
#
# Convention : Reuss Voigt Hill
#
# Bulk Modulus (GPa) = 25.05631 35.52227 30.28929
# Shear Modulus (GPa) = 14.33344 24.05887 19.19615
#
# Velocity S-wave (km/s) = 2.46169 3.18930 2.84882
# Velocity P-wave (km/s) = 4.32125 5.34605 4.86074
#
# Compressibility (1/GPa) = 0.03991010
#
# Stress axis : x y z
#
# Youngs Moduli (GPa) = 56.09928 30.81970 44.18146
#
# Poissons Ratio (x) = -0.13587 0.34673
# Poissons Ratio (y) = -0.24732 0.57696
# Poissons Ratio (z) = 0.44026 0.40247
#
# Static dielectric constant tensor:
#      x y z
#    x 2.124920 -0.015970 0.003840 
#    y -0.015970 1.948000 -0.007260 
#    z 0.003840 -0.007260 1.893110 
# 
# From -- ./inp_files/223063.got.cif
#   From: 2010.05.17/outbox.cif.g08.bks.cpg/sg2_112_cif.got.tgz:223063.got - 2010.06.03 11:33:40.
