data_PCOD9076894
_publ_section_title
;
Structure prediction by ZEFSAII (Michael W. Deem and Ramdas Pophale) SiO2 
 PCOD9076894
Probable space group: P -1
;
_chemical_formula_sum "Si O2"
_cell_formula_units_Z 14
_cell_length_a 11.704833
_cell_length_b 8.878903
_cell_length_c 9.267051
_cell_angle_alpha 50.960933
_cell_angle_beta 52.525474
_cell_angle_gamma 83.335211
_cell_volume 535.019440
_symmetry_space_group_name_H-M "P -1"
_symmetry_group_IT_number 2
_symmetry_cell_setting 'triclinic'
loop_
_space_group_symop_operation_xyz
x,y,z
-x,-y,-z
loop_
_atom_site_type_symbol
_atom_site_label
_atom_site_fract_x
_atom_site_fract_y
_atom_site_fract_z
Si Si1 0.976410 0.750305 0.283068
Si Si2 0.118765 0.477675 0.198196
Si Si3 0.806667 0.149614 0.539369
Si Si4 0.252500 0.208540 0.791205
Si Si5 0.509580 0.038882 0.636986
Si Si6 0.328836 0.346494 0.951547
Si Si7 0.397525 0.763472 0.148895
O O1 0.908753 0.619014 0.560590
O O2 0.825735 0.750439 0.315797
O O3 0.072593 0.673603 0.139422
O O4 0.108666 0.982329 0.088702
O O5 0.284184 0.499922 0.992377
O O6 0.993056 0.299128 0.292768
O O7 0.689110 0.132606 0.507569
O O8 0.766055 0.280086 0.621824
O O9 0.763004 0.903131 0.767711
O O10 0.411797 0.176241 0.665111
O O11 0.284950 0.361768 0.810853
O O12 0.500000 0.000000 0.500000
O O13 0.412592 0.820026 0.936095
O O14 0.511654 0.379598 0.798644
O O15 0.500000 0.000000 0.000000
#
# Coordination Sequence:
#
# PCOD9076894 Si02
#       7
#     2   2   2   2   2   2   2
#     4  10  25  37  58  84 125 150 188 245 292 329
#     4  11  22  39  58  90 117 153 194 240 281 348
#     4  10  18  35  61  87 113 154 189 234 288 351
#     4  11  20  40  59  85 115 157 192 239 289 343
#     4  10  19  31  58  89 113 142 197 244 281 335
#     4  10  18  33  63  86 111 152 202 224 285 349
#     4   8  15  32  53  87 109 149 183 235 278 346
#
# _framework density 26.167273000000002
#
# number of rings (size 3 to 8) (size 9 to 14) (size 15 to 20)
#    0.000    2.286    5.714    0.429    4.000    1.714 
#    0.000    0.714    3.143    5.143    0.000    0.000 
#    0.000    0.000    0.000    0.000    0.000    0.000 
#
# Total GULP energy -78382.493468 kJ/mol
# GULP energy per Si atom -5598.749533 kJ/mol
# Density = 2.610772 g / cm^3
# Si number density = 26.167273 Si / 1000 Ang^3
#
#
#
# Elastic Constant Matrix: (Units=GPa)
#
#
# Indices 1 2 3 4 5 6 
#
# 1 165.4166 56.9432 33.0849 19.2558 27.3478 -4.4705
# 2 56.9432 96.9985 32.0453 25.6047 -4.5790 16.7411
# 3 33.0849 32.0453 50.7079 16.8107 6.2810 15.5172
# 4 19.2558 25.6047 16.8107 51.4185 7.4047 3.1539
# 5 27.3478 -4.5790 6.2810 7.4047 43.9847 13.0253
# 6 -4.4705 16.7411 15.5172 3.1539 13.0253 32.1849
#
#
#
# Elastic Compliance Matrix: (Units=1/GPa)
#
#
# Indices 1 2 3 4 5 6 
#
# 1 0.012566 -0.009139 -0.006165 0.002797 -0.012587 0.014292
# 2 -0.009139 0.022035 -0.001948 -0.007979 0.014609 -0.016922
# 3 -0.006165 -0.001948 0.031643 -0.006795 0.005146 -0.016516
# 4 0.002797 -0.007979 -0.006795 0.025275 -0.008447 0.008757
# 5 -0.012587 0.014609 0.005146 -0.008447 0.040933 -0.027566
# 6 0.014292 -0.016922 -0.016516 0.008757 -0.027566 0.060119
#
#
# Mechanical properties :
#
#
# Convention : Reuss Voigt Hill
#
# Bulk Modulus (GPa) = 31.50578 61.91888 46.71233
# Shear Modulus (GPa) = 21.03894 38.25427 29.64661
#
# Velocity S-wave (km/s) = 2.83860 3.82764 3.36961
# Velocity P-wave (km/s) = 4.77596 6.57636 5.74710
#
# Compressibility (1/GPa) = 0.03174021
#
# Stress axis : x y z
#
# Youngs Moduli (GPa) = 79.57866 45.38280 31.60238
#
# Poissons Ratio (x) = 0.41477 0.19482
# Poissons Ratio (y) = 0.72731 0.06156
# Poissons Ratio (z) = 0.49057 0.08840
#
# Static dielectric constant tensor:
#      x y z
#    x 2.040780 -0.001810 -0.048860 
#    y -0.001810 2.015610 -0.065850 
#    z -0.048860 -0.065850 2.156920 
# 
# From -- ./inp_files/175444.got.cif
#   From: 2010.05.17/outbox.cif.g08.bks.cpg/sg2_88_cif.got.tgz:175444.got - 2010.06.03 11:33:40.
