data_PCOD9076817
_publ_section_title
;
Structure prediction by ZEFSAII (Michael W. Deem and Ramdas Pophale) SiO2 
 PCOD9076817
Probable space group: P -1
;
_chemical_formula_sum "Si O2"
_cell_formula_units_Z 16
_cell_length_a 9.421508
_cell_length_b 12.310219
_cell_length_c 9.912324
_cell_angle_alpha 119.926658
_cell_angle_beta 125.655970
_cell_angle_gamma 79.045617
_cell_volume 801.233304
_symmetry_space_group_name_H-M "P -1"
_symmetry_group_IT_number 2
_symmetry_cell_setting 'triclinic'
loop_
_space_group_symop_operation_xyz
x,y,z
-x,-y,-z
loop_
_atom_site_type_symbol
_atom_site_label
_atom_site_fract_x
_atom_site_fract_y
_atom_site_fract_z
Si Si1 0.205763 0.545328 0.630605
Si Si2 0.049376 0.893852 0.358673
Si Si3 0.483265 0.637558 0.017787
Si Si4 0.692712 0.989541 0.660162
Si Si5 0.348236 0.180045 0.979467
Si Si6 0.644973 0.033804 0.959035
Si Si7 0.734889 0.724136 0.440717
Si Si8 0.138988 0.774250 0.589497
O O1 0.288242 0.414794 0.589943
O O2 0.225841 0.648683 0.588455
O O3 0.000000 0.500000 0.500000
O O4 0.278760 0.623107 0.853842
O O5 0.859273 0.829248 0.163337
O O6 0.165951 0.949670 0.333314
O O7 0.150911 0.810232 0.462162
O O8 0.000000 0.000000 0.500000
O O9 0.572152 0.683013 0.951429
O O10 0.587515 0.725304 0.242687
O O11 0.500000 0.500000 0.000000
O O12 0.716250 0.050635 0.858527
O O13 0.500000 0.000000 0.500000
O O14 0.717181 0.842651 0.597075
O O15 0.457621 0.087480 0.894185
O O16 0.375412 0.113332 0.096859
O O17 0.768717 0.116395 0.189885
O O18 0.930211 0.746720 0.495029
#
# Coordination Sequence:
#
# PCOD9076817 Si02
#       8
#     2   2   2   2   2   2   2   2
#     4   9  20  34  58  92 117 158 210 264 295 361
#     4  12  21  38  61  89 129 167 203 260 308 375
#     4  10  18  33  60  89 118 155 209 255 302 359
#     4  12  26  39  61  95 135 164 205 255 322 370
#     4  11  21  38  63  90 124 161 216 249 312 373
#     4  11  24  37  63  94 127 164 202 259 312 374
#     4  10  20  37  59  89 123 163 205 254 305 366
#     4  11  20  36  64  91 124 159 214 249 307 364
#
# _framework density 19.969213
#
# number of rings (size 3 to 8) (size 9 to 14) (size 15 to 20)
#    0.000    1.250    5.000    1.500    1.750    2.000 
#    0.000    0.000    0.000    8.250    0.000   11.375 
#    0.000    0.000    0.000    0.000    0.000    0.000 
#
# Total GULP energy -89099.599258 kJ/mol
# GULP energy per Si atom -5568.724954 kJ/mol
# Density = 1.992376 g / cm^3
# Si number density = 19.969213 Si / 1000 Ang^3
#
#
#
# Elastic Constant Matrix: (Units=GPa)
#
#
# Indices 1 2 3 4 5 6 
#
# 1 90.1611 29.3842 51.0607 -6.6906 0.7454 17.8476
# 2 29.3842 157.8474 30.6667 -21.2552 -7.8116 18.4792
# 3 51.0607 30.6667 88.3400 -14.4369 13.8805 5.5817
# 4 -6.6906 -21.2552 -14.4369 29.2423 3.0081 1.5301
# 5 0.7454 -7.8116 13.8805 3.0081 33.6473 -6.1812
# 6 17.8476 18.4792 5.5817 1.5301 -6.1812 29.5949
#
#
#
# Elastic Compliance Matrix: (Units=1/GPa)
#
#
# Indices 1 2 3 4 5 6 
#
# 1 0.018962 -0.000458 -0.010841 -0.001156 0.002483 -0.008526
# 2 -0.000458 0.007985 -0.001612 0.005003 0.001274 -0.004398
# 3 -0.010841 -0.001612 0.020703 0.007433 -0.009090 0.001357
# 4 -0.001156 0.005003 0.007433 0.042355 -0.007042 -0.007489
# 5 0.002483 0.001274 -0.009090 -0.007042 0.035669 0.007236
# 6 -0.008526 -0.004398 0.001357 -0.007489 0.007236 0.043320
#
#
# Mechanical properties :
#
#
# Convention : Reuss Voigt Hill
#
# Bulk Modulus (GPa) = 45.81421 62.06351 53.93886
# Shear Modulus (GPa) = 24.74117 33.51269 29.12693
#
# Velocity S-wave (km/s) = 3.52371 4.10105 3.82329
# Velocity P-wave (km/s) = 6.28869 7.31928 6.82347
#
# Compressibility (1/GPa) = 0.02182729
#
# Stress axis : x y z
#
# Youngs Moduli (GPa) = 52.73799 125.23034 48.30242
#
# Poissons Ratio (x) = 0.05739 0.52366
# Poissons Ratio (y) = 0.02417 0.07785
# Poissons Ratio (z) = 0.57174 0.20185
#
# Static dielectric constant tensor:
#      x y z
#    x 1.699080 0.018890 0.032820 
#    y 0.018890 1.807460 -0.012960 
#    z 0.032820 -0.012960 1.783960 
# 
# From -- ./inp_files/190400.got.cif
#   From: 2010.05.17/outbox.cif.g08.bks.cpg/sg2_96_cif.got.tgz:190400.got - 2010.06.03 11:33:40.
