data_PCOD9076106
_publ_section_title
;
Structure prediction by ZEFSAII (Michael W. Deem and Ramdas Pophale) SiO2 
 PCOD9076106
Probable space group: P -1
;
_chemical_formula_sum "Si O2"
_cell_formula_units_Z 14
_cell_length_a 23.777864
_cell_length_b 9.235372
_cell_length_c 14.235195
_cell_angle_alpha 42.885103
_cell_angle_beta 159.705652
_cell_angle_gamma 134.045121
_cell_volume 737.432586
_symmetry_space_group_name_H-M "P -1"
_symmetry_group_IT_number 2
_symmetry_cell_setting 'triclinic'
loop_
_space_group_symop_operation_xyz
x,y,z
-x,-y,-z
loop_
_atom_site_type_symbol
_atom_site_label
_atom_site_fract_x
_atom_site_fract_y
_atom_site_fract_z
Si Si1 0.020582 0.594470 0.140140
Si Si2 0.630526 0.230330 0.329306
Si Si3 0.462816 0.683686 0.651211
Si Si4 0.762771 0.914166 0.922734
Si Si5 0.577812 0.797223 0.168303
Si Si6 0.841674 0.859170 0.857020
Si Si7 0.048482 0.168237 0.278031
O O1 0.197064 0.643595 0.440978
O O2 0.015403 0.359050 0.205337
O O3 0.877352 0.640882 0.965885
O O4 0.997035 0.745643 0.939388
O O5 0.531271 0.277843 0.245280
O O6 0.686017 0.986913 0.522230
O O7 0.527836 0.263509 0.060327
O O8 0.635678 0.747006 0.847239
O O9 0.411441 0.441987 0.656754
O O10 0.332359 0.861088 0.333900
O O11 0.817712 0.846921 0.936468
O O12 0.931191 0.967978 0.212443
O O13 0.762441 0.870993 0.403522
O O14 0.500000 0.000000 0.000000
O O15 0.000000 0.000000 0.000000
#
# Coordination Sequence:
#
# PCOD9076106 Si02
#       7
#     2   2   2   2   2   2   2
#     4  10  18  32  61  85 113 142 205 242 274 331
#     4  10  19  37  57  84 114 160 189 232 291 356
#     4  10  20  40  60  86 118 158 190 234 300 349
#     4  10  20  36  64  89 116 148 195 248 289 337
#     4  12  25  36  60  87 122 152 198 240 285 347
#     4   9  16  32  58  87 108 149 199 238 280 338
#     4  11  19  35  56  92 108 148 201 242 278 330
#
# _framework density 18.984786
#
# number of rings (size 3 to 8) (size 9 to 14) (size 15 to 20)
#    0.000    1.714    5.714    2.143    2.000    0.000 
#    0.000    2.857    0.000    6.000    0.000    0.000 
#    0.000    0.000    0.000    0.000    0.000    0.000 
#
# Total GULP energy -77949.011336 kJ/mol
# GULP energy per Si atom -5567.786524 kJ/mol
# Density = 1.894158 g / cm^3
# Si number density = 18.984786 Si / 1000 Ang^3
#
#
#
# Elastic Constant Matrix: (Units=GPa)
#
#
# Indices 1 2 3 4 5 6 
#
# 1 79.2960 39.9718 41.9073 0.9635 39.8230 -12.7336
# 2 39.9718 67.8349 38.9617 -0.1026 26.1413 -14.5075
# 3 41.9073 38.9617 81.4871 12.1492 12.7536 -21.2334
# 4 0.9635 -0.1026 12.1492 28.3222 -9.3593 5.4010
# 5 39.8230 26.1413 12.7536 -9.3593 37.4022 -7.6486
# 6 -12.7336 -14.5075 -21.2334 5.4010 -7.6486 13.2784
#
#
#
# Elastic Compliance Matrix: (Units=1/GPa)
#
#
# Indices 1 2 3 4 5 6 
#
# 1 0.039749 -0.001333 -0.013860 -0.007498 -0.039619 -0.005273
# 2 -0.001333 0.027070 -0.006559 -0.003799 -0.013894 0.011352
# 3 -0.013860 -0.006559 0.039950 -0.024209 0.011965 0.060166
# 4 -0.007498 -0.003799 -0.024209 0.065456 0.022209 -0.063886
# 5 -0.039619 -0.013894 0.011965 0.022209 0.080819 0.003479
# 6 -0.005273 0.011352 0.060166 -0.063886 0.003479 0.206858
#
#
# Mechanical properties :
#
#
# Convention : Reuss Voigt Hill
#
# Bulk Modulus (GPa) = 15.80618 52.25550 34.03084
# Shear Modulus (GPa) = 9.53298 22.98570 16.25934
#
# Velocity S-wave (km/s) = 2.24327 3.48335 2.92968
# Velocity P-wave (km/s) = 3.87988 6.61536 5.42294
#
# Compressibility (1/GPa) = 0.06326638
#
# Stress axis : x y z
#
# Youngs Moduli (GPa) = 25.15800 36.94065 25.03103
#
# Poissons Ratio (x) = 0.04923 0.34693
# Poissons Ratio (y) = 0.03353 0.16417
# Poissons Ratio (z) = 0.34869 0.24229
#
# Static dielectric constant tensor:
#      x y z
#    x 1.683360 -0.000200 -0.016320 
#    y -0.000200 1.719490 -0.026040 
#    z -0.016320 -0.026040 1.695420 
# 
# From -- ./inp_files/221587.got.cif
#   From: 2010.05.17/outbox.cif.g08.bks.cpg/sg2_111_cif.got.tgz:221587.got - 2010.06.03 11:33:40.
