data_PCOD9076629
_publ_section_title
;
Structure prediction by ZEFSAII (Michael W. Deem and Ramdas Pophale) SiO2 
 PCOD9076629
Probable space group: P -1
;
_chemical_formula_sum "Si O2"
_cell_formula_units_Z 16
_cell_length_a 16.271082
_cell_length_b 12.157320
_cell_length_c 21.772362
_cell_angle_alpha 27.612753
_cell_angle_beta 28.086411
_cell_angle_gamma 25.785502
_cell_volume 788.672258
_symmetry_space_group_name_H-M "P -1"
_symmetry_group_IT_number 2
_symmetry_cell_setting 'triclinic'
loop_
_space_group_symop_operation_xyz
x,y,z
-x,-y,-z
loop_
_atom_site_type_symbol
_atom_site_label
_atom_site_fract_x
_atom_site_fract_y
_atom_site_fract_z
Si Si1 0.431081 0.828812 0.586410
Si Si2 0.758075 0.048277 0.599040
Si Si3 0.134444 0.173707 0.792701
Si Si4 0.361526 0.639928 0.083849
Si Si5 0.097427 0.829434 0.882942
Si Si6 0.254711 0.412917 0.082465
Si Si7 0.209211 0.646904 0.472245
Si Si8 0.572266 0.929277 0.664565
O O1 0.226412 0.835738 0.737632
O O2 0.620193 0.496951 0.621891
O O3 0.500000 0.000000 0.500000
O O4 0.404987 0.953874 0.473088
O O5 0.687952 0.330060 0.544094
O O6 0.757322 0.841012 0.754601
O O7 0.631771 0.037856 0.630637
O O8 0.986161 0.939774 0.473852
O O9 0.137260 0.429549 0.633850
O O10 0.913001 0.317602 0.899167
O O11 0.172294 0.957442 0.822634
O O12 0.329940 0.034416 0.777700
O O13 0.303219 0.411098 0.251938
O O14 0.500000 0.500000 0.000000
O O15 0.518719 0.646905 0.024648
O O16 0.149964 0.948111 0.067461
O O17 0.173569 0.521194 0.013231
#
# Coordination Sequence:
#
# PCOD9076629 Si02
#       8
#     2   2   2   2   2   2   2   2
#     4  11  22  39  57  85 126 164 187 238 307 366
#     4  10  21  38  63  91 113 155 207 253 290 342
#     4  10  18  33  58  83 119 150 189 252 298 336
#     4  12  20  33  57  88 119 152 199 252 294 343
#     4  12  22  36  56  87 125 158 193 239 305 357
#     4  11  21  36  57  88 118 155 199 252 296 344
#     4   9  20  40  61  84 120 157 199 245 301 350
#     4  11  21  34  58  93 119 153 200 247 297 358
#
# _framework density 20.287261000000001
#
# number of rings (size 3 to 8) (size 9 to 14) (size 15 to 20)
#    0.000    1.250    6.250    1.875    0.000    2.500 
#    2.250    0.625    0.000    0.750    0.000    0.000 
#    0.000    0.000    0.000    0.000    0.000    0.000 
#
# Total GULP energy -89119.670885 kJ/mol
# GULP energy per Si atom -5569.979430 kJ/mol
# Density = 2.024109 g / cm^3
# Si number density = 20.287261 Si / 1000 Ang^3
#
#
#
# Elastic Constant Matrix: (Units=GPa)
#
#
# Indices 1 2 3 4 5 6 
#
# 1 82.1027 32.9246 25.9428 9.2079 -11.9845 -16.7813
# 2 32.9246 83.1288 24.0552 25.3570 2.5844 -10.8688
# 3 25.9428 24.0552 81.8649 12.5344 20.0380 -7.4751
# 4 9.2079 25.3570 12.5344 28.2900 -2.8677 -4.7690
# 5 -11.9845 2.5844 20.0380 -2.8677 33.9017 0.4135
# 6 -16.7813 -10.8688 -7.4751 -4.7690 0.4135 34.5841
#
#
#
# Elastic Compliance Matrix: (Units=1/GPa)
#
#
# Indices 1 2 3 4 5 6 
#
# 1 0.019821 -0.006851 -0.007525 0.005359 0.012352 0.006430
# 2 -0.006851 0.019864 0.000197 -0.016075 -0.005422 0.000809
# 3 -0.007525 0.000197 0.019325 -0.007839 -0.014757 -0.000317
# 4 0.005359 -0.016075 -0.007839 0.053238 0.012219 0.003050
# 5 0.012352 -0.005422 -0.014757 0.012219 0.044005 0.002259
# 6 0.006430 0.000809 -0.000317 0.003050 0.002259 0.032614
#
#
# Mechanical properties :
#
#
# Convention : Reuss Voigt Hill
#
# Bulk Modulus (GPa) = 32.62515 45.88240 39.25377
# Shear Modulus (GPa) = 21.98347 30.30006 26.14177
#
# Velocity S-wave (km/s) = 3.29539 3.86884 3.59357
# Velocity P-wave (km/s) = 5.53137 6.52861 6.05057
#
# Compressibility (1/GPa) = 0.03065120
#
# Stress axis : x y z
#
# Youngs Moduli (GPa) = 50.45121 50.34276 51.74537
#
# Poissons Ratio (x) = 0.34490 0.38938
# Poissons Ratio (y) = 0.34565 -0.01017
# Poissons Ratio (z) = 0.37964 -0.00989
#
# Static dielectric constant tensor:
#      x y z
#    x 1.743700 -0.044720 0.029240 
#    y -0.044720 1.811380 -0.018480 
#    z 0.029240 -0.018480 1.804790 
# 
# From -- ./inp_files/597775.got.cif
#   From: 2010.05.17/outbox.cif.g08.bks.cpg/sg2_299_cif.got.tgz:597775.got - 2010.06.03 11:33:40.
