data_PCOD9076494
_publ_section_title
;
Structure prediction by ZEFSAII (Michael W. Deem and Ramdas Pophale) SiO2 
 PCOD9076494
Probable space group: P -1
;
_chemical_formula_sum "Si O2"
_cell_formula_units_Z 16
_cell_length_a 12.601086
_cell_length_b 14.913300
_cell_length_c 5.423043
_cell_angle_alpha 99.255921
_cell_angle_beta 89.295821
_cell_angle_gamma 47.864323
_cell_volume 735.768578
_symmetry_space_group_name_H-M "P -1"
_symmetry_group_IT_number 2
_symmetry_cell_setting 'triclinic'
loop_
_space_group_symop_operation_xyz
x,y,z
-x,-y,-z
loop_
_atom_site_type_symbol
_atom_site_label
_atom_site_fract_x
_atom_site_fract_y
_atom_site_fract_z
Si Si1 0.142238 0.367434 0.751825
Si Si2 0.363749 0.149769 0.354165
Si Si3 0.888210 0.831443 0.847892
Si Si4 0.921221 0.015562 0.758276
Si Si5 0.663209 0.021200 0.260254
Si Si6 0.313404 0.358227 0.129287
Si Si7 0.897548 0.428930 0.486055
Si Si8 0.613947 0.165651 0.824460
O O1 0.292173 0.225336 0.642619
O O2 0.170170 0.396742 0.024986
O O3 0.120389 0.468140 0.624313
O O4 0.019948 0.369987 0.667179
O O5 0.249141 0.145773 0.245498
O O6 0.531689 0.025406 0.279125
O O7 0.359269 0.248030 0.251872
O O8 0.913603 0.910363 0.737031
O O9 0.032789 0.687168 0.745403
O O10 0.826150 0.890070 0.149939
O O11 0.754653 0.148417 0.812588
O O12 0.000000 0.000000 0.500000
O O13 0.000000 0.000000 0.000000
O O14 0.635078 0.095523 0.541413
O O15 0.640965 0.093057 0.043786
O O16 0.449383 0.297443 0.918115
O O17 0.256780 0.480287 0.328823
#
# Coordination Sequence:
#
# PCOD9076494 Si02
#       8
#     2   2   2   2   2   2   2   2
#     4   9  16  32  50  80 124 169 197 224 268 348
#     4   9  18  33  53  86 129 160 193 234 283 355
#     4  10  21  38  57  86 118 160 201 242 305 360
#     4  11  24  47  66  85 112 149 204 269 313 352
#     4  10  19  37  55  91 128 154 191 237 288 365
#     4  10  18  33  56  87 126 162 196 229 279 358
#     4   9  19  32  51  83 125 161 199 229 282 347
#     4  10  21  38  66  88 113 159 202 238 304 358
#
# _framework density 21.745967
#
# number of rings (size 3 to 8) (size 9 to 14) (size 15 to 20)
#    0.000    2.250    1.250    3.000    0.000    0.000 
#   20.250    3.750    0.000    1.500    0.000    0.000 
#    0.000    0.000    0.000    0.000    0.000    0.000 
#
# Total GULP energy -89077.158899 kJ/mol
# GULP energy per Si atom -5567.322431 kJ/mol
# Density = 2.169647 g / cm^3
# Si number density = 21.745967 Si / 1000 Ang^3
#
#
#
# Elastic Constant Matrix: (Units=GPa)
#
#
# Indices 1 2 3 4 5 6 
#
# 1 94.9872 26.1570 47.1787 13.3072 -23.1746 -8.7124
# 2 26.1570 94.0893 45.5223 22.3367 -22.5754 -12.1064
# 3 47.1787 45.5223 152.9296 21.9285 -26.3636 -16.3799
# 4 13.3072 22.3367 21.9285 40.3711 -10.5071 -9.1001
# 5 -23.1746 -22.5754 -26.3636 -10.5071 38.9995 -1.9631
# 6 -8.7124 -12.1064 -16.3799 -9.1001 -1.9631 21.5730
#
#
#
# Elastic Compliance Matrix: (Units=1/GPa)
#
#
# Indices 1 2 3 4 5 6 
#
# 1 0.013890 -0.000524 -0.002586 -0.000402 0.006283 0.003754
# 2 -0.000524 0.014908 -0.002053 -0.004162 0.006080 0.005393
# 3 -0.002586 -0.002053 0.009190 -0.001062 0.003435 0.004646
# 4 -0.000402 -0.004162 -0.001062 0.031644 0.005691 0.010562
# 5 0.006283 0.006080 0.003435 0.005691 0.037473 0.014368
# 6 0.003754 0.005393 0.004646 0.010562 0.014368 0.060187
#
#
# Mechanical properties :
#
#
# Convention : Reuss Voigt Hill
#
# Bulk Modulus (GPa) = 36.15218 64.41358 50.28288
# Shear Modulus (GPa) = 26.76081 35.06524 30.91303
#
# Velocity S-wave (km/s) = 3.51181 4.01994 3.77444
# Velocity P-wave (km/s) = 5.75366 7.15764 6.49371
#
# Compressibility (1/GPa) = 0.02766085
#
# Stress axis : x y z
#
# Youngs Moduli (GPa) = 71.99350 67.07653 108.81397
#
# Poissons Ratio (x) = 0.03517 0.28142
# Poissons Ratio (y) = 0.03774 0.22343
# Poissons Ratio (z) = 0.18619 0.13773
#
# Static dielectric constant tensor:
#      x y z
#    x 1.847070 -0.084180 -0.024710 
#    y -0.084180 1.927910 0.031430 
#    z -0.024710 0.031430 1.941710 
# 
# From -- ./inp_files/76450.got.cif
#   From: 2010.05.17/outbox.cif.g08.bks.cpg/sg2_39_cif.got.tgz:76450.got - 2010.06.03 11:33:40.
