data_PCOD9076189
_publ_section_title
;
Structure prediction by ZEFSAII (Michael W. Deem and Ramdas Pophale) SiO2 
 PCOD9076189
Probable space group: P -1
;
_chemical_formula_sum "Si O2"
_cell_formula_units_Z 16
_cell_length_a 10.105964
_cell_length_b 20.370468
_cell_length_c 14.002045
_cell_angle_alpha 36.180100
_cell_angle_beta 28.198345
_cell_angle_gamma 34.171672
_cell_volume 731.247854
_symmetry_space_group_name_H-M "P -1"
_symmetry_group_IT_number 2
_symmetry_cell_setting 'triclinic'
loop_
_space_group_symop_operation_xyz
x,y,z
-x,-y,-z
loop_
_atom_site_type_symbol
_atom_site_label
_atom_site_fract_x
_atom_site_fract_y
_atom_site_fract_z
Si Si1 0.842869 0.980267 0.328980
Si Si2 0.695951 0.048358 0.532340
Si Si3 0.846734 0.239085 0.981460
Si Si4 0.133710 0.315981 0.878021
Si Si5 0.961684 0.795976 0.316005
Si Si6 0.317444 0.072200 0.126024
Si Si7 0.458185 0.490011 0.169513
Si Si8 0.861190 0.472816 0.471755
O O1 0.877058 0.943114 0.462180
O O2 0.028623 0.885845 0.239844
O O3 0.500000 0.000000 0.500000
O O4 0.852046 0.111806 0.162656
O O5 0.578078 0.001836 0.754774
O O6 0.397811 0.146796 0.554036
O O7 0.954551 0.097688 0.330555
O O8 0.102306 0.258972 0.861368
O O9 0.571106 0.375564 0.002400
O O10 0.886345 0.220821 0.864503
O O11 0.250175 0.419860 0.660606
O O12 0.787773 0.386712 0.055511
O O13 0.323061 0.203843 0.957540
O O14 0.061265 0.662839 0.453818
O O15 0.500000 0.000000 0.000000
O O16 0.177354 0.470858 0.319219
O O17 0.378016 0.495652 0.325600
#
# Coordination Sequence:
#
# PCOD9076189 Si02
#       8
#     2   2   2   2   2   2   2   2
#     4  10  21  33  54  83 115 150 178 228 271 330
#     4  10  22  37  54  82 112 144 188 227 274 322
#     4  10  18  33  51  86 115 146 182 218 282 336
#     4  11  20  32  56  77 114 142 180 228 274 325
#     4  10  20  35  58  82 121 143 181 222 278 336
#     4  11  23  38  57  79 109 151 186 235 271 318
#     4   9  19  29  51  78 114 142 173 225 277 328
#     4   9  18  31  50  84 108 145 173 219 278 331
#
# _framework density 21.880406000000001
#
# number of rings (size 3 to 8) (size 9 to 14) (size 15 to 20)
#    0.000    2.000    1.250    4.125    5.250    2.000 
#    0.000    0.000    0.000    0.750    0.000    2.625 
#    0.000    0.000    0.000    0.000    0.000    0.000 
#
# Total GULP energy -89172.937223 kJ/mol
# GULP energy per Si atom -5573.308576 kJ/mol
# Density = 2.183061 g / cm^3
# Si number density = 21.880406 Si / 1000 Ang^3
#
#
#
# Elastic Constant Matrix: (Units=GPa)
#
#
# Indices 1 2 3 4 5 6 
#
# 1 37.4044 25.8276 26.3035 -5.2577 14.6484 7.6941
# 2 25.8276 112.4641 52.2601 -16.5799 26.0458 13.0362
# 3 26.3035 52.2601 112.6256 -19.4388 36.0762 1.4834
# 4 -5.2577 -16.5799 -19.4388 45.0221 2.3682 3.7115
# 5 14.6484 26.0458 36.0762 2.3682 27.9123 6.8928
# 6 7.6941 13.0362 1.4834 3.7115 6.8928 24.6093
#
#
#
# Elastic Compliance Matrix: (Units=1/GPa)
#
#
# Indices 1 2 3 4 5 6 
#
# 1 0.037395 -0.003354 -0.003003 0.003003 -0.011122 -0.007072
# 2 -0.003354 0.013606 -0.002534 0.004275 -0.006855 -0.004731
# 3 -0.003003 -0.002534 0.019632 0.007900 -0.023721 0.006550
# 4 0.003003 0.004275 0.007900 0.028723 -0.017441 -0.003127
# 5 -0.011122 -0.006855 -0.023721 -0.017441 0.083195 -0.012133
# 6 -0.007072 -0.004731 0.006550 -0.003127 -0.012133 0.048827
#
#
# Mechanical properties :
#
#
# Convention : Reuss Voigt Hill
#
# Bulk Modulus (GPa) = 18.92134 52.36407 35.64271
# Shear Modulus (GPa) = 18.74233 30.04893 24.39563
#
# Velocity S-wave (km/s) = 2.92992 3.70986 3.34271
# Velocity P-wave (km/s) = 4.48467 6.50651 5.58780
#
# Compressibility (1/GPa) = 0.05285037
#
# Stress axis : x y z
#
# Youngs Moduli (GPa) = 26.74144 73.49871 50.93833
#
# Poissons Ratio (x) = 0.24653 0.15297
# Poissons Ratio (y) = 0.08969 0.12907
# Poissons Ratio (z) = 0.08031 0.18623
#
# Static dielectric constant tensor:
#      x y z
#    x 1.839460 0.002310 0.007090 
#    y 0.002310 1.861460 0.029420 
#    z 0.007090 0.029420 1.907330 
# 
# From -- ./inp_files/422767.got.cif
#   From: 2010.05.17/outbox.cif.g08.bks.cpg/sg2_212_cif.got.tgz:422767.got - 2010.06.03 11:33:40.
