data_PCOD9076874
_publ_section_title
;
Structure prediction by ZEFSAII (Michael W. Deem and Ramdas Pophale) SiO2 
 PCOD9076874
Probable space group: P -1
;
_chemical_formula_sum "Si O2"
_cell_formula_units_Z 10
_cell_length_a 5.038234
_cell_length_b 17.409508
_cell_length_c 8.874122
_cell_angle_alpha 45.102540
_cell_angle_beta 79.917016
_cell_angle_gamma 53.942715
_cell_volume 404.581322
_symmetry_space_group_name_H-M "P -1"
_symmetry_group_IT_number 2
_symmetry_cell_setting 'triclinic'
loop_
_space_group_symop_operation_xyz
x,y,z
-x,-y,-z
loop_
_atom_site_type_symbol
_atom_site_label
_atom_site_fract_x
_atom_site_fract_y
_atom_site_fract_z
Si Si1 0.352042 0.924623 0.666525
Si Si2 0.739486 0.308733 0.444611
Si Si3 0.788213 0.401657 0.741499
Si Si4 0.727196 0.672518 0.766728
Si Si5 0.377859 0.774020 0.120339
O O1 0.643125 0.757610 0.810873
O O2 0.500000 0.000000 0.500000
O O3 0.285868 0.914677 0.861631
O O4 0.000000 0.000000 0.500000
O O5 0.407092 0.482655 0.264819
O O6 0.632323 0.274582 0.351755
O O7 0.759513 0.225287 0.703022
O O8 0.089329 0.288489 0.415497
O O9 0.500000 0.500000 0.500000
O O10 0.815993 0.657863 0.248187
O O11 0.785383 0.271844 0.917062
O O12 0.000000 0.500000 0.000000
#
# Coordination Sequence:
#
# PCOD9076874 Si02
#       5
#     2   2   2   2   2
#     4  12  27  48  67  93 135 184 221 263 334 407
#     4  11  21  38  64  98 129 166 218 275 324 380
#     4  10  18  33  61  99 133 163 208 270 330 385
#     4  12  25  43  68 101 134 167 214 280 334 379
#     4  11  22  40  64  93 131 180 222 264 322 401
#
# _framework density 24.716911
#
# number of rings (size 3 to 8) (size 9 to 14) (size 15 to 20)
#    0.000    0.800    0.000   11.400    0.000    0.000 
#    0.000    6.000    0.000    0.000    0.000    0.000 
#    0.000    0.000    0.000    0.000    0.000    0.000 
#
# Total GULP energy -55978.442495 kJ/mol
# GULP energy per Si atom -5597.844249 kJ/mol
# Density = 2.466065 g / cm^3
# Si number density = 24.716911 Si / 1000 Ang^3
#
#
#
# Elastic Constant Matrix: (Units=GPa)
#
#
# Indices 1 2 3 4 5 6 
#
# 1 134.3688 3.6391 32.5426 4.9591 -24.9365 0.5067
# 2 3.6391 74.1451 9.5937 -0.4694 -11.7522 12.9186
# 3 32.5426 9.5937 151.7870 19.7556 -21.6465 -0.5982
# 4 4.9591 -0.4694 19.7556 31.3061 -7.7098 -4.2893
# 5 -24.9365 -11.7522 -21.6465 -7.7098 45.0665 0.9115
# 6 0.5067 12.9186 -0.5982 -4.2893 0.9115 39.5473
#
#
#
# Elastic Compliance Matrix: (Units=1/GPa)
#
#
# Indices 1 2 3 4 5 6 
#
# 1 0.008529 0.000496 -0.001312 0.000500 0.004311 -0.000336
# 2 0.000496 0.015066 -0.000598 0.000874 0.004166 -0.004938
# 3 -0.001312 -0.000598 0.007756 -0.004195 0.002130 -0.000175
# 4 0.000500 0.000874 -0.004195 0.036131 0.004600 0.003457
# 5 0.004311 0.004166 0.002130 0.004600 0.027502 -0.001519
# 6 -0.000336 -0.004938 -0.000175 0.003457 -0.001519 0.027311
#
#
# Mechanical properties :
#
#
# Convention : Reuss Voigt Hill
#
# Bulk Modulus (GPa) = 35.05631 50.20575 42.63103
# Shear Modulus (GPa) = 37.13878 44.15234 40.64556
#
# Velocity S-wave (km/s) = 3.88050 4.23107 4.05957
# Velocity P-wave (km/s) = 5.85590 6.65024 6.26567
#
# Compressibility (1/GPa) = 0.02852554
#
# Stress axis : x y z
#
# Youngs Moduli (GPa) = 117.24261 66.37348 128.92901
#
# Poissons Ratio (x) = -0.03293 0.16910
# Poissons Ratio (y) = -0.05817 0.07707
# Poissons Ratio (z) = 0.15377 0.03968
#
# Static dielectric constant tensor:
#      x y z
#    x 1.911170 0.036130 -0.037560 
#    y 0.036130 2.059710 -0.042340 
#    z -0.037560 -0.042340 2.031860 
# 
# From -- ./inp_files/135975.got.cif
#   From: 2010.05.17/outbox.cif.g08.bks.cpg/sg2_68_cif.got.tgz:135975.got - 2010.06.03 11:33:40.
