data_PCOD9076710
_publ_section_title
;
Structure prediction by ZEFSAII (Michael W. Deem and Ramdas Pophale) SiO2 
 PCOD9076710
Probable space group: P -1
;
_chemical_formula_sum "Si O2"
_cell_formula_units_Z 16
_cell_length_a 7.630176
_cell_length_b 8.937605
_cell_length_c 11.266485
_cell_angle_alpha 66.245908
_cell_angle_beta 86.964679
_cell_angle_gamma 108.854589
_cell_volume 650.455372
_symmetry_space_group_name_H-M "P -1"
_symmetry_group_IT_number 2
_symmetry_cell_setting 'triclinic'
loop_
_space_group_symop_operation_xyz
x,y,z
-x,-y,-z
loop_
_atom_site_type_symbol
_atom_site_label
_atom_site_fract_x
_atom_site_fract_y
_atom_site_fract_z
Si Si1 0.879491 0.197462 0.930559
Si Si2 0.410283 0.113201 0.654745
Si Si3 0.979211 0.515284 0.685909
Si Si4 0.515448 0.574922 0.805820
Si Si5 0.232860 0.713867 0.838416
Si Si6 0.170528 0.189164 0.427740
Si Si7 0.352655 0.568831 0.550102
Si Si8 0.699413 0.807309 0.105609
O O1 0.839396 0.327982 0.798726
O O2 0.097341 0.213952 0.902152
O O3 0.861076 0.257227 0.046484
O O4 0.739064 0.995302 0.982636
O O5 0.298433 0.156649 0.536418
O O6 0.620027 0.245709 0.573084
O O7 0.344135 0.165991 0.764524
O O8 0.364045 0.907360 0.724395
O O9 0.085518 0.615735 0.771315
O O10 0.129760 0.478505 0.608184
O O11 0.890205 0.646680 0.592868
O O12 0.374693 0.614211 0.888366
O O13 0.719163 0.733335 0.726779
O O14 0.424852 0.584258 0.677429
O O15 0.467373 0.366081 0.881963
O O16 0.000000 0.000000 0.500000
O O17 0.500000 0.500000 0.500000
#
# Coordination Sequence:
#
# PCOD9076710 Si02
#       8
#     2   2   2   2   2   2   2   2
#     4  10  20  36  63  89 115 148 210 254 292 333
#     4  10  20  36  61  89 117 156 197 247 304 349
#     4  11  21  36  56  89 121 156 196 240 299 357
#     4  10  21  36  60  89 119 153 203 243 304 342
#     4  10  20  35  64  88 112 156 209 255 281 342
#     4  11  24  38  56  88 134 159 187 240 308 372
#     4  10  18  33  59  81 117 150 198 243 289 346
#     4  10  19  37  64  92 112 150 203 261 288 344
#
# _framework density 24.598151999999999
#
# number of rings (size 3 to 8) (size 9 to 14) (size 15 to 20)
#    0.000    1.750    5.000    0.375    1.750    1.500 
#    0.000    6.875    0.000    0.000    0.000    0.000 
#    0.000    0.000    0.000    0.000    0.000    0.000 
#
# Total GULP energy -89317.677465 kJ/mol
# GULP energy per Si atom -5582.354842 kJ/mol
# Density = 2.454217 g / cm^3
# Si number density = 24.598152 Si / 1000 Ang^3
#
#
#
# Elastic Constant Matrix: (Units=GPa)
#
#
# Indices 1 2 3 4 5 6 
#
# 1 44.9634 11.9131 14.5498 3.7702 -8.1742 -10.9649
# 2 11.9131 104.5623 50.0168 -26.5826 -0.3894 -8.4385
# 3 14.5498 50.0168 114.6993 -35.9326 -21.1546 9.6674
# 4 3.7702 -26.5826 -35.9326 56.1108 6.5548 -3.7055
# 5 -8.1742 -0.3894 -21.1546 6.5548 24.7272 7.3150
# 6 -10.9649 -8.4385 9.6674 -3.7055 7.3150 28.6550
#
#
#
# Elastic Compliance Matrix: (Units=1/GPa)
#
#
# Indices 1 2 3 4 5 6 
#
# 1 0.027735 -0.001352 -0.004842 -0.005318 0.003367 0.010301
# 2 -0.001352 0.015519 -0.008266 0.004164 -0.011424 0.010296
# 3 -0.004842 -0.008266 0.019150 0.005682 0.017424 -0.014461
# 4 -0.005318 0.004164 0.005682 0.024310 -0.003677 0.001357
# 5 0.003367 -0.011424 0.017424 -0.003677 0.064630 -0.024928
# 6 0.010301 0.010296 -0.014461 0.001357 -0.024928 0.053289
#
#
# Mechanical properties :
#
#
# Convention : Reuss Voigt Hill
#
# Bulk Modulus (GPa) = 29.86501 46.35382 38.10941
# Shear Modulus (GPa) = 20.43200 34.41494 27.42347
#
# Velocity S-wave (km/s) = 2.88519 3.74449 3.34257
# Velocity P-wave (km/s) = 4.82355 6.13028 5.51575
#
# Compressibility (1/GPa) = 0.03348400
#
# Stress axis : x y z
#
# Youngs Moduli (GPa) = 36.05491 64.43839 52.22018
#
# Poissons Ratio (x) = 0.08712 0.25284
# Poissons Ratio (y) = 0.04875 0.43166
# Poissons Ratio (z) = 0.17457 0.53265
#
# Static dielectric constant tensor:
#      x y z
#    x 2.030770 0.051450 -0.048670 
#    y 0.051450 2.042050 -0.074030 
#    z -0.048670 -0.074030 1.984550 
# 
# From -- ./inp_files/492271.got.cif
#   From: 2010.05.17/outbox.cif.g08.bks.cpg/sg2_247_cif.got.tgz:492271.got - 2010.06.03 11:33:40.
