data_PCOD9076735
_publ_section_title
;
Structure prediction by ZEFSAII (Michael W. Deem and Ramdas Pophale) SiO2 
 PCOD9076735
Probable space group: P -1
;
_chemical_formula_sum "Si O2"
_cell_formula_units_Z 16
_cell_length_a 15.190576
_cell_length_b 17.060939
_cell_length_c 8.990475
_cell_angle_alpha 120.133187
_cell_angle_beta 104.788796
_cell_angle_gamma 24.320976
_cell_volume 683.241344
_symmetry_space_group_name_H-M "P -1"
_symmetry_group_IT_number 2
_symmetry_cell_setting 'triclinic'
loop_
_space_group_symop_operation_xyz
x,y,z
-x,-y,-z
loop_
_atom_site_type_symbol
_atom_site_label
_atom_site_fract_x
_atom_site_fract_y
_atom_site_fract_z
Si Si1 0.216018 0.742392 0.507324
Si Si2 0.875971 0.973174 0.153668
Si Si3 0.907973 0.467945 0.492988
Si Si4 0.429798 0.478638 0.053833
Si Si5 0.694190 0.980103 0.261568
Si Si6 0.302271 0.869116 0.386853
Si Si7 0.823677 0.343161 0.303936
Si Si8 0.188731 0.277780 0.140746
O O1 0.417833 0.522256 0.259221
O O2 0.225568 0.673624 0.593752
O O3 0.226971 0.834782 0.653799
O O4 0.929532 0.985822 0.551436
O O5 0.144900 0.709820 0.108464
O O6 0.702915 0.048884 0.199182
O O7 0.967134 0.890303 0.944534
O O8 0.918733 0.351598 0.411521
O O9 0.942895 0.500999 0.681882
O O10 0.094236 0.318225 0.292003
O O11 0.605832 0.767592 0.600989
O O12 0.500000 0.500000 0.000000
O O13 0.616277 0.224403 0.837080
O O14 0.779890 0.956105 0.421636
O O15 0.861618 0.741096 0.039812
O O16 0.561124 0.604495 0.342020
O O17 0.500000 0.000000 0.000000
#
# Coordination Sequence:
#
# PCOD9076735 Si02
#       8
#     2   2   2   2   2   2   2   2
#     4  12  23  41  61  86 127 173 205 254 310 348
#     4  11  20  37  58  83 126 164 205 254 298 358
#     4   9  18  35  54  89 126 146 199 258 300 370
#     4  11  21  38  60  81 116 167 215 251 295 355
#     4  10  18  33  59  86 116 159 199 247 305 358
#     4  10  22  40  58  85 122 163 206 254 299 357
#     4  10  23  39  62  93 123 160 213 255 302 372
#     4   9  17  32  60  89 116 158 196 245 316 367
#
# _framework density 23.417787000000001
#
# number of rings (size 3 to 8) (size 9 to 14) (size 15 to 20)
#    0.000    1.750    3.750    1.500    0.000    0.000 
#    4.500    5.000    0.000    0.750    0.000   22.750 
#    0.000    0.000    0.000    0.000    0.000    0.000 
#
# Total GULP energy -89353.007133 kJ/mol
# GULP energy per Si atom -5584.562946 kJ/mol
# Density = 2.336449 g / cm^3
# Si number density = 23.417787 Si / 1000 Ang^3
#
#
#
# Elastic Constant Matrix: (Units=GPa)
#
#
# Indices 1 2 3 4 5 6 
#
# 1 96.9998 26.2302 61.3400 2.1990 17.8949 -20.3841
# 2 26.2302 57.3316 41.2575 -10.9886 -5.0416 -4.6427
# 3 61.3400 41.2575 258.1568 -12.4039 29.2886 -8.5341
# 4 2.1990 -10.9886 -12.4039 29.7451 -11.7534 -5.5096
# 5 17.8949 -5.0416 29.2886 -11.7534 63.7900 1.6371
# 6 -20.3841 -4.6427 -8.5341 -5.5096 1.6371 19.1316
#
#
#
# Elastic Compliance Matrix: (Units=1/GPa)
#
#
# Indices 1 2 3 4 5 6 
#
# 1 0.017993 -0.006598 -0.002243 -0.004003 -0.005685 0.015903
# 2 -0.006598 0.025353 -0.002722 0.011703 0.007244 0.000659
# 3 -0.002243 -0.002722 0.005052 0.000458 -0.001808 -0.000510
# 4 -0.004003 0.011703 0.000458 0.044249 0.009716 0.010690
# 5 -0.005685 0.007244 -0.001808 0.009716 0.020569 -0.004068
# 6 0.015903 0.000659 -0.000510 0.010690 -0.004068 0.072574
#
#
# Mechanical properties :
#
#
# Convention : Reuss Voigt Hill
#
# Bulk Modulus (GPa) = 39.56676 74.46041 57.01358
# Shear Modulus (GPa) = 23.00562 41.44402 32.22482
#
# Velocity S-wave (km/s) = 3.13773 4.21142 3.71358
# Velocity P-wave (km/s) = 5.48268 7.45075 6.54116
#
# Compressibility (1/GPa) = 0.02527374
#
# Stress axis : x y z
#
# Youngs Moduli (GPa) = 55.57676 39.44261 197.95195
#
# Poissons Ratio (x) = 0.26024 0.44391
# Poissons Ratio (y) = 0.36669 0.53880
# Poissons Ratio (z) = 0.12463 0.10736
#
# Static dielectric constant tensor:
#      x y z
#    x 1.924020 -0.013720 0.032100 
#    y -0.013720 1.937640 0.011140 
#    z 0.032100 0.011140 1.943240 
# 
# From -- ./inp_files/317825.got.cif
#   From: 2010.05.17/outbox.cif.g08.bks.cpg/sg2_159_cif.got.tgz:317825.got - 2010.06.03 11:33:40.
