data_PCOD9076039
_publ_section_title
;
Structure prediction by ZEFSAII (Michael W. Deem and Ramdas Pophale) SiO2 
 PCOD9076039
Probable space group: P -1
;
_chemical_formula_sum "Si O2"
_cell_formula_units_Z 14
_cell_length_a 21.273114
_cell_length_b 8.720529
_cell_length_c 15.759243
_cell_angle_alpha 142.625012
_cell_angle_beta 28.127066
_cell_angle_gamma 150.580529
_cell_volume 672.544126
_symmetry_space_group_name_H-M "P -1"
_symmetry_group_IT_number 2
_symmetry_cell_setting 'triclinic'
loop_
_space_group_symop_operation_xyz
x,y,z
-x,-y,-z
loop_
_atom_site_type_symbol
_atom_site_label
_atom_site_fract_x
_atom_site_fract_y
_atom_site_fract_z
Si Si1 0.525313 0.041741 0.363521
Si Si2 0.406166 0.903867 0.253506
Si Si3 0.108665 0.379392 0.295318
Si Si4 0.066162 0.298094 0.993324
Si Si5 0.221645 0.239307 0.623339
Si Si6 0.707880 0.359390 0.988727
Si Si7 0.706553 0.947838 0.235302
O O1 0.655641 0.405896 0.398817
O O2 0.357637 0.941942 0.565392
O O3 0.495217 0.983810 0.273831
O O4 0.601875 0.882612 0.246568
O O5 0.259443 0.536302 0.251203
O O6 0.316475 0.078801 0.436492
O O7 0.535600 0.037241 0.079490
O O8 0.000000 0.500000 0.500000
O O9 0.199020 0.539092 0.167772
O O10 0.966108 0.005047 0.296191
O O11 0.189443 0.301681 0.783980
O O12 0.162683 0.586348 0.069366
O O13 0.000000 0.000000 0.000000
O O14 0.902177 0.215636 0.107101
O O15 0.677346 0.625320 0.154340
#
# Coordination Sequence:
#
# PCOD9076039 Si02
#       7
#     2   2   2   2   2   2   2
#     4  11  22  36  59  89 113 151 184 232 284 335
#     4  11  21  36  60  86 112 150 192 229 277 342
#     4  10  23  35  56  87 115 144 189 239 281 326
#     4  10  18  32  59  84 110 142 184 237 283 319
#     4  11  19  35  58  86 113 143 188 237 279 321
#     4  11  19  38  59  85 112 151 185 240 276 329
#     4  10  22  36  57  87 120 143 186 235 285 334
#
# _framework density 20.816479000000001
#
# number of rings (size 3 to 8) (size 9 to 14) (size 15 to 20)
#    0.000    1.429    5.714    2.571    2.000    0.571 
#    0.000    0.714    0.000    5.143    0.000    0.000 
#    0.000    0.000    0.000    0.000    0.000    0.000 
#
# Total GULP energy -77971.471177 kJ/mol
# GULP energy per Si atom -5569.390798 kJ/mol
# Density = 2.076910 g / cm^3
# Si number density = 20.816479 Si / 1000 Ang^3
#
#
#
# Elastic Constant Matrix: (Units=GPa)
#
#
# Indices 1 2 3 4 5 6 
#
# 1 64.0996 27.0294 16.2603 -2.3650 -1.8202 17.8364
# 2 27.0294 73.4106 -1.2924 -16.1278 -0.6393 27.6547
# 3 16.2603 -1.2924 91.1248 -26.0260 9.6523 4.2627
# 4 -2.3650 -16.1278 -26.0260 24.6704 1.2482 -1.0967
# 5 -1.8202 -0.6393 9.6523 1.2482 22.7705 -0.7557
# 6 17.8364 27.6547 4.2627 -1.0967 -0.7557 26.2608
#
#
#
# Elastic Compliance Matrix: (Units=1/GPa)
#
#
# Indices 1 2 3 4 5 6 
#
# 1 0.022783 -0.010146 -0.008666 -0.014057 0.005854 -0.003801
# 2 -0.010146 0.041775 0.017969 0.044137 -0.010952 -0.038490
# 3 -0.008666 0.017969 0.025906 0.038231 -0.013798 -0.016043
# 4 -0.014057 0.044137 0.038231 0.107804 -0.023304 -0.039307
# 5 0.005854 -0.010952 -0.013798 -0.023304 0.051545 0.010307
# 6 -0.003801 -0.038490 -0.016043 -0.039307 0.010307 0.082453
#
#
# Mechanical properties :
#
#
# Convention : Reuss Voigt Hill
#
# Bulk Modulus (GPa) = 11.26405 34.73662 23.00034
# Shear Modulus (GPa) = 13.75342 27.18286 20.46814
#
# Velocity S-wave (km/s) = 2.57319 3.61755 3.13911
# Velocity P-wave (km/s) = 3.77509 5.84570 4.92055
#
# Compressibility (1/GPa) = 0.08877801
#
# Stress axis : x y z
#
# Youngs Moduli (GPa) = 43.89253 23.93775 38.60052
#
# Poissons Ratio (x) = 0.24288 0.33452
# Poissons Ratio (y) = 0.44535 -0.69363
# Poissons Ratio (z) = 0.38038 -0.43015
#
# Static dielectric constant tensor:
#      x y z
#    x 1.791260 0.032220 0.020580 
#    y 0.032220 1.897820 -0.106810 
#    z 0.020580 -0.106810 1.848150 
# 
# From -- ./inp_files/172676.got.cif
#   From: 2010.05.17/outbox.cif.g08.bks.cpg/sg2_87_cif.got.tgz:172676.got - 2010.06.03 11:33:40.
