data_PCOD9076019
_publ_section_title
;
Structure prediction by ZEFSAII (Michael W. Deem and Ramdas Pophale) SiO2 
 PCOD9076019
Probable space group: P -1
;
_chemical_formula_sum "Si O2"
_cell_formula_units_Z 16
_cell_length_a 9.669878
_cell_length_b 21.770464
_cell_length_c 25.093189
_cell_angle_alpha 161.930735
_cell_angle_beta 149.802281
_cell_angle_gamma 39.571226
_cell_volume 779.147195
_symmetry_space_group_name_H-M "P -1"
_symmetry_group_IT_number 2
_symmetry_cell_setting 'triclinic'
loop_
_space_group_symop_operation_xyz
x,y,z
-x,-y,-z
loop_
_atom_site_type_symbol
_atom_site_label
_atom_site_fract_x
_atom_site_fract_y
_atom_site_fract_z
Si Si1 0.530931 0.221275 0.394994
Si Si2 0.106935 0.323720 0.531573
Si Si3 0.692010 0.271960 0.905659
Si Si4 0.051015 0.295907 0.369831
Si Si5 0.906465 0.628521 0.787052
Si Si6 0.447798 0.086872 0.141661
Si Si7 0.097409 0.224217 0.619305
Si Si8 0.237639 0.023853 0.398858
O O1 0.254954 0.228993 0.341590
O O2 0.701661 0.441274 0.602211
O O3 0.435695 0.065814 0.184525
O O4 0.758228 0.185602 0.484585
O O5 0.180885 0.341668 0.509599
O O6 0.066556 0.526438 0.713100
O O7 0.782862 0.157413 0.294573
O O8 0.313562 0.223270 0.549584
O O9 0.342168 0.180861 0.702928
O O10 0.848784 0.182275 0.836936
O O11 0.769664 0.524477 0.139388
O O12 0.837646 0.225514 0.969854
O O13 0.000000 0.500000 0.500000
O O14 0.738357 0.119639 0.120513
O O15 0.703551 0.742451 0.785626
O O16 0.062652 0.090937 0.442966
O O17 0.500000 0.000000 0.500000
#
# Coordination Sequence:
#
# PCOD9076019 Si02
#       8
#     2   2   2   2   2   2   2   2
#     4  10  20  38  57  83 122 156 192 245 311 352
#     4  11  21  38  59  90 123 150 204 259 286 359
#     4   9  17  29  57  86 114 148 193 245 297 331
#     4  12  25  37  55  88 126 159 197 246 311 366
#     4  10  19  37  62  88 115 154 204 251 295 353
#     4  11  21  37  61  82 115 159 208 242 301 358
#     4   9  17  34  53  86 116 149 197 250 285 351
#     4  10  18  32  58  90 115 149 200 254 290 339
#
# _framework density 20.535273
#
# number of rings (size 3 to 8) (size 9 to 14) (size 15 to 20)
#    0.000    1.750    3.750    4.500    0.000    2.000 
#    0.000    0.000    0.000    7.500    0.000    0.000 
#    0.000    0.000    0.000    0.000    0.000    0.000 
#
# Total GULP energy -89116.693732 kJ/mol
# GULP energy per Si atom -5569.793358 kJ/mol
# Density = 2.048853 g / cm^3
# Si number density = 20.535273 Si / 1000 Ang^3
#
#
#
# Elastic Constant Matrix: (Units=GPa)
#
#
# Indices 1 2 3 4 5 6 
#
# 1 63.2516 -14.2769 9.1156 1.9969 -23.4959 4.3482
# 2 -14.2769 61.1055 17.1360 1.8446 -13.5144 9.3635
# 3 9.1156 17.1360 49.2553 -11.4827 -21.4625 -0.4554
# 4 1.9969 1.8446 -11.4827 25.7683 6.1995 -11.9722
# 5 -23.4959 -13.5144 -21.4625 6.1995 13.7154 -1.6900
# 6 4.3482 9.3635 -0.4554 -11.9722 -1.6900 26.4132
#
#
#
# Elastic Compliance Matrix: (Units=1/GPa)
#
#
# Indices 1 2 3 4 5 6 
#
# 1 -0.011135 -0.013910 -0.020118 0.013280 -0.069280 0.008004
# 2 -0.013910 0.008616 -0.023057 0.000859 -0.052316 -0.004120
# 3 -0.020118 -0.023057 0.031514 0.034315 -0.020140 0.026294
# 4 0.013280 0.000859 0.034315 0.050691 0.057431 0.024752
# 5 -0.069280 -0.052316 -0.020140 0.057431 -0.149117 0.046094
# 6 0.008004 -0.004120 0.026294 0.024752 0.046094 0.052624
#
#
# Mechanical properties :
#
#
# Convention : Reuss Voigt Hill
#
# Bulk Modulus (GPa) = -11.74055 21.95131 5.10538
# Shear Modulus (GPa) = 72.49303 23.95524 48.22413
#
# Velocity S-wave (km/s) = 5.94797 3.41917 4.85124
# Velocity P-wave (km/s) = 6.43750 5.12839 5.81987
#
# Compressibility (1/GPa) = -0.08517490
#
# Stress axis : x y z
#
# Youngs Moduli (GPa) = -89.80535 116.05850 31.73146
#
# Poissons Ratio (x) = 1.61433 0.63838
# Poissons Ratio (y) = -1.24915 0.73164
# Poissons Ratio (z) = -1.80673 2.67600
#
# Static dielectric constant tensor:
#      x y z
#    x 1.736390 -0.015610 -0.020120 
#    y -0.015610 1.781590 -0.016810 
#    z -0.020120 -0.016810 1.783670 
# 
# From -- ./inp_files/313835.got.cif
#   From: 2010.05.17/outbox.cif.g08.bks.cpg/sg2_157_cif.got.tgz:313835.got - 2010.06.03 11:33:40.
