data_PCOD9076858
_publ_section_title
;
Structure prediction by ZEFSAII (Michael W. Deem and Ramdas Pophale) SiO2 
 PCOD9076858
Probable space group: P -1
;
_chemical_formula_sum "Si O2"
_cell_formula_units_Z 16
_cell_length_a 18.910157
_cell_length_b 12.935964
_cell_length_c 9.024140
_cell_angle_alpha 62.242309
_cell_angle_beta 117.853922
_cell_angle_gamma 158.737927
_cell_volume 704.596252
_symmetry_space_group_name_H-M "P -1"
_symmetry_group_IT_number 2
_symmetry_cell_setting 'triclinic'
loop_
_space_group_symop_operation_xyz
x,y,z
-x,-y,-z
loop_
_atom_site_type_symbol
_atom_site_label
_atom_site_fract_x
_atom_site_fract_y
_atom_site_fract_z
Si Si1 0.200138 0.310031 0.266737
Si Si2 0.989674 0.467194 0.841172
Si Si3 0.989094 0.274550 0.461527
Si Si4 0.389520 0.119192 0.302182
Si Si5 0.200135 0.322464 0.588307
Si Si6 0.193537 0.088032 0.220279
Si Si7 0.635621 0.141816 0.399473
Si Si8 0.796510 0.482913 0.078368
O O1 0.273787 0.379235 0.460186
O O2 0.255907 0.299573 0.190641
O O3 0.250812 0.504611 0.122142
O O4 0.966760 0.977972 0.296039
O O5 0.076522 0.703392 0.707997
O O6 0.106835 0.510650 0.876499
O O7 0.766766 0.149842 0.779105
O O8 0.000000 0.500000 0.000000
O O9 0.105254 0.323732 0.464601
O O10 0.141573 0.532904 0.554798
O O11 0.823145 0.993012 0.580105
O O12 0.619828 0.424323 0.292920
O O13 0.327950 0.173039 0.213008
O O14 0.377103 0.016236 0.504396
O O15 0.975947 0.793437 0.129244
O O16 0.618388 0.201486 0.198452
O O17 0.500000 0.000000 0.500000
#
# Coordination Sequence:
#
# PCOD9076858 Si02
#       8
#     2   2   2   2   2   2   2   2
#     4  10  21  37  59  82 116 160 203 238 287 348
#     4  10  20  34  58  88 121 155 189 242 302 357
#     4   9  17  33  58  81 112 149 193 230 293 362
#     4  10  20  36  60  85 115 149 202 240 297 353
#     4  10  20  36  60  85 113 159 200 241 287 351
#     4   9  19  35  57  83 108 156 196 242 286 347
#     4  10  18  33  61  87 111 150 191 240 300 353
#     4  10  20  36  59  87 117 154 202 237 291 364
#
# _framework density 22.708041000000001
#
# number of rings (size 3 to 8) (size 9 to 14) (size 15 to 20)
#    0.000    2.250    1.250    1.875    0.000    3.500 
#    0.000    3.125    8.250    0.000    0.000    0.000 
#    0.000    0.000    0.000    0.000    0.000    0.000 
#
# Total GULP energy -89081.274354 kJ/mol
# GULP energy per Si atom -5567.579647 kJ/mol
# Density = 2.265636 g / cm^3
# Si number density = 22.708041 Si / 1000 Ang^3
#
#
#
# Elastic Constant Matrix: (Units=GPa)
#
#
# Indices 1 2 3 4 5 6 
#
# 1 89.4640 10.1691 14.5055 5.7318 -0.4741 -1.3601
# 2 10.1691 55.1395 10.1887 -8.6357 1.5867 -3.2971
# 3 14.5055 10.1887 88.9232 -18.1361 3.1185 5.1136
# 4 5.7318 -8.6357 -18.1361 15.6181 -6.4926 0.1812
# 5 -0.4741 1.5867 3.1185 -6.4926 32.5450 0.6239
# 6 -1.3601 -3.2971 5.1136 0.1812 0.6239 15.9674
#
#
#
# Elastic Compliance Matrix: (Units=1/GPa)
#
#
# Indices 1 2 3 4 5 6 
#
# 1 0.013089 -0.003394 -0.004346 -0.012481 -0.001756 0.002016
# 2 -0.003394 0.021044 0.000838 0.014508 0.001670 0.003558
# 3 -0.004346 0.000838 0.016747 0.022802 0.002954 -0.005934
# 4 -0.012481 0.014508 0.022802 0.111197 0.019251 -0.007384
# 5 -0.001756 0.001670 0.002954 0.019251 0.034221 -0.002306
# 6 0.002016 0.003558 -0.005934 -0.007384 -0.002306 0.065608
#
#
# Mechanical properties :
#
#
# Convention : Reuss Voigt Hill
#
# Bulk Modulus (GPa) = 26.97213 33.69482 30.33348
# Shear Modulus (GPa) = 17.35692 26.07033 21.71363
#
# Velocity S-wave (km/s) = 2.76769 3.39199 3.09562
# Velocity P-wave (km/s) = 4.70288 5.49648 5.11509
#
# Compressibility (1/GPa) = 0.03707530
#
# Stress axis : x y z
#
# Youngs Moduli (GPa) = 76.39928 47.51998 59.71315
#
# Poissons Ratio (x) = 0.16130 0.25951
# Poissons Ratio (y) = 0.25933 -0.05006
# Poissons Ratio (z) = 0.33203 -0.03984
#
# Static dielectric constant tensor:
#      x y z
#    x 1.881430 -0.019470 -0.061320 
#    y -0.019470 1.873340 -0.024930 
#    z -0.061320 -0.024930 1.908090 
# 
# From -- ./inp_files/260715.got.cif
#   From: 2010.05.17/outbox.cif.g08.bks.cpg/sg2_131_cif.got.tgz:260715.got - 2010.06.03 11:33:40.
