data_PCOD9076071
_publ_section_title
;
Structure prediction by ZEFSAII (Michael W. Deem and Ramdas Pophale) SiO2 
 PCOD9076071
Probable space group: P -1
;
_chemical_formula_sum "Si O2"
_cell_formula_units_Z 16
_cell_length_a 9.486421
_cell_length_b 14.363718
_cell_length_c 7.391409
_cell_angle_alpha 47.323517
_cell_angle_beta 71.006309
_cell_angle_gamma 63.422145
_cell_volume 661.830799
_symmetry_space_group_name_H-M "P -1"
_symmetry_group_IT_number 2
_symmetry_cell_setting 'triclinic'
loop_
_space_group_symop_operation_xyz
x,y,z
-x,-y,-z
loop_
_atom_site_type_symbol
_atom_site_label
_atom_site_fract_x
_atom_site_fract_y
_atom_site_fract_z
Si Si1 0.777142 0.867924 0.851316
Si Si2 0.559749 0.965545 0.317783
Si Si3 0.744064 0.582573 0.276621
Si Si4 0.510744 0.274375 0.512982
Si Si5 0.730802 0.419579 0.144105
Si Si6 0.027097 0.183332 0.493966
Si Si7 0.201184 0.947418 0.104189
Si Si8 0.932374 0.563578 0.744678
O O1 0.590372 0.939288 0.855267
O O2 0.856430 0.903296 0.592254
O O3 0.849383 0.922885 0.915461
O O4 0.792762 0.713482 0.037339
O O5 0.500000 0.000000 0.500000
O O6 0.565285 0.818289 0.447645
O O7 0.711726 0.008803 0.155994
O O8 0.611447 0.631757 0.417901
O O9 0.689209 0.515826 0.213435
O O10 0.915061 0.478424 0.391985
O O11 0.589945 0.361712 0.242834
O O12 0.656440 0.171030 0.700951
O O13 0.881172 0.289075 0.304998
O O14 0.792809 0.501959 0.860168
O O15 0.942681 0.111124 0.760811
O O16 0.112891 0.278226 0.426036
O O17 0.000000 0.500000 0.000000
#
# Coordination Sequence:
#
# PCOD9076071 Si02
#       8
#     2   2   2   2   2   2   2   2
#     4  11  16  31  52  73  97 127 158 197 240 286
#     4  11  23  36  47  65  97 134 167 203 237 274
#     4  10  14  26  48  76 103 121 147 190 242 283
#     4  10  18  31  49  74  97 124 160 197 236 284
#     4   9  16  25  46  80 106 116 144 196 244 283
#     4   9  16  28  47  77 104 120 148 194 247 287
#     4  10  19  30  50  74  97 123 162 202 237 282
#     4   8  14  25  41  75 109 116 140 190 246 287
#
# _framework density 24.175360000000001
#
# number of rings (size 3 to 8) (size 9 to 14) (size 15 to 20)
#    0.000    2.500    6.250    1.500    0.000    0.000 
#    0.000    0.625    0.000    0.750    0.000    4.375 
#    0.000    0.000    0.000    0.000    0.000    0.000 
#
# Total GULP energy -89331.367008 kJ/mol
# GULP energy per Si atom -5583.210438 kJ/mol
# Density = 2.412034 g / cm^3
# Si number density = 24.175360 Si / 1000 Ang^3
#
#
#
# Elastic Constant Matrix: (Units=GPa)
#
#
# Indices 1 2 3 4 5 6 
#
# 1 76.1867 19.1701 42.8754 2.8400 -30.2864 2.2227
# 2 19.1701 97.9280 27.7056 21.7857 -13.5824 -4.3062
# 3 42.8754 27.7056 151.4346 2.3248 -51.9864 6.8557
# 4 2.8400 21.7857 2.3248 26.1286 -7.6996 -13.2933
# 5 -30.2864 -13.5824 -51.9864 -7.6996 51.9607 1.0181
# 6 2.2227 -4.3062 6.8557 -13.2933 1.0181 18.4299
#
#
#
# Elastic Compliance Matrix: (Units=1/GPa)
#
#
# Indices 1 2 3 4 5 6 
#
# 1 0.018027 -0.002390 -0.001745 0.002195 0.008481 -0.000969
# 2 -0.002390 0.014075 -0.002001 -0.015145 -0.001832 -0.006502
# 3 -0.001745 -0.002001 0.010942 0.002035 0.009776 -0.003399
# 4 0.002195 -0.015145 0.002035 0.080388 0.010233 0.052857
# 5 0.008481 -0.001832 0.009776 0.010233 0.034999 0.000360
# 6 -0.000969 -0.006502 -0.003399 0.052857 0.000360 0.092227
#
#
# Mechanical properties :
#
#
# Convention : Reuss Voigt Hill
#
# Bulk Modulus (GPa) = 32.49602 56.11684 44.30643
# Shear Modulus (GPa) = 18.30248 35.02371 26.66310
#
# Velocity S-wave (km/s) = 2.75448 3.81036 3.32460
# Velocity P-wave (km/s) = 4.85666 6.52849 5.75362
#
# Compressibility (1/GPa) = 0.03077300
#
# Stress axis : x y z
#
# Youngs Moduli (GPa) = 55.47265 71.04946 91.38955
#
# Poissons Ratio (x) = 0.16979 0.15948
# Poissons Ratio (y) = 0.13257 0.18283
# Poissons Ratio (z) = 0.09681 0.14214
#
# Static dielectric constant tensor:
#      x y z
#    x 2.056000 -0.017710 0.043930 
#    y -0.017710 1.901890 -0.009300 
#    z 0.043930 -0.009300 1.981100 
# 
# From -- ./inp_files/269525.got.cif
#   From: 2010.05.17/outbox.cif.g08.bks.cpg/sg2_135_cif.got.tgz:269525.got - 2010.06.03 11:33:40.
