data_PCOD9076980
_publ_section_title
;
Structure prediction by ZEFSAII (Michael W. Deem and Ramdas Pophale) SiO2 
 PCOD9076980
Probable space group: P -1
;
_chemical_formula_sum "Si O2"
_cell_formula_units_Z 16
_cell_length_a 9.379536
_cell_length_b 16.383477
_cell_length_c 20.256237
_cell_angle_alpha 156.188491
_cell_angle_beta 149.335153
_cell_angle_gamma 43.809415
_cell_volume 607.858049
_symmetry_space_group_name_H-M "P -1"
_symmetry_group_IT_number 2
_symmetry_cell_setting 'triclinic'
loop_
_space_group_symop_operation_xyz
x,y,z
-x,-y,-z
loop_
_atom_site_type_symbol
_atom_site_label
_atom_site_fract_x
_atom_site_fract_y
_atom_site_fract_z
Si Si1 0.348856 0.209996 0.188521
Si Si2 0.296543 0.279599 0.698397
Si Si3 0.794435 0.188623 0.539383
Si Si4 0.625854 0.628583 0.543784
Si Si5 0.711165 0.173660 0.883095
Si Si6 0.493256 0.474618 0.793162
Si Si7 0.040133 0.187022 0.307410
Si Si8 0.068056 0.805341 0.248450
O O1 0.588195 0.397981 0.385920
O O2 0.411872 0.223398 0.301089
O O3 0.043492 0.274389 0.114925
O O4 0.278120 0.988965 0.958089
O O5 0.581270 0.294845 0.867564
O O6 0.366940 0.467596 0.812180
O O7 0.033317 0.250435 0.623420
O O8 0.191204 0.045657 0.448482
O O9 0.638503 0.371117 0.610345
O O10 0.921427 0.182265 0.657952
O O11 0.539294 0.957182 0.262016
O O12 0.903347 0.732586 0.686136
O O13 0.764117 0.969724 0.716083
O O14 0.202553 0.377971 0.561380
O O15 0.714457 0.329831 0.783108
O O16 0.723747 0.684642 0.008654
#
# Coordination Sequence:
#
# PCOD9076980 Si02
#       8
#     2   2   2   2   2   2   2   2
#     4   9  19  31  57  82  99 132 180 235 262 295
#     4  11  21  35  51  77 119 143 170 209 264 328
#     4  10  20  36  52  76 116 144 167 215 269 318
#     4  10  18  34  53  83 103 132 180 226 267 303
#     4   8  17  32  51  75 101 141 168 209 263 300
#     4  11  21  32  53  81 104 147 180 211 260 311
#     4   9  18  32  50  76 105 131 168 225 259 299
#     4  10  20  34  52  75 109 145 178 217 251 310
#
# _framework density 26.321935
#
# number of rings (size 3 to 8) (size 9 to 14) (size 15 to 20)
#    0.750    1.500    3.750    2.250    1.750    1.500 
#    2.250    0.000    0.000    0.750    0.000    2.625 
#    0.000    0.000    0.000    0.000    0.000    0.000 
#
# Total GULP energy -89289.965266 kJ/mol
# GULP energy per Si atom -5580.622829 kJ/mol
# Density = 2.626203 g / cm^3
# Si number density = 26.321935 Si / 1000 Ang^3
#
#
#
# Elastic Constant Matrix: (Units=GPa)
#
#
# Indices 1 2 3 4 5 6 
#
# 1 84.5585 7.7493 27.4084 3.7303 23.4307 12.8294
# 2 7.7493 44.9755 12.8080 6.5562 0.5973 7.9031
# 3 27.4084 12.8080 143.6445 2.4440 3.1020 19.7379
# 4 3.7303 6.5562 2.4440 20.1130 6.7008 4.6202
# 5 23.4307 0.5973 3.1020 6.7008 26.3212 -2.2625
# 6 12.8294 7.9031 19.7379 4.6202 -2.2625 40.4444
#
#
#
# Elastic Compliance Matrix: (Units=1/GPa)
#
#
# Indices 1 2 3 4 5 6 
#
# 1 0.018313 -0.001951 -0.002210 0.004761 -0.017715 -0.005884
# 2 -0.001951 0.024513 -0.001418 -0.007963 0.003169 -0.002392
# 3 -0.002210 -0.001418 0.007882 0.000325 0.000742 -0.002864
# 4 0.004761 -0.007963 0.000325 0.059927 -0.020047 -0.008080
# 5 -0.017715 0.003169 0.000742 -0.020047 0.059588 0.010261
# 6 -0.005884 -0.002392 -0.002864 -0.008080 0.010261 0.029954
#
#
# Mechanical properties :
#
#
# Convention : Reuss Voigt Hill
#
# Bulk Modulus (GPa) = 25.28427 41.01223 33.14825
# Shear Modulus (GPa) = 22.27003 32.38992 27.32997
#
# Velocity S-wave (km/s) = 2.91187 3.51170 3.22576
# Velocity P-wave (km/s) = 4.57515 5.66194 5.14730
#
# Compressibility (1/GPa) = 0.03955029
#
# Stress axis : x y z
#
# Youngs Moduli (GPa) = 54.60702 40.79423 126.87545
#
# Poissons Ratio (x) = 0.07958 0.28042
# Poissons Ratio (y) = 0.10653 0.17987
# Poissons Ratio (z) = 0.12069 0.05783
#
# Static dielectric constant tensor:
#      x y z
#    x 2.118980 -0.074200 -0.073310 
#    y -0.074200 2.057070 0.040680 
#    z -0.073310 0.040680 2.132740 
# 
# From -- ./inp_files/590766.got.cif
#   From: 2010.05.17/outbox.cif.g08.bks.cpg/sg2_296_cif.got.tgz:590766.got - 2010.06.03 11:33:40.
