data_PCOD9076269
_publ_section_title
;
Structure prediction by ZEFSAII (Michael W. Deem and Ramdas Pophale) SiO2 
 PCOD9076269
Probable space group: P -1
;
_chemical_formula_sum "Si O2"
_cell_formula_units_Z 12
_cell_length_a 6.837597
_cell_length_b 11.292717
_cell_length_c 9.149178
_cell_angle_alpha 63.375326
_cell_angle_beta 75.256136
_cell_angle_gamma 122.661732
_cell_volume 399.657224
_symmetry_space_group_name_H-M "P -1"
_symmetry_group_IT_number 2
_symmetry_cell_setting 'triclinic'
loop_
_space_group_symop_operation_xyz
x,y,z
-x,-y,-z
loop_
_atom_site_type_symbol
_atom_site_label
_atom_site_fract_x
_atom_site_fract_y
_atom_site_fract_z
Si Si1 0.858414 0.181965 0.216813
Si Si2 0.573146 0.467102 0.238375
Si Si3 0.927331 0.824454 0.293151
Si Si4 0.475055 0.179488 0.833365
Si Si5 0.743691 0.281710 0.443832
Si Si6 0.540738 0.778724 0.870114
O O1 0.941561 0.283644 0.302771
O O2 0.669476 0.209203 0.163987
O O3 0.607600 0.942923 0.405139
O O4 0.161616 0.303994 0.997443
O O5 0.315274 0.380596 0.452689
O O6 0.753152 0.437495 0.305969
O O7 0.459550 0.337124 0.184453
O O8 0.716280 0.811907 0.235074
O O9 0.115787 0.997078 0.288026
O O10 0.222233 0.943620 0.063868
O O11 0.742986 0.263403 0.627966
O O12 0.585449 0.299645 0.896484
#
# Coordination Sequence:
#
# PCOD9076269 Si02
#       6
#     2   2   2   2   2   2
#     4  10  20  32  52  76  98 131 166 199 242 292
#     4  10  18  33  54  74  99 129 165 202 240 293
#     4   8  16  31  51  75  96 130 166 198 247 290
#     4   8  16  30  53  73  95 133 165 197 248 290
#     4   9  18  34  50  70 104 132 158 203 245 287
#     4   9  16  29  52  77  94 130 168 195 246 294
#
# _framework density 30.025732000000001
#
# number of rings (size 3 to 8) (size 9 to 14) (size 15 to 20)
#    1.000    2.000    0.000    2.500    0.000    0.667 
#    0.000    8.333    0.000   29.000    0.000    0.000 
#    0.000    0.000    0.000    0.000    0.000    0.000 
#
# Total GULP energy -67189.136144 kJ/mol
# GULP energy per Si atom -5599.094679 kJ/mol
# Density = 2.995739 g / cm^3
# Si number density = 30.025732 Si / 1000 Ang^3
#
#
#
# Elastic Constant Matrix: (Units=GPa)
#
#
# Indices 1 2 3 4 5 6 
#
# 1 132.3188 9.5048 55.3365 19.2134 -17.1594 15.6294
# 2 9.5048 155.4260 47.6817 31.8827 -9.6066 11.0165
# 3 55.3365 47.6817 274.3804 17.4266 -17.4698 -0.8051
# 4 19.2134 31.8827 17.4266 69.4032 -0.4939 5.5562
# 5 -17.1594 -9.6066 -17.4698 -0.4939 58.5827 13.4000
# 6 15.6294 11.0165 -0.8051 5.5562 13.4000 31.1753
#
#
#
# Elastic Compliance Matrix: (Units=1/GPa)
#
#
# Indices 1 2 3 4 5 6 
#
# 1 0.009882 0.001140 -0.001810 -0.002235 0.004068 -0.006754
# 2 0.001140 0.007809 -0.001259 -0.003279 0.002048 -0.003659
# 3 -0.001810 -0.001259 0.004252 -0.000098 0.000213 0.001388
# 4 -0.002235 -0.003279 -0.000098 0.016570 -0.001028 -0.000234
# 5 0.004068 0.002048 0.000213 -0.001028 0.021339 -0.011746
# 6 -0.006754 -0.003659 0.001388 -0.000234 -0.011746 0.041882
#
#
# Mechanical properties :
#
#
# Convention : Reuss Voigt Hill
#
# Bulk Modulus (GPa) = 55.29404 87.46347 71.37876
# Shear Modulus (GPa) = 44.79406 61.80573 53.29990
#
# Velocity S-wave (km/s) = 3.86665 4.54191 4.21781
# Velocity P-wave (km/s) = 6.19598 7.52981 6.89522
#
# Compressibility (1/GPa) = 0.01808513
#
# Stress axis : x y z
#
# Youngs Moduli (GPa) = 101.18954 128.05572 235.16993
#
# Poissons Ratio (x) = -0.14593 0.42565
# Poissons Ratio (y) = -0.11531 0.29606
# Poissons Ratio (z) = 0.18315 0.16121
#
# Static dielectric constant tensor:
#      x y z
#    x 2.332750 -0.007940 -0.019350 
#    y -0.007940 2.325390 0.011120 
#    z -0.019350 0.011120 2.318100 
# 
# From -- ./inp_files/170519.got.cif
#   From: 2010.05.17/outbox.cif.g08.bks.cpg/sg2_86_cif.got.tgz:170519.got - 2010.06.03 11:33:40.
