data_PCOD9076354
_publ_section_title
;
Structure prediction by ZEFSAII (Michael W. Deem and Ramdas Pophale) SiO2 
 PCOD9076354
Probable space group: P -1
;
_chemical_formula_sum "Si O2"
_cell_formula_units_Z 16
_cell_length_a 17.897969
_cell_length_b 8.360537
_cell_length_c 12.208122
_cell_angle_alpha 57.222454
_cell_angle_beta 156.328466
_cell_angle_gamma 113.207708
_cell_volume 587.973027
_symmetry_space_group_name_H-M "P -1"
_symmetry_group_IT_number 2
_symmetry_cell_setting 'triclinic'
loop_
_space_group_symop_operation_xyz
x,y,z
-x,-y,-z
loop_
_atom_site_type_symbol
_atom_site_label
_atom_site_fract_x
_atom_site_fract_y
_atom_site_fract_z
Si Si1 0.591342 0.093474 0.357501
Si Si2 0.156319 0.892299 0.516288
Si Si3 0.780208 0.413728 0.805694
Si Si4 0.143316 0.176396 0.998908
Si Si5 0.554766 0.237422 0.731190
Si Si6 0.742956 0.420119 0.496592
Si Si7 0.199706 0.576233 0.847815
Si Si8 0.136688 0.236545 0.511452
O O1 0.716325 0.056585 0.427452
O O2 0.575664 0.320125 0.280971
O O3 0.418337 0.996836 0.140534
O O4 0.709156 0.970277 0.665694
O O5 0.204233 0.661295 0.701449
O O6 0.937555 0.943779 0.156568
O O7 0.183190 0.012518 0.615499
O O8 0.641130 0.296517 0.714845
O O9 0.674377 0.644446 0.610362
O O10 0.786561 0.396712 0.691899
O O11 0.982333 0.342448 0.167776
O O12 0.222247 0.345513 0.986166
O O13 0.942491 0.293630 0.750216
O O14 0.647124 0.346837 0.905708
O O15 0.700830 0.650345 0.320554
O O16 0.990076 0.700535 0.572899
#
# Coordination Sequence:
#
# PCOD9076354 Si02
#       8
#     2   2   2   2   2   2   2   2
#     4  11  21  35  56  83 113 144 187 230 269 324
#     4  11  21  36  60  85 111 144 181 229 283 329
#     4  10  18  33  55  80 110 144 184 230 274 322
#     4  10  20  36  58  86 111 137 182 237 284 319
#     4  10  21  35  53  78 111 153 187 216 266 331
#     4  10  19  31  53  83 109 136 176 235 284 311
#     4  10  22  38  56  80 116 151 180 219 273 340
#     4  10  19  33  56  84 111 140 183 233 281 321
#
# _framework density 27.212135
#
# number of rings (size 3 to 8) (size 9 to 14) (size 15 to 20)
#    0.000    1.750    0.000    7.875    0.000    1.000 
#    0.000    2.500    0.000    3.750    0.000    0.000 
#    0.000    0.000    0.000    0.000    0.000    0.000 
#
# Total GULP energy -89670.608108 kJ/mol
# GULP energy per Si atom -5604.413007 kJ/mol
# Density = 2.715020 g / cm^3
# Si number density = 27.212135 Si / 1000 Ang^3
#
#
#
# Elastic Constant Matrix: (Units=GPa)
#
#
# Indices 1 2 3 4 5 6 
#
# 1 71.1024 40.1855 24.2829 -9.4713 -19.7722 21.8285
# 2 40.1855 195.0058 29.1700 8.1519 -7.5327 25.1710
# 3 24.2829 29.1700 79.1304 -0.1639 -5.7889 2.8298
# 4 -9.4713 8.1519 -0.1639 39.5555 -0.1121 0.3268
# 5 -19.7722 -7.5327 -5.7889 -0.1121 26.8808 -13.6887
# 6 21.8285 25.1710 2.8298 0.3268 -13.6887 37.1319
#
#
#
# Elastic Compliance Matrix: (Units=1/GPa)
#
#
# Indices 1 2 3 4 5 6 
#
# 1 0.023936 -0.003042 -0.005074 0.006431 0.011992 -0.007258
# 2 -0.003042 0.006397 -0.001490 -0.002033 -0.002469 -0.003326
# 3 -0.005074 -0.001490 0.014674 -0.000871 0.000584 0.003098
# 4 0.006431 -0.002033 -0.000871 0.027257 0.003416 -0.001317
# 5 0.011992 -0.002469 0.000584 0.003416 0.052562 0.013926
# 6 -0.007258 -0.003326 0.003098 -0.001317 0.013926 0.038362
#
#
# Mechanical properties :
#
#
# Convention : Reuss Voigt Hill
#
# Bulk Modulus (GPa) = 38.76856 59.16839 48.96848
# Shear Modulus (GPa) = 26.17820 37.48698 31.83259
#
# Velocity S-wave (km/s) = 3.10498 3.71561 3.42394
# Velocity P-wave (km/s) = 5.20887 6.34021 5.80218
#
# Compressibility (1/GPa) = 0.02579409
#
# Stress axis : x y z
#
# Youngs Moduli (GPa) = 41.77796 156.32505 68.14840
#
# Poissons Ratio (x) = 0.47561 0.34576
# Poissons Ratio (y) = 0.12711 0.10156
# Poissons Ratio (z) = 0.21196 0.23297
#
# Static dielectric constant tensor:
#      x y z
#    x 2.049390 -0.034050 0.025580 
#    y -0.034050 2.171470 -0.002310 
#    z 0.025580 -0.002310 2.158580 
# 
# From -- ./inp_files/278085.got.cif
#   From: 2010.05.17/outbox.cif.g08.bks.cpg/sg2_140_cif.got.tgz:278085.got - 2010.06.03 11:33:40.
