data_PCOD9076003
_publ_section_title
;
Structure prediction by ZEFSAII (Michael W. Deem and Ramdas Pophale) SiO2 
 PCOD9076003
Probable space group: P -1
;
_chemical_formula_sum "Si O2"
_cell_formula_units_Z 14
_cell_length_a 16.492372
_cell_length_b 17.887349
_cell_length_c 9.266171
_cell_angle_alpha 136.478197
_cell_angle_beta 148.973048
_cell_angle_gamma 24.907996
_cell_volume 576.066906
_symmetry_space_group_name_H-M "P -1"
_symmetry_group_IT_number 2
_symmetry_cell_setting 'triclinic'
loop_
_space_group_symop_operation_xyz
x,y,z
-x,-y,-z
loop_
_atom_site_type_symbol
_atom_site_label
_atom_site_fract_x
_atom_site_fract_y
_atom_site_fract_z
Si Si1 0.753620 0.554094 0.204987
Si Si2 0.002689 0.872661 0.868095
Si Si3 0.884364 0.250706 0.832572
Si Si4 0.590703 0.578693 0.312269
Si Si5 0.529469 0.709768 0.799907
Si Si6 0.972958 0.330184 0.802501
Si Si7 0.467330 0.881312 0.691664
O O1 0.675462 0.567482 0.266164
O O2 0.000000 0.500000 0.500000
O O3 0.810489 0.407207 0.009834
O O4 0.538585 0.723462 0.003694
O O5 0.941003 0.895764 0.976287
O O6 0.308729 0.672379 0.022730
O O7 0.782804 0.936820 0.525088
O O8 0.000000 0.000000 0.000000
O O9 0.644016 0.300051 0.515538
O O10 0.972706 0.233574 0.783260
O O11 0.798735 0.409908 0.504831
O O12 0.535419 0.727456 0.507923
O O13 0.823984 0.514875 0.915588
O O14 0.418167 0.872172 0.767711
O O15 0.270433 0.194297 0.025719
#
# Coordination Sequence:
#
# PCOD9076003 Si02
#       7
#     2   2   2   2   2   2   2
#     4  11  22  35  58  93 126 143 185 257 300 330
#     4  10  20  37  58  83 117 153 200 238 281 345
#     4  11  21  38  61  89 115 152 200 240 285 351
#     4  10  19  34  57  86 112 150 192 239 294 335
#     4  10  19  37  61  86 114 154 200 236 284 349
#     4  10  18  32  58  86 112 146 199 236 285 339
#     4  10  19  36  60  81 118 159 195 231 287 352
#
# _framework density 24.302731000000001
#
# number of rings (size 3 to 8) (size 9 to 14) (size 15 to 20)
#    0.000    1.714    4.286    6.000    0.000    1.143 
#    0.000    0.714    0.000    3.429    0.000    0.000 
#    0.000    0.000    0.000    0.000    0.000    0.000 
#
# Total GULP energy -78255.174355 kJ/mol
# GULP energy per Si atom -5589.655311 kJ/mol
# Density = 2.424742 g / cm^3
# Si number density = 24.302731 Si / 1000 Ang^3
#
#
#
# Elastic Constant Matrix: (Units=GPa)
#
#
# Indices 1 2 3 4 5 6 
#
# 1 231.5693 47.6991 121.3811 -18.2662 -35.3157 19.7517
# 2 47.6991 45.9896 35.6145 -6.1426 -4.8780 -0.9472
# 3 121.3811 35.6145 200.0032 -35.3025 -9.9024 20.2091
# 4 -18.2662 -6.1426 -35.3025 28.5432 8.0029 -4.3899
# 5 -35.3157 -4.8780 -9.9024 8.0029 60.9812 -4.2262
# 6 19.7517 -0.9472 20.2091 -4.3899 -4.2262 30.1735
#
#
#
# Elastic Compliance Matrix: (Units=1/GPa)
#
#
# Indices 1 2 3 4 5 6 
#
# 1 0.008073 -0.005314 -0.003899 -0.002252 0.003729 -0.002646
# 2 -0.005314 0.029346 -0.002477 0.001025 -0.000845 0.006089
# 3 -0.003899 -0.002477 0.009583 0.009011 -0.002287 -0.002953
# 4 -0.002252 0.001025 0.009011 0.046812 -0.005800 0.001469
# 5 0.003729 -0.000845 -0.002287 -0.005800 0.018941 0.000873
# 6 -0.002646 0.006089 -0.002953 0.001469 0.000873 0.037379
#
#
# Mechanical properties :
#
#
# Convention : Reuss Voigt Hill
#
# Bulk Modulus (GPa) = 42.33154 98.55017 70.44086
# Shear Modulus (GPa) = 27.56523 42.13072 34.84798
#
# Velocity S-wave (km/s) = 3.37151 4.16814 3.79081
# Velocity P-wave (km/s) = 5.71072 7.98772 6.94320
#
# Compressibility (1/GPa) = 0.02362305
#
# Stress axis : x y z
#
# Youngs Moduli (GPa) = 123.86297 34.07592 104.35113
#
# Poissons Ratio (x) = 0.18107 0.40687
# Poissons Ratio (y) = 0.65818 0.25848
# Poissons Ratio (z) = 0.48294 0.08441
#
# Static dielectric constant tensor:
#      x y z
#    x 1.951500 -0.004680 -0.062900 
#    y -0.004680 2.077460 -0.021340 
#    z -0.062900 -0.021340 1.973360 
# 
# From -- ./inp_files/317240.got.cif
#   From: 2010.05.17/outbox.cif.g08.bks.cpg/sg2_159_cif.got.tgz:317240.got - 2010.06.03 11:33:40.
