data_PCOD9076751
_publ_section_title
;
Structure prediction by ZEFSAII (Michael W. Deem and Ramdas Pophale) SiO2 
 PCOD9076751
Probable space group: P -1
;
_chemical_formula_sum "Si O2"
_cell_formula_units_Z 16
_cell_length_a 8.953244
_cell_length_b 9.073013
_cell_length_c 13.413226
_cell_angle_alpha 135.832369
_cell_angle_beta 114.575913
_cell_angle_gamma 72.565549
_cell_volume 690.411015
_symmetry_space_group_name_H-M "P -1"
_symmetry_group_IT_number 2
_symmetry_cell_setting 'triclinic'
loop_
_space_group_symop_operation_xyz
x,y,z
-x,-y,-z
loop_
_atom_site_type_symbol
_atom_site_label
_atom_site_fract_x
_atom_site_fract_y
_atom_site_fract_z
Si Si1 0.204948 0.653168 0.251590
Si Si2 0.027179 0.058341 0.763678
Si Si3 0.534506 0.695959 0.874325
Si Si4 0.653834 0.928429 0.443960
Si Si5 0.097594 0.610094 0.881290
Si Si6 0.231832 0.930610 0.939897
Si Si7 0.663441 0.716363 0.135722
Si Si8 0.076083 0.369436 0.550442
O O1 0.373878 0.525230 0.225718
O O2 0.236075 0.855150 0.431404
O O3 0.064794 0.473845 0.146103
O O4 0.132491 0.790635 0.205941
O O5 0.086253 0.991632 0.855388
O O6 0.017031 0.851806 0.592883
O O7 0.169473 0.186210 0.812807
O O8 0.343520 0.746499 0.828183
O O9 0.549924 0.728728 0.013939
O O10 0.642741 0.870977 0.929577
O O11 0.500000 0.000000 0.500000
O O12 0.610523 0.836926 0.279037
O O13 0.743076 0.739183 0.438996
O O14 0.152332 0.843673 0.976281
O O15 0.265289 0.510828 0.923840
O O16 0.057047 0.499034 0.709147
O O17 0.000000 0.500000 0.500000
#
# Coordination Sequence:
#
# PCOD9076751 Si02
#       8
#     2   2   2   2   2   2   2   2
#     4  10  22  39  63  93 122 153 204 253 298 351
#     4   9  18  36  61  87 122 159 200 245 296 364
#     4  10  23  41  62  88 122 165 201 246 298 362
#     4  10  22  39  62  93 121 152 199 257 299 352
#     4  10  20  35  61  91 120 160 202 248 297 359
#     4  10  21  38  61  86 122 165 201 242 300 361
#     4   9  20  38  62  87 119 161 203 237 300 362
#     4  10  18  33  59  89 116 157 198 238 301 362
#
# _framework density 23.174603000000001
#
# number of rings (size 3 to 8) (size 9 to 14) (size 15 to 20)
#    0.000    2.250    1.250    0.750    3.500    8.500 
#    0.000    3.750    0.000    9.000    0.000    0.000 
#    0.000    0.000    0.000    0.000    0.000    0.000 
#
# Total GULP energy -89145.024802 kJ/mol
# GULP energy per Si atom -5571.564050 kJ/mol
# Density = 2.312186 g / cm^3
# Si number density = 23.174603 Si / 1000 Ang^3
#
#
#
# Elastic Constant Matrix: (Units=GPa)
#
#
# Indices 1 2 3 4 5 6 
#
# 1 77.4892 45.6162 23.7956 16.0304 -8.0495 0.5936
# 2 45.6162 163.7266 29.0467 10.7322 -10.9126 -7.9570
# 3 23.7956 29.0467 55.2516 10.7413 -11.1134 4.9577
# 4 16.0304 10.7322 10.7413 32.2127 4.3553 0.2853
# 5 -8.0495 -10.9126 -11.1134 4.3553 33.2901 14.9257
# 6 0.5936 -7.9570 4.9577 0.2853 14.9257 36.8126
#
#
#
# Elastic Compliance Matrix: (Units=1/GPa)
#
#
# Indices 1 2 3 4 5 6 
#
# 1 0.018091 -0.003813 -0.003432 -0.007093 0.003880 -0.002172
# 2 -0.003813 0.007725 -0.002739 0.000264 -0.000342 0.002237
# 3 -0.003432 -0.002739 0.025579 -0.007409 0.011660 -0.008652
# 4 -0.007093 0.000264 -0.007409 0.038481 -0.011643 0.005592
# 5 0.003880 -0.000342 0.011660 -0.011643 0.045227 -0.019954
# 6 -0.002172 0.002237 -0.008652 0.005592 -0.019954 0.036895
#
#
# Mechanical properties :
#
#
# Convention : Reuss Voigt Hill
#
# Bulk Modulus (GPa) = 31.82195 54.82051 43.32123
# Shear Modulus (GPa) = 24.69825 33.66369 29.18097
#
# Velocity S-wave (km/s) = 3.26812 3.81545 3.55234
# Velocity P-wave (km/s) = 5.29169 6.56635 5.96318
#
# Compressibility (1/GPa) = 0.03142485
#
# Stress axis : x y z
#
# Youngs Moduli (GPa) = 55.27606 129.45250 39.09430
#
# Poissons Ratio (x) = 0.49366 0.13418
# Poissons Ratio (y) = 0.21079 0.10710
# Poissons Ratio (z) = 0.18972 0.35463
#
# Static dielectric constant tensor:
#      x y z
#    x 2.074350 -0.208430 -0.003180 
#    y -0.208430 2.154360 0.094420 
#    z -0.003180 0.094420 1.960640 
# 
# From -- ./inp_files/493931.got.cif
#   From: 2010.05.17/outbox.cif.g08.bks.cpg/sg2_247_cif.got.tgz:493931.got - 2010.06.03 11:33:40.
