data_PCOD9076673
_publ_section_title
;
Structure prediction by ZEFSAII (Michael W. Deem and Ramdas Pophale) SiO2 
 PCOD9076673
Probable space group: P -1
;
_chemical_formula_sum "Si O2"
_cell_formula_units_Z 16
_cell_length_a 22.413088
_cell_length_b 7.479367
_cell_length_c 13.187966
_cell_angle_alpha 125.557395
_cell_angle_beta 23.183278
_cell_angle_gamma 122.109523
_cell_volume 708.005703
_symmetry_space_group_name_H-M "P -1"
_symmetry_group_IT_number 2
_symmetry_cell_setting 'triclinic'
loop_
_space_group_symop_operation_xyz
x,y,z
-x,-y,-z
loop_
_atom_site_type_symbol
_atom_site_label
_atom_site_fract_x
_atom_site_fract_y
_atom_site_fract_z
Si Si1 0.774903 0.880164 0.867104
Si Si2 0.114864 0.160765 0.690090
Si Si3 0.493213 0.596946 0.153512
Si Si4 0.635470 0.432961 0.149809
Si Si5 0.650992 0.295840 0.303957
Si Si6 0.100856 0.825254 0.416106
Si Si7 0.812760 0.346117 0.278179
Si Si8 0.557810 0.828375 0.769221
O O1 0.927178 0.781747 0.645993
O O2 0.834543 0.019770 0.723717
O O3 0.647690 0.716391 0.974932
O O4 0.693354 0.048103 0.127521
O O5 0.139737 0.405585 0.682122
O O6 0.266251 0.127622 0.507830
O O7 0.109456 0.968921 0.552108
O O8 0.958372 0.189255 0.003499
O O9 0.336491 0.732523 0.456192
O O10 0.468808 0.398243 0.203837
O O11 0.500000 0.500000 0.000000
O O12 0.677501 0.426891 0.200702
O O13 0.523833 0.641624 0.376872
O O14 0.532795 0.219712 0.208107
O O15 0.786740 0.385130 0.833540
O O16 0.760376 0.359101 0.246111
O O17 0.500000 0.000000 0.000000
#
# Coordination Sequence:
#
# PCOD9076673 Si02
#       8
#     2   2   2   2   2   2   2   2
#     4  10  21  36  60  87 123 157 208 251 298 363
#     4  10  18  33  58  89 116 151 209 255 291 355
#     4  11  24  41  60  91 120 159 207 258 306 357
#     4  10  20  34  56  92 121 157 202 243 307 361
#     4  10  19  35  56  88 122 158 197 248 303 361
#     4  10  19  35  61  91 115 161 207 252 299 362
#     4  10  20  35  57  88 121 154 202 258 303 347
#     4  11  21  38  66  89 121 160 204 252 307 370
#
# _framework density 22.598687000000002
#
# number of rings (size 3 to 8) (size 9 to 14) (size 15 to 20)
#    0.000    1.750    5.000    1.500    1.750    0.500 
#    0.000    0.625    2.750    0.750    0.000    0.000 
#    0.000    0.000    0.000    0.000    0.000    0.000 
#
# Total GULP energy -89312.674695 kJ/mol
# GULP energy per Si atom -5582.042168 kJ/mol
# Density = 2.254725 g / cm^3
# Si number density = 22.598687 Si / 1000 Ang^3
#
#
#
# Elastic Constant Matrix: (Units=GPa)
#
#
# Indices 1 2 3 4 5 6 
#
# 1 71.5883 17.3810 48.8053 -14.6464 -0.8820 24.1028
# 2 17.3810 60.8983 66.2952 -15.2613 2.6062 18.9819
# 3 48.8053 66.2952 223.6327 11.7548 -35.4486 27.7540
# 4 -14.6464 -15.2613 11.7548 36.1439 10.9483 -1.0609
# 5 -0.8820 2.6062 -35.4486 10.9483 35.6633 3.2610
# 6 24.1028 18.9819 27.7540 -1.0609 3.2610 31.8137
#
#
#
# Elastic Compliance Matrix: (Units=1/GPa)
#
#
# Indices 1 2 3 4 5 6 
#
# 1 0.051113 0.058343 -0.038236 0.075427 -0.061291 -0.031381
# 2 0.058343 0.131017 -0.072164 0.136914 -0.117982 -0.042759
# 3 -0.038236 -0.072164 0.048408 -0.084346 0.076589 0.019131
# 4 0.075427 0.136914 -0.084346 0.186122 -0.145077 -0.044176
# 5 -0.061291 -0.117982 0.076589 -0.145077 0.153115 0.029482
# 6 -0.031381 -0.042759 0.019131 -0.044176 0.029482 0.059536
#
#
# Mechanical properties :
#
#
# Convention : Reuss Voigt Hill
#
# Bulk Modulus (GPa) = 7.90989 69.00915 38.45952
# Shear Modulus (GPa) = 6.44690 35.63336 21.04013
#
# Velocity S-wave (km/s) = 1.69085 3.97519 3.05459
# Velocity P-wave (km/s) = 2.70550 7.18836 5.43104
#
# Compressibility (1/GPa) = 0.12642406
#
# Stress axis : x y z
#
# Youngs Moduli (GPa) = 19.56449 7.63262 20.65754
#
# Poissons Ratio (x) = -0.44531 0.78986
# Poissons Ratio (y) = -1.14144 1.49073
# Poissons Ratio (z) = 0.74807 0.55080
#
# Static dielectric constant tensor:
#      x y z
#    x 1.885030 -0.018650 -0.035590 
#    y -0.018650 1.850240 0.040940 
#    z -0.035590 0.040940 1.904460 
# 
# From -- ./inp_files/542582.got.cif
#   From: 2010.05.17/outbox.cif.g08.bks.cpg/sg2_272_cif.got.tgz:542582.got - 2010.06.03 11:33:40.
