data_PCOD9076787
_publ_section_title
;
Structure prediction by ZEFSAII (Michael W. Deem and Ramdas Pophale) SiO2 
 PCOD9076787
Probable space group: P -1
;
_chemical_formula_sum "Si O2"
_cell_formula_units_Z 14
_cell_length_a 15.254452
_cell_length_b 6.847130
_cell_length_c 6.745735
_cell_angle_alpha 116.669943
_cell_angle_beta 92.024285
_cell_angle_gamma 111.393845
_cell_volume 569.215692
_symmetry_space_group_name_H-M "P -1"
_symmetry_group_IT_number 2
_symmetry_cell_setting 'triclinic'
loop_
_space_group_symop_operation_xyz
x,y,z
-x,-y,-z
loop_
_atom_site_type_symbol
_atom_site_label
_atom_site_fract_x
_atom_site_fract_y
_atom_site_fract_z
Si Si1 0.747940 0.051394 0.614564
Si Si2 0.533159 0.785517 0.377144
Si Si3 0.158522 0.302053 0.445215
Si Si4 0.211042 0.430213 0.040500
Si Si5 0.049606 0.940872 0.789652
Si Si6 0.381524 0.301874 0.052858
Si Si7 0.221033 0.810788 0.788103
O O1 0.634697 0.871369 0.536969
O O2 0.814101 0.915446 0.603559
O O3 0.780673 0.301147 0.851043
O O4 0.760156 0.125254 0.416604
O O5 0.451073 0.518662 0.296885
O O6 0.500000 0.000000 0.500000
O O7 0.555834 0.758322 0.134797
O O8 0.190902 0.369857 0.248511
O O9 0.217172 0.546658 0.684707
O O10 0.043432 0.224809 0.420075
O O11 0.311354 0.411026 0.998225
O O12 0.122930 0.202544 0.831401
O O13 0.116614 0.812692 0.807534
O O14 0.000000 0.000000 0.000000
O O15 0.305063 0.040421 0.004245
#
# Coordination Sequence:
#
# PCOD9076787 Si02
#       7
#     2   2   2   2   2   2   2
#     4  10  20  34  55  82 108 142 180 227 275 319
#     4  10  18  33  60  83 105 146 185 221 275 329
#     4  10  20  34  55  81 111 142 182 224 269 323
#     4   9  18  36  55  77 112 143 177 222 273 320
#     4   9  18  34  55  77 106 150 183 218 272 323
#     4   9  18  34  58  81 106 143 184 222 270 326
#     4   9  19  36  56  76 110 144 178 225 272 322
#
# _framework density 24.595244000000001
#
# number of rings (size 3 to 8) (size 9 to 14) (size 15 to 20)
#    0.000    2.571    1.429    0.429    0.000    1.143 
#    0.000   14.286    0.000    0.000    0.000    0.000 
#    0.000    0.000    0.000    0.000    0.000    0.000 
#
# Total GULP energy -78282.431700 kJ/mol
# GULP energy per Si atom -5591.602264 kJ/mol
# Density = 2.453926 g / cm^3
# Si number density = 24.595244 Si / 1000 Ang^3
#
#
#
# Elastic Constant Matrix: (Units=GPa)
#
#
# Indices 1 2 3 4 5 6 
#
# 1 118.7458 25.5736 40.5096 19.6446 -10.3892 13.9818
# 2 25.5736 107.5364 28.6572 35.0093 -14.5708 -6.7843
# 3 40.5096 28.6572 146.1399 37.6525 -6.8740 -3.0007
# 4 19.6446 35.0093 37.6525 49.1948 -8.5827 -2.0919
# 5 -10.3892 -14.5708 -6.8740 -8.5827 37.1953 7.4787
# 6 13.9818 -6.7843 -3.0007 -2.0919 7.4787 19.7909
#
#
#
# Elastic Compliance Matrix: (Units=1/GPa)
#
#
# Indices 1 2 3 4 5 6 
#
# 1 0.011482 -0.001839 -0.002582 -0.001073 0.003919 -0.010728
# 2 -0.001839 0.012813 0.000251 -0.008075 0.001849 0.004177
# 3 -0.002582 0.000251 0.009113 -0.006163 -0.000965 0.003005
# 4 -0.001073 -0.008075 -0.006163 0.031688 0.002844 -0.000670
# 5 0.003919 0.001849 -0.000965 0.002844 0.032012 -0.014078
# 6 -0.010728 0.004177 0.003005 -0.000670 -0.014078 0.065243
#
#
# Mechanical properties :
#
#
# Convention : Reuss Voigt Hill
#
# Bulk Modulus (GPa) = 39.89192 62.43363 51.16277
# Shear Modulus (GPa) = 27.92563 39.74833 33.83698
#
# Velocity S-wave (km/s) = 3.37324 4.02443 3.71314
# Velocity P-wave (km/s) = 5.60591 6.85816 6.26341
#
# Compressibility (1/GPa) = 0.02506773
#
# Stress axis : x y z
#
# Youngs Moduli (GPa) = 87.09625 78.04698 109.72758
#
# Poissons Ratio (x) = 0.14353 0.28327
# Poissons Ratio (y) = 0.16018 -0.02750
# Poissons Ratio (z) = 0.22485 -0.01956
#
# Static dielectric constant tensor:
#      x y z
#    x 1.902890 0.064120 0.029880 
#    y 0.064120 2.024620 -0.075950 
#    z 0.029880 -0.075950 2.032430 
# 
# From -- ./inp_files/48700.got.cif
#   From: 2010.05.17/outbox.cif.g08.bks.cpg/sg2_25_cif.got.tgz:48700.got - 2010.06.03 11:33:40.
