data_PCOD9076293
_publ_section_title
;
Structure prediction by ZEFSAII (Michael W. Deem and Ramdas Pophale) SiO2 
 PCOD9076293
Probable space group: P -1
;
_chemical_formula_sum "Si O2"
_cell_formula_units_Z 16
_cell_length_a 20.330933
_cell_length_b 12.235087
_cell_length_c 11.414204
_cell_angle_alpha 72.407236
_cell_angle_beta 146.286714
_cell_angle_gamma 133.351084
_cell_volume 854.887241
_symmetry_space_group_name_H-M "P -1"
_symmetry_group_IT_number 2
_symmetry_cell_setting 'triclinic'
loop_
_space_group_symop_operation_xyz
x,y,z
-x,-y,-z
loop_
_atom_site_type_symbol
_atom_site_label
_atom_site_fract_x
_atom_site_fract_y
_atom_site_fract_z
Si Si1 0.622330 0.005010 0.760399
Si Si2 0.439354 0.571847 0.255923
Si Si3 0.036542 0.559661 0.898785
Si Si4 0.642737 0.379864 0.635794
Si Si5 0.603360 0.149084 0.279330
Si Si6 0.863466 0.768327 0.782422
Si Si7 0.981136 0.889319 0.183578
Si Si8 0.594305 0.897112 0.227479
O O1 0.542780 0.822358 0.648525
O O2 0.544142 0.956383 0.792347
O O3 0.500000 0.000000 0.500000
O O4 0.859943 0.233369 0.027918
O O5 0.438852 0.615731 0.374704
O O6 0.647258 0.665041 0.512556
O O7 0.453357 0.692190 0.152758
O O8 0.232869 0.331320 0.012473
O O9 0.826856 0.374432 0.577016
O O10 0.209024 0.603221 0.101212
O O11 0.000000 0.500000 0.000000
O O12 0.789241 0.580227 0.710772
O O13 0.623420 0.032435 0.308054
O O14 0.510264 0.143588 0.033623
O O15 0.992772 0.951953 0.826898
O O16 0.978662 0.858407 0.049839
O O17 0.182399 0.985268 0.501274
#
# Coordination Sequence:
#
# PCOD9076293 Si02
#       8
#     2   2   2   2   2   2   2   2
#     4  10  20  35  52  76 106 136 178 221 259 311
#     4  10  19  34  53  81 111 138 174 223 272 315
#     4  11  21  35  53  79 109 142 175 220 261 315
#     4  10  18  33  54  80 109 138 172 224 273 306
#     4  11  21  37  51  80 109 144 184 208 265 318
#     4   9  18  32  52  83 109 134 175 227 270 315
#     4   9  17  33  50  78 108 137 174 216 270 309
#     4  10  22  33  55  76 112 148 171 217 260 327
#
# _framework density 18.715919
#
# number of rings (size 3 to 8) (size 9 to 14) (size 15 to 20)
#    0.000    2.000    2.500    4.500    0.000    1.000 
#    2.250    3.125    0.000    3.000    0.000    7.875 
#    0.000    0.000    0.000    0.000    0.000    0.000 
#
# Total GULP energy -89278.072933 kJ/mol
# GULP energy per Si atom -5579.879558 kJ/mol
# Density = 1.867332 g / cm^3
# Si number density = 18.715919 Si / 1000 Ang^3
#
#
#
# Elastic Constant Matrix: (Units=GPa)
#
#
# Indices 1 2 3 4 5 6 
#
# 1 44.9446 24.5543 14.9305 11.2205 -9.0822 9.6039
# 2 24.5543 157.7935 53.8161 28.5227 -14.3310 2.9826
# 3 14.9305 53.8161 94.1718 17.7086 -8.1096 5.2534
# 4 11.2205 28.5227 17.7086 39.9555 -0.3404 0.4155
# 5 -9.0822 -14.3310 -8.1096 -0.3404 20.8630 0.9464
# 6 9.6039 2.9826 5.2534 0.4155 0.9464 21.8613
#
#
#
# Elastic Compliance Matrix: (Units=1/GPa)
#
#
# Indices 1 2 3 4 5 6 
#
# 1 0.030520 -0.001962 -0.000677 -0.006627 0.012174 -0.013378
# 2 -0.001962 0.009016 -0.003751 -0.004195 0.003793 0.000449
# 3 -0.000677 -0.003751 0.013839 -0.003217 0.002572 -0.002567
# 4 -0.006627 -0.004195 -0.003217 0.031212 -0.006688 0.003953
# 5 0.012174 0.003793 0.002572 -0.006688 0.057128 -0.008830
# 6 -0.013378 0.000449 -0.002567 0.003953 -0.008830 0.052483
#
#
# Mechanical properties :
#
#
# Convention : Reuss Voigt Hill
#
# Bulk Modulus (GPa) = 24.63282 53.72354 39.17818
# Shear Modulus (GPa) = 22.67481 30.10990 26.39236
#
# Velocity S-wave (km/s) = 3.48447 4.01532 3.75928
# Velocity P-wave (km/s) = 5.42022 7.08972 6.31042
#
# Compressibility (1/GPa) = 0.04059624
#
# Stress axis : x y z
#
# Youngs Moduli (GPa) = 32.76587 110.91051 72.25709
#
# Poissons Ratio (x) = 0.21759 0.04889
# Poissons Ratio (y) = 0.06428 0.27104
# Poissons Ratio (z) = 0.02217 0.41602
#
# Static dielectric constant tensor:
#      x y z
#    x 1.666480 -0.026610 0.033250 
#    y -0.026610 1.727150 0.022990 
#    z 0.033250 0.022990 1.633590 
# 
# From -- ./inp_files/470744.got.cif
#   From: 2010.05.17/outbox.cif.g08.bks.cpg/sg2_236_cif.got.tgz:470744.got - 2010.06.03 11:33:40.
