data_PCOD9076472
_publ_section_title
;
Structure prediction by ZEFSAII (Michael W. Deem and Ramdas Pophale) SiO2 
 PCOD9076472
Probable space group: P -1
;
_chemical_formula_sum "Si O2"
_cell_formula_units_Z 14
_cell_length_a 7.563848
_cell_length_b 12.870268
_cell_length_c 9.812352
_cell_angle_alpha 115.977186
_cell_angle_beta 67.669216
_cell_angle_gamma 134.839007
_cell_volume 605.105719
_symmetry_space_group_name_H-M "P -1"
_symmetry_group_IT_number 2
_symmetry_cell_setting 'triclinic'
loop_
_space_group_symop_operation_xyz
x,y,z
-x,-y,-z
loop_
_atom_site_type_symbol
_atom_site_label
_atom_site_fract_x
_atom_site_fract_y
_atom_site_fract_z
Si Si1 0.413533 0.819481 0.658087
Si Si2 0.892298 0.896718 0.674150
Si Si3 0.330876 0.492598 0.891141
Si Si4 0.841492 0.798070 0.939206
Si Si5 0.620274 0.955940 0.098566
Si Si6 0.179593 0.665079 0.892779
Si Si7 0.712915 0.775618 0.375924
O O1 0.644603 0.878895 0.725696
O O2 0.181998 0.691118 0.745484
O O3 0.470639 0.758395 0.480011
O O4 0.424363 0.962420 0.728350
O O5 0.883055 0.826551 0.778890
O O6 0.854995 0.805964 0.496240
O O7 0.118106 0.070115 0.670811
O O8 0.615546 0.623591 0.932991
O O9 0.283367 0.575753 0.839417
O O10 0.320331 0.358955 0.762079
O O11 0.098234 0.428781 0.021469
O O12 0.722916 0.872292 0.066415
O O13 0.124228 0.899297 0.970256
O O14 0.370818 0.824405 0.013229
#
# Coordination Sequence:
#
# PCOD9076472 Si02
#       7
#     2   2   2   2   2   2   2
#     4  10  18  33  56  84  99 144 187 224 251 320
#     4   9  18  34  54  84 101 147 186 213 265 327
#     4  10  19  35  54  84 112 137 176 231 264 325
#     4  10  21  35  54  82 113 144 172 221 289 306
#     4  10  19  34  56  79 112 141 180 224 264 329
#     4  10  20  31  59  84 107 138 187 221 270 305
#     4   9  19  32  58  78 109 137 192 217 263 312
#
# _framework density 23.136451000000001
#
# number of rings (size 3 to 8) (size 9 to 14) (size 15 to 20)
#    0.857    1.429    2.857    1.286    2.000    2.286 
#    0.000    2.143    6.286    0.000    0.000    0.000 
#    0.000    0.000    0.000    0.000    0.000    0.000 
#
# Total GULP energy -77994.886146 kJ/mol
# GULP energy per Si atom -5571.063296 kJ/mol
# Density = 2.308379 g / cm^3
# Si number density = 23.136451 Si / 1000 Ang^3
#
#
#
# Elastic Constant Matrix: (Units=GPa)
#
#
# Indices 1 2 3 4 5 6 
#
# 1 64.8506 0.5655 7.5338 6.9368 -3.0460 -0.4312
# 2 0.5655 136.3385 41.8743 4.2765 -5.3984 16.6854
# 3 7.5338 41.8743 103.0578 6.1382 -16.4659 -15.6077
# 4 6.9368 4.2765 6.1382 36.6821 -10.9782 1.1098
# 5 -3.0460 -5.3984 -16.4659 -10.9782 40.6446 6.4637
# 6 -0.4312 16.6854 -15.6077 1.1098 6.4637 24.8912
#
#
#
# Elastic Compliance Matrix: (Units=1/GPa)
#
#
# Indices 1 2 3 4 5 6 
#
# 1 0.015866 0.000528 -0.001314 -0.002787 0.000102 -0.000805
# 2 0.000528 0.010484 -0.005825 0.000244 0.000873 -0.010909
# 3 -0.001314 -0.005825 0.014539 -0.001048 0.002775 0.012325
# 4 -0.002787 0.000244 -0.001048 0.030569 0.008356 -0.004401
# 5 0.000102 0.000873 0.002775 0.008356 0.029189 -0.006796
# 6 -0.000805 -0.010909 0.012325 -0.004401 -0.006796 0.057162
#
#
# Mechanical properties :
#
#
# Convention : Reuss Voigt Hill
#
# Bulk Modulus (GPa) = 36.14720 44.91047 40.52883
# Shear Modulus (GPa) = 27.73885 37.39513 32.56699
#
# Velocity S-wave (km/s) = 3.46630 4.02467 3.75588
# Velocity P-wave (km/s) = 5.62830 6.40707 6.03027
#
# Compressibility (1/GPa) = 0.02766466
#
# Stress axis : x y z
#
# Youngs Moduli (GPa) = 63.02920 95.38698 68.78250
#
# Poissons Ratio (x) = -0.05033 0.09037
# Poissons Ratio (y) = -0.03326 0.40069
# Poissons Ratio (z) = 0.08281 0.55567
#
# Static dielectric constant tensor:
#      x y z
#    x 1.972120 -0.014660 0.021130 
#    y -0.014660 1.945590 -0.031500 
#    z 0.021130 -0.031500 1.920290 
# 
# From -- ./inp_files/396340.got.cif
#   From: 2010.05.17/outbox.cif.g08.bks.cpg/sg2_199_cif.got.tgz:396340.got - 2010.06.03 11:33:40.
