data_PCOD9076301
_publ_section_title
;
Structure prediction by ZEFSAII (Michael W. Deem and Ramdas Pophale) SiO2 
 PCOD9076301
Probable space group: P -1
;
_chemical_formula_sum "Si O2"
_cell_formula_units_Z 16
_cell_length_a 5.597934
_cell_length_b 14.367544
_cell_length_c 9.565731
_cell_angle_alpha 105.429783
_cell_angle_beta 104.087553
_cell_angle_gamma 82.052844
_cell_volume 717.097537
_symmetry_space_group_name_H-M "P -1"
_symmetry_group_IT_number 2
_symmetry_cell_setting 'triclinic'
loop_
_space_group_symop_operation_xyz
x,y,z
-x,-y,-z
loop_
_atom_site_type_symbol
_atom_site_label
_atom_site_fract_x
_atom_site_fract_y
_atom_site_fract_z
Si Si1 0.311143 0.513364 0.668809
Si Si2 0.754509 0.050728 0.911547
Si Si3 0.682030 0.339027 0.714949
Si Si4 0.361671 0.203508 0.444520
Si Si5 0.045826 0.651231 0.506564
Si Si6 0.109101 0.019676 0.372376
Si Si7 0.222131 0.554131 0.979749
Si Si8 0.625349 0.117058 0.195423
O O1 0.567287 0.449957 0.709068
O O2 0.292722 0.600472 0.590922
O O3 0.145160 0.430790 0.557249
O O4 0.184284 0.557737 0.809703
O O5 0.558167 0.969308 0.854520
O O6 0.659721 0.134331 0.041255
O O7 0.805385 0.065967 0.759875
O O8 0.000000 0.000000 0.000000
O O9 0.493503 0.262770 0.606832
O O10 0.907879 0.319362 0.634037
O O11 0.756116 0.347618 0.889764
O O12 0.513464 0.197307 0.319452
O O13 0.096085 0.259686 0.400758
O O14 0.319775 0.095061 0.444292
O O15 0.882065 0.075497 0.280691
O O16 0.000000 0.000000 0.500000
O O17 0.500000 0.500000 0.000000
O O18 0.000000 0.500000 0.000000
#
# Coordination Sequence:
#
# PCOD9076301 Si02
#       8
#     2   2   2   2   2   2   2   2
#     4   9  19  32  54  85 107 150 199 238 279 349
#     4   8  16  31  56  84 104 136 181 226 280 346
#     4  10  19  33  56  79 115 154 193 244 293 349
#     4  10  21  33  53  83 113 153 186 240 308 340
#     4  10  18  33  54  81 114 144 192 239 290 344
#     4  10  20  35  59  85 111 145 194 242 287 359
#     4  10  19  35  57  85 113 156 201 247 298 359
#     4   9  17  34  56  80 108 142 184 229 289 353
#
# _framework density 22.312169999999998
#
# number of rings (size 3 to 8) (size 9 to 14) (size 15 to 20)
#    0.000    2.500    1.250    1.125    0.000    2.000 
#    0.000    0.000    0.000   39.000    0.000    0.000 
#    0.000    0.000    0.000    0.000    0.000    0.000 
#
# Total GULP energy -89087.005098 kJ/mol
# GULP energy per Si atom -5567.937819 kJ/mol
# Density = 2.226139 g / cm^3
# Si number density = 22.312170 Si / 1000 Ang^3
#
#
#
# Elastic Constant Matrix: (Units=GPa)
#
#
# Indices 1 2 3 4 5 6 
#
# 1 65.5462 9.2634 21.5436 12.3715 -12.8542 7.0261
# 2 9.2634 33.6486 42.9665 6.4918 -1.0358 10.3409
# 3 21.5436 42.9665 182.0683 9.9102 -43.2101 8.9446
# 4 12.3715 6.4918 9.9102 20.9145 9.1817 -1.2331
# 5 -12.8542 -1.0358 -43.2101 9.1817 49.4508 3.8531
# 6 7.0261 10.3409 8.9446 -1.2331 3.8531 24.2160
#
#
#
# Elastic Compliance Matrix: (Units=1/GPa)
#
#
# Indices 1 2 3 4 5 6 
#
# 1 0.021646 -0.001876 0.002120 -0.018877 0.011652 -0.009078
# 2 -0.001876 0.052943 -0.013122 -0.006374 -0.008399 -0.016205
# 3 0.002120 -0.013122 0.011772 -0.008228 0.012225 -0.001724
# 4 -0.018877 -0.006374 -0.008228 0.078461 -0.028336 0.019742
# 5 0.011652 -0.008399 0.012225 -0.028336 0.039962 -0.012111
# 6 -0.009078 -0.016205 -0.001724 0.019742 -0.012111 0.054418
#
#
# Mechanical properties :
#
#
# Convention : Reuss Voigt Hill
#
# Bulk Modulus (GPa) = 16.50039 47.64556 32.07297
# Shear Modulus (GPa) = 16.38484 32.74887 24.56686
#
# Velocity S-wave (km/s) = 2.71282 3.83529 3.32181
# Velocity P-wave (km/s) = 4.15016 6.40414 5.39615
#
# Compressibility (1/GPa) = 0.06060465
#
# Stress axis : x y z
#
# Youngs Moduli (GPa) = 46.19817 18.88834 84.94632
#
# Poissons Ratio (x) = 0.03544 -0.18012
# Poissons Ratio (y) = 0.08668 1.11469
# Poissons Ratio (z) = -0.09796 0.24786
#
# Static dielectric constant tensor:
#      x y z
#    x 1.871930 -0.022230 -0.012740 
#    y -0.022230 1.865080 -0.000920 
#    z -0.012740 -0.000920 1.937250 
# 
# From -- ./inp_files/81269.got.cif
#   From: 2010.05.17/outbox.cif.g08.bks.cpg/sg2_41_cif.got.tgz:81269.got - 2010.06.03 11:33:40.
