data_PCOD9076738
_publ_section_title
;
Structure prediction by ZEFSAII (Michael W. Deem and Ramdas Pophale) SiO2 
 PCOD9076738
Probable space group: P -1
;
_chemical_formula_sum "Si O2"
_cell_formula_units_Z 14
_cell_length_a 11.294763
_cell_length_b 11.186568
_cell_length_c 9.800924
_cell_angle_alpha 112.594056
_cell_angle_beta 134.306796
_cell_angle_gamma 43.024411
_cell_volume 584.015322
_symmetry_space_group_name_H-M "P -1"
_symmetry_group_IT_number 2
_symmetry_cell_setting 'triclinic'
loop_
_space_group_symop_operation_xyz
x,y,z
-x,-y,-z
loop_
_atom_site_type_symbol
_atom_site_label
_atom_site_fract_x
_atom_site_fract_y
_atom_site_fract_z
Si Si1 0.281188 0.475898 0.101096
Si Si2 0.887032 0.946863 0.225151
Si Si3 0.936811 0.339339 0.284489
Si Si4 0.629237 0.792050 0.526844
Si Si5 0.240321 0.699616 0.627459
Si Si6 0.162459 0.939240 0.230692
Si Si7 0.215904 0.247236 0.058198
O O1 0.511860 0.427913 0.302804
O O2 0.305592 0.306275 0.052938
O O3 0.206029 0.562395 0.927102
O O4 0.063367 0.609631 0.087248
O O5 0.011512 0.818604 0.401518
O O6 0.097751 0.872332 0.263431
O O7 0.769838 0.148681 0.251075
O O8 0.722673 0.931956 0.014533
O O9 0.781807 0.397901 0.317626
O O10 0.143415 0.331642 0.438589
O O11 0.078684 0.125944 0.295825
O O12 0.430132 0.797239 0.344908
O O13 0.702696 0.752554 0.727070
O O14 0.500000 0.000000 0.500000
O O15 0.000000 0.000000 0.000000
#
# Coordination Sequence:
#
# PCOD9076738 Si02
#       7
#     2   2   2   2   2   2   2
#     4  10  20  37  57  80 113 153 188 231 281 333
#     4  10  21  37  56  85 113 144 193 236 279 332
#     4   9  19  35  54  79 113 151 186 224 282 340
#     4   9  17  32  56  82 110 142 181 237 280 319
#     4  10  21  37  58  82 117 151 185 235 283 333
#     4  10  18  33  59  87 110 139 188 240 281 325
#     4  10  21  37  58  84 112 147 193 234 278 332
#
# _framework density 23.971972000000001
#
# number of rings (size 3 to 8) (size 9 to 14) (size 15 to 20)
#    0.000    2.286    0.000    3.857    0.000    2.286 
#    0.000    7.857    0.000    3.429    0.000    0.000 
#    0.000    0.000    0.000    0.000    0.000    0.000 
#
# Total GULP energy -78172.734986 kJ/mol
# GULP energy per Si atom -5583.766785 kJ/mol
# Density = 2.391741 g / cm^3
# Si number density = 23.971972 Si / 1000 Ang^3
#
#
#
# Elastic Constant Matrix: (Units=GPa)
#
#
# Indices 1 2 3 4 5 6 
#
# 1 136.0361 29.4882 40.3585 0.2882 4.8708 20.3396
# 2 29.4882 51.7782 15.6982 3.4076 3.4536 7.6708
# 3 40.3585 15.6982 78.3164 3.5880 22.2027 0.6605
# 4 0.2882 3.4076 3.5880 23.5525 6.1327 0.5687
# 5 4.8708 3.4536 22.2027 6.1327 34.5166 -10.7336
# 6 20.3396 7.6708 0.6605 0.5687 -10.7336 36.8969
#
#
#
# Elastic Compliance Matrix: (Units=1/GPa)
#
#
# Indices 1 2 3 4 5 6 
#
# 1 0.010237 -0.003834 -0.004580 0.001188 0.000205 -0.004723
# 2 -0.003834 0.022808 -0.002263 -0.002669 -0.000663 -0.002740
# 3 -0.004580 -0.002263 0.018843 0.000542 -0.011567 -0.000715
# 4 0.001188 -0.002669 0.000542 0.045279 -0.009395 -0.003540
# 5 0.000205 -0.000663 -0.011567 -0.009395 0.042038 0.012606
# 6 -0.004723 -0.002740 -0.000715 -0.003540 0.012606 0.034010
#
#
# Mechanical properties :
#
#
# Convention : Reuss Voigt Hill
#
# Bulk Modulus (GPa) = 32.74870 48.58005 40.66438
# Shear Modulus (GPa) = 24.42042 31.03224 27.72633
#
# Velocity S-wave (km/s) = 3.19518 3.60185 3.40459
# Velocity P-wave (km/s) = 5.22524 6.13246 5.69694
#
# Compressibility (1/GPa) = 0.03053556
#
# Stress axis : x y z
#
# Youngs Moduli (GPa) = 97.68507 43.84359 53.07116
#
# Poissons Ratio (x) = 0.16809 0.24305
# Poissons Ratio (y) = 0.37450 0.12009
# Poissons Ratio (z) = 0.44737 0.09921
#
# Static dielectric constant tensor:
#      x y z
#    x 1.892160 -0.021690 0.023600 
#    y -0.021690 1.982300 0.025350 
#    z 0.023600 0.025350 1.952250 
# 
# From -- ./inp_files/423970.got.cif
#   From: 2010.05.17/outbox.cif.g08.bks.cpg/sg2_212_cif.got.tgz:423970.got - 2010.06.03 11:33:40.
