data_PCOD9076456
_publ_section_title
;
Structure prediction by ZEFSAII (Michael W. Deem and Ramdas Pophale) SiO2 
 PCOD9076456
Probable space group: P -1
;
_chemical_formula_sum "Si O2"
_cell_formula_units_Z 16
_cell_length_a 12.196772
_cell_length_b 10.480580
_cell_length_c 8.332133
_cell_angle_alpha 44.067207
_cell_angle_beta 61.203328
_cell_angle_gamma 64.999142
_cell_volume 644.028277
_symmetry_space_group_name_H-M "P -1"
_symmetry_group_IT_number 2
_symmetry_cell_setting 'triclinic'
loop_
_space_group_symop_operation_xyz
x,y,z
-x,-y,-z
loop_
_atom_site_type_symbol
_atom_site_label
_atom_site_fract_x
_atom_site_fract_y
_atom_site_fract_z
Si Si1 0.023490 0.739233 0.562042
Si Si2 0.977998 0.783714 0.212236
Si Si3 0.672411 0.705100 0.957555
Si Si4 0.209131 0.653595 0.984202
Si Si5 0.695703 0.441610 0.466327
Si Si6 0.035440 0.167941 0.155605
Si Si7 0.640169 0.055434 0.836744
Si Si8 0.609086 0.256116 0.979695
O O1 0.942992 0.736792 0.458547
O O2 0.153426 0.605787 0.587581
O O3 0.950015 0.718147 0.797227
O O4 0.061943 0.948181 0.353303
O O5 0.112101 0.659744 0.197734
O O6 0.905603 0.767118 0.110623
O O7 0.000000 0.000000 0.000000
O O8 0.653405 0.611956 0.228988
O O9 0.883953 0.216482 0.184345
O O10 0.711621 0.901842 0.809493
O O11 0.750382 0.542135 0.948572
O O12 0.362457 0.565405 0.308101
O O13 0.328489 0.736279 0.898865
O O14 0.647446 0.260628 0.580666
O O15 0.539529 0.747849 0.918759
O O16 0.500000 0.000000 0.000000
O O17 0.675050 0.089663 0.969021
#
# Coordination Sequence:
#
# PCOD9076456 Si02
#       8
#     2   2   2   2   2   2   2   2
#     4  10  14  28  48  74 103 130 175 218 253 322
#     4   8  14  25  41  69 102 127 165 214 254 309
#     4  11  19  32  52  75 107 132 175 226 254 313
#     4  10  17  29  49  76 102 137 171 217 269 305
#     4  10  17  31  55  74  96 137 179 205 259 315
#     4   8  17  25  44  81  99 127 178 218 256 313
#     4   8  19  33  50  73 103 137 177 216 259 316
#     4   9  19  31  49  72 103 136 172 208 264 314
#
# _framework density 24.843627000000001
#
# number of rings (size 3 to 8) (size 9 to 14) (size 15 to 20)
#    1.500    1.250    2.500    0.750    0.000    0.000 
#    0.000    0.000    2.750    3.000    0.000    0.875 
#    0.000    0.375    0.000    0.000    0.000    0.000 
#
# Total GULP energy -89167.624901 kJ/mol
# GULP energy per Si atom -5572.976556 kJ/mol
# Density = 2.478708 g / cm^3
# Si number density = 24.843627 Si / 1000 Ang^3
#
#
#
# Elastic Constant Matrix: (Units=GPa)
#
#
# Indices 1 2 3 4 5 6 
#
# 1 75.4864 46.1418 28.7751 -13.3047 16.1938 3.5810
# 2 46.1418 146.7406 23.0409 -8.4697 10.1162 11.0230
# 3 28.7751 23.0409 57.0096 7.7580 15.9386 21.5733
# 4 -13.3047 -8.4697 7.7580 45.6995 4.9490 5.7090
# 5 16.1938 10.1162 15.9386 4.9490 22.0143 1.9430
# 6 3.5810 11.0230 21.5733 5.7090 1.9430 44.3345
#
#
#
# Elastic Compliance Matrix: (Units=1/GPa)
#
#
# Indices 1 2 3 4 5 6 
#
# 1 0.023255 -0.004932 -0.009192 0.008129 -0.010297 0.003226
# 2 -0.004932 0.008575 -0.000458 0.000420 0.000063 -0.001568
# 3 -0.009192 -0.000458 0.032035 -0.005010 -0.013906 -0.013478
# 4 0.008129 0.000420 -0.005010 0.026246 -0.008328 -0.001338
# 5 -0.010297 0.000063 -0.013906 -0.008328 0.064396 0.005833
# 6 0.003226 -0.001568 -0.013478 -0.001338 0.005833 0.029160
#
#
# Mechanical properties :
#
#
# Convention : Reuss Voigt Hill
#
# Bulk Modulus (GPa) = 28.81777 52.79468 40.80622
# Shear Modulus (GPa) = 22.28172 34.49491 28.38832
#
# Velocity S-wave (km/s) = 2.99804 3.73028 3.38402
# Velocity P-wave (km/s) = 4.85893 6.31270 5.63291
#
# Compressibility (1/GPa) = 0.03470082
#
# Stress axis : x y z
#
# Youngs Moduli (GPa) = 43.00132 116.61495 31.21555
#
# Poissons Ratio (x) = 0.57518 0.28695
# Poissons Ratio (y) = 0.21210 0.01429
# Poissons Ratio (z) = 0.39529 0.05337
#
# Static dielectric constant tensor:
#      x y z
#    x 2.031570 0.019960 0.019190 
#    y 0.019960 2.003110 0.071460 
#    z 0.019190 0.071460 2.014550 
# 
# From -- ./inp_files/291869.got.cif
#   From: 2010.05.17/outbox.cif.g08.bks.cpg/sg2_146_cif.got.tgz:291869.got - 2010.06.03 11:33:40.
