data_PCOD9076663
_publ_section_title
;
Structure prediction by ZEFSAII (Michael W. Deem and Ramdas Pophale) SiO2 
 PCOD9076663
Probable space group: P -1
;
_chemical_formula_sum "Si O2"
_cell_formula_units_Z 15
_cell_length_a 11.827829
_cell_length_b 12.311682
_cell_length_c 8.073591
_cell_angle_alpha 59.866251
_cell_angle_beta 127.528032
_cell_angle_gamma 145.599531
_cell_volume 526.769469
_symmetry_space_group_name_H-M "P -1"
_symmetry_group_IT_number 2
_symmetry_cell_setting 'triclinic'
loop_
_space_group_symop_operation_xyz
x,y,z
-x,-y,-z
loop_
_atom_site_type_symbol
_atom_site_label
_atom_site_fract_x
_atom_site_fract_y
_atom_site_fract_z
Si Si1 0.107397 0.967001 0.237368
Si Si2 0.236469 0.854373 0.878033
Si Si3 0.500000 0.500000 0.500000
Si Si4 0.524152 0.387768 0.338793
Si Si5 0.778444 0.192374 0.745746
Si Si6 0.798859 0.878576 0.276285
Si Si7 0.629601 0.459784 0.015475
Si Si8 0.284420 0.750997 0.686734
O O1 0.363115 0.166327 0.341803
O O2 0.992444 0.924594 0.339714
O O3 0.089005 0.829020 0.216771
O O4 0.000000 0.000000 0.000000
O O5 0.169970 0.769380 0.698512
O O6 0.182229 0.962791 0.787677
O O7 0.153250 0.730931 0.065585
O O8 0.500000 0.000000 0.000000
O O9 0.644435 0.481812 0.544312
O O10 0.682594 0.728067 0.435034
O O11 0.648042 0.502775 0.193267
O O12 0.373224 0.420414 0.202043
O O13 0.783177 0.302378 0.525650
O O14 0.532950 0.970595 0.719639
O O15 0.619118 0.751617 0.067331
O O16 0.745186 0.404909 0.136885
#
# Coordination Sequence:
#
# PCOD9076663 Si02
#       8
#     2   2   1   2   2   2   2   2
#     4  12  20  38  66  91 123 161 204 259 319 369
#     4  10  18  33  58  87 122 156 207 261 296 360
#     4  10  26  38  56  92 128 158 206 252 308 378
#     4  10  21  36  60  89 122 160 202 252 311 364
#     4  10  20  33  55  95 118 159 206 252 309 363
#     4  11  21  39  61  92 123 159 202 258 319 365
#     4  10  18  38  60  86 119 163 204 251 302 364
#     4  10  19  34  57  86 126 161 211 252 297 371
#
# _framework density 28.475451
#
# number of rings (size 3 to 8) (size 9 to 14) (size 15 to 20)
#    0.000    1.600    6.667    0.000    1.867    1.600 
#    0.000    0.000    0.000    3.200    0.000    0.000 
#    0.000    0.000    0.000    0.000    0.000    0.000 
#
# Total GULP energy -83600.757570 kJ/mol
# GULP energy per Si atom -5573.383838 kJ/mol
# Density = 2.841064 g / cm^3
# Si number density = 28.475451 Si / 1000 Ang^3
#
#
#
# Elastic Constant Matrix: (Units=GPa)
#
#
# Indices 1 2 3 4 5 6 
#
# 1 183.9114 43.0344 47.3193 -11.5122 -36.3637 -9.1687
# 2 43.0344 59.3812 7.0923 -12.0265 -14.3844 -12.8462
# 3 47.3193 7.0923 89.8708 -9.1529 -32.6633 5.1038
# 4 -11.5122 -12.0265 -9.1529 47.3867 -6.6801 -8.0547
# 5 -36.3637 -14.3844 -32.6633 -6.6801 53.5373 -1.8271
# 6 -9.1687 -12.8462 5.1038 -8.0547 -1.8271 51.6477
#
#
#
# Elastic Compliance Matrix: (Units=1/GPa)
#
#
# Indices 1 2 3 4 5 6 
#
# 1 0.007759 -0.004371 -0.002801 0.000718 0.002502 0.000768
# 2 -0.004371 0.024182 0.003252 0.007728 0.006694 0.006359
# 3 -0.002801 0.003252 0.016262 0.004577 0.009455 -0.000247
# 4 0.000718 0.007728 0.004577 0.026395 0.008855 0.006027
# 5 0.002502 0.006694 0.009455 0.008855 0.029172 0.003588
# 6 0.000768 0.006359 -0.000247 0.006027 0.003588 0.022171
#
#
# Mechanical properties :
#
#
# Convention : Reuss Voigt Hill
#
# Bulk Modulus (GPa) = 24.77591 58.67282 41.72437
# Shear Modulus (GPa) = 33.95885 46.22884 40.09384
#
# Velocity S-wave (km/s) = 3.45710 4.03359 3.75642
# Velocity P-wave (km/s) = 4.96539 6.50712 5.78782
#
# Compressibility (1/GPa) = 0.04036178
#
# Stress axis : x y z
#
# Youngs Moduli (GPa) = 128.88456 41.35312 61.49306
#
# Poissons Ratio (x) = 0.18075 0.17226
# Poissons Ratio (y) = 0.56333 -0.19995
# Poissons Ratio (z) = 0.36105 -0.13447
#
# Static dielectric constant tensor:
#      x y z
#    x 2.124060 0.238870 0.439420 
#    y 0.238870 2.052520 -0.202410 
#    z 0.439420 -0.202410 1.865730 
# 
# From -- ./inp_files/302928.got.cif
#   From: 2010.05.17/outbox.cif.g08.bks.cpg/sg2_152_cif.got.tgz:302928.got - 2010.06.03 11:33:40.
