data_PCOD9076362
_publ_section_title
;
Structure prediction by ZEFSAII (Michael W. Deem and Ramdas Pophale) SiO2 
 PCOD9076362
Probable space group: P -1
;
_chemical_formula_sum "Si O2"
_cell_formula_units_Z 16
_cell_length_a 11.137541
_cell_length_b 23.801641
_cell_length_c 9.218422
_cell_angle_alpha 149.138345
_cell_angle_beta 56.623115
_cell_angle_gamma 143.510275
_cell_volume 662.335523
_symmetry_space_group_name_H-M "P -1"
_symmetry_group_IT_number 2
_symmetry_cell_setting 'triclinic'
loop_
_space_group_symop_operation_xyz
x,y,z
-x,-y,-z
loop_
_atom_site_type_symbol
_atom_site_label
_atom_site_fract_x
_atom_site_fract_y
_atom_site_fract_z
Si Si1 0.247349 0.250066 0.197675
Si Si2 0.725463 0.276095 0.916198
Si Si3 0.362968 0.005428 0.324574
Si Si4 0.042193 0.655493 0.824320
Si Si5 0.280805 0.513234 0.767254
Si Si6 0.565279 0.344687 0.408369
Si Si7 0.035166 0.083266 0.509848
Si Si8 0.493060 0.711869 0.347269
O O1 0.174506 0.332475 0.410474
O O2 0.459225 0.346282 0.159654
O O3 0.357179 0.294534 0.380050
O O4 0.046811 0.048730 0.851319
O O5 0.572823 0.127799 0.567693
O O6 0.889154 0.295505 0.942636
O O7 0.828258 0.445342 0.145569
O O8 0.571316 0.243930 0.072275
O O9 0.144948 0.926404 0.381476
O O10 0.422102 0.124481 0.421079
O O11 0.250596 0.822921 0.960465
O O12 0.000000 0.500000 0.500000
O O13 0.799100 0.552515 0.699459
O O14 0.308837 0.557501 0.015369
O O15 0.566655 0.309383 0.494255
O O16 0.302152 0.255922 0.709552
O O17 0.000000 0.000000 0.500000
#
# Coordination Sequence:
#
# PCOD9076362 Si02
#       8
#     2   2   2   2   2   2   2   2
#     4  10  18  33  55  81 118 152 183 226 275 344
#     4   9  18  39  58  81 108 153 199 234 270 336
#     4  10  19  38  60  81 108 153 196 228 273 346
#     4  10  22  37  61  82 109 149 197 234 282 336
#     4   9  18  33  56  80 115 151 186 226 277 335
#     4  10  21  37  54  88 122 143 184 241 285 327
#     4  10  18  33  55  82 109 150 187 220 274 348
#     4  10  21  35  56  87 121 146 186 230 288 334
#
# _framework density 24.156941
#
# number of rings (size 3 to 8) (size 9 to 14) (size 15 to 20)
#    0.000    2.250    5.000    0.375    1.750    6.000 
#    0.000    5.000    0.000    0.000    0.000    0.000 
#    0.000    0.000    0.000    0.000    0.000    0.000 
#
# Total GULP energy -89259.475654 kJ/mol
# GULP energy per Si atom -5578.717228 kJ/mol
# Density = 2.410196 g / cm^3
# Si number density = 24.156941 Si / 1000 Ang^3
#
#
#
# Elastic Constant Matrix: (Units=GPa)
#
#
# Indices 1 2 3 4 5 6 
#
# 1 82.4939 3.3854 18.2794 -4.2800 9.4406 -24.8274
# 2 3.3854 77.0516 18.7014 -19.9568 -0.1728 -21.3594
# 3 18.2794 18.7014 49.3130 -0.8139 3.1945 -18.9922
# 4 -4.2800 -19.9568 -0.8139 21.2302 -8.3584 8.0912
# 5 9.4406 -0.1728 3.1945 -8.3584 39.1063 -7.2655
# 6 -24.8274 -21.3594 -18.9922 8.0912 -7.2655 28.6248
#
#
#
# Elastic Compliance Matrix: (Units=1/GPa)
#
#
# Indices 1 2 3 4 5 6 
#
# 1 0.017595 0.004650 -0.001598 0.001032 -0.000679 0.017207
# 2 0.004650 0.022882 -0.005191 0.019420 0.006103 0.013723
# 3 -0.001598 -0.005191 0.029272 -0.011032 -0.001234 0.016967
# 4 0.001032 0.019420 -0.011032 0.074542 0.014960 -0.009206
# 5 -0.000679 0.006103 -0.001234 0.014960 0.030288 0.006605
# 6 0.017207 0.013723 0.016967 -0.009206 0.006605 0.075635
#
#
# Mechanical properties :
#
#
# Convention : Reuss Voigt Hill
#
# Bulk Modulus (GPa) = 15.27368 32.17675 23.72521
# Shear Modulus (GPa) = 18.09532 29.02509 23.56020
#
# Velocity S-wave (km/s) = 2.73989 3.47006 3.12636
# Velocity P-wave (km/s) = 4.04299 5.42253 4.78276
#
# Compressibility (1/GPa) = 0.06547212
#
# Stress axis : x y z
#
# Youngs Moduli (GPa) = 56.83370 43.70302 34.16215
#
# Poissons Ratio (x) = -0.20324 0.05459
# Poissons Ratio (y) = -0.26430 0.17734
# Poissons Ratio (z) = 0.09081 0.22687
#
# Static dielectric constant tensor:
#      x y z
#    x 2.054990 0.049000 -0.050990 
#    y 0.049000 1.987210 0.027520 
#    z -0.050990 0.027520 2.049700 
# 
# From -- ./inp_files/211881.got.cif
#   From: 2010.05.17/outbox.cif.g08.bks.cpg/sg2_106_cif.got.tgz:211881.got - 2010.06.03 11:33:40.
