data_PCOD9076259
_publ_section_title
;
Structure prediction by ZEFSAII (Michael W. Deem and Ramdas Pophale) SiO2 
 PCOD9076259
Probable space group: P -1
;
_chemical_formula_sum "Si O2"
_cell_formula_units_Z 16
_cell_length_a 11.563548
_cell_length_b 13.394569
_cell_length_c 10.618299
_cell_angle_alpha 52.481942
_cell_angle_beta 127.712627
_cell_angle_gamma 86.895092
_cell_volume 756.606815
_symmetry_space_group_name_H-M "P -1"
_symmetry_group_IT_number 2
_symmetry_cell_setting 'triclinic'
loop_
_space_group_symop_operation_xyz
x,y,z
-x,-y,-z
loop_
_atom_site_type_symbol
_atom_site_label
_atom_site_fract_x
_atom_site_fract_y
_atom_site_fract_z
Si Si1 0.635281 0.860713 0.590700
Si Si2 0.744755 0.738027 0.337514
Si Si3 0.273220 0.610963 0.044540
Si Si4 0.867810 0.960029 0.560137
Si Si5 0.677985 0.067460 0.098603
Si Si6 0.824079 0.537985 0.119598
Si Si7 0.535809 0.727265 0.425833
Si Si8 0.451030 0.658808 0.916441
O O1 0.738763 0.911441 0.543897
O O2 0.507141 0.842149 0.431725
O O3 0.500000 0.000000 0.500000
O O4 0.795051 0.677725 0.906962
O O5 0.710230 0.690823 0.486559
O O6 0.970911 0.578508 0.577338
O O7 0.721374 0.901074 0.208074
O O8 0.543556 0.810352 0.078429
O O9 0.397091 0.444435 0.342719
O O10 0.182864 0.575252 0.898307
O O11 0.413795 0.631262 0.054800
O O12 0.093221 0.783916 0.864115
O O13 0.840513 0.001265 0.361053
O O14 0.752174 0.145670 0.403982
O O15 0.644545 0.168948 0.873393
O O16 0.637115 0.633611 0.015409
O O17 0.500000 0.500000 0.000000
#
# Coordination Sequence:
#
# PCOD9076259 Si02
#       8
#     2   2   2   2   2   2   2   2
#     4  11  19  29  53  88 116 140 170 228 287 326
#     4   9  15  31  54  82 110 138 175 214 280 328
#     4  10  20  34  58  82 104 146 195 226 257 313
#     4  12  19  36  59  86 106 142 190 226 269 330
#     4   9  18  32  56  87 109 141 177 223 277 329
#     4  10  18  33  53  83 116 141 171 229 277 324
#     4   9  18  34  55  85 117 135 177 228 275 322
#     4  10  23  37  51  79 115 148 182 229 276 311
#
# _framework density 21.147048000000002
#
# number of rings (size 3 to 8) (size 9 to 14) (size 15 to 20)
#    0.750    1.250    3.750    1.125    0.000    2.000 
#    0.000    1.250    0.000    0.750    3.250    0.000 
#    0.000    0.000    0.000    0.000    0.000    0.000 
#
# Total GULP energy -89153.677043 kJ/mol
# GULP energy per Si atom -5572.104815 kJ/mol
# Density = 2.109892 g / cm^3
# Si number density = 21.147048 Si / 1000 Ang^3
#
#
#
# Elastic Constant Matrix: (Units=GPa)
#
#
# Indices 1 2 3 4 5 6 
#
# 1 78.8365 21.4191 50.5897 -9.4567 -21.0988 -0.3412
# 2 21.4191 76.1534 47.0864 -16.9580 1.3889 5.5489
# 3 50.5897 47.0864 110.7387 -12.5503 -14.8779 2.2504
# 4 -9.4567 -16.9580 -12.5503 34.7062 1.5800 -0.2779
# 5 -21.0988 1.3889 -14.8779 1.5800 38.3160 -9.3761
# 6 -0.3412 5.5489 2.2504 -0.2779 -9.3761 26.1760
#
#
#
# Elastic Compliance Matrix: (Units=1/GPa)
#
#
# Indices 1 2 3 4 5 6 
#
# 1 0.020636 -0.001264 -0.007484 0.001901 0.009556 0.004624
# 2 -0.001264 0.020620 -0.008123 0.007034 -0.006327 -0.005881
# 3 -0.007484 -0.008123 0.016223 -0.000259 0.002783 0.001224
# 4 0.001901 0.007034 -0.000259 0.032709 -0.001015 -0.001460
# 5 0.009556 -0.006327 0.002783 -0.001015 0.036182 0.014176
# 6 0.004624 -0.005881 0.001224 -0.001460 0.014176 0.044467
#
#
# Mechanical properties :
#
#
# Convention : Reuss Voigt Hill
#
# Bulk Modulus (GPa) = 42.13207 55.99099 49.06153
# Shear Modulus (GPa) = 23.53011 29.61518 26.57265
#
# Velocity S-wave (km/s) = 3.33932 3.74631 3.54865
# Velocity P-wave (km/s) = 5.90209 6.72663 6.32781
#
# Compressibility (1/GPa) = 0.02373489
#
# Stress axis : x y z
#
# Youngs Moduli (GPa) = 48.45824 48.49622 61.64004
#
# Poissons Ratio (x) = 0.06132 0.46134
# Poissons Ratio (y) = 0.06127 0.50073
# Poissons Ratio (z) = 0.36269 0.39396
#
# Static dielectric constant tensor:
#      x y z
#    x 1.772470 0.019960 0.000310 
#    y 0.019960 1.824470 -0.012060 
#    z 0.000310 -0.012060 1.749970 
# 
# From -- ./inp_files/432602.got.cif
#   From: 2010.05.17/outbox.cif.g08.bks.cpg/sg2_217_cif.got.tgz:432602.got - 2010.06.03 11:33:40.
