data_PCOD9076775
_publ_section_title
;
Structure prediction by ZEFSAII (Michael W. Deem and Ramdas Pophale) SiO2 
 PCOD9076775
Probable space group: P -1
;
_chemical_formula_sum "Si O2"
_cell_formula_units_Z 16
_cell_length_a 9.726428
_cell_length_b 8.428154
_cell_length_c 10.655514
_cell_angle_alpha 76.422463
_cell_angle_beta 61.906407
_cell_angle_gamma 74.932511
_cell_volume 737.587489
_symmetry_space_group_name_H-M "P -1"
_symmetry_group_IT_number 2
_symmetry_cell_setting 'triclinic'
loop_
_space_group_symop_operation_xyz
x,y,z
-x,-y,-z
loop_
_atom_site_type_symbol
_atom_site_label
_atom_site_fract_x
_atom_site_fract_y
_atom_site_fract_z
Si Si1 0.553309 0.316918 0.074200
Si Si2 0.132270 0.427026 0.353777
Si Si3 0.240101 0.261410 0.108328
Si Si4 0.649231 0.877557 0.406544
Si Si5 0.937709 0.889585 0.440213
Si Si6 0.753732 0.118157 0.824710
Si Si7 0.558038 0.574254 0.650136
Si Si8 0.435129 0.253291 0.783318
O O1 0.402349 0.231520 0.125282
O O2 0.567825 0.329949 0.214535
O O3 0.500000 0.500000 0.000000
O O4 0.700330 0.211758 0.959376
O O5 0.125247 0.406407 0.208750
O O6 0.144958 0.234563 0.419814
O O7 0.291241 0.489785 0.313039
O O8 0.000000 0.500000 0.500000
O O9 0.192722 0.080747 0.148746
O O10 0.303536 0.308619 0.936827
O O11 0.803951 0.940599 0.382361
O O12 0.626217 0.697068 0.504686
O O13 0.633984 0.857607 0.268240
O O14 0.500000 0.000000 0.500000
O O15 0.097058 0.816892 0.310958
O O16 0.000000 0.000000 0.500000
O O17 0.595332 0.157955 0.799079
O O18 0.489273 0.414386 0.666686
#
# Coordination Sequence:
#
# PCOD9076775 Si02
#       8
#     2   2   2   2   2   2   2   2
#     4  10  18  33  59  96 119 150 205 254 303 361
#     4  10  21  34  60  93 124 153 205 260 308 359
#     4  10  21  34  58  95 123 160 205 250 310 364
#     4  11  26  40  62  89 123 167 207 255 311 371
#     4  11  22  41  60  88 125 159 205 254 308 366
#     4  11  21  36  66  90 125 158 203 259 305 360
#     4  10  21  38  59  90 121 158 208 248 305 377
#     4  11  21  39  64  88 125 160 203 256 311 368
#
# _framework density 21.692342
#
# number of rings (size 3 to 8) (size 9 to 14) (size 15 to 20)
#    0.000    1.500    3.750    3.375    7.000    0.000 
#    0.000    0.625    0.000    3.750    0.000    0.000 
#    0.000    0.000    0.000    0.000    0.000    0.000 
#
# Total GULP energy -89092.624745 kJ/mol
# GULP energy per Si atom -5568.289047 kJ/mol
# Density = 2.164297 g / cm^3
# Si number density = 21.692342 Si / 1000 Ang^3
#
#
#
# Elastic Constant Matrix: (Units=GPa)
#
#
# Indices 1 2 3 4 5 6 
#
# 1 99.0304 22.6596 42.2492 23.2361 6.8000 23.8339
# 2 22.6596 60.6512 11.4333 9.3886 -4.8295 16.4783
# 3 42.2492 11.4333 127.0829 36.0292 -17.1476 4.3985
# 4 23.2361 9.3886 36.0292 49.9287 7.0502 0.1454
# 5 6.8000 -4.8295 -17.1476 7.0502 26.4859 4.1225
# 6 23.8339 16.4783 4.3985 0.1454 4.1225 26.9722
#
#
#
# Elastic Compliance Matrix: (Units=1/GPa)
#
#
# Indices 1 2 3 4 5 6 
#
# 1 0.016461 -0.001949 -0.004630 -0.003230 -0.004877 -0.011837
# 2 -0.001949 0.022260 0.002195 -0.006201 0.009762 -0.013693
# 3 -0.004630 0.002195 0.014030 -0.010307 0.013660 -0.001570
# 4 -0.003230 -0.006201 -0.010307 0.032549 -0.017319 0.010795
# 5 -0.004877 0.009762 0.013660 -0.017319 0.056168 -0.012374
# 6 -0.011837 -0.013693 -0.001570 0.010795 -0.012374 0.057990
#
#
# Mechanical properties :
#
#
# Convention : Reuss Voigt Hill
#
# Bulk Modulus (GPa) = 22.73673 48.82764 35.78218
# Shear Modulus (GPa) = 22.43290 34.70552 28.56921
#
# Velocity S-wave (km/s) = 3.21929 4.00421 3.63301
# Velocity P-wave (km/s) = 4.93180 6.62845 5.84204
#
# Compressibility (1/GPa) = 0.04398170
#
# Stress axis : x y z
#
# Youngs Moduli (GPa) = 60.75113 44.92387 71.27492
#
# Poissons Ratio (x) = 0.08758 0.32997
# Poissons Ratio (y) = 0.11843 -0.15642
# Poissons Ratio (z) = 0.28125 -0.09859
#
# Static dielectric constant tensor:
#      x y z
#    x 1.787890 -0.011980 0.040000 
#    y -0.011980 1.916130 0.027360 
#    z 0.040000 0.027360 1.905540 
# 
# From -- ./inp_files/379018.got.cif
#   From: 2010.05.17/outbox.cif.g08.bks.cpg/sg2_190_cif.got.tgz:379018.got - 2010.06.03 11:33:40.
