data_PCOD9076653
_publ_section_title
;
Structure prediction by ZEFSAII (Michael W. Deem and Ramdas Pophale) SiO2 
 PCOD9076653
Probable space group: P -1
;
_chemical_formula_sum "Si O2"
_cell_formula_units_Z 12
_cell_length_a 6.759897
_cell_length_b 12.342072
_cell_length_c 10.034247
_cell_angle_alpha 37.219656
_cell_angle_beta 86.092980
_cell_angle_gamma 99.753868
_cell_volume 469.218777
_symmetry_space_group_name_H-M "P -1"
_symmetry_group_IT_number 2
_symmetry_cell_setting 'triclinic'
loop_
_space_group_symop_operation_xyz
x,y,z
-x,-y,-z
loop_
_atom_site_type_symbol
_atom_site_label
_atom_site_fract_x
_atom_site_fract_y
_atom_site_fract_z
Si Si1 0.118516 0.809015 0.671421
Si Si2 0.657064 0.026068 0.246908
Si Si3 0.486077 0.322881 0.842271
Si Si4 0.683311 0.512046 0.084481
Si Si5 0.938596 0.045932 0.758773
Si Si6 0.646800 0.199218 0.723141
O O1 0.281590 0.964359 0.610819
O O2 0.221059 0.650703 0.790357
O O3 0.070404 0.893547 0.453700
O O4 0.570207 0.523152 0.219218
O O5 0.625640 0.225943 0.018373
O O6 0.450960 0.857204 0.364349
O O7 0.846094 0.989523 0.195738
O O8 0.255308 0.151952 0.006606
O O9 0.393520 0.641569 0.340306
O O10 0.104717 0.295394 0.137450
O O11 0.500000 0.500000 0.000000
O O12 0.887002 0.206440 0.690740
O O13 0.500000 0.000000 0.000000
#
# Coordination Sequence:
#
# PCOD9076653 Si02
#       6
#     2   2   2   2   2   2
#     4  11  23  36  57  87 110 149 187 222 286 328
#     4  10  18  33  58  87 109 142 178 231 284 314
#     4  10  21  37  59  87 110 146 187 228 274 327
#     4  11  23  40  55  78 118 151 184 228 273 336
#     4  10  20  36  56  87 118 134 187 236 270 332
#     4   8  20  34  55  89 111 142 182 229 281 319
#
# _framework density 25.574428000000001
#
# number of rings (size 3 to 8) (size 9 to 14) (size 15 to 20)
#    0.000    2.333    3.333    0.500    0.000   11.333 
#    0.000    0.833    0.000    2.000    0.000    0.000 
#    0.000    0.000    0.000    0.000    0.000    0.000 
#
# Total GULP energy -67028.644510 kJ/mol
# GULP energy per Si atom -5585.720376 kJ/mol
# Density = 2.551622 g / cm^3
# Si number density = 25.574428 Si / 1000 Ang^3
#
#
#
# Elastic Constant Matrix: (Units=GPa)
#
#
# Indices 1 2 3 4 5 6 
#
# 1 165.0507 40.5327 19.9316 -0.8655 -0.4392 -43.5254
# 2 40.5327 147.8434 31.4485 17.8995 4.7148 -48.4707
# 3 19.9316 31.4485 56.6531 17.5471 4.3772 -4.9631
# 4 -0.8655 17.8995 17.5471 36.6023 -13.2618 7.7224
# 5 -0.4392 4.7148 4.3772 -13.2618 29.0947 6.6498
# 6 -43.5254 -48.4707 -4.9631 7.7224 6.6498 57.5378
#
#
#
# Elastic Compliance Matrix: (Units=1/GPa)
#
#
# Indices 1 2 3 4 5 6 
#
# 1 0.007909 0.000696 -0.002048 -0.001253 -0.001803 0.006769
# 2 0.000696 0.013914 -0.001555 -0.013484 -0.011646 0.015269
# 3 -0.002048 -0.001555 0.025456 -0.016347 -0.011719 0.002885
# 4 -0.001253 -0.013484 -0.016347 0.061273 0.038588 -0.026400
# 5 -0.001803 -0.011646 -0.011719 0.038588 0.061167 -0.024434
# 6 0.006769 0.015269 0.002885 -0.026400 -0.024434 0.041979
#
#
# Mechanical properties :
#
#
# Convention : Reuss Voigt Hill
#
# Bulk Modulus (GPa) = 24.11732 61.48587 42.80160
# Shear Modulus (GPa) = 21.61381 43.15592 32.38487
#
# Velocity S-wave (km/s) = 2.91027 4.11233 3.56237
# Velocity P-wave (km/s) = 4.55452 6.82953 5.80457
#
# Compressibility (1/GPa) = 0.04146398
#
# Stress axis : x y z
#
# Youngs Moduli (GPa) = 126.44047 71.87168 39.28322
#
# Poissons Ratio (x) = -0.05000 0.08047
# Poissons Ratio (y) = -0.08797 0.06107
# Poissons Ratio (z) = 0.25900 0.11174
#
# Static dielectric constant tensor:
#      x y z
#    x 1.997220 -0.043880 0.033260 
#    y -0.043880 2.094550 0.046250 
#    z 0.033260 0.046250 2.101630 
# 
# From -- ./inp_files/258766.got.cif
#   From: 2010.05.17/outbox.cif.g08.bks.cpg/sg2_130_cif.got.tgz:258766.got - 2010.06.03 11:33:40.
