data_PCOD9076282
_publ_section_title
;
Structure prediction by ZEFSAII (Michael W. Deem and Ramdas Pophale) SiO2 
 PCOD9076282
Probable space group: P -1
;
_chemical_formula_sum "Si O2"
_cell_formula_units_Z 14
_cell_length_a 9.162311
_cell_length_b 8.956727
_cell_length_c 8.369317
_cell_angle_alpha 101.661147
_cell_angle_beta 76.129207
_cell_angle_gamma 63.880078
_cell_volume 560.165622
_symmetry_space_group_name_H-M "P -1"
_symmetry_group_IT_number 2
_symmetry_cell_setting 'triclinic'
loop_
_space_group_symop_operation_xyz
x,y,z
-x,-y,-z
loop_
_atom_site_type_symbol
_atom_site_label
_atom_site_fract_x
_atom_site_fract_y
_atom_site_fract_z
Si Si1 0.583127 0.698545 0.088956
Si Si2 0.579452 0.395969 0.178448
Si Si3 0.245798 0.990809 0.345558
Si Si4 0.921884 0.511655 0.794506
Si Si5 0.915412 0.364080 0.437270
Si Si6 0.063481 0.826626 0.148412
Si Si7 0.277251 0.839996 0.640833
O O1 0.540468 0.614772 0.928895
O O2 0.776696 0.652963 0.984378
O O3 0.557530 0.590775 0.218474
O O4 0.432116 0.902070 0.188483
O O5 0.566492 0.298057 0.317419
O O6 0.779493 0.270660 0.038216
O O7 0.146500 0.891205 0.280587
O O8 0.291781 0.944326 0.508977
O O9 0.108601 0.195011 0.390127
O O10 0.858944 0.498171 0.628635
O O11 0.975298 0.321919 0.810859
O O12 0.069711 0.554963 0.716800
O O13 0.791638 0.284662 0.436293
O O14 0.883040 0.999295 0.184105
#
# Coordination Sequence:
#
# PCOD9076282 Si02
#       7
#     2   2   2   2   2   2   2
#     4   9  20  36  50  75 104 142 166 204 264 310
#     4   9  19  31  54  77 106 133 171 214 257 299
#     4  10  18  33  54  78 106 129 173 215 250 298
#     4  10  18  35  55  73 105 143 169 199 256 320
#     4  10  20  32  55  80 102 137 170 212 252 303
#     4   9  16  33  52  76 105 136 168 209 255 306
#     4  11  18  31  53  87 101 126 175 223 249 290
#
# _framework density 24.992607
#
# number of rings (size 3 to 8) (size 9 to 14) (size 15 to 20)
#    0.000    2.286    2.857    2.143    0.000    1.143 
#    0.000    2.857    0.000    2.571    0.000    0.000 
#    0.000    0.000    0.000    0.000    0.000    0.000 
#
# Total GULP energy -78202.478841 kJ/mol
# GULP energy per Si atom -5585.891346 kJ/mol
# Density = 2.493572 g / cm^3
# Si number density = 24.992607 Si / 1000 Ang^3
#
#
#
# Elastic Constant Matrix: (Units=GPa)
#
#
# Indices 1 2 3 4 5 6 
#
# 1 29.5751 21.5937 19.0926 -2.2694 1.0699 0.7728
# 2 21.5937 85.5241 37.0396 -14.6002 -3.2524 -13.2650
# 3 19.0926 37.0396 58.2315 -3.5184 -17.8178 0.1248
# 4 -2.2694 -14.6002 -3.5184 49.7693 -7.1024 -5.6602
# 5 1.0699 -3.2524 -17.8178 -7.1024 25.4595 -4.9807
# 6 0.7728 -13.2650 0.1248 -5.6602 -4.9807 24.3908
#
#
#
# Elastic Compliance Matrix: (Units=1/GPa)
#
#
# Indices 1 2 3 4 5 6 
#
# 1 0.052547 -0.009142 -0.017772 -0.005712 -0.019736 -0.011901
# 2 -0.009142 0.021841 -0.010316 0.006937 0.000620 0.013957
# 3 -0.017772 -0.010316 0.037982 0.002801 0.026971 0.000916
# 4 -0.005712 0.006937 0.002801 0.025263 0.012553 0.012365
# 5 -0.019736 0.000620 0.026971 0.012553 0.065929 0.017201
# 6 -0.011901 0.013957 0.000916 0.012365 0.017201 0.055344
#
#
# Mechanical properties :
#
#
# Convention : Reuss Voigt Hill
#
# Bulk Modulus (GPa) = 26.37895 36.53138 31.45516
# Shear Modulus (GPa) = 14.45070 26.29757 20.37413
#
# Velocity S-wave (km/s) = 2.40719 3.24730 2.85828
# Velocity P-wave (km/s) = 4.27828 5.35804 4.84831
#
# Compressibility (1/GPa) = 0.03790902
#
# Stress axis : x y z
#
# Youngs Moduli (GPa) = 19.03069 45.78450 26.32842
#
# Poissons Ratio (x) = 0.41856 0.46791
# Poissons Ratio (y) = 0.17398 0.27161
# Poissons Ratio (z) = 0.33821 0.47233
#
# Static dielectric constant tensor:
#      x y z
#    x 1.993740 -0.008560 -0.007660 
#    y -0.008560 1.926980 -0.012860 
#    z -0.007660 -0.012860 2.043400 
# 
# From -- ./inp_files/169293.got.cif
#   From: 2010.05.17/outbox.cif.g08.bks.cpg/sg2_85_cif.got.tgz:169293.got - 2010.06.03 11:33:40.
