data_PCOD9076506
_publ_section_title
;
Structure prediction by ZEFSAII (Michael W. Deem and Ramdas Pophale) SiO2 
 PCOD9076506
Probable space group: P -1
;
_chemical_formula_sum "Si O2"
_cell_formula_units_Z 16
_cell_length_a 11.373658
_cell_length_b 16.248480
_cell_length_c 8.990529
_cell_angle_alpha 75.545784
_cell_angle_beta 47.950797
_cell_angle_gamma 39.012663
_cell_volume 633.036461
_symmetry_space_group_name_H-M "P -1"
_symmetry_group_IT_number 2
_symmetry_cell_setting 'triclinic'
loop_
_space_group_symop_operation_xyz
x,y,z
-x,-y,-z
loop_
_atom_site_type_symbol
_atom_site_label
_atom_site_fract_x
_atom_site_fract_y
_atom_site_fract_z
Si Si1 0.599623 0.231300 0.303362
Si Si2 0.068012 0.702986 0.272584
Si Si3 0.344842 0.449397 0.694048
Si Si4 0.139737 0.681767 0.575261
Si Si5 0.644952 0.007361 0.973115
Si Si6 0.754851 0.981232 0.229261
Si Si7 0.439157 0.389174 0.095441
Si Si8 0.345494 0.819967 0.243206
O O1 0.485235 0.345952 0.473385
O O2 0.397175 0.340182 0.281229
O O3 0.599429 0.130611 0.380085
O O4 0.931764 0.114941 0.038130
O O5 0.050621 0.709835 0.465651
O O6 0.139392 0.574360 0.218718
O O7 0.813514 0.872061 0.329004
O O8 0.353853 0.629029 0.011099
O O9 0.089547 0.624147 0.753331
O O10 0.516552 0.444343 0.646242
O O11 0.397541 0.340669 0.799223
O O12 0.986009 0.833275 0.714686
O O13 0.541691 0.144026 0.937547
O O14 0.616948 0.020635 0.167915
O O15 0.500000 0.000000 0.000000
O O16 0.656912 0.246988 0.856539
O O17 0.000000 0.000000 0.500000
#
# Coordination Sequence:
#
# PCOD9076506 Si02
#       8
#     2   2   2   2   2   2   2   2
#     4  10  18  33  56  92 122 148 203 263 305 359
#     4  10  20  32  57  90 125 157 200 257 313 362
#     4  11  22  33  64  95 126 154 204 269 312 359
#     4  11  22  38  56  95 129 163 202 256 319 362
#     4  12  26  44  62  88 131 170 208 254 315 382
#     4  10  21  34  59  86 119 165 199 252 309 368
#     4  10  19  32  53  89 130 154 192 254 323 360
#     4  12  22  39  63  95 121 163 212 260 303 366
#
# _framework density 25.275006000000001
#
# number of rings (size 3 to 8) (size 9 to 14) (size 15 to 20)
#    0.000    1.250    6.250    0.000    7.000    0.000 
#    0.000    1.250    0.000    1.500    0.000    0.000 
#    0.000    0.000    0.000    0.000    0.000    0.000 
#
# Total GULP energy -89135.547931 kJ/mol
# GULP energy per Si atom -5570.971746 kJ/mol
# Density = 2.521748 g / cm^3
# Si number density = 25.275006 Si / 1000 Ang^3
#
#
#
# Elastic Constant Matrix: (Units=GPa)
#
#
# Indices 1 2 3 4 5 6 
#
# 1 79.0086 51.4859 22.2837 1.5531 16.4194 -6.6107
# 2 51.4859 225.1313 34.8395 -25.5921 11.4985 0.7615
# 3 22.2837 34.8395 43.3760 -8.1733 22.6456 3.2588
# 4 1.5531 -25.5921 -8.1733 41.3572 4.7408 19.2192
# 5 16.4194 11.4985 22.6456 4.7408 31.0065 5.9727
# 6 -6.6107 0.7615 3.2588 19.2192 5.9727 34.6375
#
#
#
# Elastic Compliance Matrix: (Units=1/GPa)
#
#
# Indices 1 2 3 4 5 6 
#
# 1 0.019141 -0.004157 -0.006620 -0.008730 -0.004343 0.009960
# 2 -0.004157 0.006297 -0.002539 0.005141 0.001673 -0.003834
# 3 -0.006620 -0.002539 0.049031 0.016410 -0.032061 -0.009397
# 4 -0.008730 0.005141 0.016410 0.044272 -0.011032 -0.025986
# 5 -0.004343 0.001673 -0.032061 -0.011032 0.059414 -0.001973
# 6 0.009960 -0.003834 -0.009397 -0.025986 -0.001973 0.046499
#
#
# Mechanical properties :
#
#
# Convention : Reuss Voigt Hill
#
# Bulk Modulus (GPa) = 20.90455 62.74823 41.82639
# Shear Modulus (GPa) = 18.71031 37.32737 28.01884
#
# Velocity S-wave (km/s) = 2.72374 3.84715 3.33312
# Velocity P-wave (km/s) = 4.26386 6.67938 5.60333
#
# Compressibility (1/GPa) = 0.04783648
#
# Stress axis : x y z
#
# Youngs Moduli (GPa) = 52.24504 158.79490 20.39521
#
# Poissons Ratio (x) = 0.66013 0.13502
# Poissons Ratio (y) = 0.21719 0.05178
# Poissons Ratio (z) = 0.34587 0.40318
#
# Static dielectric constant tensor:
#      x y z
#    x 2.090220 -0.172670 -0.148590 
#    y -0.172670 2.323490 0.173420 
#    z -0.148590 0.173420 2.249680 
# 
# From -- ./inp_files/270152.got.cif
#   From: 2010.05.17/outbox.cif.g08.bks.cpg/sg2_136_cif.got.tgz:270152.got - 2010.06.03 11:33:40.
