data_PCOD9076879
_publ_section_title
;
Structure prediction by ZEFSAII (Michael W. Deem and Ramdas Pophale) SiO2 
 PCOD9076879
Probable space group: P -1
;
_chemical_formula_sum "Si O2"
_cell_formula_units_Z 16
_cell_length_a 8.859231
_cell_length_b 9.058171
_cell_length_c 17.880797
_cell_angle_alpha 43.313269
_cell_angle_beta 48.533763
_cell_angle_gamma 68.473664
_cell_volume 718.945077
_symmetry_space_group_name_H-M "P -1"
_symmetry_group_IT_number 2
_symmetry_cell_setting 'triclinic'
loop_
_space_group_symop_operation_xyz
x,y,z
-x,-y,-z
loop_
_atom_site_type_symbol
_atom_site_label
_atom_site_fract_x
_atom_site_fract_y
_atom_site_fract_z
Si Si1 0.238787 0.299373 0.083230
Si Si2 0.699099 0.999246 0.196839
Si Si3 0.029610 0.491054 0.293147
Si Si4 0.058413 0.418063 0.881055
Si Si5 0.692886 0.615170 0.444085
Si Si6 0.490851 0.368037 0.730838
Si Si7 0.613519 0.700618 0.793172
Si Si8 0.281026 0.877117 0.146535
O O1 0.042180 0.408951 0.104816
O O2 0.305667 0.279316 0.155029
O O3 0.190914 0.065081 0.145851
O O4 0.441464 0.472913 0.922757
O O5 0.759238 0.857127 0.297697
O O6 0.608664 0.829491 0.221910
O O7 0.514357 0.111444 0.243879
O O8 0.891355 0.186634 0.034092
O O9 0.935024 0.499369 0.238374
O O10 0.182428 0.324241 0.309194
O O11 0.162930 0.739545 0.168388
O O12 0.864657 0.477426 0.418393
O O13 0.291135 0.404095 0.828297
O O14 0.500000 0.500000 0.500000
O O15 0.607409 0.581843 0.567572
O O16 0.666222 0.292922 0.748117
O O17 0.500000 0.000000 0.000000
#
# Coordination Sequence:
#
# PCOD9076879 Si02
#       8
#     2   2   2   2   2   2   2   2
#     4   9  18  34  54  91 125 150 185 251 296 348
#     4  10  18  33  62  88 112 152 202 249 280 337
#     4  11  21  36  62  91 120 156 194 246 299 348
#     4  10  20  36  66  89 115 152 209 242 286 342
#     4  10  22  39  58  87 118 158 206 244 279 354
#     4  11  22  39  58  87 122 158 196 244 292 352
#     4   9  17  33  57  90 122 148 196 245 290 343
#     4  12  23  36  61  93 126 148 191 244 315 348
#
# _framework density 22.254829000000001
#
# number of rings (size 3 to 8) (size 9 to 14) (size 15 to 20)
#    0.000    1.750    5.000    1.875    1.750    0.500 
#    0.000    5.625    0.000    1.500    0.000    0.000 
#    0.000    0.000    0.000    0.000    0.000    0.000 
#
# Total GULP energy -89340.229629 kJ/mol
# GULP energy per Si atom -5583.764352 kJ/mol
# Density = 2.220418 g / cm^3
# Si number density = 22.254829 Si / 1000 Ang^3
#
#
#
# Elastic Constant Matrix: (Units=GPa)
#
#
# Indices 1 2 3 4 5 6 
#
# 1 49.2644 44.5789 16.0475 6.5094 0.0308 -14.0328
# 2 44.5789 113.0203 7.5376 16.7772 -7.5960 -39.0861
# 3 16.0475 7.5376 56.1933 16.0497 2.4907 -22.6816
# 4 6.5094 16.7772 16.0497 17.5709 -14.1815 -9.2191
# 5 0.0308 -7.5960 2.4907 -14.1815 32.4237 5.4516
# 6 -14.0328 -39.0861 -22.6816 -9.2191 5.4516 40.2870
#
#
#
# Elastic Compliance Matrix: (Units=1/GPa)
#
#
# Indices 1 2 3 4 5 6 
#
# 1 0.042607 -0.026291 -0.027884 0.036651 0.015344 -0.020054
# 2 -0.026291 0.036372 0.035326 -0.059618 -0.026285 0.035933
# 3 -0.027884 0.035326 0.073730 -0.107791 -0.052667 0.048531
# 4 0.036651 -0.059618 -0.107791 0.262851 0.119635 -0.061801
# 5 0.015344 -0.026285 -0.052667 0.119635 0.086787 -0.034175
# 6 -0.020054 0.035933 0.048531 -0.061801 -0.034175 0.070504
#
#
# Mechanical properties :
#
#
# Convention : Reuss Voigt Hill
#
# Bulk Modulus (GPa) = 8.69472 39.42288 24.05880
# Shear Modulus (GPa) = 7.70554 28.07724 17.89139
#
# Velocity S-wave (km/s) = 1.86277 3.55579 2.83845
# Velocity P-wave (km/s) = 2.92266 5.88311 4.64505
#
# Compressibility (1/GPa) = 0.11501227
#
# Stress axis : x y z
#
# Youngs Moduli (GPa) = 23.47033 27.49376 13.56299
#
# Poissons Ratio (x) = 0.72283 0.37818
# Poissons Ratio (y) = 0.61705 -0.47912
# Poissons Ratio (z) = 0.65444 -0.97124
#
# Static dielectric constant tensor:
#      x y z
#    x 2.010510 -0.077030 0.168890 
#    y -0.077030 1.852550 -0.019320 
#    z 0.168890 -0.019320 2.001460 
# 
# From -- ./inp_files/528416.got.cif
#   From: 2010.05.17/outbox.cif.g08.bks.cpg/sg2_265_cif.got.tgz:528416.got - 2010.06.03 11:33:40.
