data_PCOD9076436
_publ_section_title
;
Structure prediction by ZEFSAII (Michael W. Deem and Ramdas Pophale) SiO2 
 PCOD9076436
Probable space group: P -1
;
_chemical_formula_sum "Si O2"
_cell_formula_units_Z 14
_cell_length_a 11.245384
_cell_length_b 8.288609
_cell_length_c 13.749926
_cell_angle_alpha 84.962142
_cell_angle_beta 121.239118
_cell_angle_gamma 52.031648
_cell_volume 688.729735
_symmetry_space_group_name_H-M "P -1"
_symmetry_group_IT_number 2
_symmetry_cell_setting 'triclinic'
loop_
_space_group_symop_operation_xyz
x,y,z
-x,-y,-z
loop_
_atom_site_type_symbol
_atom_site_label
_atom_site_fract_x
_atom_site_fract_y
_atom_site_fract_z
Si Si1 0.990756 0.359416 0.576462
Si Si2 0.523978 0.728644 0.457886
Si Si3 0.075797 0.201867 0.959619
Si Si4 0.658199 0.000269 0.098668
Si Si5 0.647055 0.423488 0.713852
Si Si6 0.597472 0.184002 0.259239
Si Si7 0.723155 0.795465 0.780581
O O1 0.747548 0.538056 0.499296
O O2 0.000000 0.500000 0.500000
O O3 0.136954 0.259933 0.740024
O O4 0.141334 0.083568 0.606028
O O5 0.588108 0.618661 0.599965
O O6 0.381599 0.711330 0.352904
O O7 0.386520 0.015627 0.366686
O O8 0.246443 0.008897 0.957397
O O9 0.885749 0.239673 0.870633
O O10 0.936827 0.493590 0.864424
O O11 0.200063 0.134305 0.114827
O O12 0.554918 0.214657 0.123629
O O13 0.500000 0.000000 0.000000
O O14 0.480549 0.593280 0.724122
O O15 0.454903 0.160648 0.243104
#
# Coordination Sequence:
#
# PCOD9076436 Si02
#       7
#     2   2   2   2   2   2   2
#     4  10  19  33  54  83 108 137 180 227 274 310
#     4  11  21  37  54  81 112 148 180 226 267 327
#     4  10  19  36  55  81 107 144 181 228 275 321
#     4  10  18  33  56  80 104 140 173 228 271 321
#     4  10  22  36  55  78 113 149 184 214 274 328
#     4   9  19  33  55  81 105 139 180 226 265 319
#     4  10  20  33  57  82 106 138 188 230 269 318
#
# _framework density 20.327276999999999
#
# number of rings (size 3 to 8) (size 9 to 14) (size 15 to 20)
#    0.857    1.143    4.286    0.000    0.000    4.571 
#    0.000    0.000    0.000    0.857    0.000    0.000 
#    0.000    0.000    0.000    0.000    0.000    0.000 
#
# Total GULP energy -77995.533409 kJ/mol
# GULP energy per Si atom -5571.109529 kJ/mol
# Density = 2.028101 g / cm^3
# Si number density = 20.327277 Si / 1000 Ang^3
#
#
#
# Elastic Constant Matrix: (Units=GPa)
#
#
# Indices 1 2 3 4 5 6 
#
# 1 32.2218 9.1921 13.3004 -1.8783 -2.8025 -12.2559
# 2 9.1921 45.8666 2.1562 15.7005 -11.6401 -18.5194
# 3 13.3004 2.1562 79.7435 11.9458 -2.7848 13.4813
# 4 -1.8783 15.7005 11.9458 33.8028 -2.2488 -0.8411
# 5 -2.8025 -11.6401 -2.7848 -2.2488 26.9931 4.3877
# 6 -12.2559 -18.5194 13.4813 -0.8411 4.3877 26.7001
#
#
#
# Elastic Compliance Matrix: (Units=1/GPa)
#
#
# Indices 1 2 3 4 5 6 
#
# 1 0.049007 -0.000048 -0.014591 0.008611 -0.000630 0.030204
# 2 -0.000048 0.042222 -0.002936 -0.017082 0.011883 0.028255
# 3 -0.014591 -0.002936 0.019316 -0.006629 0.001745 -0.018983
# 4 0.008611 -0.017082 -0.006629 0.040046 -0.003376 -0.002732
# 5 -0.000630 0.011883 0.001745 -0.003376 0.041994 0.000065
# 6 0.030204 0.028255 -0.018983 -0.002732 0.000065 0.080403
#
#
# Mechanical properties :
#
#
# Convention : Reuss Voigt Hill
#
# Bulk Modulus (GPa) = 13.26352 23.01435 18.13893
# Shear Modulus (GPa) = 15.00290 26.37810 20.69050
#
# Velocity S-wave (km/s) = 2.71969 3.60623 3.19387
# Velocity P-wave (km/s) = 4.04987 5.35596 4.74804
#
# Compressibility (1/GPa) = 0.07539475
#
# Stress axis : x y z
#
# Youngs Moduli (GPa) = 20.40544 23.68456 51.76939
#
# Poissons Ratio (x) = 0.00113 0.75535
# Poissons Ratio (y) = 0.00098 0.15202
# Poissons Ratio (z) = 0.29773 0.06955
#
# Static dielectric constant tensor:
#      x y z
#    x 1.729310 0.000190 0.008920 
#    y 0.000190 1.751060 -0.002070 
#    z 0.008920 -0.002070 1.724150 
# 
# From -- ./inp_files/193056.got.cif
#   From: 2010.05.17/outbox.cif.g08.bks.cpg/sg2_97_cif.got.tgz:193056.got - 2010.06.03 11:33:40.
