data_PCOD9076139
_publ_section_title
;
Structure prediction by ZEFSAII (Michael W. Deem and Ramdas Pophale) SiO2 
 PCOD9076139
Probable space group: P -1
;
_chemical_formula_sum "Si O2"
_cell_formula_units_Z 16
_cell_length_a 7.223319
_cell_length_b 15.710798
_cell_length_c 7.431168
_cell_angle_alpha 82.854407
_cell_angle_beta 107.952271
_cell_angle_gamma 133.105542
_cell_volume 581.195958
_symmetry_space_group_name_H-M "P -1"
_symmetry_group_IT_number 2
_symmetry_cell_setting 'triclinic'
loop_
_space_group_symop_operation_xyz
x,y,z
-x,-y,-z
loop_
_atom_site_type_symbol
_atom_site_label
_atom_site_fract_x
_atom_site_fract_y
_atom_site_fract_z
Si Si1 0.244985 0.726365 0.071636
Si Si2 0.059991 0.647494 0.387158
Si Si3 0.359176 0.566926 0.416243
Si Si4 0.471154 0.869745 0.656154
Si Si5 0.587553 0.723048 0.931949
Si Si6 0.235750 0.369576 0.230767
Si Si7 0.873810 0.055146 0.983972
Si Si8 0.254064 0.027435 0.652122
O O1 0.004050 0.654654 0.163512
O O2 0.505618 0.849758 0.202346
O O3 0.363432 0.677365 0.023605
O O4 0.588122 0.964545 0.826418
O O5 0.281532 0.642185 0.393159
O O6 0.189782 0.762687 0.508742
O O7 0.841663 0.536734 0.471093
O O8 0.308443 0.492099 0.246853
O O9 0.658454 0.641928 0.549950
O O10 0.551301 0.795199 0.766701
O O11 0.618684 0.955442 0.505295
O O12 0.081914 0.728056 0.868241
O O13 0.587671 0.633464 0.853524
O O14 0.893677 0.818376 0.067200
O O15 0.857731 0.062099 0.191684
O O16 0.000000 0.000000 0.000000
O O17 0.000000 0.000000 0.500000
#
# Coordination Sequence:
#
# PCOD9076139 Si02
#       8
#     2   2   2   2   2   2   2   2
#     4  11  24  40  67  98 131 168 224 270 325 396
#     4  10  22  42  72  93 124 180 215 271 336 389
#     4  10  23  45  66  92 129 171 225 270 335 393
#     4  10  18  34  64  95 125 168 222 264 317 393
#     4  11  20  41  65  92 132 176 208 266 330 388
#     4  11  25  43  64  97 131 168 221 275 329 391
#     4  10  18  32  64  94 123 172 213 261 318 391
#     4  11  18  33  63  97 126 172 221 263 320 389
#
# _framework density 27.529440000000001
#
# number of rings (size 3 to 8) (size 9 to 14) (size 15 to 20)
#    0.000    1.500    6.250    0.750    1.750    1.000 
#    4.500    0.625    0.000    3.750    0.000    0.000 
#    0.000    0.000    0.000    0.000    0.000    0.000 
#
# Total GULP energy -89147.867960 kJ/mol
# GULP energy per Si atom -5571.741747 kJ/mol
# Density = 2.746678 g / cm^3
# Si number density = 27.529440 Si / 1000 Ang^3
#
#
#
# Elastic Constant Matrix: (Units=GPa)
#
#
# Indices 1 2 3 4 5 6 
#
# 1 142.6794 18.9958 38.3249 6.6956 -11.5826 -3.2651
# 2 18.9958 52.1290 30.7348 9.2458 -0.0387 11.3525
# 3 38.3249 30.7348 155.3404 9.2055 -20.5646 4.0042
# 4 6.6956 9.2458 9.2055 50.2517 13.1971 2.6680
# 5 -11.5826 -0.0387 -20.5646 13.1971 35.3682 8.0232
# 6 -3.2651 11.3525 4.0042 2.6680 8.0232 37.8668
#
#
#
# Elastic Compliance Matrix: (Units=1/GPa)
#
#
# Indices 1 2 3 4 5 6 
#
# 1 0.007862 -0.002218 -0.001207 -0.001000 0.001990 0.001119
# 2 -0.002218 0.024337 -0.003960 -0.003007 -0.000341 -0.006785
# 3 -0.001207 -0.003960 0.008375 -0.002022 0.005407 -0.000806
# 4 -0.001000 -0.003007 -0.002022 0.023684 -0.010714 0.001630
# 5 0.001990 -0.000341 0.005407 -0.010714 0.037779 -0.007548
# 6 0.001119 -0.006785 -0.000806 0.001630 -0.007548 0.030108
#
#
# Mechanical properties :
#
#
# Convention : Reuss Voigt Hill
#
# Bulk Modulus (GPa) = 38.75381 58.47330 48.61356
# Shear Modulus (GPa) = 32.15064 42.17022 37.16043
#
# Velocity S-wave (km/s) = 3.42111 3.91810 3.67801
# Velocity P-wave (km/s) = 5.45097 6.46181 5.97780
#
# Compressibility (1/GPa) = 0.02580391
#
# Stress axis : x y z
#
# Youngs Moduli (GPa) = 127.18813 41.08991 119.39987
#
# Poissons Ratio (x) = 0.09115 0.14412
# Poissons Ratio (y) = 0.28214 0.47282
# Poissons Ratio (z) = 0.15352 0.16271
#
# Static dielectric constant tensor:
#      x y z
#    x 2.239830 -0.054370 0.082310 
#    y -0.054370 2.169040 -0.023540 
#    z 0.082310 -0.023540 2.277560 
# 
# From -- ./inp_files/220875.got.cif
#   From: 2010.05.17/outbox.cif.g08.bks.cpg/sg2_111_cif.got.tgz:220875.got - 2010.06.03 11:33:40.
