data_PCOD9076700
_publ_section_title
;
Structure prediction by ZEFSAII (Michael W. Deem and Ramdas Pophale) SiO2 
 PCOD9076700
Probable space group: P -1
;
_chemical_formula_sum "Si O2"
_cell_formula_units_Z 16
_cell_length_a 8.088337
_cell_length_b 5.183446
_cell_length_c 18.350760
_cell_angle_alpha 117.610029
_cell_angle_beta 75.948775
_cell_angle_gamma 84.145011
_cell_volume 640.424896
_symmetry_space_group_name_H-M "P -1"
_symmetry_group_IT_number 2
_symmetry_cell_setting 'triclinic'
loop_
_space_group_symop_operation_xyz
x,y,z
-x,-y,-z
loop_
_atom_site_type_symbol
_atom_site_label
_atom_site_fract_x
_atom_site_fract_y
_atom_site_fract_z
Si Si1 0.852541 0.809186 0.059555
Si Si2 0.902414 0.739324 0.885019
Si Si3 0.352655 0.350229 0.394195
Si Si4 0.787547 0.612569 0.733611
Si Si5 0.748418 0.778857 0.214796
Si Si6 0.045826 0.063946 0.421100
Si Si7 0.444602 0.204456 0.621656
Si Si8 0.161651 0.673682 0.650972
O O1 0.714455 0.779708 0.132524
O O2 0.800159 0.845410 0.985451
O O3 0.960991 0.047040 0.105059
O O4 0.000000 0.500000 0.000000
O O5 0.766639 0.722294 0.832968
O O6 0.048509 0.417246 0.824842
O O7 0.353234 0.244622 0.294726
O O8 0.163865 0.304271 0.432335
O O9 0.409038 0.657438 0.414653
O O10 0.476895 0.141992 0.412782
O O11 0.969006 0.696446 0.704778
O O12 0.839990 0.250012 0.667982
O O13 0.623743 0.672915 0.273127
O O14 0.748854 0.112096 0.283956
O O15 0.873256 0.189153 0.407198
O O16 0.000000 0.000000 0.500000
O O17 0.276011 0.337256 0.606757
#
# Coordination Sequence:
#
# PCOD9076700 Si02
#       8
#     2   2   2   2   2   2   2   2
#     4   9  19  30  53  97 136 163 208 281 319 369
#     4  10  18  33  58  98 130 165 219 273 322 377
#     4  11  26  41  66  97 134 175 217 269 334 395
#     4  11  21  41  68  97 130 175 223 269 326 396
#     4  11  18  34  63  96 129 170 216 268 326 377
#     4  11  25  47  70  98 132 171 219 277 333 390
#     4  12  22  42  65  99 133 172 224 266 325 400
#     4  11  21  37  72  96 126 170 228 266 323 391
#
# _framework density 24.983415999999998
#
# number of rings (size 3 to 8) (size 9 to 14) (size 15 to 20)
#    0.000    1.250    6.250    0.000    0.000    2.000 
#    0.000    1.250    0.000    1.500    0.000    0.000 
#    0.000    0.000    0.000    0.000    0.000    0.000 
#
# Total GULP energy -89314.957132 kJ/mol
# GULP energy per Si atom -5582.184821 kJ/mol
# Density = 2.492655 g / cm^3
# Si number density = 24.983416 Si / 1000 Ang^3
#
#
#
# Elastic Constant Matrix: (Units=GPa)
#
#
# Indices 1 2 3 4 5 6 
#
# 1 60.6856 31.6705 24.9555 -13.3438 -4.2625 0.3477
# 2 31.6705 157.5309 58.3919 -18.7570 6.6994 4.8598
# 3 24.9555 58.3919 171.3153 -37.7776 5.6734 1.2003
# 4 -13.3438 -18.7570 -37.7776 50.2735 4.1996 1.7917
# 5 -4.2625 6.6994 5.6734 4.1996 35.8216 -17.7336
# 6 0.3477 4.8598 1.2003 1.7917 -17.7336 48.2724
#
#
#
# Elastic Compliance Matrix: (Units=1/GPa)
#
#
# Indices 1 2 3 4 5 6 
#
# 1 0.019566 -0.003349 -0.001251 0.002656 0.003551 0.001433
# 2 -0.003349 0.008011 -0.001946 0.000910 -0.002537 -0.001700
# 3 -0.001251 -0.001946 0.007877 0.005070 -0.002097 -0.000949
# 4 0.002656 0.000910 0.005070 0.025284 -0.005137 -0.003063
# 5 0.003551 -0.002537 -0.002097 -0.005137 0.036646 0.013935
# 6 0.001433 -0.001700 -0.000949 -0.003063 0.013935 0.026133
#
#
# Mechanical properties :
#
#
# Convention : Reuss Voigt Hill
#
# Bulk Modulus (GPa) = 44.71768 68.84083 56.77926
# Shear Modulus (GPa) = 34.70731 45.17442 39.94087
#
# Velocity S-wave (km/s) = 3.73126 4.25688 4.00271
# Velocity P-wave (km/s) = 6.04159 7.19554 6.64367
#
# Compressibility (1/GPa) = 0.02236252
#
# Stress axis : x y z
#
# Youngs Moduli (GPa) = 51.11007 124.82360 126.95578
#
# Poissons Ratio (x) = 0.41802 0.15876
# Poissons Ratio (y) = 0.17116 0.24707
# Poissons Ratio (z) = 0.06391 0.24293
#
# Static dielectric constant tensor:
#      x y z
#    x 1.999370 -0.030200 -0.018550 
#    y -0.030200 2.128070 0.031250 
#    z -0.018550 0.031250 2.152090 
# 
# From -- ./inp_files/553041.got.cif
#   From: 2010.05.17/outbox.cif.g08.bks.cpg/sg2_277_cif.got.tgz:553041.got - 2010.06.03 11:33:40.
