data_PCOD9076592
_publ_section_title
;
Structure prediction by ZEFSAII (Michael W. Deem and Ramdas Pophale) SiO2 
 PCOD9076592
Probable space group: P -1
;
_chemical_formula_sum "Si O2"
_cell_formula_units_Z 14
_cell_length_a 8.460902
_cell_length_b 9.035930
_cell_length_c 9.261304
_cell_angle_alpha 63.755182
_cell_angle_beta 79.581710
_cell_angle_gamma 53.634353
_cell_volume 508.122627
_symmetry_space_group_name_H-M "P -1"
_symmetry_group_IT_number 2
_symmetry_cell_setting 'triclinic'
loop_
_space_group_symop_operation_xyz
x,y,z
-x,-y,-z
loop_
_atom_site_type_symbol
_atom_site_label
_atom_site_fract_x
_atom_site_fract_y
_atom_site_fract_z
Si Si1 0.247151 0.778252 0.421793
Si Si2 0.541635 0.754255 0.898779
Si Si3 0.778637 0.163004 0.907187
Si Si4 0.570665 0.859526 0.404772
Si Si5 0.151184 0.236852 0.978336
Si Si6 0.147932 0.429587 0.316519
Si Si7 0.950399 0.242723 0.286436
O O1 0.251508 0.709115 0.286193
O O2 0.419050 0.807082 0.408988
O O3 0.233632 0.671062 0.612060
O O4 0.042911 0.005833 0.351994
O O5 0.668248 0.629468 0.791446
O O6 0.428850 0.992026 0.772300
O O7 0.380302 0.719469 0.991939
O O8 0.698181 0.713920 0.013819
O O9 0.731456 0.003799 0.933545
O O10 0.000000 0.000000 0.000000
O O11 0.773297 0.645972 0.503855
O O12 0.500000 0.000000 0.500000
O O13 0.034923 0.352998 0.802848
O O14 0.978746 0.306997 0.096672
O O15 0.092090 0.277591 0.339325
#
# Coordination Sequence:
#
# PCOD9076592 Si02
#       7
#     2   2   2   2   2   2   2
#     4  10  19  33  55  87 117 148 196 243 285 337
#     4  10  19  37  63  84 117 153 202 235 289 353
#     4  11  24  38  60  87 118 159 201 239 288 356
#     4  10  18  33  57  92 112 150 199 240 282 347
#     4  10  20  39  60  89 116 156 194 247 295 342
#     4  10  20  35  63  91 116 147 201 248 294 338
#     4   9  17  32  58  84 115 147 190 245 291 333
#
# _framework density 27.552403000000002
#
# number of rings (size 3 to 8) (size 9 to 14) (size 15 to 20)
#    0.000    2.000    5.714    2.143    2.000    3.429 
#    0.000    5.000    0.000    4.286    0.000    0.000 
#    0.000    0.000    0.000    0.000    0.000    0.000 
#
# Total GULP energy -78240.834411 kJ/mol
# GULP energy per Si atom -5588.631029 kJ/mol
# Density = 2.748969 g / cm^3
# Si number density = 27.552403 Si / 1000 Ang^3
#
#
#
# Elastic Constant Matrix: (Units=GPa)
#
#
# Indices 1 2 3 4 5 6 
#
# 1 85.6908 17.7814 72.6976 11.6803 -9.3576 -5.0253
# 2 17.7814 80.9445 24.0378 -12.7755 -3.2812 -17.3278
# 3 72.6976 24.0378 189.5065 1.1064 -11.8571 -30.3689
# 4 11.6803 -12.7755 1.1064 47.0810 -11.7591 -0.1716
# 5 -9.3576 -3.2812 -11.8571 -11.7591 51.6725 1.9911
# 6 -5.0253 -17.3278 -30.3689 -0.1716 1.9911 25.2133
#
#
#
# Elastic Compliance Matrix: (Units=1/GPa)
#
#
# Indices 1 2 3 4 5 6 
#
# 1 0.020404 -0.004973 -0.008730 -0.006153 0.000359 -0.009937
# 2 -0.004973 0.016615 0.001880 0.006117 0.001492 0.012615
# 3 -0.008730 0.001880 0.010355 0.002746 0.001079 0.011958
# 4 -0.006153 0.006117 0.002746 0.025766 0.005536 0.006022
# 5 0.000359 0.001492 0.001079 0.005536 0.020990 0.000776
# 6 -0.009937 0.012615 0.011958 0.006022 0.000776 0.060733
#
#
# Mechanical properties :
#
#
# Convention : Reuss Voigt Hill
#
# Bulk Modulus (GPa) = 42.14884 65.01949 53.58417
# Shear Modulus (GPa) = 26.82120 40.90168 33.86144
#
# Velocity S-wave (km/s) = 3.12342 3.85711 3.50949
# Velocity P-wave (km/s) = 5.32340 6.59440 5.99269
#
# Compressibility (1/GPa) = 0.02372545
#
# Stress axis : x y z
#
# Youngs Moduli (GPa) = 49.01117 60.18714 96.56916
#
# Poissons Ratio (x) = 0.29933 0.84308
# Poissons Ratio (y) = 0.24375 -0.18151
# Poissons Ratio (z) = 0.42788 -0.11312
#
# Static dielectric constant tensor:
#      x y z
#    x 2.119340 -0.004440 -0.028030 
#    y -0.004440 2.221390 0.027800 
#    z -0.028030 0.027800 2.209440 
# 
# From -- ./inp_files/185022.got.cif
#   From: 2010.05.17/outbox.cif.g08.bks.cpg/sg2_93_cif.got.tgz:185022.got - 2010.06.03 11:33:40.
