data_PCOD9076870
_publ_section_title
;
Structure prediction by ZEFSAII (Michael W. Deem and Ramdas Pophale) SiO2 
 PCOD9076870
Probable space group: P -1
;
_chemical_formula_sum "Si O2"
_cell_formula_units_Z 16
_cell_length_a 12.264420
_cell_length_b 21.689341
_cell_length_c 9.150431
_cell_angle_alpha 113.694575
_cell_angle_beta 96.163769
_cell_angle_gamma 27.286423
_cell_volume 821.260199
_symmetry_space_group_name_H-M "P -1"
_symmetry_group_IT_number 2
_symmetry_cell_setting 'triclinic'
loop_
_space_group_symop_operation_xyz
x,y,z
-x,-y,-z
loop_
_atom_site_type_symbol
_atom_site_label
_atom_site_fract_x
_atom_site_fract_y
_atom_site_fract_z
Si Si1 0.130172 0.461220 0.781385
Si Si2 0.753760 0.502828 0.420773
Si Si3 0.880306 0.083239 0.224730
Si Si4 0.891691 0.668555 0.412997
Si Si5 0.715928 0.066759 0.636503
Si Si6 0.785974 0.853846 0.004880
Si Si7 0.706162 0.805773 0.213362
Si Si8 0.756405 0.009914 0.276397
O O1 0.177008 0.469637 0.639370
O O2 0.965372 0.483718 0.763324
O O3 0.437966 0.267903 0.722370
O O4 0.941026 0.620569 0.999609
O O5 0.407314 0.704661 0.598774
O O6 0.916109 0.409015 0.509309
O O7 0.919236 0.350692 0.207395
O O8 0.790999 0.061046 0.252071
O O9 0.116252 0.983488 0.271354
O O10 0.000000 0.000000 0.000000
O O11 0.816165 0.756917 0.346825
O O12 0.584272 0.817721 0.580454
O O13 0.587627 0.071879 0.695539
O O14 0.886930 0.945944 0.398239
O O15 0.696366 0.873743 0.168490
O O16 0.862085 0.888331 0.075384
O O17 0.500000 0.000000 0.000000
#
# Coordination Sequence:
#
# PCOD9076870 Si02
#       8
#     2   2   2   2   2   2   2   2
#     4   9  18  33  62  89 122 154 204 266 311 355
#     4  11  22  38  60  93 126 162 210 251 317 359
#     4  12  27  39  65  92 126 169 212 256 303 371
#     4  10  18  33  61  93 123 150 203 269 303 363
#     4  10  21  40  63  91 129 160 210 255 303 375
#     4  11  23  41  67  93 128 162 200 265 315 378
#     4   9  21  35  62  95 122 156 207 254 327 355
#     4  10  22  43  63  92 121 168 204 255 320 358
#
# _framework density 19.482254000000001
#
# number of rings (size 3 to 8) (size 9 to 14) (size 15 to 20)
#    0.000    2.000    3.750    2.250    5.250    2.000 
#    0.000    1.250    0.000    0.000    0.000    0.000 
#    0.000    0.000    0.000    0.000    0.000    0.000 
#
# Total GULP energy -89187.749005 kJ/mol
# GULP energy per Si atom -5574.234313 kJ/mol
# Density = 1.943791 g / cm^3
# Si number density = 19.482254 Si / 1000 Ang^3
#
#
#
# Elastic Constant Matrix: (Units=GPa)
#
#
# Indices 1 2 3 4 5 6 
#
# 1 62.7974 37.9220 32.0552 -7.4514 15.5644 -0.4072
# 2 37.9220 65.9684 43.0331 -17.5971 4.6641 -3.5782
# 3 32.0552 43.0331 106.1054 -6.9252 8.6655 -5.2282
# 4 -7.4514 -17.5971 -6.9252 28.2099 4.6043 5.3936
# 5 15.5644 4.6641 8.6655 4.6043 32.2132 -6.3209
# 6 -0.4072 -3.5782 -5.2282 5.3936 -6.3209 13.0759
#
#
#
# Elastic Compliance Matrix: (Units=1/GPa)
#
#
# Indices 1 2 3 4 5 6 
#
# 1 0.029639 -0.014340 -0.002365 0.002978 -0.014417 -0.012144
# 2 -0.014340 0.032121 -0.007976 0.013720 0.002611 0.000757
# 3 -0.002365 -0.007976 0.013383 -0.003158 0.000013 0.004404
# 4 0.002978 0.013720 -0.003158 0.051414 -0.015002 -0.025875
# 5 -0.014417 0.002611 0.000013 -0.015002 0.045340 0.028376
# 6 -0.012144 0.000757 0.004404 -0.025875 0.028376 0.102456
#
#
# Mechanical properties :
#
#
# Convention : Reuss Voigt Hill
#
# Bulk Modulus (GPa) = 38.78620 51.21020 44.99820
# Shear Modulus (GPa) = 15.04622 22.82386 18.93504
#
# Velocity S-wave (km/s) = 2.78205 3.42646 3.12093
# Velocity P-wave (km/s) = 5.50195 6.48049 6.01117
#
# Compressibility (1/GPa) = 0.02578236
#
# Stress axis : x y z
#
# Youngs Moduli (GPa) = 33.73937 31.13187 74.71917
#
# Poissons Ratio (x) = 0.44645 0.17669
# Poissons Ratio (y) = 0.48384 0.59593
# Poissons Ratio (z) = 0.07978 0.24829
#
# Static dielectric constant tensor:
#      x y z
#    x 1.681350 0.019010 0.026300 
#    y 0.019010 1.690980 0.013390 
#    z 0.026300 0.013390 1.777210 
# 
# From -- ./inp_files/282098.got.cif
#   From: 2010.05.17/outbox.cif.g08.bks.cpg/sg2_142_cif.got.tgz:282098.got - 2010.06.03 11:33:40.
