data_PCOD9076786
_publ_section_title
;
Structure prediction by ZEFSAII (Michael W. Deem and Ramdas Pophale) SiO2 
 PCOD9076786
Probable space group: P -1
;
_chemical_formula_sum "Si O2"
_cell_formula_units_Z 12
_cell_length_a 7.405165
_cell_length_b 17.947961
_cell_length_c 6.745552
_cell_angle_alpha 33.888012
_cell_angle_beta 59.240146
_cell_angle_gamma 74.373441
_cell_volume 406.399758
_symmetry_space_group_name_H-M "P -1"
_symmetry_group_IT_number 2
_symmetry_cell_setting 'triclinic'
loop_
_space_group_symop_operation_xyz
x,y,z
-x,-y,-z
loop_
_atom_site_type_symbol
_atom_site_label
_atom_site_fract_x
_atom_site_fract_y
_atom_site_fract_z
Si Si1 0.792073 0.007322 0.731198
Si Si2 0.141334 0.549363 0.014167
Si Si3 0.433012 0.426003 0.918094
Si Si4 0.936542 0.796945 0.580296
Si Si5 0.525779 0.855695 0.895234
Si Si6 0.788086 0.297488 0.916104
O O1 0.580031 0.883838 0.037121
O O2 0.762751 0.148402 0.350446
O O3 0.000000 0.000000 0.500000
O O4 0.872276 0.050104 0.818780
O O5 0.058847 0.682245 0.820266
O O6 0.028591 0.410385 0.517342
O O7 0.380024 0.541075 0.831198
O O8 0.000000 0.500000 0.000000
O O9 0.500000 0.500000 0.500000
O O10 0.214295 0.282745 0.346078
O O11 0.637874 0.370376 0.962961
O O12 0.734907 0.814332 0.786777
O O13 0.500000 0.000000 0.500000
O O14 0.314739 0.743335 0.158558
#
# Coordination Sequence:
#
# PCOD9076786 Si02
#       6
#     2   2   2   2   2   2
#     4   9  18  34  56  82 109 150 184 219 270 318
#     4  10  19  32  54  87 112 134 182 224 278 328
#     4  10  18  34  55  82 107 141 180 220 274 328
#     4   9  17  30  54  81 114 139 172 228 273 317
#     4   8  16  30  54  82 102 147 190 216 257 316
#     4  10  18  33  60  82 109 145 179 222 274 322
#
# _framework density 29.527576
#
# number of rings (size 3 to 8) (size 9 to 14) (size 15 to 20)
#    0.000    2.667    3.333    0.000    0.000    0.667 
#    0.000    0.833    0.000   86.000    0.000    0.000 
#    0.000    0.000    0.000    0.000    0.000    0.000 
#
# Total GULP energy -66972.536887 kJ/mol
# GULP energy per Si atom -5581.044741 kJ/mol
# Density = 2.946037 g / cm^3
# Si number density = 29.527576 Si / 1000 Ang^3
#
#
#
# Elastic Constant Matrix: (Units=GPa)
#
#
# Indices 1 2 3 4 5 6 
#
# 1 123.2354 50.7799 29.4087 -7.4553 -12.8695 -9.4508
# 2 50.7799 203.0816 81.1802 -28.2844 -0.5793 -25.6357
# 3 29.4087 81.1802 73.9457 -2.8211 -20.3163 -0.6413
# 4 -7.4553 -28.2844 -2.8211 46.6866 8.9201 -14.0889
# 5 -12.8695 -0.5793 -20.3163 8.9201 58.4158 -23.9967
# 6 -9.4508 -25.6357 -0.6413 -14.0889 -23.9967 93.8732
#
#
#
# Elastic Compliance Matrix: (Units=1/GPa)
#
#
# Indices 1 2 3 4 5 6 
#
# 1 0.009420 -0.001570 -0.001470 0.000418 0.001922 0.001064
# 2 -0.001570 0.012563 -0.014242 0.008430 -0.005182 0.003116
# 3 -0.001470 -0.014242 0.032465 -0.009788 0.011341 -0.002386
# 4 0.000418 0.008430 -0.009788 0.028608 -0.005472 0.005172
# 5 0.001922 -0.005182 0.011341 -0.005472 0.023981 0.004165
# 6 0.001064 0.003116 -0.002386 0.005172 0.004165 0.013435
#
#
# Mechanical properties :
#
#
# Convention : Reuss Voigt Hill
#
# Bulk Modulus (GPa) = 50.29207 80.33337 65.31272
# Shear Modulus (GPa) = 30.92826 55.72138 43.32482
#
# Velocity S-wave (km/s) = 3.23992 4.34878 3.83465
# Velocity P-wave (km/s) = 5.57363 7.24439 6.46322
#
# Compressibility (1/GPa) = 0.01988385
#
# Stress axis : x y z
#
# Youngs Moduli (GPa) = 106.16062 79.60133 30.80198
#
# Poissons Ratio (x) = 0.12497 0.04527
# Poissons Ratio (y) = 0.16666 0.43869
# Poissons Ratio (z) = 0.15602 1.13371
#
# Static dielectric constant tensor:
#      x y z
#    x 2.430270 0.253970 0.015550 
#    y 0.253970 2.425610 -0.034970 
#    z 0.015550 -0.034970 2.280850 
# 
# From -- ./inp_files/220133.got.cif
#   From: 2010.05.17/outbox.cif.g08.bks.cpg/sg2_111_cif.got.tgz:220133.got - 2010.06.03 11:33:40.
