data_PCOD9076496
_publ_section_title
;
Structure prediction by ZEFSAII (Michael W. Deem and Ramdas Pophale) SiO2 
 PCOD9076496
Probable space group: P -1
;
_chemical_formula_sum "Si O2"
_cell_formula_units_Z 16
_cell_length_a 11.769929
_cell_length_b 14.787893
_cell_length_c 15.223154
_cell_angle_alpha 132.115330
_cell_angle_beta 109.589997
_cell_angle_gamma 32.651174
_cell_volume 869.009753
_symmetry_space_group_name_H-M "P -1"
_symmetry_group_IT_number 2
_symmetry_cell_setting 'triclinic'
loop_
_space_group_symop_operation_xyz
x,y,z
-x,-y,-z
loop_
_atom_site_type_symbol
_atom_site_label
_atom_site_fract_x
_atom_site_fract_y
_atom_site_fract_z
Si Si1 0.902030 0.244376 0.228102
Si Si2 0.441461 0.243577 0.610709
Si Si3 0.730195 0.129295 0.765499
Si Si4 0.603408 0.781223 0.921839
Si Si5 0.207647 0.658103 0.069719
Si Si6 0.197844 0.285829 0.708319
Si Si7 0.228788 0.384074 0.957904
Si Si8 0.196881 0.944568 0.928916
O O1 0.706162 0.525772 0.335669
O O2 0.763382 0.235791 0.186582
O O3 0.050237 0.125036 0.281625
O O4 0.105148 0.053314 0.075377
O O5 0.614261 0.155236 0.672964
O O6 0.234569 0.341725 0.670774
O O7 0.626435 0.988603 0.439062
O O8 0.815962 0.187717 0.793692
O O9 0.499236 0.368364 0.928707
O O10 0.433668 0.815979 0.875076
O O11 0.903651 0.510161 0.796376
O O12 0.575533 0.807194 0.037193
O O13 0.500000 0.000000 0.000000
O O14 0.132697 0.608872 0.075726
O O15 0.041300 0.810221 0.036817
O O16 0.303691 0.271595 0.807959
O O17 0.000000 0.500000 0.000000
#
# Coordination Sequence:
#
# PCOD9076496 Si02
#       8
#     2   2   2   2   2   2   2   2
#     4  10  20  34  57  91 111 150 193 236 295 330
#     4  11  21  41  60  78 129 149 192 240 279 357
#     4  10  20  32  59  86 113 148 186 241 287 337
#     4  11  22  36  59  86 114 148 194 243 287 339
#     4  10  18  33  56  88 114 138 192 242 290 327
#     4  10  23  40  55  85 113 161 191 230 294 343
#     4  10  19  34  57  78 112 146 189 232 281 336
#     4  10  19  32  57  87 119 141 190 251 282 335
#
# _framework density 18.411760000000001
#
# number of rings (size 3 to 8) (size 9 to 14) (size 15 to 20)
#    0.000    1.750    2.500    3.000    3.500    0.000 
#    2.250    1.875    0.000    1.500    0.000    0.000 
#    0.000    0.000    0.000    0.000    0.000    0.000 
#
# Total GULP energy -89206.530167 kJ/mol
# GULP energy per Si atom -5575.408135 kJ/mol
# Density = 1.836985 g / cm^3
# Si number density = 18.411760 Si / 1000 Ang^3
#
#
#
# Elastic Constant Matrix: (Units=GPa)
#
#
# Indices 1 2 3 4 5 6 
#
# 1 148.1298 54.9806 34.8911 21.3414 14.8945 6.5625
# 2 54.9806 106.3046 37.2992 16.8590 19.4081 11.4327
# 3 34.8911 37.2992 61.9989 15.4151 10.0068 5.4165
# 4 21.3414 16.8590 15.4151 14.4677 4.6783 7.4064
# 5 14.8945 19.4081 10.0068 4.6783 24.1608 8.5147
# 6 6.5625 11.4327 5.4165 7.4064 8.5147 37.8791
#
#
#
# Elastic Compliance Matrix: (Units=1/GPa)
#
#
# Indices 1 2 3 4 5 6 
#
# 1 0.009613 -0.002862 -0.001050 -0.010007 -0.001862 0.001724
# 2 -0.002862 0.014718 -0.004769 -0.005287 -0.006813 -0.000699
# 3 -0.001050 -0.004769 0.024700 -0.019599 -0.002861 0.002564
# 4 -0.010007 -0.005287 -0.019599 0.119402 0.001608 -0.017576
# 5 -0.001862 -0.006813 -0.002861 0.001608 0.052143 -0.009247
# 6 0.001724 -0.000699 0.002564 -0.017576 -0.009247 0.031461
#
#
# Mechanical properties :
#
#
# Convention : Reuss Voigt Hill
#
# Bulk Modulus (GPa) = 31.57607 63.41946 47.49776
# Shear Modulus (GPa) = 17.86012 27.91900 22.88956
#
# Velocity S-wave (km/s) = 3.11792 3.89828 3.52973
# Velocity P-wave (km/s) = 5.49082 7.40149 6.51656
#
# Compressibility (1/GPa) = 0.03166956
#
# Stress axis : x y z
#
# Youngs Moduli (GPa) = 104.02626 67.94523 40.48599
#
# Poissons Ratio (x) = 0.19444 0.04252
# Poissons Ratio (y) = 0.29770 0.19306
# Poissons Ratio (z) = 0.10926 0.32400
#
# Static dielectric constant tensor:
#      x y z
#    x 1.694270 -0.022350 -0.002140 
#    y -0.022350 1.677280 -0.019180 
#    z -0.002140 -0.019180 1.609030 
# 
# From -- ./inp_files/302542.got.cif
#   From: 2010.05.17/outbox.cif.g08.bks.cpg/sg2_152_cif.got.tgz:302542.got - 2010.06.03 11:33:40.
