data_PCOD9076595
_publ_section_title
;
Structure prediction by ZEFSAII (Michael W. Deem and Ramdas Pophale) SiO2 
 PCOD9076595
Probable space group: P -1
;
_chemical_formula_sum "Si O2"
_cell_formula_units_Z 16
_cell_length_a 19.806042
_cell_length_b 6.920655
_cell_length_c 8.738477
_cell_angle_alpha 110.986110
_cell_angle_beta 140.843700
_cell_angle_gamma 59.386213
_cell_volume 649.422907
_symmetry_space_group_name_H-M "P -1"
_symmetry_group_IT_number 2
_symmetry_cell_setting 'triclinic'
loop_
_space_group_symop_operation_xyz
x,y,z
-x,-y,-z
loop_
_atom_site_type_symbol
_atom_site_label
_atom_site_fract_x
_atom_site_fract_y
_atom_site_fract_z
Si Si1 0.051820 0.691166 0.145315
Si Si2 0.707931 0.879276 0.095545
Si Si3 0.765347 0.614922 0.840901
Si Si4 0.581452 0.286357 0.487785
Si Si5 0.168953 0.966976 0.034861
Si Si6 0.465130 0.157375 0.656425
Si Si7 0.186308 0.790980 0.682862
Si Si8 0.409759 0.341199 0.948662
O O1 0.147085 0.604314 0.153816
O O2 0.112846 0.699343 0.416858
O O3 0.000000 0.500000 0.000000
O O4 0.941473 0.927720 0.018592
O O5 0.643870 0.822153 0.109348
O O6 0.794470 0.002575 0.309814
O O7 0.768212 0.652120 0.038158
O O8 0.604333 0.057819 0.859626
O O9 0.631279 0.675099 0.577175
O O10 0.797845 0.820707 0.891968
O O11 0.500000 0.500000 0.500000
O O12 0.716777 0.216467 0.738750
O O13 0.557576 0.070536 0.441553
O O14 0.528027 0.321115 0.233638
O O15 0.141073 0.875727 0.798373
O O16 0.434048 0.275970 0.798651
O O17 0.310744 0.586676 0.861082
#
# Coordination Sequence:
#
# PCOD9076595 Si02
#       8
#     2   2   2   2   2   2   2   2
#     4  10  20  38  65  92 119 170 220 261 314 382
#     4  10  22  37  60  95 135 162 209 268 313 383
#     4   9  18  36  60  90 127 165 214 258 316 375
#     4  10  18  33  57  93 126 157 208 251 311 379
#     4   9  19  34  61  92 122 167 214 258 306 382
#     4  10  20  38  59  93 130 173 206 256 323 379
#     4  11  21  39  66  95 123 168 221 255 323 379
#     4  11  22  40  64  96 132 171 205 259 329 379
#
# _framework density 24.637257000000002
#
# number of rings (size 3 to 8) (size 9 to 14) (size 15 to 20)
#    0.000    2.000    2.500    2.250    0.000    1.500 
#    0.000    2.500    0.000   13.500    0.000    0.000 
#    0.000    0.000    0.000    0.000    0.000    0.000 
#
# Total GULP energy -89523.257874 kJ/mol
# GULP energy per Si atom -5595.203617 kJ/mol
# Density = 2.458118 g / cm^3
# Si number density = 24.637257 Si / 1000 Ang^3
#
#
#
# Elastic Constant Matrix: (Units=GPa)
#
#
# Indices 1 2 3 4 5 6 
#
# 1 95.8287 45.1638 35.0081 14.0856 3.5125 -21.3612
# 2 45.1638 153.7347 54.1898 4.2472 -4.0058 -35.4618
# 3 35.0081 54.1898 132.2047 21.6350 6.4011 -2.8018
# 4 14.0856 4.2472 21.6350 45.4443 -3.8342 3.5170
# 5 3.5125 -4.0058 6.4011 -3.8342 26.4081 2.4874
# 6 -21.3612 -35.4618 -2.8018 3.5170 2.4874 54.2230
#
#
#
# Elastic Compliance Matrix: (Units=1/GPa)
#
#
# Indices 1 2 3 4 5 6 
#
# 1 0.013816 -0.002427 -0.001836 -0.003728 -0.002691 0.004126
# 2 -0.002427 0.009634 -0.003537 0.001351 0.002370 0.004966
# 3 -0.001836 -0.003537 0.010281 -0.004101 -0.003183 -0.002093
# 4 -0.003728 0.001351 -0.004101 0.025677 0.005679 -0.002723
# 5 -0.002691 0.002370 -0.003183 0.005679 0.040359 -0.001894
# 6 0.004126 0.004966 -0.002093 -0.002723 -0.001894 0.023471
#
#
# Mechanical properties :
#
#
# Convention : Reuss Voigt Hill
#
# Bulk Modulus (GPa) = 55.15343 72.27682 63.71513
# Shear Modulus (GPa) = 34.51100 41.70885 38.10993
#
# Velocity S-wave (km/s) = 3.74674 4.11897 3.93726
# Velocity P-wave (km/s) = 6.41500 7.21258 6.82545
#
# Compressibility (1/GPa) = 0.01813124
#
# Stress axis : x y z
#
# Youngs Moduli (GPa) = 72.37900 103.79558 97.26785
#
# Poissons Ratio (x) = 0.25193 0.17857
# Poissons Ratio (y) = 0.17567 0.34404
# Poissons Ratio (z) = 0.13288 0.36713
#
# Static dielectric constant tensor:
#      x y z
#    x 1.972720 0.051180 0.014110 
#    y 0.051180 1.978610 0.005500 
#    z 0.014110 0.005500 1.952560 
# 
# From -- ./inp_files/342970.got.cif
#   From: 2010.05.17/outbox.cif.g08.bks.cpg/sg2_172_cif.got.tgz:342970.got - 2010.06.03 11:33:40.
