data_PCOD9076875
_publ_section_title
;
Structure prediction by ZEFSAII (Michael W. Deem and Ramdas Pophale) SiO2 
 PCOD9076875
Probable space group: P -1
;
_chemical_formula_sum "Si O2"
_cell_formula_units_Z 16
_cell_length_a 9.890770
_cell_length_b 8.862426
_cell_length_c 7.524738
_cell_angle_alpha 108.284925
_cell_angle_beta 92.766249
_cell_angle_gamma 94.923761
_cell_volume 622.000906
_symmetry_space_group_name_H-M "P -1"
_symmetry_group_IT_number 2
_symmetry_cell_setting 'triclinic'
loop_
_space_group_symop_operation_xyz
x,y,z
-x,-y,-z
loop_
_atom_site_type_symbol
_atom_site_label
_atom_site_fract_x
_atom_site_fract_y
_atom_site_fract_z
Si Si1 0.779923 0.545365 0.497742
Si Si2 0.555392 0.273134 0.027230
Si Si3 0.749561 0.897945 0.683091
Si Si4 0.061794 0.675124 0.741081
Si Si5 0.868463 0.787474 0.015980
Si Si6 0.439575 0.959302 0.753888
Si Si7 0.346358 0.511325 0.181829
Si Si8 0.834981 0.040957 0.407179
O O1 0.734385 0.719559 0.529106
O O2 0.821714 0.444117 0.296850
O O3 0.680007 0.454192 0.600980
O O4 0.920097 0.579627 0.631856
O O5 0.643288 0.337284 0.889094
O O6 0.441516 0.138313 0.894715
O O7 0.613554 0.170071 0.147719
O O8 0.484358 0.423210 0.151040
O O9 0.814928 0.881018 0.875409
O O10 0.595524 0.938474 0.714650
O O11 0.854507 0.003361 0.600701
O O12 0.097023 0.805112 0.635692
O O13 0.019658 0.750415 0.951136
O O14 0.769780 0.621618 0.949692
O O15 0.859483 0.891014 0.228849
O O16 0.327188 0.942783 0.591679
#
# Coordination Sequence:
#
# PCOD9076875 Si02
#       8
#     2   2   2   2   2   2   2   2
#     4   9  19  42  62  86 124 157 202 257 295 359
#     4  10  18  33  62  86 122 165 201 233 308 360
#     4  10  22  40  63  86 126 163 195 246 306 354
#     4   9  21  39  65  85 120 160 202 255 304 346
#     4  10  20  43  65  86 124 155 204 261 294 349
#     4  11  20  37  54  93 129 156 197 251 292 366
#     4   9  17  34  62  88 113 163 202 242 297 362
#     4  12  23  38  62  95 123 159 204 247 301 361
#
# _framework density 25.723434000000001
#
# number of rings (size 3 to 8) (size 9 to 14) (size 15 to 20)
#    0.000    2.250    3.750    1.500    1.750    2.000 
#    2.250    1.250    5.500    0.000    0.000    0.000 
#    0.000    0.000    0.000    0.000    0.000    0.000 
#
# Total GULP energy -89472.724548 kJ/mol
# GULP energy per Si atom -5592.045284 kJ/mol
# Density = 2.566489 g / cm^3
# Si number density = 25.723434 Si / 1000 Ang^3
#
#
#
# Elastic Constant Matrix: (Units=GPa)
#
#
# Indices 1 2 3 4 5 6 
#
# 1 60.2621 1.9964 37.5074 7.0348 -17.2179 -11.3244
# 2 1.9964 83.2040 42.1296 -17.3839 -5.4331 4.7040
# 3 37.5074 42.1296 92.3444 -12.2315 -30.5687 -11.9008
# 4 7.0348 -17.3839 -12.2315 46.1971 -6.7222 -12.5287
# 5 -17.2179 -5.4331 -30.5687 -6.7222 43.3701 8.9972
# 6 -11.3244 4.7040 -11.9008 -12.5287 8.9972 24.0040
#
#
#
# Elastic Compliance Matrix: (Units=1/GPa)
#
#
# Indices 1 2 3 4 5 6 
#
# 1 0.025433 0.004715 -0.012653 -0.004800 0.000596 0.002073
# 2 0.004715 0.018193 -0.011692 0.001136 -0.002772 -0.005506
# 3 -0.012653 -0.011692 0.028138 0.009689 0.012650 0.010588
# 4 -0.004800 0.001136 0.009689 0.030619 0.006523 0.015853
# 5 0.000596 -0.002772 0.012650 0.006523 0.033283 -0.001975
# 6 0.002073 -0.005506 0.010588 0.015853 -0.001975 0.057981
#
#
# Mechanical properties :
#
#
# Convention : Reuss Voigt Hill
#
# Bulk Modulus (GPa) = 30.76425 44.34191 37.55308
# Shear Modulus (GPa) = 20.51359 32.99270 26.75314
#
# Velocity S-wave (km/s) = 2.82701 3.58522 3.22845
# Velocity P-wave (km/s) = 4.75831 5.86632 5.34113
#
# Compressibility (1/GPa) = 0.03250526
#
# Stress axis : x y z
#
# Youngs Moduli (GPa) = 39.31870 54.96550 35.53951
#
# Poissons Ratio (x) = -0.25918 0.44967
# Poissons Ratio (y) = -0.18540 0.41552
# Poissons Ratio (z) = 0.49749 0.64265
#
# Static dielectric constant tensor:
#      x y z
#    x 2.057520 -0.014330 -0.025830 
#    y -0.014330 1.992350 0.022800 
#    z -0.025830 0.022800 2.040550 
# 
# From -- ./inp_files/240272.got.cif
#   From: 2010.05.17/outbox.cif.g08.bks.cpg/sg2_121_cif.got.tgz:240272.got - 2010.06.03 11:33:40.
