data_PCOD9076737
_publ_section_title
;
Structure prediction by ZEFSAII (Michael W. Deem and Ramdas Pophale) SiO2 
 PCOD9076737
Probable space group: P -1
;
_chemical_formula_sum "Si O2"
_cell_formula_units_Z 16
_cell_length_a 7.267305
_cell_length_b 11.576386
_cell_length_c 8.355317
_cell_angle_alpha 61.693464
_cell_angle_beta 79.366192
_cell_angle_gamma 89.751511
_cell_volume 605.428052
_symmetry_space_group_name_H-M "P -1"
_symmetry_group_IT_number 2
_symmetry_cell_setting 'triclinic'
loop_
_space_group_symop_operation_xyz
x,y,z
-x,-y,-z
loop_
_atom_site_type_symbol
_atom_site_label
_atom_site_fract_x
_atom_site_fract_y
_atom_site_fract_z
Si Si1 0.843481 0.032502 0.136741
Si Si2 0.264022 0.846022 0.460098
Si Si3 0.430845 0.664797 0.815196
Si Si4 0.321561 0.463982 0.730507
Si Si5 0.933628 0.313156 0.960897
Si Si6 0.881360 0.360561 0.574077
Si Si7 0.384270 0.186248 0.772149
Si Si8 0.593486 0.887877 0.831378
O O1 0.628069 0.082618 0.133948
O O2 0.761633 0.881380 0.288965
O O3 0.943977 0.163170 0.121830
O O4 0.000000 0.000000 0.000000
O O5 0.367192 0.778993 0.631238
O O6 0.083662 0.752450 0.489436
O O7 0.405805 0.836413 0.293549
O O8 0.279628 0.003717 0.364904
O O9 0.463849 0.537981 0.786834
O O10 0.584847 0.742474 0.851064
O O11 0.241570 0.627750 0.969687
O O12 0.285260 0.575347 0.534682
O O13 0.368479 0.336643 0.712156
O O14 0.122312 0.410106 0.878761
O O15 0.882416 0.295662 0.791533
O O16 0.000000 0.500000 0.500000
O O17 0.339375 0.115872 0.995203
#
# Coordination Sequence:
#
# PCOD9076737 Si02
#       8
#     2   2   2   2   2   2   2   2
#     4  10  18  33  59  87 107 141 190 237 275 325
#     4  10  19  36  57  83 111 147 190 229 282 334
#     4  10  21  34  56  80 112 156 187 227 280 341
#     4  10  21  35  55  85 113 151 188 233 281 332
#     4  10  18  36  58  83 112 146 193 234 283 333
#     4   9  19  34  56  82 110 144 186 233 276 327
#     4  11  21  36  58  89 115 146 188 237 281 334
#     4  10  21  36  58  86 113 152 187 232 285 331
#
# _framework density 26.427579999999999
#
# number of rings (size 3 to 8) (size 9 to 14) (size 15 to 20)
#    0.000    2.000    1.250    4.500    0.000    2.500 
#    0.000    1.250    0.000    0.750    0.000    0.000 
#    0.000    0.000    0.000    0.000    0.000    0.000 
#
# Total GULP energy -89070.313494 kJ/mol
# GULP energy per Si atom -5566.894593 kJ/mol
# Density = 2.636743 g / cm^3
# Si number density = 26.427580 Si / 1000 Ang^3
#
#
#
# Elastic Constant Matrix: (Units=GPa)
#
#
# Indices 1 2 3 4 5 6 
#
# 1 58.2311 19.6891 17.0197 -10.2933 4.0209 6.7086
# 2 19.6891 173.6047 19.6288 -22.9027 -2.8495 22.5694
# 3 17.0197 19.6288 42.8976 -13.7595 6.0892 17.0036
# 4 -10.2933 -22.9027 -13.7595 39.9212 8.8696 -3.6469
# 5 4.0209 -2.8495 6.0892 8.8696 26.4298 -10.0552
# 6 6.7086 22.5694 17.0036 -3.6469 -10.0552 36.7993
#
#
#
# Elastic Compliance Matrix: (Units=1/GPa)
#
#
# Indices 1 2 3 4 5 6 
#
# 1 0.020105 -0.001146 -0.005508 0.003291 -0.003407 -0.001022
# 2 -0.001146 0.006897 0.000755 0.004025 -0.002363 -0.004617
# 3 -0.005508 0.000755 0.044000 0.017351 -0.024458 -0.024753
# 4 0.003291 0.004025 0.017351 0.037820 -0.021816 -0.013299
# 5 -0.003407 -0.002363 -0.024458 -0.021816 0.061739 0.028080
# 6 -0.001022 -0.004617 -0.024753 -0.013299 0.028080 0.047985
#
#
# Mechanical properties :
#
#
# Convention : Reuss Voigt Hill
#
# Bulk Modulus (GPa) = 16.89055 43.04541 29.96798
# Shear Modulus (GPa) = 19.99378 35.18976 27.59177
#
# Velocity S-wave (km/s) = 2.75353 3.65301 3.23468
# Velocity P-wave (km/s) = 4.06379 5.84089 5.03142
#
# Compressibility (1/GPa) = 0.05920469
#
# Stress axis : x y z
#
# Youngs Moduli (GPa) = 49.73848 144.98501 22.72739
#
# Poissons Ratio (x) = 0.16619 0.12518
# Poissons Ratio (y) = 0.05701 -0.01717
# Poissons Ratio (z) = 0.27395 -0.10953
#
# Static dielectric constant tensor:
#      x y z
#    x 2.154830 0.005660 0.028580 
#    y 0.005660 2.246950 -0.043600 
#    z 0.028580 -0.043600 2.123240 
# 
# From -- ./inp_files/185872.got.cif
#   From: 2010.05.17/outbox.cif.g08.bks.cpg/sg2_93_cif.got.tgz:185872.got - 2010.06.03 11:33:40.
