data_PCOD9076477
_publ_section_title
;
Structure prediction by ZEFSAII (Michael W. Deem and Ramdas Pophale) SiO2 
 PCOD9076477
Probable space group: P -1
;
_chemical_formula_sum "Si O2"
_cell_formula_units_Z 16
_cell_length_a 8.452215
_cell_length_b 14.499740
_cell_length_c 22.912592
_cell_angle_alpha 21.270023
_cell_angle_beta 146.830525
_cell_angle_gamma 141.652228
_cell_volume 557.199852
_symmetry_space_group_name_H-M "P -1"
_symmetry_group_IT_number 2
_symmetry_cell_setting 'triclinic'
loop_
_space_group_symop_operation_xyz
x,y,z
-x,-y,-z
loop_
_atom_site_type_symbol
_atom_site_label
_atom_site_fract_x
_atom_site_fract_y
_atom_site_fract_z
Si Si1 0.975447 0.695746 0.080267
Si Si2 0.672971 0.112059 0.121232
Si Si3 0.342580 0.993337 0.626209
Si Si4 0.656372 0.206240 0.698626
Si Si5 0.821133 0.491066 0.273893
Si Si6 0.916878 0.381116 0.144159
Si Si7 0.413158 0.748822 0.553587
Si Si8 0.617104 0.769273 0.211556
O O1 0.833364 0.508089 0.196557
O O2 0.905690 0.641707 0.022817
O O3 0.317235 0.682001 0.200810
O O4 0.882491 0.977828 0.897500
O O5 0.849758 0.309685 0.099529
O O6 0.550136 0.903432 0.250884
O O7 0.811877 0.931413 0.221885
O O8 0.413662 0.290114 0.913415
O O9 0.484614 0.216273 0.579210
O O10 0.537693 0.017201 0.614251
O O11 0.315870 0.776253 0.795421
O O12 0.000000 0.000000 0.500000
O O13 0.859259 0.433746 0.649313
O O14 0.726563 0.246284 0.427704
O O15 0.249302 0.313966 0.295329
O O16 0.278228 0.486155 0.637191
O O17 0.500000 0.000000 0.000000
#
# Coordination Sequence:
#
# PCOD9076477 Si02
#       8
#     2   2   2   2   2   2   2   2
#     4  10  19  35  59  89 109 147 181 230 291 327
#     4  10  18  33  56  85 114 138 181 234 282 316
#     4   9  20  39  56  77 112 153 190 226 271 331
#     4  10  18  33  59  83 114 142 185 232 281 327
#     4  11  19  33  56  87 120 138 180 236 285 331
#     4   9  21  37  60  80 111 150 192 227 273 331
#     4  10  21  36  57  81 113 156 184 224 275 330
#     4  11  18  34  58  86 114 142 184 233 276 328
#
# _framework density 28.715011000000001
#
# number of rings (size 3 to 8) (size 9 to 14) (size 15 to 20)
#    0.000    2.000    3.750    0.750    0.000    5.500 
#    0.000    3.125    8.250    0.000    0.000    0.000 
#    0.000    0.000    0.000    0.000    0.000    0.000 
#
# Total GULP energy -89381.711824 kJ/mol
# GULP energy per Si atom -5586.356989 kJ/mol
# Density = 2.864965 g / cm^3
# Si number density = 28.715011 Si / 1000 Ang^3
#
#
#
# Elastic Constant Matrix: (Units=GPa)
#
#
# Indices 1 2 3 4 5 6 
#
# 1 101.7997 60.3080 35.4966 -19.6399 -26.4977 6.2972
# 2 60.3080 145.6334 34.0641 23.0035 -27.8237 -17.5276
# 3 35.4966 34.0641 106.9682 -14.8733 -27.4823 10.5949
# 4 -19.6399 23.0035 -14.8733 48.2349 4.9831 -7.8315
# 5 -26.4977 -27.8237 -27.4823 4.9831 50.7437 -10.5640
# 6 6.2972 -17.5276 10.5949 -7.8315 -10.5640 64.4138
#
#
#
# Elastic Compliance Matrix: (Units=1/GPa)
#
#
# Indices 1 2 3 4 5 6 
#
# 1 0.018256 -0.008817 -0.000833 0.010728 0.002715 -0.002297
# 2 -0.008817 0.014038 -0.002523 -0.010731 0.003697 0.004398
# 3 -0.000833 -0.002523 0.012172 0.003959 0.004082 -0.001456
# 4 0.010728 -0.010731 0.003959 0.031419 -0.001439 -0.001036
# 5 0.002715 0.003697 0.004082 -0.001439 0.026382 0.004221
# 6 -0.002297 0.004398 -0.001456 -0.001036 0.004221 0.017752
#
#
# Mechanical properties :
#
#
# Convention : Reuss Voigt Hill
#
# Bulk Modulus (GPa) = 49.70268 68.23761 58.97015
# Shear Modulus (GPa) = 33.09681 47.64730 40.37206
#
# Velocity S-wave (km/s) = 3.39867 4.07789 3.75368
# Velocity P-wave (km/s) = 5.72257 6.78141 6.27437
#
# Compressibility (1/GPa) = 0.02011964
#
# Stress axis : x y z
#
# Youngs Moduli (GPa) = 54.77711 71.23300 82.15665
#
# Poissons Ratio (x) = 0.62807 0.06847
# Poissons Ratio (y) = 0.48298 0.20725
# Poissons Ratio (z) = 0.04565 0.17969
#
# Static dielectric constant tensor:
#      x y z
#    x 2.219040 -0.061290 -0.031100 
#    y -0.061290 2.319700 0.042890 
#    z -0.031100 0.042890 2.253890 
# 
# From -- ./inp_files/206986.got.cif
#   From: 2010.05.17/outbox.cif.g08.bks.cpg/sg2_104_cif.got.tgz:206986.got - 2010.06.03 11:33:40.
