data_PCOD9076017
_publ_section_title
;
Structure prediction by ZEFSAII (Michael W. Deem and Ramdas Pophale) SiO2 
 PCOD9076017
Probable space group: P -1
;
_chemical_formula_sum "Si O2"
_cell_formula_units_Z 15
_cell_length_a 12.150181
_cell_length_b 7.453876
_cell_length_c 9.914970
_cell_angle_alpha 66.015296
_cell_angle_beta 101.378323
_cell_angle_gamma 75.085161
_cell_volume 744.988436
_symmetry_space_group_name_H-M "P -1"
_symmetry_group_IT_number 2
_symmetry_cell_setting 'triclinic'
loop_
_space_group_symop_operation_xyz
x,y,z
-x,-y,-z
loop_
_atom_site_type_symbol
_atom_site_label
_atom_site_fract_x
_atom_site_fract_y
_atom_site_fract_z
Si Si1 0.254105 0.427994 0.898389
Si Si2 0.630532 0.688204 0.743710
Si Si3 0.277246 0.747194 0.245627
Si Si4 0.634645 0.244092 0.233563
Si Si5 0.747148 0.993628 0.583316
Si Si6 0.626925 0.030344 0.015431
Si Si7 0.996875 0.304560 0.149611
Si Si8 0.000000 0.000000 0.000000
O O1 0.341795 0.539109 0.829839
O O2 0.272705 0.207407 0.898618
O O3 0.116956 0.593131 0.810807
O O4 0.290313 0.374874 0.080342
O O5 0.321714 0.502174 0.293286
O O6 0.495358 0.723527 0.745564
O O7 0.649348 0.890480 0.625750
O O8 0.277966 0.808078 0.382886
O O9 0.141562 0.868493 0.121352
O O10 0.360098 0.844986 0.151685
O O11 0.733289 0.074657 0.403444
O O12 0.641340 0.156658 0.110664
O O13 0.877457 0.815715 0.706190
O O14 0.500000 0.000000 0.000000
O O15 0.976529 0.141080 0.091162
O O16 0.000000 0.500000 0.000000
#
# Coordination Sequence:
#
# PCOD9076017 Si02
#       8
#     2   2   2   2   2   2   2   1
#     4  12  22  39  65  92 117 163 209 252 293 362
#     4  12  21  40  65  88 121 164 208 246 297 371
#     4  11  21  37  64  90 116 160 211 244 299 363
#     4  12  26  40  59  94 132 155 199 260 311 353
#     4  11  25  41  61  93 127 159 196 260 313 351
#     4  12  22  38  63  90 119 163 207 247 296 363
#     4  11  20  39  64  89 118 159 209 248 293 369
#     4  10  18  32  58  90 114 144 202 256 280 344
#
# _framework density 20.134543000000001
#
# number of rings (size 3 to 8) (size 9 to 14) (size 15 to 20)
#    0.000    0.533    6.667    2.400    0.000    2.133 
#    0.000    0.667    0.000    0.000    0.000    0.000 
#    0.000    0.000    0.000    0.000    0.000    0.000 
#
# Total GULP energy -83637.005832 kJ/mol
# GULP energy per Si atom -5575.800389 kJ/mol
# Density = 2.008872 g / cm^3
# Si number density = 20.134543 Si / 1000 Ang^3
#
#
#
# Elastic Constant Matrix: (Units=GPa)
#
#
# Indices 1 2 3 4 5 6 
#
# 1 35.7102 1.8040 -5.7698 6.9175 9.5517 -9.1604
# 2 1.8040 80.9094 -14.1249 8.9569 3.7423 -13.7042
# 3 -5.7698 -14.1249 46.8058 -7.5010 -1.3933 2.0578
# 4 6.9175 8.9569 -7.5010 16.6764 2.8874 -3.0620
# 5 9.5517 3.7423 -1.3933 2.8874 18.5611 -6.6005
# 6 -9.1604 -13.7042 2.0578 -3.0620 -6.6005 37.0614
#
#
#
# Elastic Compliance Matrix: (Units=1/GPa)
#
#
# Indices 1 2 3 4 5 6 
#
# 1 0.036103 0.002670 0.002702 -0.011478 -0.014941 0.006152
# 2 0.002670 0.014510 0.003454 -0.006193 -0.001265 0.005097
# 3 0.002702 0.003454 0.023973 0.008210 -0.001179 0.001082
# 4 -0.011478 -0.006193 0.008210 0.072318 -0.003565 -0.000243
# 5 -0.014941 -0.001265 -0.001179 -0.003565 0.064831 0.007157
# 6 0.006152 0.005097 0.001082 -0.000243 0.007157 0.031582
#
#
# Mechanical properties :
#
#
# Convention : Reuss Voigt Hill
#
# Bulk Modulus (GPa) = 10.84154 14.13822 12.48988
# Shear Modulus (GPa) = 19.49990 26.56084 23.03037
#
# Velocity S-wave (km/s) = 3.11542 3.63598 3.38572
# Velocity P-wave (km/s) = 4.28221 4.96631 4.63689
#
# Compressibility (1/GPa) = 0.09223779
#
# Stress axis : x y z
#
# Youngs Moduli (GPa) = 27.69877 68.91669 41.71308
#
# Poissons Ratio (x) = -0.18403 -0.11269
# Poissons Ratio (y) = -0.07397 -0.14407
# Poissons Ratio (z) = -0.07483 -0.23803
#
# Static dielectric constant tensor:
#      x y z
#    x 1.729900 -0.012120 0.020460 
#    y -0.012120 1.703560 -0.015060 
#    z 0.020460 -0.015060 1.690010 
# 
# From -- ./inp_files/234396.got.cif
#   From: 2010.05.17/outbox.cif.g08.bks.cpg/sg2_118_cif.got.tgz:234396.got - 2010.06.03 11:33:40.
