data_PCOD9076176
_publ_section_title
;
Structure prediction by ZEFSAII (Michael W. Deem and Ramdas Pophale) SiO2 
 PCOD9076176
Probable space group: P -1
;
_chemical_formula_sum "Si O2"
_cell_formula_units_Z 16
_cell_length_a 24.316608
_cell_length_b 7.787802
_cell_length_c 12.171273
_cell_angle_alpha 146.077165
_cell_angle_beta 151.494827
_cell_angle_gamma 49.162471
_cell_volume 588.844893
_symmetry_space_group_name_H-M "P -1"
_symmetry_group_IT_number 2
_symmetry_cell_setting 'triclinic'
loop_
_space_group_symop_operation_xyz
x,y,z
-x,-y,-z
loop_
_atom_site_type_symbol
_atom_site_label
_atom_site_fract_x
_atom_site_fract_y
_atom_site_fract_z
Si Si1 0.290825 0.236995 0.977305
Si Si2 0.364820 0.408314 0.811883
Si Si3 0.020013 0.644645 0.771288
Si Si4 0.174370 0.205228 0.191069
Si Si5 0.575519 0.163294 0.110436
Si Si6 0.967500 0.028640 0.585828
Si Si7 0.759902 0.294647 0.679812
Si Si8 0.249606 0.638770 0.907706
O O1 0.166408 0.951410 0.623043
O O2 0.280359 0.436112 0.954707
O O3 0.402298 0.096791 0.074953
O O4 0.286598 0.466210 0.194730
O O5 0.350223 0.679901 0.013679
O O6 0.297139 0.063869 0.565937
O O7 0.499289 0.377858 0.036452
O O8 0.283056 0.416141 0.566918
O O9 0.084649 0.971724 0.998215
O O10 0.043120 0.336982 0.585805
O O11 0.877099 0.554175 0.473799
O O12 0.098402 0.655374 0.025057
O O13 0.232835 0.966403 0.097973
O O14 0.073594 0.264142 0.963891
O O15 0.704690 0.322592 0.478931
O O16 0.500000 0.000000 0.000000
O O17 0.000000 0.000000 0.500000
#
# Coordination Sequence:
#
# PCOD9076176 Si02
#       8
#     2   2   2   2   2   2   2   2
#     4  11  18  31  50  72 107 140 160 209 265 296
#     4  10  20  28  45  77 102 134 169 208 250 304
#     4   9  17  30  50  75 100 130 164 202 260 304
#     4  10  18  33  51  77 105 132 162 212 256 303
#     4  10  20  30  43  75 109 133 172 210 252 302
#     4  10  19  33  55  79 104 134 170 207 253 312
#     4   9  18  28  44  71 106 134 163 203 256 307
#     4  11  16  28  49  73 104 131 161 203 258 301
#
# _framework density 27.17184
#
# number of rings (size 3 to 8) (size 9 to 14) (size 15 to 20)
#    0.000    2.000    7.500    0.750    0.000    6.000 
#    0.000    0.000    0.000   12.750    0.000    7.000 
#    0.000    0.000    0.000    0.000    0.000    0.000 
#
# Total GULP energy -89511.509684 kJ/mol
# GULP energy per Si atom -5594.469355 kJ/mol
# Density = 2.711000 g / cm^3
# Si number density = 27.171840 Si / 1000 Ang^3
#
#
#
# Elastic Constant Matrix: (Units=GPa)
#
#
# Indices 1 2 3 4 5 6 
#
# 1 110.6943 61.0992 12.7762 -17.0583 -31.5377 -19.3754
# 2 61.0992 95.9398 18.3727 -29.9299 -17.2614 -23.3278
# 3 12.7762 18.3727 67.7472 -13.8080 -23.7622 8.2447
# 4 -17.0583 -29.9299 -13.8080 45.0833 12.1155 -10.7259
# 5 -31.5377 -17.2614 -23.7622 12.1155 53.1136 -11.3969
# 6 -19.3754 -23.3278 8.2447 -10.7259 -11.3969 67.2831
#
#
#
# Elastic Compliance Matrix: (Units=1/GPa)
#
#
# Indices 1 2 3 4 5 6 
#
# 1 0.016527 -0.008889 0.001784 -0.000719 0.008484 0.002781
# 2 -0.008889 0.022187 -0.002931 0.012388 -0.000625 0.007361
# 3 0.001784 -0.002931 0.018461 0.002056 0.007653 -0.001140
# 4 -0.000719 0.012388 0.002056 0.033194 -0.001136 0.008935
# 5 0.008484 -0.000625 0.007653 -0.001136 0.028623 0.005956
# 6 0.002781 0.007361 -0.001140 0.008935 0.005956 0.020789
#
#
# Mechanical properties :
#
#
# Convention : Reuss Voigt Hill
#
# Bulk Modulus (GPa) = 26.95050 50.98638 38.96844
# Shear Modulus (GPa) = 29.03262 45.23821 37.13541
#
# Velocity S-wave (km/s) = 3.27231 4.08474 3.70088
# Velocity P-wave (km/s) = 4.92112 6.40718 5.71268
#
# Compressibility (1/GPa) = 0.03710506
#
# Stress axis : x y z
#
# Youngs Moduli (GPa) = 60.50567 45.07066 54.16826
#
# Poissons Ratio (x) = 0.40063 -0.09666
# Poissons Ratio (y) = 0.53783 0.15876
# Poissons Ratio (z) = -0.10797 0.13210
#
# Static dielectric constant tensor:
#      x y z
#    x 2.188360 0.050080 0.067580 
#    y 0.050080 2.165400 0.036930 
#    z 0.067580 0.036930 2.160120 
# 
# From -- ./inp_files/474360.got.cif
#   From: 2010.05.17/outbox.cif.g08.bks.cpg/sg2_238_cif.got.tgz:474360.got - 2010.06.03 11:33:40.
