data_PCOD9076232
_publ_section_title
;
Structure prediction by ZEFSAII (Michael W. Deem and Ramdas Pophale) SiO2 
 PCOD9076232
Probable space group: P -1
;
_chemical_formula_sum "Si O2"
_cell_formula_units_Z 16
_cell_length_a 8.710816
_cell_length_b 17.734908
_cell_length_c 18.194139
_cell_angle_alpha 146.096356
_cell_angle_beta 42.478660
_cell_angle_gamma 110.460698
_cell_volume 759.176158
_symmetry_space_group_name_H-M "P -1"
_symmetry_group_IT_number 2
_symmetry_cell_setting 'triclinic'
loop_
_space_group_symop_operation_xyz
x,y,z
-x,-y,-z
loop_
_atom_site_type_symbol
_atom_site_label
_atom_site_fract_x
_atom_site_fract_y
_atom_site_fract_z
Si Si1 0.622540 0.024682 0.353771
Si Si2 0.618985 0.633975 0.913836
Si Si3 0.012771 0.262382 0.136450
Si Si4 0.152102 0.429761 0.799356
Si Si5 0.186146 0.720463 0.014968
Si Si6 0.537767 0.404182 0.833150
Si Si7 0.724202 0.101383 0.619159
Si Si8 0.515942 0.569114 0.438438
O O1 0.377825 0.008230 0.450757
O O2 0.434136 0.242619 0.593234
O O3 0.742898 0.930234 0.152840
O O4 0.920573 0.895011 0.198077
O O5 0.313692 0.752189 0.063776
O O6 0.684867 0.448205 0.757926
O O7 0.845414 0.654310 0.816786
O O8 0.561443 0.721808 0.085955
O O9 0.754169 0.415879 0.291931
O O10 0.821398 0.267461 0.272950
O O11 0.072679 0.618343 0.997070
O O12 0.305533 0.380686 0.623842
O O13 0.825984 0.484820 0.965344
O O14 0.481981 0.549725 0.720612
O O15 0.736026 0.191112 0.616172
O O16 0.500000 0.500000 0.000000
O O17 0.000000 0.000000 0.500000
#
# Coordination Sequence:
#
# PCOD9076232 Si02
#       8
#     2   2   2   2   2   2   2   2
#     4  10  18  34  56  73 110 138 176 221 259 310
#     4  10  20  33  55  77 108 143 173 216 267 312
#     4   9  17  33  57  81 102 137 182 218 261 310
#     4  10  19  35  55  77 105 143 175 212 266 310
#     4   9  20  37  50  80 108 141 172 217 263 320
#     4  10  18  33  53  76 108 133 174 218 255 311
#     4  10  19  35  52  80 105 139 177 221 260 305
#     4   8  17  34  54  80 105 136 177 220 262 307
#
# _framework density 21.075478
#
# number of rings (size 3 to 8) (size 9 to 14) (size 15 to 20)
#    0.750    1.750    1.250    3.000    0.000    1.500 
#    2.250    1.250    0.000    0.750    0.000    0.000 
#    0.000    0.000    0.000    0.000    0.000    0.000 
#
# Total GULP energy -89076.180651 kJ/mol
# GULP energy per Si atom -5567.261291 kJ/mol
# Density = 2.102751 g / cm^3
# Si number density = 21.075478 Si / 1000 Ang^3
#
#
#
# Elastic Constant Matrix: (Units=GPa)
#
#
# Indices 1 2 3 4 5 6 
#
# 1 74.2627 17.9460 17.7315 -4.2005 5.6452 -5.3679
# 2 17.9460 65.6431 36.6373 -7.0318 -0.0993 -7.8653
# 3 17.7315 36.6373 79.3857 8.7902 3.0994 -8.3995
# 4 -4.2005 -7.0318 8.7902 33.9904 -6.1640 -7.9921
# 5 5.6452 -0.0993 3.0994 -6.1640 22.0143 7.6678
# 6 -5.3679 -7.8653 -8.3995 -7.9921 7.6678 26.4002
#
#
#
# Elastic Compliance Matrix: (Units=1/GPa)
#
#
# Indices 1 2 3 4 5 6 
#
# 1 0.015220 -0.002452 -0.001931 0.001929 -0.004355 0.003599
# 2 -0.002452 0.023586 -0.010952 0.009128 0.003126 0.004899
# 3 -0.001931 -0.010952 0.019335 -0.008064 -0.005066 0.001526
# 4 0.001929 0.009128 -0.008064 0.037296 0.007790 0.009574
# 5 -0.004355 0.003126 -0.005066 0.007790 0.054709 -0.015097
# 6 0.003599 0.004899 0.001526 0.009574 -0.015097 0.047839
#
#
# Mechanical properties :
#
#
# Convention : Reuss Voigt Hill
#
# Bulk Modulus (GPa) = 36.40174 40.43566 38.41870
# Shear Modulus (GPa) = 21.02512 26.27942 23.65227
#
# Velocity S-wave (km/s) = 3.16192 3.53501 3.35366
# Velocity P-wave (km/s) = 5.53533 5.99078 5.76756
#
# Compressibility (1/GPa) = 0.02747121
#
# Stress axis : x y z
#
# Youngs Moduli (GPa) = 65.70495 42.39726 51.72063
#
# Poissons Ratio (x) = 0.10396 0.09985
# Poissons Ratio (y) = 0.16111 0.56645
# Poissons Ratio (z) = 0.12685 0.46434
#
# Static dielectric constant tensor:
#      x y z
#    x 1.805100 -0.027160 0.042950 
#    y -0.027160 1.845290 -0.000570 
#    z 0.042950 -0.000570 1.833220 
# 
# From -- ./inp_files/590986.got.cif
#   From: 2010.05.17/outbox.cif.g08.bks.cpg/sg2_296_cif.got.tgz:590986.got - 2010.06.03 11:33:40.
