data_PCOD9076307
_publ_section_title
;
Structure prediction by ZEFSAII (Michael W. Deem and Ramdas Pophale) SiO2 
 PCOD9076307
Probable space group: P -1
;
_chemical_formula_sum "Si O2"
_cell_formula_units_Z 14
_cell_length_a 9.092962
_cell_length_b 7.666705
_cell_length_c 13.840429
_cell_angle_alpha 122.503747
_cell_angle_beta 137.936769
_cell_angle_gamma 72.265851
_cell_volume 537.499616
_symmetry_space_group_name_H-M "P -1"
_symmetry_group_IT_number 2
_symmetry_cell_setting 'triclinic'
loop_
_space_group_symop_operation_xyz
x,y,z
-x,-y,-z
loop_
_atom_site_type_symbol
_atom_site_label
_atom_site_fract_x
_atom_site_fract_y
_atom_site_fract_z
Si Si1 0.521211 0.174448 0.977710
Si Si2 0.709469 0.881962 0.845696
Si Si3 0.574121 0.836788 0.408957
Si Si4 0.026953 0.060725 0.704578
Si Si5 0.908396 0.392005 0.322734
Si Si6 0.346537 0.532933 0.523906
Si Si7 0.886036 0.185639 0.871860
O O1 0.659468 0.380656 0.157653
O O2 0.268259 0.168301 0.815975
O O3 0.500000 0.000000 0.000000
O O4 0.682686 0.091469 0.953475
O O5 0.462258 0.754153 0.687464
O O6 0.807067 0.950792 0.808657
O O7 0.883400 0.750461 0.939611
O O8 0.630967 0.644463 0.440304
O O9 0.352581 0.742991 0.213778
O O10 0.500000 0.000000 0.500000
O O11 0.797525 0.967904 0.507769
O O12 0.954779 0.199925 0.798056
O O13 0.069642 0.848959 0.717667
O O14 0.000000 0.500000 0.500000
O O15 0.086870 0.508255 0.368089
O O16 0.500000 0.500000 0.500000
#
# Coordination Sequence:
#
# PCOD9076307 Si02
#       7
#     2   2   2   2   2   2   2
#     4  10  18  33  54  82 109 144 188 229 278 327
#     4  11  21  34  59  87 110 143 191 232 276 330
#     4   9  19  36  55  81 116 150 179 229 281 330
#     4   9  17  34  55  77 106 147 188 218 276 334
#     4  10  19  31  51  83 113 141 181 233 275 326
#     4  11  22  34  57  88 113 142 191 231 273 328
#     4  10  20  35  59  81 114 147 186 226 282 326
#
# _framework density 26.046527999999999
#
# number of rings (size 3 to 8) (size 9 to 14) (size 15 to 20)
#    0.000    2.000    2.857    4.286    2.000    0.571 
#    0.000    0.714    0.000    5.143    0.000   10.000 
#    0.000    0.000    0.000    0.000    0.000    0.000 
#
# Total GULP energy -78033.568890 kJ/mol
# GULP energy per Si atom -5573.826349 kJ/mol
# Density = 2.598724 g / cm^3
# Si number density = 26.046528 Si / 1000 Ang^3
#
#
#
# Elastic Constant Matrix: (Units=GPa)
#
#
# Indices 1 2 3 4 5 6 
#
# 1 110.1467 6.8458 64.9934 -9.9234 29.7968 -5.1133
# 2 6.8458 32.9521 20.3194 -9.6222 6.1339 -0.4613
# 3 64.9934 20.3194 163.3920 -6.8748 60.0980 0.2107
# 4 -9.9234 -9.6222 -6.8748 33.2627 -3.9154 7.6135
# 5 29.7968 6.1339 60.0980 -3.9154 61.3937 -4.8374
# 6 -5.1133 -0.4613 0.2107 7.6135 -4.8374 22.7023
#
#
#
# Elastic Compliance Matrix: (Units=1/GPa)
#
#
# Indices 1 2 3 4 5 6 
#
# 1 0.012306 0.001196 -0.004384 0.002554 -0.001507 0.001659
# 2 0.001196 0.035918 -0.004922 0.010365 0.001138 -0.002189
# 3 -0.004384 -0.004922 0.011858 -0.000699 -0.009264 -0.002937
# 4 0.002554 0.010365 -0.000699 0.036270 -0.000177 -0.011409
# 5 -0.001507 0.001138 -0.009264 -0.000177 0.026393 0.005453
# 6 0.001659 -0.002189 -0.002937 -0.011409 0.005453 0.049393
#
#
# Mechanical properties :
#
#
# Convention : Reuss Voigt Hill
#
# Bulk Modulus (GPa) = 22.79862 54.53422 38.66642
# Shear Modulus (GPa) = 24.63302 37.76055 31.19678
#
# Velocity S-wave (km/s) = 3.07861 3.81167 3.46458
# Velocity P-wave (km/s) = 4.62700 6.35251 5.55714
#
# Compressibility (1/GPa) = 0.04386231
#
# Stress axis : x y z
#
# Youngs Moduli (GPa) = 81.25956 27.84129 84.32913
#
# Poissons Ratio (x) = -0.03331 0.36973
# Poissons Ratio (y) = -0.09722 0.41508
# Poissons Ratio (z) = 0.35627 0.13704
#
# Static dielectric constant tensor:
#      x y z
#    x 3.090550 0.216540 -1.394320 
#    y 0.216540 2.131430 -0.477940 
#    z -1.394320 -0.477940 4.418990 
# 
# From -- ./inp_files/493720.got.cif
#   From: 2010.05.17/outbox.cif.g08.bks.cpg/sg2_247_cif.got.tgz:493720.got - 2010.06.03 11:33:40.
