data_PCOD9076179
_publ_section_title
;
Structure prediction by ZEFSAII (Michael W. Deem and Ramdas Pophale) SiO2 
 PCOD9076179
Probable space group: P -1
;
_chemical_formula_sum "Si O2"
_cell_formula_units_Z 16
_cell_length_a 12.838568
_cell_length_b 11.230491
_cell_length_c 6.910713
_cell_angle_alpha 110.767919
_cell_angle_beta 138.963319
_cell_angle_gamma 71.207098
_cell_volume 609.246931
_symmetry_space_group_name_H-M "P -1"
_symmetry_group_IT_number 2
_symmetry_cell_setting 'triclinic'
loop_
_space_group_symop_operation_xyz
x,y,z
-x,-y,-z
loop_
_atom_site_type_symbol
_atom_site_label
_atom_site_fract_x
_atom_site_fract_y
_atom_site_fract_z
Si Si1 0.445530 0.566158 0.210495
Si Si2 0.364406 0.655382 0.555751
Si Si3 0.276817 0.107461 0.259915
Si Si4 0.190700 0.374770 0.333531
Si Si5 0.345576 0.927646 0.724615
Si Si6 0.947467 0.372003 0.646514
Si Si7 0.643457 0.160588 0.874157
Si Si8 0.102386 0.109092 0.618953
O O1 0.370315 0.573158 0.322147
O O2 0.487551 0.412312 0.147587
O O3 0.626678 0.603494 0.449202
O O4 0.343079 0.688206 0.043881
O O5 0.382412 0.797552 0.584829
O O6 0.196485 0.655945 0.426147
O O7 0.180934 0.228307 0.299161
O O8 0.460329 0.130298 0.567192
O O9 0.258567 0.956020 0.171770
O O10 0.229079 0.131616 0.980921
O O11 0.117490 0.486765 0.439337
O O12 0.094130 0.390581 0.006532
O O13 0.201014 0.033714 0.543827
O O14 0.321404 0.870048 0.870604
O O15 0.500000 0.000000 0.000000
O O16 0.002531 0.245259 0.527219
O O17 0.000000 0.000000 0.500000
#
# Coordination Sequence:
#
# PCOD9076179 Si02
#       8
#     2   2   2   2   2   2   2   2
#     4   9  19  34  56  78 110 138 176 222 274 314
#     4  10  20  33  51  86 108 133 179 232 260 315
#     4   8  16  28  52  75  98 135 176 209 252 323
#     4   8  15  28  51  77  97 139 176 211 255 322
#     4  11  24  34  54  82 109 140 187 226 267 315
#     4   9  16  29  49  75 106 137 172 215 264 315
#     4   9  18  34  53  78 107 149 173 220 272 321
#     4  10  18  33  51  78 110 141 174 224 273 315
#
# _framework density 26.261928999999999
#
# number of rings (size 3 to 8) (size 9 to 14) (size 15 to 20)
#    0.000    2.750    1.250    0.000   10.500    0.500 
#    0.000    0.000    0.000   16.500    0.000    4.375 
#    0.000    0.000    0.000    0.000    0.000    0.000 
#
# Total GULP energy -89138.410185 kJ/mol
# GULP energy per Si atom -5571.150637 kJ/mol
# Density = 2.620216 g / cm^3
# Si number density = 26.261929 Si / 1000 Ang^3
#
#
#
# Elastic Constant Matrix: (Units=GPa)
#
#
# Indices 1 2 3 4 5 6 
#
# 1 58.0278 39.6212 15.0294 -2.5868 -3.0534 -16.9576
# 2 39.6212 286.9572 0.7839 -4.0148 -3.7070 -33.4219
# 3 15.0294 0.7839 55.7604 -4.7300 3.4057 -7.9424
# 4 -2.5868 -4.0148 -4.7300 45.2876 -3.4003 -6.3465
# 5 -3.0534 -3.7070 3.4057 -3.4003 20.8634 -7.1651
# 6 -16.9576 -33.4219 -7.9424 -6.3465 -7.1651 46.7681
#
#
#
# Elastic Compliance Matrix: (Units=1/GPa)
#
#
# Indices 1 2 3 4 5 6 
#
# 1 0.022563 -0.002173 -0.005280 0.002015 0.006511 0.007003
# 2 -0.002173 0.004114 0.000888 0.000796 0.001294 0.002609
# 3 -0.005280 0.000888 0.019958 0.001914 -0.002900 0.001925
# 4 0.002015 0.000796 0.001914 0.023722 0.005967 0.005758
# 5 0.006511 0.001294 -0.002900 0.005967 0.054674 0.011979
# 6 0.007003 0.002609 0.001925 0.005758 0.011979 0.028729
#
#
# Mechanical properties :
#
#
# Convention : Reuss Voigt Hill
#
# Bulk Modulus (GPa) = 29.84638 56.84605 43.34622
# Shear Modulus (GPa) = 28.08049 45.60456 36.84253
#
# Velocity S-wave (km/s) = 3.27348 4.17169 3.74958
# Velocity P-wave (km/s) = 5.06726 6.70050 5.94028
#
# Compressibility (1/GPa) = 0.03350491
#
# Stress axis : x y z
#
# Youngs Moduli (GPa) = 44.31969 243.05959 50.10459
#
# Poissons Ratio (x) = 0.52819 0.26457
# Poissons Ratio (y) = 0.09631 -0.04450
# Poissons Ratio (z) = 0.23403 -0.21585
#
# Static dielectric constant tensor:
#      x y z
#    x 2.029230 -0.028650 -0.073940 
#    y -0.028650 2.323150 0.023690 
#    z -0.073940 0.023690 2.142480 
# 
# From -- ./inp_files/308400.got.cif
#   From: 2010.05.17/outbox.cif.g08.bks.cpg/sg2_155_cif.got.tgz:308400.got - 2010.06.03 11:33:40.
