data_PCOD9076234
_publ_section_title
;
Structure prediction by ZEFSAII (Michael W. Deem and Ramdas Pophale) SiO2 
 PCOD9076234
Probable space group: P -1
;
_chemical_formula_sum "Si O2"
_cell_formula_units_Z 16
_cell_length_a 20.435952
_cell_length_b 11.426822
_cell_length_c 19.744107
_cell_angle_alpha 140.439421
_cell_angle_beta 160.006967
_cell_angle_gamma 47.100003
_cell_volume 983.504756
_symmetry_space_group_name_H-M "P -1"
_symmetry_group_IT_number 2
_symmetry_cell_setting 'triclinic'
loop_
_space_group_symop_operation_xyz
x,y,z
-x,-y,-z
loop_
_atom_site_type_symbol
_atom_site_label
_atom_site_fract_x
_atom_site_fract_y
_atom_site_fract_z
Si Si1 0.314458 0.598003 0.149744
Si Si2 0.335155 0.223914 0.082151
Si Si3 0.235061 0.844105 0.528697
Si Si4 0.939472 0.419558 0.630006
Si Si5 0.047293 0.846755 0.070103
Si Si6 0.971924 0.708505 0.083208
Si Si7 0.016733 0.923365 0.557757
Si Si8 0.249112 0.238547 0.377722
O O1 0.362071 0.413976 0.149417
O O2 0.191798 0.707770 0.128509
O O3 0.517968 0.729015 0.385624
O O4 0.161434 0.523613 0.908065
O O5 0.539995 0.162426 0.261370
O O6 0.233084 0.272799 0.073696
O O7 0.187108 0.060528 0.825357
O O8 0.140628 0.700986 0.433712
O O9 0.127410 0.779727 0.325282
O O10 0.181494 0.043920 0.584933
O O11 0.811202 0.576726 0.567428
O O12 0.940195 0.280679 0.505648
O O13 0.001781 0.824470 0.094751
O O14 0.152647 0.054683 0.243541
O O15 0.854503 0.788006 0.809168
O O16 0.000000 0.500000 0.000000
O O17 0.000000 0.000000 0.500000
#
# Coordination Sequence:
#
# PCOD9076234 Si02
#       8
#     2   2   2   2   2   2   2   2
#     4  11  18  32  52  77 106 131 168 210 250 302
#     4  11  20  31  52  79 106 136 168 203 258 309
#     4  10  20  32  47  76 107 133 168 206 252 308
#     4  10  18  33  53  77 107 132 164 212 261 300
#     4  10  22  37  51  73 106 139 170 208 254 293
#     4  11  20  35  50  73 106 137 167 210 251 298
#     4   9  18  32  48  77 111 132 157 215 263 301
#     4  10  21  35  54  76 101 135 175 210 246 307
#
# _framework density 16.268350999999999
#
# number of rings (size 3 to 8) (size 9 to 14) (size 15 to 20)
#    0.000    1.750    6.250    1.125    0.000    4.500 
#    0.000    0.000    0.000    3.000    0.000    5.250 
#    0.000    0.000    0.000    0.000    0.000    0.000 
#
# Total GULP energy -89169.171805 kJ/mol
# GULP energy per Si atom -5573.073238 kJ/mol
# Density = 1.623132 g / cm^3
# Si number density = 16.268351 Si / 1000 Ang^3
#
#
#
# Elastic Constant Matrix: (Units=GPa)
#
#
# Indices 1 2 3 4 5 6 
#
# 1 90.3902 36.8129 39.5886 -1.5505 -6.2753 -18.2225
# 2 36.8129 49.7747 23.2194 -1.0118 -5.2545 -14.0906
# 3 39.5886 23.2194 78.4671 -12.9022 14.3629 -15.4755
# 4 -1.5505 -1.0118 -12.9022 28.8459 -8.4333 0.1803
# 5 -6.2753 -5.2545 14.3629 -8.4333 17.0358 3.1882
# 6 -18.2225 -14.0906 -15.4755 0.1803 3.1882 26.0116
#
#
#
# Elastic Compliance Matrix: (Units=1/GPa)
#
#
# Indices 1 2 3 4 5 6 
#
# 1 0.019878 -0.008417 -0.009279 0.000174 0.012195 0.002350
# 2 -0.008417 0.032073 -0.005720 0.001286 0.010994 0.006718
# 3 -0.009279 -0.005720 0.026630 0.002975 -0.027968 0.009652
# 4 0.000174 0.001286 0.002975 0.041450 0.018465 0.000038
# 5 0.012195 0.010994 -0.027968 0.018465 0.102069 -0.014779
# 6 0.002350 0.006718 0.009652 0.000038 -0.014779 0.051283
#
#
# Mechanical properties :
#
#
# Convention : Reuss Voigt Hill
#
# Bulk Modulus (GPa) = 31.49657 46.43042 38.96349
# Shear Modulus (GPa) = 15.11496 22.31273 18.71384
#
# Velocity S-wave (km/s) = 3.05142 3.70745 3.39532
# Velocity P-wave (km/s) = 5.64071 6.85049 6.27482
#
# Compressibility (1/GPa) = 0.03174949
#
# Stress axis : x y z
#
# Youngs Moduli (GPa) = 50.30594 31.17922 37.55146
#
# Poissons Ratio (x) = 0.26245 0.34842
# Poissons Ratio (y) = 0.42344 0.21479
# Poissons Ratio (z) = 0.46676 0.17834
#
# Static dielectric constant tensor:
#      x y z
#    x 1.538970 -0.015280 0.004380 
#    y -0.015280 1.573650 0.009390 
#    z 0.004380 0.009390 1.551490 
# 
# From -- ./inp_files/435851.got.cif
#   From: 2010.05.17/outbox.cif.g08.bks.cpg/sg2_218_cif.got.tgz:435851.got - 2010.06.03 11:33:40.
