data_PCOD9076260
_publ_section_title
;
Structure prediction by ZEFSAII (Michael W. Deem and Ramdas Pophale) SiO2 
 PCOD9076260
Probable space group: P -1
;
_chemical_formula_sum "Si O2"
_cell_formula_units_Z 14
_cell_length_a 7.735479
_cell_length_b 10.802897
_cell_length_c 10.289326
_cell_angle_alpha 98.728190
_cell_angle_beta 138.376114
_cell_angle_gamma 68.389446
_cell_volume 520.250930
_symmetry_space_group_name_H-M "P -1"
_symmetry_group_IT_number 2
_symmetry_cell_setting 'triclinic'
loop_
_space_group_symop_operation_xyz
x,y,z
-x,-y,-z
loop_
_atom_site_type_symbol
_atom_site_label
_atom_site_fract_x
_atom_site_fract_y
_atom_site_fract_z
Si Si1 0.779862 0.049352 0.097665
Si Si2 0.309536 0.803272 0.453043
Si Si3 0.858871 0.781858 0.644284
Si Si4 0.200951 0.351926 0.644147
Si Si5 0.380308 0.154112 0.127160
Si Si6 0.774405 0.506669 0.085417
Si Si7 0.260673 0.634434 0.187231
O O1 0.532362 0.131403 0.069925
O O2 0.959719 0.138780 0.187161
O O3 0.999728 0.915386 0.272512
O O4 0.657460 0.990244 0.901069
O O5 0.531298 0.847357 0.503987
O O6 0.414095 0.810134 0.656351
O O7 0.339721 0.659497 0.382910
O O8 0.894248 0.752671 0.504723
O O9 0.975778 0.634534 0.756930
O O10 0.177346 0.374617 0.789012
O O11 0.516766 0.325115 0.766422
O O12 0.000000 0.500000 0.500000
O O13 0.065414 0.264712 0.985494
O O14 0.500000 0.500000 0.000000
O O15 0.723311 0.501518 0.901561
#
# Coordination Sequence:
#
# PCOD9076260 Si02
#       7
#     2   2   2   2   2   2   2
#     4  10  22  35  52  76 112 138 178 209 259 314
#     4  10  19  34  54  78 105 138 177 213 260 308
#     4  10  18  33  53  84 104 133 174 226 256 302
#     4   8  16  29  53  79 101 129 169 219 264 301
#     4  10  20  37  52  74 108 149 170 206 257 326
#     4   9  16  31  53  79 103 132 169 220 263 307
#     4   9  17  31  55  77 100 137 178 204 258 317
#
# _framework density 26.910088999999999
#
# number of rings (size 3 to 8) (size 9 to 14) (size 15 to 20)
#    0.000    2.571    1.429    0.857    0.000    0.571 
#    7.714    0.000    0.000    8.571    0.000    0.000 
#    0.000    0.000    0.000    0.000    0.000    0.000 
#
# Total GULP energy -78191.298261 kJ/mol
# GULP energy per Si atom -5585.092733 kJ/mol
# Density = 2.684884 g / cm^3
# Si number density = 26.910089 Si / 1000 Ang^3
#
#
#
# Elastic Constant Matrix: (Units=GPa)
#
#
# Indices 1 2 3 4 5 6 
#
# 1 85.3194 61.7662 44.4269 17.4070 36.2473 -19.0758
# 2 61.7662 96.6152 66.2439 2.9196 -29.0304 -29.9698
# 3 44.4269 66.2439 152.5617 17.7370 -7.9980 -17.1224
# 4 17.4070 2.9196 17.7370 63.9096 -30.5471 -1.6933
# 5 36.2473 -29.0304 -7.9980 -30.5471 29.4997 -5.0550
# 6 -19.0758 -29.9698 -17.1224 -1.6933 -5.0550 38.6316
#
#
#
# Elastic Compliance Matrix: (Units=1/GPa)
#
#
# Indices 1 2 3 4 5 6 
#
# 1 0.001075 0.008239 -0.003100 0.007698 0.015269 0.007884
# 2 0.008239 0.003999 -0.003579 -0.008945 -0.015888 0.003114
# 3 -0.003100 -0.003579 0.009190 -0.000412 0.002361 0.000056
# 4 0.007698 -0.008945 -0.000412 0.009597 -0.009137 -0.004096
# 5 0.015269 -0.015888 0.002361 -0.009137 -0.010259 -0.005482
# 6 0.007884 0.003114 0.000056 -0.004096 -0.005482 0.031322
#
#
# Mechanical properties :
#
#
# Convention : Reuss Voigt Hill
#
# Bulk Modulus (GPa) = 57.52535 75.48559 66.50547
# Shear Modulus (GPa) = 105.04077 37.21216 71.12647
#
# Velocity S-wave (km/s) = 6.25450 3.72268 5.14670
# Velocity P-wave (km/s) = 8.57797 6.82567 7.75149
#
# Compressibility (1/GPa) = 0.01738364
#
# Stress axis : x y z
#
# Youngs Moduli (GPa) = 929.97980 250.03777 108.81534
#
# Poissons Ratio (x) = -2.06018 0.33738
# Poissons Ratio (y) = -7.66254 0.38950
# Poissons Ratio (z) = 2.88337 0.89500
#
# Static dielectric constant tensor:
#      x y z
#    x 2.111250 0.041340 -0.053350 
#    y 0.041340 2.131030 0.051460 
#    z -0.053350 0.051460 2.170840 
# 
# From -- ./inp_files/210627.got.cif
#   From: 2010.05.17/outbox.cif.g08.bks.cpg/sg2_106_cif.got.tgz:210627.got - 2010.06.03 11:33:40.
