data_PCOD9076356
_publ_section_title
;
Structure prediction by ZEFSAII (Michael W. Deem and Ramdas Pophale) SiO2 
 PCOD9076356
Probable space group: P -1
;
_chemical_formula_sum "Si O2"
_cell_formula_units_Z 16
_cell_length_a 10.886673
_cell_length_b 7.912998
_cell_length_c 12.947800
_cell_angle_alpha 79.485733
_cell_angle_beta 141.580072
_cell_angle_gamma 92.821930
_cell_volume 673.428532
_symmetry_space_group_name_H-M "P -1"
_symmetry_group_IT_number 2
_symmetry_cell_setting 'triclinic'
loop_
_space_group_symop_operation_xyz
x,y,z
-x,-y,-z
loop_
_atom_site_type_symbol
_atom_site_label
_atom_site_fract_x
_atom_site_fract_y
_atom_site_fract_z
Si Si1 0.645850 0.542193 0.000938
Si Si2 0.743283 0.337172 0.665696
Si Si3 0.795473 0.849406 0.484784
Si Si4 0.913753 0.189889 0.502515
Si Si5 0.626590 0.502385 0.364235
Si Si6 0.154138 0.130655 0.864351
Si Si7 0.162175 0.860744 0.065053
Si Si8 0.957433 0.656781 0.799220
O O1 0.546234 0.516335 0.827823
O O2 0.500000 0.500000 0.000000
O O3 0.695672 0.733777 0.032843
O O4 0.859657 0.421151 0.146394
O O5 0.603118 0.410806 0.470004
O O6 0.686100 0.226361 0.737539
O O7 0.937580 0.216627 0.758139
O O8 0.825663 0.506615 0.742397
O O9 0.670426 0.699544 0.382288
O O10 0.995373 0.809954 0.550723
O O11 0.836479 0.814032 0.636866
O O12 0.749210 0.058333 0.416935
O O13 0.820448 0.381473 0.456316
O O14 0.097722 0.116506 0.708943
O O15 0.232119 0.957812 0.000145
O O16 0.041530 0.718332 0.953315
O O17 0.000000 0.000000 0.000000
#
# Coordination Sequence:
#
# PCOD9076356 Si02
#       8
#     2   2   2   2   2   2   2   2
#     4  11  22  37  55  79 118 161 181 213 280 346
#     4   8  18  33  59  80 101 141 186 237 284 312
#     4  10  19  32  56  83 106 144 190 238 279 321
#     4  10  18  33  55  81 110 142 189 240 278 318
#     4  10  20  36  52  79 116 148 185 225 279 343
#     4   9  18  34  55  82 111 140 188 232 271 330
#     4  10  18  34  58  84 106 135 185 247 286 315
#     4  10  19  35  56  85 110 141 190 233 268 341
#
# _framework density 23.759018999999999
#
# number of rings (size 3 to 8) (size 9 to 14) (size 15 to 20)
#    0.000    2.250    1.250    3.000    0.000    0.000 
#    2.250    1.875    0.000    0.000    0.000    0.000 
#    0.000    0.000    0.000    0.000    0.000    0.000 
#
# Total GULP energy -89369.385880 kJ/mol
# GULP energy per Si atom -5585.586617 kJ/mol
# Density = 2.370494 g / cm^3
# Si number density = 23.759019 Si / 1000 Ang^3
#
#
#
# Elastic Constant Matrix: (Units=GPa)
#
#
# Indices 1 2 3 4 5 6 
#
# 1 66.7316 26.8954 24.2827 -5.1628 -1.6222 0.0199
# 2 26.8954 93.5135 53.9982 5.6517 -6.9514 8.9871
# 3 24.2827 53.9982 124.4073 2.7916 -27.4823 23.3111
# 4 -5.1628 5.6517 2.7916 34.8142 -2.0836 -13.2510
# 5 -1.6222 -6.9514 -27.4823 -2.0836 30.0366 -3.4140
# 6 0.0199 8.9871 23.3111 -13.2510 -3.4140 22.4240
#
#
#
# Elastic Compliance Matrix: (Units=1/GPa)
#
#
# Indices 1 2 3 4 5 6 
#
# 1 0.018984 -0.004591 -0.004398 0.007839 -0.002304 0.010677
# 2 -0.004591 0.015734 -0.005845 -0.004072 -0.002581 -0.003025
# 3 -0.004398 -0.005845 0.017773 -0.007550 0.012015 -0.018762
# 4 0.007839 -0.004072 -0.007550 0.044810 -0.000237 0.035918
# 5 -0.002304 -0.002581 0.012015 -0.000237 0.042973 -0.005051
# 6 0.010677 -0.003025 -0.018762 0.035918 -0.005051 0.085758
#
#
# Mechanical properties :
#
#
# Convention : Reuss Voigt Hill
#
# Bulk Modulus (GPa) = 43.81825 55.00056 49.40941
# Shear Modulus (GPa) = 18.98915 29.42004 24.20460
#
# Velocity S-wave (km/s) = 2.83015 3.52272 3.19526
# Velocity P-wave (km/s) = 5.40023 6.30442 5.86976
#
# Compressibility (1/GPa) = 0.02282154
#
# Stress axis : x y z
#
# Youngs Moduli (GPa) = 52.67711 63.55494 56.26614
#
# Poissons Ratio (x) = 0.29181 0.24745
# Poissons Ratio (y) = 0.24187 0.32889
# Poissons Ratio (z) = 0.23167 0.37149
#
# Static dielectric constant tensor:
#      x y z
#    x 1.901710 -0.014650 0.015800 
#    y -0.014650 1.933010 -0.049670 
#    z 0.015800 -0.049670 1.940810 
# 
# From -- ./inp_files/182577.got.cif
#   From: 2010.05.17/outbox.cif.g08.bks.cpg/sg2_92_cif.got.tgz:182577.got - 2010.06.03 11:33:40.
