data_PCOD9076145
_publ_section_title
;
Structure prediction by ZEFSAII (Michael W. Deem and Ramdas Pophale) SiO2 
 PCOD9076145
Probable space group: P -1
;
_chemical_formula_sum "Si O2"
_cell_formula_units_Z 13
_cell_length_a 19.240585
_cell_length_b 11.612014
_cell_length_c 7.995713
_cell_angle_alpha 53.703636
_cell_angle_beta 50.932356
_cell_angle_gamma 25.829907
_cell_volume 602.696306
_symmetry_space_group_name_H-M "P -1"
_symmetry_group_IT_number 2
_symmetry_cell_setting 'triclinic'
loop_
_space_group_symop_operation_xyz
x,y,z
-x,-y,-z
loop_
_atom_site_type_symbol
_atom_site_label
_atom_site_fract_x
_atom_site_fract_y
_atom_site_fract_z
Si Si1 0.492678 0.383038 0.980947
Si Si2 0.008737 0.500276 0.782243
Si Si3 0.000000 0.000000 0.500000
Si Si4 0.347397 0.121324 0.701894
Si Si5 0.841667 0.447034 0.105805
Si Si6 0.198252 0.742733 0.907547
Si Si7 0.771850 0.079920 0.569685
O O1 0.301272 0.603703 0.041504
O O2 0.593636 0.290726 0.741250
O O3 0.500000 0.500000 0.000000
O O4 0.589252 0.118315 0.134414
O O5 0.195624 0.304508 0.644568
O O6 0.879018 0.790652 0.662953
O O7 0.000000 0.500000 0.000000
O O8 0.961200 0.405488 0.876377
O O9 0.943605 0.206687 0.280757
O O10 0.871256 0.062926 0.543986
O O11 0.283016 0.295962 0.809790
O O12 0.500000 0.000000 0.500000
O O13 0.752824 0.463945 0.093517
O O14 0.239646 0.831583 0.669274
O O15 0.000000 0.000000 0.000000
#
# Coordination Sequence:
#
# PCOD9076145 Si02
#       7
#     2   2   1   2   2   2   2
#     4  12  28  45  71 102 142 184 238 287 347 424
#     4  10  18  40  67  99 130 179 227 277 345 412
#     4  10  18  32  74  96 126 178 220 272 342 402
#     4  11  24  39  68 108 137 177 236 284 342 413
#     4  10  21  42  66  95 141 180 226 277 344 409
#     4  11  29  45  69 104 140 184 236 291 353 407
#     4  11  22  44  71  97 141 179 234 284 352 408
#
# _framework density 21.569735999999999
#
# number of rings (size 3 to 8) (size 9 to 14) (size 15 to 20)
#    0.000    1.231    6.154    0.462   12.923    0.615 
#    0.000    0.769    0.000    0.000    0.000    0.000 
#    0.000    0.000    0.000    0.000    0.000    0.000 
#
# Total GULP energy -72420.680430 kJ/mol
# GULP energy per Si atom -5570.821572 kJ/mol
# Density = 2.152064 g / cm^3
# Si number density = 21.569736 Si / 1000 Ang^3
#
#
#
# Elastic Constant Matrix: (Units=GPa)
#
#
# Indices 1 2 3 4 5 6 
#
# 1 94.4520 52.8416 10.2872 -20.3790 -11.5111 3.6087
# 2 52.8416 123.4425 40.2892 -10.1574 -13.0090 -0.7932
# 3 10.2872 40.2892 65.4879 -3.7037 -31.9669 14.5826
# 4 -20.3790 -10.1574 -3.7037 36.7712 -0.8683 -10.4477
# 5 -11.5111 -13.0090 -31.9669 -0.8683 34.3049 -4.7051
# 6 3.6087 -0.7932 14.5826 -10.4477 -4.7051 36.3142
#
#
#
# Elastic Compliance Matrix: (Units=1/GPa)
#
#
# Indices 1 2 3 4 5 6 
#
# 1 0.017461 -0.008462 0.008366 0.007963 0.010423 -0.001638
# 2 -0.008462 0.015224 -0.013711 -0.000565 -0.009126 0.005335
# 3 0.008366 -0.013711 0.042957 0.002312 0.035904 -0.013064
# 4 0.007963 -0.000565 0.002312 0.034412 0.006723 0.009040
# 5 0.010423 -0.009126 0.035904 0.006723 0.062035 -0.005681
# 6 -0.001638 0.005335 -0.013064 0.009040 -0.005681 0.034927
#
#
# Mechanical properties :
#
#
# Convention : Reuss Voigt Hill
#
# Bulk Modulus (GPa) = 20.82139 54.46871 37.64505
# Shear Modulus (GPa) = 19.94882 33.47569 26.71226
#
# Velocity S-wave (km/s) = 3.04444 3.94379 3.52293
# Velocity P-wave (km/s) = 4.69384 6.78566 5.83426
#
# Compressibility (1/GPa) = 0.04802754
#
# Stress axis : x y z
#
# Youngs Moduli (GPa) = 57.26976 65.68395 23.27912
#
# Poissons Ratio (x) = 0.55581 -0.19475
# Poissons Ratio (y) = 0.48461 0.31919
# Poissons Ratio (z) = -0.47911 0.90062
#
# Static dielectric constant tensor:
#      x y z
#    x 1.832620 -0.009620 0.000520 
#    y -0.009620 1.797500 0.058170 
#    z 0.000520 0.058170 1.820910 
# 
# From -- ./inp_files/152803.got.cif
#   From: 2010.05.17/outbox.cif.g08.bks.cpg/sg2_77_cif.got.tgz:152803.got - 2010.06.03 11:33:40.
