data_PCOD9076281
_publ_section_title
;
Structure prediction by ZEFSAII (Michael W. Deem and Ramdas Pophale) SiO2 
 PCOD9076281
Probable space group: P -1
;
_chemical_formula_sum "Si O2"
_cell_formula_units_Z 16
_cell_length_a 9.434087
_cell_length_b 7.640251
_cell_length_c 12.321734
_cell_angle_alpha 111.913833
_cell_angle_beta 83.057958
_cell_angle_gamma 129.426747
_cell_volume 628.044194
_symmetry_space_group_name_H-M "P -1"
_symmetry_group_IT_number 2
_symmetry_cell_setting 'triclinic'
loop_
_space_group_symop_operation_xyz
x,y,z
-x,-y,-z
loop_
_atom_site_type_symbol
_atom_site_label
_atom_site_fract_x
_atom_site_fract_y
_atom_site_fract_z
Si Si1 0.695647 0.845977 0.474129
Si Si2 0.676339 0.930009 0.061874
Si Si3 0.409164 0.101797 0.269822
Si Si4 0.090009 0.327831 0.476734
Si Si5 0.675543 0.563926 0.718008
Si Si6 0.059725 0.308037 0.096481
Si Si7 0.804099 0.302229 0.275908
Si Si8 0.703399 0.304606 0.980314
O O1 0.626915 0.909297 0.600310
O O2 0.776669 0.719183 0.488639
O O3 0.521840 0.669581 0.368174
O O4 0.877604 0.086982 0.457371
O O5 0.696312 0.011087 0.204901
O O6 0.878365 0.017988 0.045540
O O7 0.470987 0.697991 0.996008
O O8 0.692746 0.140362 0.037597
O O9 0.319864 0.208039 0.247329
O O10 0.629165 0.291994 0.266455
O O11 0.329102 0.850822 0.159982
O O12 0.165021 0.388078 0.362624
O O13 0.124562 0.552830 0.586459
O O14 0.750479 0.587934 0.836483
O O15 0.113386 0.422445 0.997936
O O16 0.973939 0.410234 0.202145
#
# Coordination Sequence:
#
# PCOD9076281 Si02
#       8
#     2   2   2   2   2   2   2   2
#     4  10  19  32  54  78 107 149 183 215 257 319
#     4   8  20  35  59  80 105 136 182 226 266 309
#     4  10  18  36  59  76 107 144 190 213 254 325
#     4  10  18  33  54  77 109 144 188 213 253 323
#     4  11  21  36  52  82 116 144 165 229 275 304
#     4  10  22  34  56  82 114 135 175 224 279 310
#     4   9  17  34  53  77 104 141 177 217 254 321
#     4  10  18  38  61  80 100 144 185 220 260 326
#
# _framework density 25.475914
#
# number of rings (size 3 to 8) (size 9 to 14) (size 15 to 20)
#    0.750    1.500    2.500    1.875    0.000    1.500 
#    0.000    1.875    0.000    6.750    0.000    0.000 
#    0.000    0.000    0.000    0.000    0.000    0.000 
#
# Total GULP energy -89129.209356 kJ/mol
# GULP energy per Si atom -5570.575585 kJ/mol
# Density = 2.541793 g / cm^3
# Si number density = 25.475914 Si / 1000 Ang^3
#
#
#
# Elastic Constant Matrix: (Units=GPa)
#
#
# Indices 1 2 3 4 5 6 
#
# 1 121.8414 14.5052 32.4308 -6.0311 4.4787 27.8130
# 2 14.5052 52.3998 28.4842 -11.1277 10.2381 19.5748
# 3 32.4308 28.4842 89.0592 6.4721 8.2484 12.5890
# 4 -6.0311 -11.1277 6.4721 30.8263 2.0798 -3.6271
# 5 4.4787 10.2381 8.2484 2.0798 42.9422 -5.4146
# 6 27.8130 19.5748 12.5890 -3.6271 -5.4146 31.2111
#
#
#
# Elastic Compliance Matrix: (Units=1/GPa)
#
#
# Indices 1 2 3 4 5 6 
#
# 1 0.011782 0.004938 -0.004130 0.003758 -0.003317 -0.012069
# 2 0.004938 0.037738 -0.010493 0.014718 -0.011246 -0.024077
# 3 -0.004130 -0.010493 0.016178 -0.007685 0.000568 0.002941
# 4 0.003758 0.014718 -0.007685 0.039769 -0.005075 -0.005739
# 5 -0.003317 -0.011246 0.000568 -0.005075 0.028227 0.014087
# 6 -0.012069 -0.024077 0.002941 -0.005739 0.014087 0.058486
#
#
# Mechanical properties :
#
#
# Convention : Reuss Voigt Hill
#
# Bulk Modulus (GPa) = 21.58440 46.01564 33.80002
# Shear Modulus (GPa) = 22.02725 33.52126 27.77426
#
# Velocity S-wave (km/s) = 2.94365 3.63133 3.30542
# Velocity P-wave (km/s) = 4.47709 5.97359 5.27864
#
# Compressibility (1/GPa) = 0.04632976
#
# Stress axis : x y z
#
# Youngs Moduli (GPa) = 84.87763 26.49849 61.81068
#
# Poissons Ratio (x) = -0.13086 0.25525
# Poissons Ratio (y) = -0.41914 0.64856
# Poissons Ratio (z) = 0.35051 0.27804
#
# Static dielectric constant tensor:
#      x y z
#    x 2.164340 -0.036010 0.012100 
#    y -0.036010 2.023000 -0.006480 
#    z 0.012100 -0.006480 2.029140 
# 
# From -- ./inp_files/218097.got.cif
#   From: 2010.05.17/outbox.cif.g08.bks.cpg/sg2_110_cif.got.tgz:218097.got - 2010.06.03 11:33:40.
