data_PCOD9076568
_publ_section_title
;
Structure prediction by ZEFSAII (Michael W. Deem and Ramdas Pophale) SiO2 
 PCOD9076568
Probable space group: P -1
;
_chemical_formula_sum "Si O2"
_cell_formula_units_Z 16
_cell_length_a 11.089575
_cell_length_b 10.650877
_cell_length_c 14.896881
_cell_angle_alpha 64.967114
_cell_angle_beta 39.007854
_cell_angle_gamma 42.269949
_cell_volume 695.346486
_symmetry_space_group_name_H-M "P -1"
_symmetry_group_IT_number 2
_symmetry_cell_setting 'triclinic'
loop_
_space_group_symop_operation_xyz
x,y,z
-x,-y,-z
loop_
_atom_site_type_symbol
_atom_site_label
_atom_site_fract_x
_atom_site_fract_y
_atom_site_fract_z
Si Si1 0.589731 0.470229 0.854757
Si Si2 0.694503 0.843576 0.802903
Si Si3 0.728954 0.112649 0.178995
Si Si4 0.992298 0.468903 0.619039
Si Si5 0.419315 0.884386 0.556648
Si Si6 0.827554 0.481649 0.026173
Si Si7 0.555944 0.893708 0.289819
Si Si8 0.869693 0.780703 0.914059
O O1 0.471748 0.664579 0.809703
O O2 0.909717 0.348598 0.709113
O O3 0.437131 0.427731 0.904143
O O4 0.500000 0.500000 0.000000
O O5 0.803856 0.654806 0.741288
O O6 0.884242 0.781711 0.797665
O O7 0.643266 0.991032 0.715378
O O8 0.380229 0.990547 0.978410
O O9 0.787079 0.072311 0.264111
O O10 0.604357 0.028073 0.251362
O O11 0.000000 0.000000 0.000000
O O12 0.000000 0.500000 0.500000
O O13 0.296695 0.341919 0.516023
O O14 0.400263 0.892610 0.458468
O O15 0.500000 0.000000 0.500000
O O16 0.873465 0.356408 0.123829
O O17 0.779533 0.667251 0.017717
O O18 0.125832 0.318798 0.850372
#
# Coordination Sequence:
#
# PCOD9076568 Si02
#       8
#     2   2   2   2   2   2   2   2
#     4  12  23  35  58  94 130 156 197 261 318 367
#     4  10  19  35  61  89 118 159 215 260 295 361
#     4  11  21  36  53  87 128 162 192 244 315 380
#     4  12  22  38  61  94 129 160 200 254 325 378
#     4  10  21  36  54  82 126 164 197 230 304 397
#     4  10  20  36  58  88 124 162 213 257 303 362
#     4  10  18  33  57  86 121 157 207 246 307 365
#     4   9  20  37  58  88 120 170 219 257 293 354
#
# _framework density 23.010110000000001
#
# number of rings (size 3 to 8) (size 9 to 14) (size 15 to 20)
#    0.000    1.500    3.750    3.000    1.750    0.000 
#    0.000    0.000    0.000    1.500    0.000    0.000 
#    0.000    0.000    0.000    0.000    0.000    0.125 
#
# Total GULP energy -89160.190493 kJ/mol
# GULP energy per Si atom -5572.511906 kJ/mol
# Density = 2.295774 g / cm^3
# Si number density = 23.010110 Si / 1000 Ang^3
#
#
#
# Elastic Constant Matrix: (Units=GPa)
#
#
# Indices 1 2 3 4 5 6 
#
# 1 85.4854 10.1986 41.0150 -7.7248 31.4042 -19.8205
# 2 10.1986 71.9920 19.9663 -4.6839 15.8509 0.1603
# 3 41.0150 19.9663 129.9452 -28.4070 27.8638 -16.9156
# 4 -7.7248 -4.6839 -28.4070 33.3142 -12.9351 15.9638
# 5 31.4042 15.8509 27.8638 -12.9351 42.7451 -12.8594
# 6 -19.8205 0.1603 -16.9156 15.9638 -12.8594 45.0511
#
#
#
# Elastic Compliance Matrix: (Units=1/GPa)
#
#
# Indices 1 2 3 4 5 6 
#
# 1 0.018498 0.000605 -0.004138 -0.006212 -0.011327 0.005550
# 2 0.000605 0.015527 -0.001676 -0.000445 -0.005823 -0.001923
# 3 -0.004138 -0.001676 0.011261 0.008294 -0.001452 -0.000940
# 4 -0.006212 -0.000445 0.008294 0.045407 0.009121 -0.013104
# 5 -0.011327 -0.005823 -0.001452 0.009121 0.038236 0.002174
# 6 0.005550 -0.001923 -0.000940 -0.013104 0.002174 0.029557
#
#
# Mechanical properties :
#
#
# Convention : Reuss Voigt Hill
#
# Bulk Modulus (GPa) = 28.67973 47.75360 38.21667
# Shear Modulus (GPa) = 27.69671 38.63824 33.16748
#
# Velocity S-wave (km/s) = 3.47317 4.10223 3.80074
# Velocity P-wave (km/s) = 5.34555 6.57542 5.99212
#
# Compressibility (1/GPa) = 0.03486783
#
# Stress axis : x y z
#
# Youngs Moduli (GPa) = 54.06037 64.40456 88.79984
#
# Poissons Ratio (x) = -0.03894 0.36746
# Poissons Ratio (y) = -0.03268 0.14879
# Poissons Ratio (z) = 0.22371 0.10791
#
# Static dielectric constant tensor:
#      x y z
#    x 2.128140 -0.146720 -0.086300 
#    y -0.146720 1.976540 0.096270 
#    z -0.086300 0.096270 1.995390 
# 
# From -- ./inp_files/519576.got.cif
#   From: 2010.05.17/outbox.cif.g08.bks.cpg/sg2_260_cif.got.tgz:519576.got - 2010.06.03 11:33:40.
