data_PCOD9076780
_publ_section_title
;
Structure prediction by ZEFSAII (Michael W. Deem and Ramdas Pophale) SiO2 
 PCOD9076780
Probable space group: P -1
;
_chemical_formula_sum "Si O2"
_cell_formula_units_Z 16
_cell_length_a 18.097681
_cell_length_b 9.935673
_cell_length_c 9.620676
_cell_angle_alpha 150.846689
_cell_angle_beta 78.076749
_cell_angle_gamma 104.934455
_cell_volume 813.633905
_symmetry_space_group_name_H-M "P -1"
_symmetry_group_IT_number 2
_symmetry_cell_setting 'triclinic'
loop_
_space_group_symop_operation_xyz
x,y,z
-x,-y,-z
loop_
_atom_site_type_symbol
_atom_site_label
_atom_site_fract_x
_atom_site_fract_y
_atom_site_fract_z
Si Si1 0.610827 0.137652 0.865441
Si Si2 0.805229 0.663403 0.448663
Si Si3 0.272786 0.937671 0.006831
Si Si4 0.823168 0.972225 0.459143
Si Si5 0.513238 0.567493 0.393363
Si Si6 0.912224 0.528093 0.069399
Si Si7 0.316261 0.854379 0.457335
Si Si8 0.359308 0.300805 0.057240
O O1 0.663741 0.035677 0.872125
O O2 0.536720 0.898296 0.664507
O O3 0.654427 0.173765 0.735768
O O4 0.582700 0.419187 0.179581
O O5 0.797622 0.915234 0.780973
O O6 0.774438 0.759465 0.397603
O O7 0.885613 0.593906 0.296280
O O8 0.756471 0.391233 0.288604
O O9 0.310843 0.091595 0.996456
O O10 0.767881 0.060581 0.445175
O O11 0.861359 0.245316 0.776302
O O12 0.888535 0.790445 0.229608
O O13 0.500000 0.500000 0.500000
O O14 0.438394 0.439062 0.221268
O O15 0.000000 0.500000 0.000000
O O16 0.317496 0.559371 0.264467
O O17 0.368088 0.107323 0.746253
#
# Coordination Sequence:
#
# PCOD9076780 Si02
#       8
#     2   2   2   2   2   2   2   2
#     4  12  24  40  71  79 120 161 207 262 331 363
#     4  10  19  34  61  90 124 146 212 236 299 356
#     4  12  22  39  62  91 111 169 202 265 299 358
#     4  10  20  36  59  93 127 157 196 246 301 363
#     4  12  26  43  61  90 116 160 210 268 320 379
#     4  10  18  33  60 101 134 153 191 256 300 345
#     4  12  25  44  61  94 123 165 202 263 310 378
#     4  12  28  41  61  88 127 155 218 257 320 375
#
# _framework density 19.664864999999999
#
# number of rings (size 3 to 8) (size 9 to 14) (size 15 to 20)
#    0.750    0.000    3.750    4.500    3.500    3.000 
#    0.000    0.000    0.000    0.000    0.000   17.500 
#    0.000    0.000    0.000    0.000    0.000    0.000 
#
# Total GULP energy -89319.313023 kJ/mol
# GULP energy per Si atom -5582.457064 kJ/mol
# Density = 1.962011 g / cm^3
# Si number density = 19.664865 Si / 1000 Ang^3
#
#
#
# Elastic Constant Matrix: (Units=GPa)
#
#
# Indices 1 2 3 4 5 6 
#
# 1 61.3065 25.4220 4.0285 -1.6190 -15.5952 -11.3614
# 2 25.4220 77.2183 13.9062 11.4292 -7.5986 -16.9857
# 3 4.0285 13.9062 77.0969 11.1072 -7.8494 -16.6655
# 4 -1.6190 11.4292 11.1072 33.9298 1.2048 -3.0821
# 5 -15.5952 -7.5986 -7.8494 1.2048 29.8545 4.3931
# 6 -11.3614 -16.9857 -16.6655 -3.0821 4.3931 17.5267
#
#
#
# Elastic Compliance Matrix: (Units=1/GPa)
#
#
# Indices 1 2 3 4 5 6 
#
# 1 0.022665 -0.005108 0.002555 0.002552 0.009606 0.010212
# 2 -0.005108 0.018481 0.000863 -0.005460 0.000369 0.014368
# 3 0.002555 0.000863 0.017459 -0.004440 0.003768 0.017369
# 4 0.002552 -0.005460 -0.004440 0.032833 -0.002328 -0.001502
# 5 0.009606 0.000369 0.003768 -0.002328 0.039721 -0.000199
# 6 0.010212 0.014368 0.017369 -0.001502 -0.000199 0.093902
#
#
# Mechanical properties :
#
#
# Convention : Reuss Voigt Hill
#
# Bulk Modulus (GPa) = 18.10733 33.59277 25.85005
# Shear Modulus (GPa) = 20.25513 27.74653 24.00083
#
# Velocity S-wave (km/s) = 3.21287 3.76036 3.49735
# Velocity P-wave (km/s) = 4.79493 5.99779 5.42977
#
# Compressibility (1/GPa) = 0.05522624
#
# Stress axis : x y z
#
# Youngs Moduli (GPa) = 44.12038 54.10826 57.27583
#
# Poissons Ratio (x) = 0.27639 -0.14633
# Poissons Ratio (y) = 0.22537 -0.04945
# Poissons Ratio (z) = -0.11272 -0.04671
#
# Static dielectric constant tensor:
#      x y z
#    x 1.711740 -0.001040 -0.015020 
#    y -0.001040 1.682920 0.000360 
#    z -0.015020 0.000360 1.713300 
# 
# From -- ./inp_files/329738.got.cif
#   From: 2010.05.17/outbox.cif.g08.bks.cpg/sg2_165_cif.got.tgz:329738.got - 2010.06.03 11:33:40.
