data_PCOD9076242
_publ_section_title
;
Structure prediction by ZEFSAII (Michael W. Deem and Ramdas Pophale) SiO2 
 PCOD9076242
Probable space group: P -1
;
_chemical_formula_sum "Si O2"
_cell_formula_units_Z 16
_cell_length_a 9.274160
_cell_length_b 15.949303
_cell_length_c 11.680785
_cell_angle_alpha 144.958496
_cell_angle_beta 72.972022
_cell_angle_gamma 80.366025
_cell_volume 636.378213
_symmetry_space_group_name_H-M "P -1"
_symmetry_group_IT_number 2
_symmetry_cell_setting 'triclinic'
loop_
_space_group_symop_operation_xyz
x,y,z
-x,-y,-z
loop_
_atom_site_type_symbol
_atom_site_label
_atom_site_fract_x
_atom_site_fract_y
_atom_site_fract_z
Si Si1 0.460346 0.484307 0.327303
Si Si2 0.711988 0.011551 0.707643
Si Si3 0.808293 0.428763 0.312655
Si Si4 0.918999 0.769276 0.172037
Si Si5 0.587186 0.594568 0.250099
Si Si6 0.971355 0.616253 0.524440
Si Si7 0.555285 0.026164 0.142766
Si Si8 0.160780 0.518503 0.144472
O O1 0.582453 0.527696 0.417699
O O2 0.246249 0.579085 0.553608
O O3 0.428136 0.582070 0.320706
O O4 0.647922 0.222085 0.988743
O O5 0.741355 0.977393 0.525982
O O6 0.504741 0.067192 0.865912
O O7 0.934835 0.775089 0.449277
O O8 0.829589 0.586386 0.458358
O O9 0.034008 0.216898 0.955077
O O10 0.871790 0.630437 0.044344
O O11 0.160350 0.626487 0.013804
O O12 0.529118 0.782708 0.543508
O O13 0.626221 0.585503 0.095994
O O14 0.000000 0.500000 0.500000
O O15 0.164641 0.513600 0.275626
O O16 0.817802 0.860473 0.870409
O O17 0.500000 0.000000 0.000000
#
# Coordination Sequence:
#
# PCOD9076242 Si02
#       8
#     2   2   2   2   2   2   2   2
#     4  10  20  30  52  89 118 144 178 229 281 333
#     4  11  18  29  54  86 114 145 184 226 277 335
#     4   9  19  33  50  74 115 144 173 228 277 321
#     4   9  16  29  49  80 114 142 173 230 281 314
#     4  10  19  31  50  80 117 148 176 229 284 327
#     4  11  23  38  59  84 110 145 193 240 278 326
#     4  12  19  33  58  87 108 144 193 231 273 327
#     4  10  18  33  53  78 116 148 182 235 282 318
#
# _framework density 25.14228
#
# number of rings (size 3 to 8) (size 9 to 14) (size 15 to 20)
#    0.000    1.750    5.000    2.250    1.750    4.500 
#    0.000    0.625    0.000    3.750    0.000    0.000 
#    0.000    0.000    0.000    0.000    0.000    0.000 
#
# Total GULP energy -89080.010840 kJ/mol
# GULP energy per Si atom -5567.500678 kJ/mol
# Density = 2.508506 g / cm^3
# Si number density = 25.142280 Si / 1000 Ang^3
#
#
#
# Elastic Constant Matrix: (Units=GPa)
#
#
# Indices 1 2 3 4 5 6 
#
# 1 51.4268 18.8832 15.2682 -4.0439 0.9370 23.5902
# 2 18.8832 150.8386 70.2491 -64.6364 2.3170 22.6763
# 3 15.2682 70.2491 134.1956 -56.0446 0.5766 -5.2075
# 4 -4.0439 -64.6364 -56.0446 60.7544 8.4480 -6.2141
# 5 0.9370 2.3170 0.5766 8.4480 19.4618 -7.2742
# 6 23.5902 22.6763 -5.2075 -6.2141 -7.2742 38.7064
#
#
#
# Elastic Compliance Matrix: (Units=1/GPa)
#
#
# Indices 1 2 3 4 5 6 
#
# 1 0.031333 0.000842 -0.006691 -0.004402 -0.007983 -0.022697
# 2 0.000842 0.015996 -0.002242 0.015712 -0.012436 -0.010000
# 3 -0.006691 -0.002242 0.014703 0.011879 -0.001652 0.008966
# 4 -0.004402 0.015712 0.011879 0.046862 -0.022996 -0.001722
# 5 -0.007983 -0.012436 -0.001652 -0.022996 0.071371 0.021650
# 6 -0.022697 -0.010000 0.008966 -0.001722 0.021650 0.050526
#
#
# Mechanical properties :
#
#
# Convention : Reuss Voigt Hill
#
# Bulk Modulus (GPa) = 21.81040 60.58470 41.19755
# Shear Modulus (GPa) = 19.06540 39.25522 29.16031
#
# Velocity S-wave (km/s) = 2.75671 3.95564 3.40930
# Velocity P-wave (km/s) = 4.33892 6.70909 5.64970
#
# Compressibility (1/GPa) = 0.04584969
#
# Stress axis : x y z
#
# Youngs Moduli (GPa) = 31.91533 62.51710 68.01383
#
# Poissons Ratio (x) = -0.05262 0.45505
# Poissons Ratio (y) = -0.02686 0.15249
# Poissons Ratio (z) = 0.21353 0.14016
#
# Static dielectric constant tensor:
#      x y z
#    x 2.570230 -0.180550 -0.021350 
#    y -0.180550 2.114040 -0.041390 
#    z -0.021350 -0.041390 2.034210 
# 
# From -- ./inp_files/276688.got.cif
#   From: 2010.05.17/outbox.cif.g08.bks.cpg/sg2_139_cif.got.tgz:276688.got - 2010.06.03 11:33:40.
