data_PCOD9076105
_publ_section_title
;
Structure prediction by ZEFSAII (Michael W. Deem and Ramdas Pophale) SiO2 
 PCOD9076105
Probable space group: P -1
;
_chemical_formula_sum "Si O2"
_cell_formula_units_Z 16
_cell_length_a 8.465625
_cell_length_b 11.888262
_cell_length_c 13.444097
_cell_angle_alpha 46.685456
_cell_angle_beta 106.114644
_cell_angle_gamma 70.281707
_cell_volume 620.096132
_symmetry_space_group_name_H-M "P -1"
_symmetry_group_IT_number 2
_symmetry_cell_setting 'triclinic'
loop_
_space_group_symop_operation_xyz
x,y,z
-x,-y,-z
loop_
_atom_site_type_symbol
_atom_site_label
_atom_site_fract_x
_atom_site_fract_y
_atom_site_fract_z
Si Si1 0.136690 0.816455 0.044909
Si Si2 0.146416 0.859851 0.397133
Si Si3 0.203888 0.203732 0.023368
Si Si4 0.487207 0.955963 0.637364
Si Si5 0.522669 0.199909 0.970710
Si Si6 0.323480 0.773182 0.805470
Si Si7 0.014672 0.669702 0.379607
Si Si8 0.592822 0.704179 0.471342
O O1 0.994315 0.974400 0.825337
O O2 0.411045 0.697286 0.147376
O O3 0.064007 0.686378 0.106075
O O4 0.000000 0.000000 0.000000
O O5 0.100351 0.710060 0.464675
O O6 0.419177 0.735528 0.500633
O O7 0.974382 0.040964 0.347585
O O8 0.264340 0.213051 0.143380
O O9 0.271851 0.282828 0.903982
O O10 0.409544 0.917968 0.227019
O O11 0.389137 0.851960 0.686782
O O12 0.500000 0.000000 0.500000
O O13 0.312444 0.207237 0.510718
O O14 0.742030 0.924360 0.145957
O O15 0.593437 0.201564 0.093817
O O16 0.500000 0.500000 0.000000
O O17 0.227590 0.533817 0.415313
O O18 0.000000 0.500000 0.500000
#
# Coordination Sequence:
#
# PCOD9076105 Si02
#       8
#     2   2   2   2   2   2   2   2
#     4   9  17  30  50  76 102 140 188 224 274 338
#     4   9  19  31  50  77 107 141 188 228 284 337
#     4   8  16  31  51  75 107 141 181 224 289 333
#     4   9  18  34  56  82 106 145 192 239 284 333
#     4   9  18  31  51  77 108 145 186 228 286 339
#     4   9  17  34  55  76 106 153 193 233 286 333
#     4  10  14  26  50  79 103 140 171 217 280 348
#     4   9  16  30  50  78 109 138 182 224 286 340
#
# _framework density 25.802451000000001
#
# number of rings (size 3 to 8) (size 9 to 14) (size 15 to 20)
#    0.750    2.500    1.250    1.125    0.000    0.500 
#    0.000    6.250    0.000    0.000   13.000    0.000 
#    0.000    0.000    0.000    0.000    0.000    0.000 
#
# Total GULP energy -89182.652944 kJ/mol
# GULP energy per Si atom -5573.915809 kJ/mol
# Density = 2.574372 g / cm^3
# Si number density = 25.802451 Si / 1000 Ang^3
#
#
#
# Elastic Constant Matrix: (Units=GPa)
#
#
# Indices 1 2 3 4 5 6 
#
# 1 226.5222 49.0577 65.3721 -7.7199 -23.2999 -27.7315
# 2 49.0577 95.1489 42.3256 -0.2665 5.7601 -14.5648
# 3 65.3721 42.3256 80.6751 -13.0821 -3.2903 -3.6006
# 4 -7.7199 -0.2665 -13.0821 39.4422 1.9769 -4.4254
# 5 -23.2999 5.7601 -3.2903 1.9769 43.6017 4.1171
# 6 -27.7315 -14.5648 -3.6006 -4.4254 4.1171 40.1261
#
#
#
# Elastic Compliance Matrix: (Units=1/GPa)
#
#
# Indices 1 2 3 4 5 6 
#
# 1 0.006720 -0.001061 -0.004602 0.000026 0.003049 0.003536
# 2 -0.001061 0.015190 -0.007368 -0.001898 -0.003446 0.004264
# 3 -0.004602 -0.007368 0.020743 0.005541 0.000149 -0.003398
# 4 0.000026 -0.001898 0.005541 0.027557 -0.000846 0.002952
# 5 0.003049 -0.003446 0.000149 -0.000846 0.025240 -0.001814
# 6 0.003536 0.004264 -0.003398 0.002952 -0.001814 0.029120
#
#
# Mechanical properties :
#
#
# Convention : Reuss Voigt Hill
#
# Bulk Modulus (GPa) = 60.27254 79.53965 69.90609
# Shear Modulus (GPa) = 32.01786 41.00673 36.51230
#
# Velocity S-wave (km/s) = 3.52644 3.99087 3.76582
# Velocity P-wave (km/s) = 6.32384 7.22007 6.78677
#
# Compressibility (1/GPa) = 0.01659130
#
# Stress axis : x y z
#
# Youngs Moduli (GPa) = 148.81267 65.83199 48.20828
#
# Poissons Ratio (x) = 0.06982 0.22188
# Poissons Ratio (y) = 0.15782 0.35520
# Poissons Ratio (z) = 0.68491 0.48505
#
# Static dielectric constant tensor:
#      x y z
#    x 2.207550 -0.000790 -0.036800 
#    y -0.000790 2.032340 0.010650 
#    z -0.036800 0.010650 2.076220 
# 
# From -- ./inp_files/497671.got.cif
#   From: 2010.05.17/outbox.cif.g08.bks.cpg/sg2_249_cif.got.tgz:497671.got - 2010.06.03 11:33:40.
