data_PCOD9076437
_publ_section_title
;
Structure prediction by ZEFSAII (Michael W. Deem and Ramdas Pophale) SiO2 
 PCOD9076437
Probable space group: P -1
;
_chemical_formula_sum "Si O2"
_cell_formula_units_Z 16
_cell_length_a 8.747291
_cell_length_b 16.483225
_cell_length_c 5.339035
_cell_angle_alpha 97.329581
_cell_angle_beta 113.320522
_cell_angle_gamma 93.291808
_cell_volume 696.195776
_symmetry_space_group_name_H-M "P -1"
_symmetry_group_IT_number 2
_symmetry_cell_setting 'triclinic'
loop_
_space_group_symop_operation_xyz
x,y,z
-x,-y,-z
loop_
_atom_site_type_symbol
_atom_site_label
_atom_site_fract_x
_atom_site_fract_y
_atom_site_fract_z
Si Si1 0.458697 0.445309 0.700828
Si Si2 0.139966 0.317963 0.407612
Si Si3 0.510733 0.944740 0.234015
Si Si4 0.849790 0.105877 0.928555
Si Si5 0.749993 0.384035 0.678901
Si Si6 0.979061 0.746911 0.191959
Si Si7 0.880247 0.944763 0.591599
Si Si8 0.868217 0.432058 0.266985
O O1 0.500000 0.500000 0.500000
O O2 0.273257 0.398008 0.565013
O O3 0.571509 0.369232 0.695438
O O4 0.500000 0.500000 0.000000
O O5 0.127271 0.264860 0.629067
O O6 0.958924 0.350466 0.278071
O O7 0.150964 0.275691 0.130069
O O8 0.338270 0.881773 0.103158
O O9 0.695712 0.913631 0.349881
O O10 0.500000 0.000000 0.500000
O O11 0.500000 0.000000 0.000000
O O12 0.918249 0.165533 0.772009
O O13 0.840350 0.010639 0.803714
O O14 0.997366 0.115504 0.233083
O O15 0.734033 0.412833 0.394176
O O16 0.877039 0.315535 0.725993
O O17 0.826249 0.452599 0.962107
O O18 0.000000 0.000000 0.500000
O O19 0.000000 0.500000 0.500000
#
# Coordination Sequence:
#
# PCOD9076437 Si02
#       8
#     2   2   2   2   2   2   2   2
#     4  12  23  38  63  90 120 154 197 260 313 345
#     4  10  22  38  58  85 120 153 200 248 296 376
#     4  10  20  36  60  91 123 155 201 262 311 356
#     4  10  22  39  62  90 127 170 210 261 319 375
#     4  10  21  36  54  80 114 145 189 237 286 357
#     4  10  23  41  59  81 121 168 199 240 307 377
#     4  10  20  37  65  94 127 158 218 274 305 363
#     4  10  18  33  56  80 104 144 190 233 283 343
#
# _framework density 22.982043000000001
#
# number of rings (size 3 to 8) (size 9 to 14) (size 15 to 20)
#    0.000    1.750    1.250    3.375    1.750    2.000 
#    2.250    0.000    0.000    0.000    0.000    0.000 
#    0.000    0.000    0.000    0.000    0.000    0.000 
#
# Total GULP energy -89082.365225 kJ/mol
# GULP energy per Si atom -5567.647827 kJ/mol
# Density = 2.292973 g / cm^3
# Si number density = 22.982043 Si / 1000 Ang^3
#
#
#
# Elastic Constant Matrix: (Units=GPa)
#
#
# Indices 1 2 3 4 5 6 
#
# 1 125.1652 19.6453 55.7118 -7.7152 16.3364 19.2278
# 2 19.6453 56.3139 42.7589 -4.5209 -4.6087 23.7245
# 3 55.7118 42.7589 149.4564 -15.3012 -7.4189 13.9292
# 4 -7.7152 -4.5209 -15.3012 29.1342 3.8414 -7.4639
# 5 16.3364 -4.6087 -7.4189 3.8414 46.7109 -2.5986
# 6 19.2278 23.7245 13.9292 -7.4639 -2.5986 30.7607
#
#
#
# Elastic Compliance Matrix: (Units=1/GPa)
#
#
# Indices 1 2 3 4 5 6 
#
# 1 0.011341 0.001925 -0.004379 -0.000162 -0.004850 -0.007039
# 2 0.001925 0.033416 -0.008512 -0.005049 0.000334 -0.024318
# 3 -0.004379 -0.008512 0.010791 0.004326 0.002365 0.005665
# 4 -0.000162 -0.005049 0.004326 0.038971 -0.002331 0.011296
# 5 -0.004850 0.000334 0.002365 -0.002331 0.023880 0.003155
# 6 -0.007039 -0.024318 0.005665 0.011296 0.003155 0.056106
#
#
# Mechanical properties :
#
#
# Convention : Reuss Voigt Hill
#
# Bulk Modulus (GPa) = 29.74856 63.01864 46.38360
# Shear Modulus (GPa) = 24.07974 35.50914 29.79444
#
# Velocity S-wave (km/s) = 3.24043 3.93502 3.60449
# Velocity P-wave (km/s) = 5.19354 6.93730 6.12777
#
# Compressibility (1/GPa) = 0.03361508
#
# Stress axis : x y z
#
# Youngs Moduli (GPa) = 88.17452 29.92584 92.67106
#
# Poissons Ratio (x) = -0.05759 0.40585
# Poissons Ratio (y) = -0.16969 0.78877
# Poissons Ratio (z) = 0.38616 0.25471
#
# Static dielectric constant tensor:
#      x y z
#    x 2.020000 -0.069060 0.084830 
#    y -0.069060 1.817380 -0.135060 
#    z 0.084830 -0.135060 1.778880 
# 
# From -- ./inp_files/44779.got.cif
#   From: 2010.05.17/outbox.cif.g08.bks.cpg/sg2_23_cif.got.tgz:44779.got - 2010.06.03 11:33:40.
