data_PCOD9076419
_publ_section_title
;
Structure prediction by ZEFSAII (Michael W. Deem and Ramdas Pophale) SiO2 
 PCOD9076419
Probable space group: P -1
;
_chemical_formula_sum "Si O2"
_cell_formula_units_Z 14
_cell_length_a 25.421300
_cell_length_b 9.319621
_cell_length_c 16.493847
_cell_angle_alpha 24.661074
_cell_angle_beta 22.650850
_cell_angle_gamma 35.706635
_cell_volume 619.204044
_symmetry_space_group_name_H-M "P -1"
_symmetry_group_IT_number 2
_symmetry_cell_setting 'triclinic'
loop_
_space_group_symop_operation_xyz
x,y,z
-x,-y,-z
loop_
_atom_site_type_symbol
_atom_site_label
_atom_site_fract_x
_atom_site_fract_y
_atom_site_fract_z
Si Si1 0.138775 0.008543 0.513429
Si Si2 0.169533 0.264927 0.635644
Si Si3 0.729886 0.879901 0.097628
Si Si4 0.696160 0.081732 0.527484
Si Si5 0.997394 0.723258 0.573615
Si Si6 0.854724 0.801713 0.116364
Si Si7 0.574485 0.181581 0.031450
O O1 0.264307 0.092519 0.355534
O O2 0.138242 0.612661 0.686102
O O3 0.123177 0.248108 0.334577
O O4 0.001308 0.988371 0.775469
O O5 0.024764 0.374844 0.758048
O O6 0.165748 0.097154 0.815027
O O7 0.232634 0.074830 0.569621
O O8 0.277494 0.632000 0.307066
O O9 0.754072 0.491896 0.239822
O O10 0.733248 0.882072 0.188665
O O11 0.603198 0.966985 0.180610
O O12 0.863087 0.152315 0.740655
O O13 0.531901 0.031958 0.770071
O O14 0.000000 0.000000 0.500000
O O15 0.500000 0.500000 0.000000
#
# Coordination Sequence:
#
# PCOD9076419 Si02
#       7
#     2   2   2   2   2   2   2
#     4   9  18  32  52  77 108 141 169 214 268 308
#     4  10  20  33  57  79 105 140 180 217 256 308
#     4   9  19  35  58  75 102 141 177 213 265 309
#     4  10  20  34  54  79 109 137 176 220 260 306
#     4  10  18  33  56  76 105 142 175 208 261 321
#     4   9  17  33  53  78 104 139 176 211 261 321
#     4   9  19  37  57  75 104 143 177 213 263 312
#
# _framework density 22.609670000000001
#
# number of rings (size 3 to 8) (size 9 to 14) (size 15 to 20)
#    0.000    2.571    1.429    1.286    0.000    1.143 
#    0.000    5.714    3.143    0.000    0.000    0.000 
#    0.000    0.000    0.000    0.000    0.000    0.000 
#
# Total GULP energy -78149.812572 kJ/mol
# GULP energy per Si atom -5582.129469 kJ/mol
# Density = 2.255821 g / cm^3
# Si number density = 22.609670 Si / 1000 Ang^3
#
#
#
# Elastic Constant Matrix: (Units=GPa)
#
#
# Indices 1 2 3 4 5 6 
#
# 1 239.7507 59.5933 33.9048 2.6912 3.1344 -36.1908
# 2 59.5933 66.9344 -1.3273 -8.7580 11.0658 -18.0507
# 3 33.9048 -1.3273 26.1971 -3.2018 -5.6756 -4.2642
# 4 2.6912 -8.7580 -3.2018 20.4855 -7.6043 0.4947
# 5 3.1344 11.0658 -5.6756 -7.6043 33.9036 1.8354
# 6 -36.1908 -18.0507 -4.2642 0.4947 1.8354 45.4913
#
#
#
# Elastic Compliance Matrix: (Units=1/GPa)
#
#
# Indices 1 2 3 4 5 6 
#
# 1 0.008170 -0.007367 -0.011796 -0.006876 -0.002010 0.002627
# 2 -0.007367 0.025319 0.012579 0.012532 -0.002956 0.005348
# 3 -0.011796 0.012579 0.059122 0.020401 0.011432 0.000466
# 4 -0.006876 0.012532 0.020401 0.063533 0.014202 0.000151
# 5 -0.002010 -0.002956 0.011432 0.014202 0.035924 -0.003304
# 6 0.002627 0.005348 0.000466 0.000151 -0.003304 0.026369
#
#
# Mechanical properties :
#
#
# Convention : Reuss Voigt Hill
#
# Bulk Modulus (GPa) = 12.58744 57.46930 35.02837
# Shear Modulus (GPa) = 19.37337 36.02349 27.69843
#
# Velocity S-wave (km/s) = 2.93040 3.99592 3.50390
# Velocity P-wave (km/s) = 4.12662 6.83835 5.64766
#
# Compressibility (1/GPa) = 0.07944428
#
# Stress axis : x y z
#
# Youngs Moduli (GPa) = 122.39447 39.49587 16.91421
#
# Poissons Ratio (x) = 0.29097 0.19952
# Poissons Ratio (y) = 0.90170 -0.21277
# Poissons Ratio (z) = 1.44373 -0.49683
#
# Static dielectric constant tensor:
#      x y z
#    x 1.884880 -0.040630 -0.039050 
#    y -0.040630 1.839210 -0.044750 
#    z -0.039050 -0.044750 1.922510 
# 
# From -- ./inp_files/162612.got.cif
#   From: 2010.05.17/outbox.cif.g08.bks.cpg/sg2_82_cif.got.tgz:162612.got - 2010.06.03 11:33:40.
