data_PCOD9076841
_publ_section_title
;
Structure prediction by ZEFSAII (Michael W. Deem and Ramdas Pophale) SiO2 
 PCOD9076841
Probable space group: P -1
;
_chemical_formula_sum "Si O2"
_cell_formula_units_Z 16
_cell_length_a 12.768223
_cell_length_b 14.061472
_cell_length_c 9.301481
_cell_angle_alpha 99.603225
_cell_angle_beta 42.346184
_cell_angle_gamma 123.574843
_cell_volume 845.703971
_symmetry_space_group_name_H-M "P -1"
_symmetry_group_IT_number 2
_symmetry_cell_setting 'triclinic'
loop_
_space_group_symop_operation_xyz
x,y,z
-x,-y,-z
loop_
_atom_site_type_symbol
_atom_site_label
_atom_site_fract_x
_atom_site_fract_y
_atom_site_fract_z
Si Si1 0.943180 0.272945 0.787674
Si Si2 0.209900 0.105551 0.456371
Si Si3 0.004361 0.784188 0.838079
Si Si4 0.147043 0.955064 0.004066
Si Si5 0.425325 0.867159 0.478134
Si Si6 0.273764 0.450824 0.726988
Si Si7 0.638341 0.295187 0.224778
Si Si8 0.976836 0.833241 0.567737
O O1 0.981283 0.245965 0.585369
O O2 0.151477 0.382360 0.686553
O O3 0.847374 0.145175 0.943306
O O4 0.793003 0.302031 0.964350
O O5 0.417219 0.208731 0.354190
O O6 0.177846 0.163504 0.368121
O O7 0.178162 0.982223 0.410821
O O8 0.020250 0.051820 0.741698
O O9 0.066952 0.896805 0.910584
O O10 0.213576 0.808832 0.601339
O O11 0.914506 0.784176 0.779961
O O12 0.851784 0.656297 0.050450
O O13 0.375408 0.088022 0.799130
O O14 0.377807 0.774486 0.631238
O O15 0.500000 0.000000 0.500000
O O16 0.500000 0.500000 0.500000
O O17 0.285025 0.567939 0.780647
#
# Coordination Sequence:
#
# PCOD9076841 Si02
#       8
#     2   2   2   2   2   2   2   2
#     4  10  21  39  61  87 120 162 198 240 298 359
#     4  10  22  38  58  93 123 161 198 239 306 368
#     4  10  20  37  60  86 119 154 202 253 295 344
#     4   9  18  36  59  88 120 152 203 246 297 350
#     4  10  18  33  60  96 114 147 196 259 297 339
#     4  11  23  41  66  89 114 158 209 252 294 344
#     4  12  21  37  67  88 118 157 211 248 291 349
#     4  10  22  40  58  85 133 158 191 245 307 364
#
# _framework density 18.919149000000001
#
# number of rings (size 3 to 8) (size 9 to 14) (size 15 to 20)
#    0.000    1.750    3.750    4.125    0.000    3.500 
#    4.500    3.125    0.000    0.000    0.000    0.000 
#    0.000    0.000    0.000    0.000    0.000    0.000 
#
# Total GULP energy -89326.641278 kJ/mol
# GULP energy per Si atom -5582.915080 kJ/mol
# Density = 1.887609 g / cm^3
# Si number density = 18.919149 Si / 1000 Ang^3
#
#
#
# Elastic Constant Matrix: (Units=GPa)
#
#
# Indices 1 2 3 4 5 6 
#
# 1 78.5303 27.8597 39.9068 5.4548 7.0443 3.7537
# 2 27.8597 101.1614 38.4846 7.8093 -1.8923 -7.2872
# 3 39.9068 38.4846 88.1937 3.8031 -21.3217 8.3498
# 4 5.4548 7.8093 3.8031 29.2756 6.0424 1.9285
# 5 7.0443 -1.8923 -21.3217 6.0424 26.5415 -0.3716
# 6 3.7537 -7.2872 8.3498 1.9285 -0.3716 25.7465
#
#
#
# Elastic Compliance Matrix: (Units=1/GPa)
#
#
# Indices 1 2 3 4 5 6 
#
# 1 0.021263 -0.001210 -0.013243 0.001496 -0.016702 0.000499
# 2 -0.001210 0.013260 -0.006557 -0.002160 -0.003423 0.006168
# 3 -0.013243 -0.006557 0.027400 -0.004151 0.025890 -0.008127
# 4 0.001496 -0.002160 -0.004151 0.037741 -0.012513 -0.002491
# 5 -0.016702 -0.003423 0.025890 -0.012513 0.065442 -0.005048
# 6 0.000499 0.006168 -0.008127 -0.002491 -0.005048 0.043263
#
#
# Mechanical properties :
#
#
# Convention : Reuss Voigt Hill
#
# Bulk Modulus (GPa) = 50.24372 53.37640 51.81006
# Shear Modulus (GPa) = 19.45347 27.08834 23.27090
#
# Velocity S-wave (km/s) = 3.21010 3.78801 3.51097
# Velocity P-wave (km/s) = 6.35251 6.88521 6.62422
#
# Compressibility (1/GPa) = 0.01990299
#
# Stress axis : x y z
#
# Youngs Moduli (GPa) = 47.02929 75.41527 36.49644
#
# Poissons Ratio (x) = 0.09123 0.48333
# Poissons Ratio (y) = 0.05689 0.23931
# Poissons Ratio (z) = 0.62282 0.49451
#
# Static dielectric constant tensor:
#      x y z
#    x 1.664660 -0.010150 -0.013130 
#    y -0.010150 1.660590 0.029560 
#    z -0.013130 0.029560 1.679540 
# 
# From -- ./inp_files/273308.got.cif
#   From: 2010.05.17/outbox.cif.g08.bks.cpg/sg2_137_cif.got.tgz:273308.got - 2010.06.03 11:33:40.
