data_PCOD9076743
_publ_section_title
;
Structure prediction by ZEFSAII (Michael W. Deem and Ramdas Pophale) SiO2 
 PCOD9076743
Probable space group: P -1
;
_chemical_formula_sum "Si O2"
_cell_formula_units_Z 16
_cell_length_a 8.379320
_cell_length_b 12.823101
_cell_length_c 9.451836
_cell_angle_alpha 120.818618
_cell_angle_beta 66.820033
_cell_angle_gamma 132.073086
_cell_volume 645.391475
_symmetry_space_group_name_H-M "P -1"
_symmetry_group_IT_number 2
_symmetry_cell_setting 'triclinic'
loop_
_space_group_symop_operation_xyz
x,y,z
-x,-y,-z
loop_
_atom_site_type_symbol
_atom_site_label
_atom_site_fract_x
_atom_site_fract_y
_atom_site_fract_z
Si Si1 0.097876 0.158861 0.780431
Si Si2 0.509221 0.315023 0.953137
Si Si3 0.250701 0.971146 0.496181
Si Si4 0.347564 0.612837 0.563204
Si Si5 0.199462 0.998730 0.975380
Si Si6 0.293539 0.425341 0.703105
Si Si7 0.488397 0.930611 0.803551
Si Si8 0.276151 0.726382 0.388597
O O1 0.310349 0.267461 0.883479
O O2 0.115869 0.268806 0.732017
O O3 0.895225 0.973028 0.380790
O O4 0.888089 0.074365 0.891740
O O5 0.409679 0.549914 0.873411
O O6 0.705905 0.347939 0.810227
O O7 0.404974 0.166622 0.983195
O O8 0.161063 0.808693 0.476653
O O9 0.332089 0.976413 0.313294
O O10 0.476357 0.118650 0.582628
O O11 0.227445 0.488494 0.642334
O O12 0.533119 0.599640 0.434052
O O13 0.452592 0.772839 0.713103
O O14 0.239938 0.626849 0.469456
O O15 0.264429 0.901507 0.806580
O O16 0.000000 0.000000 0.000000
O O17 0.500000 0.000000 0.000000
#
# Coordination Sequence:
#
# PCOD9076743 Si02
#       8
#     2   2   2   2   2   2   2   2
#     4  10  20  36  59  91 119 158 194 262 315 357
#     4  10  18  33  59  88 114 158 207 251 290 369
#     4   9  17  32  58  85 116 149 206 252 299 354
#     4  10  22  32  55  84 118 159 206 251 293 353
#     4  10  22  36  60  94 127 152 196 267 324 348
#     4  11  20  36  56  87 121 161 214 241 294 374
#     4  11  20  37  61  91 119 163 211 252 298 375
#     4   9  16  30  54  85 110 147 207 255 284 341
#
# _framework density 24.791153999999999
#
# number of rings (size 3 to 8) (size 9 to 14) (size 15 to 20)
#    0.000    2.000    5.000    1.125    5.250    0.000 
#    0.000    1.250    0.000    4.500    0.000    0.000 
#    0.000    0.000    0.000    0.000    0.000    0.000 
#
# Total GULP energy -89298.976977 kJ/mol
# GULP energy per Si atom -5581.186061 kJ/mol
# Density = 2.473473 g / cm^3
# Si number density = 24.791154 Si / 1000 Ang^3
#
#
#
# Elastic Constant Matrix: (Units=GPa)
#
#
# Indices 1 2 3 4 5 6 
#
# 1 50.9245 62.2621 53.2847 -4.8885 2.0803 -20.3743
# 2 62.2621 185.5161 97.9903 -31.2130 -8.3038 -44.9389
# 3 53.2847 97.9903 196.7769 -4.2794 -16.8488 -13.6749
# 4 -4.8885 -31.2130 -4.2794 52.8324 -9.6833 4.0505
# 5 2.0803 -8.3038 -16.8488 -9.6833 33.7153 -8.5284
# 6 -20.3743 -44.9389 -13.6749 4.0505 -8.5284 40.9936
#
#
#
# Elastic Compliance Matrix: (Units=1/GPa)
#
#
# Indices 1 2 3 4 5 6 
#
# 1 0.040908 -0.009976 -0.006475 -0.004562 -0.008005 0.006020
# 2 -0.009976 0.014708 -0.003011 0.008118 0.007845 0.010991
# 3 -0.006475 -0.003011 0.008338 -0.000959 0.002774 -0.003066
# 4 -0.004562 0.008118 -0.000959 0.024670 0.010415 0.006041
# 5 -0.008005 0.007845 0.002774 0.010415 0.039696 0.012777
# 6 0.006020 0.010991 -0.003066 0.006041 0.012777 0.040474
#
#
# Mechanical properties :
#
#
# Convention : Reuss Voigt Hill
#
# Bulk Modulus (GPa) = 39.95360 95.58797 67.77078
# Shear Modulus (GPa) = 23.14144 40.15362 31.64753
#
# Velocity S-wave (km/s) = 3.05857 4.02889 3.57678
# Velocity P-wave (km/s) = 5.35015 7.76425 6.66737
#
# Compressibility (1/GPa) = 0.02502904
#
# Stress axis : x y z
#
# Youngs Moduli (GPa) = 24.44527 67.98807 119.92797
#
# Poissons Ratio (x) = 0.67828 0.77659
# Poissons Ratio (y) = 0.24388 0.36109
# Poissons Ratio (z) = 0.15829 0.20470
#
# Static dielectric constant tensor:
#      x y z
#    x 2.275830 -0.054350 0.188360 
#    y -0.054350 1.921690 -0.007730 
#    z 0.188360 -0.007730 1.993530 
# 
# From -- ./inp_files/385296.got.cif
#   From: 2010.05.17/outbox.cif.g08.bks.cpg/sg2_193_cif.got.tgz:385296.got - 2010.06.03 11:33:40.
