data_PCOD9076642
_publ_section_title
;
Structure prediction by ZEFSAII (Michael W. Deem and Ramdas Pophale) SiO2 
 PCOD9076642
Probable space group: P -1
;
_chemical_formula_sum "Si O2"
_cell_formula_units_Z 16
_cell_length_a 13.999306
_cell_length_b 8.276286
_cell_length_c 19.500160
_cell_angle_alpha 86.320461
_cell_angle_beta 22.451569
_cell_angle_gamma 96.303316
_cell_volume 771.663007
_symmetry_space_group_name_H-M "P -1"
_symmetry_group_IT_number 2
_symmetry_cell_setting 'triclinic'
loop_
_space_group_symop_operation_xyz
x,y,z
-x,-y,-z
loop_
_atom_site_type_symbol
_atom_site_label
_atom_site_fract_x
_atom_site_fract_y
_atom_site_fract_z
Si Si1 0.713093 0.313122 0.694128
Si Si2 0.280439 0.754576 0.055509
Si Si3 0.828836 0.066607 0.275165
Si Si4 0.281660 0.660571 0.837049
Si Si5 0.276483 0.978863 0.915997
Si Si6 0.841479 0.856242 0.403388
Si Si7 0.259638 0.449879 0.991843
Si Si8 0.124407 0.976618 0.346097
O O1 0.782867 0.182289 0.700242
O O2 0.000000 0.500000 0.500000
O O3 0.548046 0.176102 0.742162
O O4 0.479865 0.375795 0.868200
O O5 0.206731 0.555461 0.086019
O O6 0.054911 0.770765 0.253115
O O7 0.283841 0.866189 0.981497
O O8 0.598345 0.850897 0.866427
O O9 0.976885 0.280362 0.164017
O O10 0.500000 0.000000 0.500000
O O11 0.902561 0.004025 0.300577
O O12 0.989353 0.999934 0.114453
O O13 0.263641 0.845664 0.866138
O O14 0.521832 0.711422 0.619653
O O15 0.363337 0.581967 0.853557
O O16 0.000000 0.500000 0.000000
O O17 0.895938 0.935803 0.441031
O O18 0.000000 0.000000 0.500000
#
# Coordination Sequence:
#
# PCOD9076642 Si02
#       8
#     2   2   2   2   2   2   2   2
#     4  10  18  33  58  85 112 149 190 236 290 351
#     4   9  19  36  58  84 117 153 191 240 297 362
#     4  10  21  40  61  84 118 156 195 253 306 341
#     4  11  22  39  61  86 116 160 209 250 293 358
#     4   8  19  37  57  82 117 156 195 237 298 365
#     4  11  22  38  60  88 116 155 203 243 296 368
#     4  10  21  39  59  85 117 153 199 247 297 356
#     4  11  21  38  61  86 121 164 195 236 303 371
#
# _framework density 20.734442000000001
#
# number of rings (size 3 to 8) (size 9 to 14) (size 15 to 20)
#    0.000    2.000    0.000    5.625    0.000    1.000 
#    0.000   19.375    0.000    0.000    0.000    0.000 
#    0.000    0.000    0.000    0.000    0.000    0.000 
#
# Total GULP energy -89177.872081 kJ/mol
# GULP energy per Si atom -5573.617005 kJ/mol
# Density = 2.068725 g / cm^3
# Si number density = 20.734442 Si / 1000 Ang^3
#
#
#
# Elastic Constant Matrix: (Units=GPa)
#
#
# Indices 1 2 3 4 5 6 
#
# 1 47.9146 17.6911 6.2416 17.3453 -0.0335 0.3273
# 2 17.6911 125.3074 49.9264 3.0808 -4.0173 11.4838
# 3 6.2416 49.9264 138.5665 -0.7953 -11.6789 16.3343
# 4 17.3453 3.0808 -0.7953 22.7248 -1.9345 -3.3333
# 5 -0.0335 -4.0173 -11.6789 -1.9345 31.6752 -1.0416
# 6 0.3273 11.4838 16.3343 -3.3333 -1.0416 25.6494
#
#
#
# Elastic Compliance Matrix: (Units=1/GPa)
#
#
# Indices 1 2 3 4 5 6 
#
# 1 0.030691 -0.003586 -0.000180 -0.023377 -0.001975 -0.001790
# 2 -0.003586 0.009923 -0.003133 0.000956 0.000083 -0.002274
# 3 -0.000180 -0.003133 0.009092 0.000506 0.002847 -0.004204
# 4 -0.023377 0.000956 0.000506 0.063277 0.004409 0.007950
# 5 -0.001975 0.000083 0.002847 0.004409 0.032901 0.000084
# 6 -0.001790 -0.002274 -0.004204 0.007950 0.000084 0.043742
#
#
# Mechanical properties :
#
#
# Convention : Reuss Voigt Hill
#
# Bulk Modulus (GPa) = 27.84921 51.05631 39.45276
# Shear Modulus (GPa) = 23.21340 31.87184 27.54262
#
# Velocity S-wave (km/s) = 3.34961 3.92490 3.64861
# Velocity P-wave (km/s) = 5.33108 6.72437 6.06785
#
# Compressibility (1/GPa) = 0.03590766
#
# Stress axis : x y z
#
# Youngs Moduli (GPa) = 32.58271 100.78096 109.98464
#
# Poissons Ratio (x) = 0.36138 0.01982
# Poissons Ratio (y) = 0.11684 0.34459
# Poissons Ratio (z) = 0.00587 0.31576
#
# Static dielectric constant tensor:
#      x y z
#    x 1.796030 0.037250 -0.054800 
#    y 0.037250 1.765260 -0.039670 
#    z -0.054800 -0.039670 1.847320 
# 
# From -- ./inp_files/296031.got.cif
#   From: 2010.05.17/outbox.cif.g08.bks.cpg/sg2_149_cif.got.tgz:296031.got - 2010.06.03 11:33:40.
