data_PCOD9076728
_publ_section_title
;
Structure prediction by ZEFSAII (Michael W. Deem and Ramdas Pophale) SiO2 
 PCOD9076728
Probable space group: P -1
;
_chemical_formula_sum "Si O2"
_cell_formula_units_Z 16
_cell_length_a 16.731308
_cell_length_b 18.202332
_cell_length_c 6.081324
_cell_angle_alpha 82.748678
_cell_angle_beta 82.123366
_cell_angle_gamma 21.021240
_cell_volume 658.084429
_symmetry_space_group_name_H-M "P -1"
_symmetry_group_IT_number 2
_symmetry_cell_setting 'triclinic'
loop_
_space_group_symop_operation_xyz
x,y,z
-x,-y,-z
loop_
_atom_site_type_symbol
_atom_site_label
_atom_site_fract_x
_atom_site_fract_y
_atom_site_fract_z
Si Si1 0.602607 0.249724 0.651485
Si Si2 0.857462 0.684906 0.854392
Si Si3 0.734115 0.583491 0.128436
Si Si4 0.987470 0.138209 0.179023
Si Si5 0.025816 0.238759 0.806078
Si Si6 0.723825 0.267502 0.925868
Si Si7 0.263686 0.613277 0.440735
Si Si8 0.450933 0.951235 0.845491
O O1 0.428164 0.333715 0.719222
O O2 0.659182 0.242946 0.864673
O O3 0.524277 0.367162 0.434447
O O4 0.848618 0.007203 0.620168
O O5 0.666748 0.811415 0.724228
O O6 0.062058 0.560492 0.741712
O O7 0.000000 0.500000 0.000000
O O8 0.704821 0.862605 0.014483
O O9 0.866754 0.429491 0.936545
O O10 0.575002 0.783681 0.013225
O O11 0.768831 0.357420 0.296826
O O12 0.075264 0.125265 0.986187
O O13 0.903420 0.135987 0.093771
O O14 0.878955 0.328698 0.637578
O O15 0.263310 0.072636 0.720099
O O16 0.782510 0.268428 0.692441
O O17 0.500000 0.500000 0.000000
#
# Coordination Sequence:
#
# PCOD9076728 Si02
#       8
#     2   2   2   2   2   2   2   2
#     4  12  22  38  60  86 118 158 202 251 300 352
#     4   8  16  29  54  94 121 152 197 243 287 353
#     4  10  18  33  59  85 120 158 198 244 300 350
#     4  11  23  40  60  86 117 157 202 249 298 355
#     4  10  20  37  59  86 122 158 198 248 297 349
#     4  11  23  44  63  81 120 157 200 256 304 348
#     4  11  24  41  58  87 120 158 203 250 297 356
#     4   9  16  31  57  90 122 155 200 238 292 359
#
# _framework density 24.312989000000002
#
# number of rings (size 3 to 8) (size 9 to 14) (size 15 to 20)
#    0.000    1.750    3.750    1.500    0.000    1.500 
#    4.500    0.000    0.000    0.750    0.000   13.125 
#    0.000    0.000    0.000    0.000    0.000    0.000 
#
# Total GULP energy -89191.811655 kJ/mol
# GULP energy per Si atom -5574.488228 kJ/mol
# Density = 2.425765 g / cm^3
# Si number density = 24.312989 Si / 1000 Ang^3
#
#
#
# Elastic Constant Matrix: (Units=GPa)
#
#
# Indices 1 2 3 4 5 6 
#
# 1 112.9925 50.9325 18.0367 -2.7163 -2.8101 -23.1104
# 2 50.9325 114.8732 17.7042 -24.9765 -1.9852 -32.0243
# 3 18.0367 17.7042 27.6461 -13.2718 3.2475 -16.7698
# 4 -2.7163 -24.9765 -13.2718 37.8850 -4.8831 1.7198
# 5 -2.8101 -1.9852 3.2475 -4.8831 19.9344 -2.3466
# 6 -23.1104 -32.0243 -16.7698 1.7198 -2.3466 60.1375
#
#
#
# Elastic Compliance Matrix: (Units=1/GPa)
#
#
# Indices 1 2 3 4 5 6 
#
# 1 0.012356 -0.005447 -0.007093 -0.005048 0.001125 0.000058
# 2 -0.005447 0.014838 0.002488 0.010441 0.003609 0.006344
# 3 -0.007093 0.002488 0.057879 0.020313 -0.003555 0.014020
# 4 -0.005048 0.010441 0.020313 0.040678 0.007976 0.008432
# 5 0.001125 0.003609 -0.003555 0.007976 0.053595 0.003226
# 6 0.000058 0.006344 0.014020 0.008432 0.003226 0.023823
#
#
# Mechanical properties :
#
#
# Convention : Reuss Voigt Hill
#
# Bulk Modulus (GPa) = 15.39197 47.65092 31.52145
# Shear Modulus (GPa) = 20.41389 34.84729 27.63059
#
# Velocity S-wave (km/s) = 2.90078 3.78997 3.37479
# Velocity P-wave (km/s) = 4.19093 6.22843 5.30835
#
# Compressibility (1/GPa) = 0.06496895
#
# Stress axis : x y z
#
# Youngs Moduli (GPa) = 80.93017 67.39432 17.27737
#
# Poissons Ratio (x) = 0.36711 0.12256
# Poissons Ratio (y) = 0.44085 -0.04299
# Poissons Ratio (z) = 0.57407 -0.16770
#
# Static dielectric constant tensor:
#      x y z
#    x 1.997160 0.036790 -0.018850 
#    y 0.036790 2.045160 -0.018130 
#    z -0.018850 -0.018130 1.871100 
# 
# From -- ./inp_files/112399.got.cif
#   From: 2010.05.17/outbox.cif.g08.bks.cpg/sg2_57_cif.got.tgz:112399.got - 2010.06.03 11:33:40.
