data_PCOD9076076
_publ_section_title
;
Structure prediction by ZEFSAII (Michael W. Deem and Ramdas Pophale) SiO2 
 PCOD9076076
Probable space group: P -1
;
_chemical_formula_sum "Si O2"
_cell_formula_units_Z 16
_cell_length_a 14.562514
_cell_length_b 21.841374
_cell_length_c 9.364328
_cell_angle_alpha 93.735164
_cell_angle_beta 74.855802
_cell_angle_gamma 162.090787
_cell_volume 695.048968
_symmetry_space_group_name_H-M "P -1"
_symmetry_group_IT_number 2
_symmetry_cell_setting 'triclinic'
loop_
_space_group_symop_operation_xyz
x,y,z
-x,-y,-z
loop_
_atom_site_type_symbol
_atom_site_label
_atom_site_fract_x
_atom_site_fract_y
_atom_site_fract_z
Si Si1 0.523908 0.948739 0.746804
Si Si2 0.571963 0.569298 0.323381
Si Si3 0.757132 0.613220 0.004167
Si Si4 0.216132 0.927952 0.620949
Si Si5 0.697456 0.481400 0.472117
Si Si6 0.663479 0.321602 0.517979
Si Si7 0.662018 0.432698 0.146859
Si Si8 0.584847 0.253291 0.200693
O O1 0.641194 0.952532 0.752870
O O2 0.462873 0.898924 0.592635
O O3 0.126027 0.715612 0.959187
O O4 0.873239 0.216738 0.658847
O O5 0.500000 0.500000 0.500000
O O6 0.860955 0.711513 0.126310
O O7 0.602247 0.660733 0.347522
O O8 0.165081 0.307650 0.360707
O O9 0.541234 0.414843 0.097932
O O10 0.500000 0.500000 0.000000
O O11 0.125062 0.831628 0.783490
O O12 0.303346 0.051177 0.657556
O O13 0.682374 0.406109 0.542557
O O14 0.600267 0.412687 0.333768
O O15 0.673335 0.320385 0.341832
O O16 0.000000 0.500000 0.500000
O O17 0.454037 0.236578 0.186156
O O18 0.000000 0.500000 0.000000
#
# Coordination Sequence:
#
# PCOD9076076 Si02
#       8
#     2   2   2   2   2   2   2   2
#     4   9  18  34  57  87 115 142 189 240 293 354
#     4  10  19  40  64  83 110 151 203 249 280 332
#     4  10  21  37  58  84 117 152 198 239 282 347
#     4   9  21  39  56  85 123 149 192 237 295 348
#     4  10  20  35  60  85 113 149 201 241 285 345
#     4  10  21  38  56  84 124 155 183 237 299 353
#     4  10  18  32  60  84 115 152 187 236 302 342
#     4   8  17  36  52  80 117 144 188 234 280 350
#
# _framework density 23.019960000000001
#
# number of rings (size 3 to 8) (size 9 to 14) (size 15 to 20)
#    0.000    2.500    1.250    0.375    1.750    0.500 
#   18.000    1.250    8.250    0.000    0.000    0.000 
#    0.000    0.000    0.000    0.000    0.000    0.000 
#
# Total GULP energy -89127.559724 kJ/mol
# GULP energy per Si atom -5570.472483 kJ/mol
# Density = 2.296757 g / cm^3
# Si number density = 23.019960 Si / 1000 Ang^3
#
#
#
# Elastic Constant Matrix: (Units=GPa)
#
#
# Indices 1 2 3 4 5 6 
#
# 1 137.6343 34.0012 7.8110 8.2215 33.7873 -31.3408
# 2 34.0012 87.8699 10.5441 -3.1355 8.5468 -19.8599
# 3 7.8110 10.5441 75.1660 12.5433 13.3056 4.7366
# 4 8.2215 -3.1355 12.5433 22.0342 -2.6136 2.9917
# 5 33.7873 8.5468 13.3056 -2.6136 40.7158 -4.6004
# 6 -31.3408 -19.8599 4.7366 2.9917 -4.6004 27.9659
#
#
#
# Elastic Compliance Matrix: (Units=1/GPa)
#
#
# Indices 1 2 3 4 5 6 
#
# 1 0.013801 -0.001831 0.001424 -0.009271 -0.010641 0.013167
# 2 -0.001831 0.014422 -0.003051 0.003403 0.000662 0.008451
# 3 0.001424 -0.003051 0.016897 -0.010966 -0.007155 -0.003437
# 4 -0.009271 0.003403 -0.010966 0.058518 0.013165 -0.010210
# 5 -0.010641 0.000662 -0.007155 0.013165 0.035784 -0.005765
# 6 0.013167 0.008451 -0.003437 -0.010210 -0.005765 0.057241
#
#
# Mechanical properties :
#
#
# Convention : Reuss Voigt Hill
#
# Bulk Modulus (GPa) = 26.17497 45.04252 35.60874
# Shear Modulus (GPa) = 23.11452 34.69745 28.90598
#
# Velocity S-wave (km/s) = 3.17220 3.88658 3.54742
# Velocity P-wave (km/s) = 4.98121 6.30475 5.68165
#
# Compressibility (1/GPa) = 0.03820444
#
# Stress axis : x y z
#
# Youngs Moduli (GPa) = 72.45619 69.33745 59.18217
#
# Poissons Ratio (x) = 0.12697 -0.08426
# Poissons Ratio (y) = 0.13268 0.18054
# Poissons Ratio (z) = -0.10315 0.21152
#
# Static dielectric constant tensor:
#      x y z
#    x 1.989670 0.012580 -0.075240 
#    y 0.012580 1.886990 -0.019410 
#    z -0.075240 -0.019410 1.920150 
# 
# From -- ./inp_files/223022.got.cif
#   From: 2010.05.17/outbox.cif.g08.bks.cpg/sg2_112_cif.got.tgz:223022.got - 2010.06.03 11:33:40.
