data_PCOD9076774
_publ_section_title
;
Structure prediction by ZEFSAII (Michael W. Deem and Ramdas Pophale) SiO2 
 PCOD9076774
Probable space group: P -1
;
_chemical_formula_sum "Si O2"
_cell_formula_units_Z 14
_cell_length_a 9.030127
_cell_length_b 21.845919
_cell_length_c 19.393194
_cell_angle_alpha 19.195016
_cell_angle_beta 147.436555
_cell_angle_gamma 150.045773
_cell_volume 620.991923
_symmetry_space_group_name_H-M "P -1"
_symmetry_group_IT_number 2
_symmetry_cell_setting 'triclinic'
loop_
_space_group_symop_operation_xyz
x,y,z
-x,-y,-z
loop_
_atom_site_type_symbol
_atom_site_label
_atom_site_fract_x
_atom_site_fract_y
_atom_site_fract_z
Si Si1 0.125458 0.568494 0.646546
Si Si2 0.390062 0.140803 0.580142
Si Si3 0.718027 0.851843 0.004616
Si Si4 0.818804 0.167879 0.475974
Si Si5 0.198444 0.169154 0.092816
Si Si6 0.703050 0.452400 0.479832
Si Si7 0.900341 0.300615 0.221233
O O1 0.382106 0.700869 0.552833
O O2 0.169104 0.705125 0.585647
O O3 0.816127 0.491431 0.561973
O O4 0.179781 0.370777 0.898537
O O5 0.487689 0.236569 0.593249
O O6 0.070766 0.153508 0.426971
O O7 0.461303 0.942078 0.810172
O O8 0.884783 0.856232 0.992649
O O9 0.597197 0.627639 0.227218
O O10 0.000000 0.000000 0.000000
O O11 0.947621 0.323063 0.298671
O O12 0.500000 0.000000 0.500000
O O13 0.964346 0.016796 0.722651
O O14 0.543372 0.200500 0.183312
O O15 0.000000 0.500000 0.500000
O O16 0.000000 0.500000 0.000000
#
# Coordination Sequence:
#
# PCOD9076774 Si02
#       7
#     2   2   2   2   2   2   2
#     4  11  19  38  66  89 118 159 209 248 291 359
#     4  11  21  36  60  93 121 157 199 252 299 348
#     4  12  18  32  61  93 120 154 205 251 290 353
#     4  10  24  41  59  88 121 163 206 242 301 366
#     4  11  21  38  62  91 122 161 202 245 300 362
#     4  10  18  33  59  96 117 152 203 251 289 353
#     4  11  23  42  60  86 128 157 199 257 305 359
#
# _framework density 22.544578000000001
#
# number of rings (size 3 to 8) (size 9 to 14) (size 15 to 20)
#    0.000    1.143    8.571    0.000    0.000    2.857 
#    0.000    2.143    0.000    6.000    0.000    0.000 
#    0.000    0.000    0.000    0.000    0.000    0.000 
#
# Total GULP energy -77994.109640 kJ/mol
# GULP energy per Si atom -5571.007831 kJ/mol
# Density = 2.249327 g / cm^3
# Si number density = 22.544578 Si / 1000 Ang^3
#
#
#
# Elastic Constant Matrix: (Units=GPa)
#
#
# Indices 1 2 3 4 5 6 
#
# 1 41.6951 10.1659 100.3817 -12.1572 -79.6616 -34.3473
# 2 10.1659 34.4008 76.5623 -13.3595 -68.8129 -41.7355
# 3 100.3817 76.5623 116.1579 0.8721 102.1472 1.3344
# 4 -12.1572 -13.3595 0.8721 25.2757 -19.7726 3.2912
# 5 -79.6616 -68.8129 102.1472 -19.7726 -70.8123 -17.4992
# 6 -34.3473 -41.7355 1.3344 3.2912 -17.4992 37.9491
#
#
#
# Elastic Compliance Matrix: (Units=1/GPa)
#
#
# Indices 1 2 3 4 5 6 
#
# 1 0.018789 -0.017200 -0.001076 -0.002895 -0.004278 -0.003594
# 2 -0.017200 0.028328 0.002521 -0.000721 -0.007349 0.012172
# 3 -0.001076 0.002521 0.004562 0.003154 0.003702 0.003072
# 4 -0.002895 -0.000721 0.003154 0.038258 -0.000435 -0.007043
# 5 -0.004278 -0.007349 0.003702 -0.000435 0.005629 -0.009451
# 6 -0.003594 0.012172 0.003072 -0.007043 -0.009451 0.032629
#
#
# Mechanical properties :
#
#
# Convention : Reuss Voigt Hill
#
# Bulk Modulus (GPa) = 49.57901 62.94150 56.26025
# Shear Modulus (GPa) = 30.04278 -1.17458 14.43410
#
# Velocity S-wave (km/s) = 3.65443 -0.72259 2.53306
# Velocity P-wave (km/s) = 6.31235 5.22332 5.79348
#
# Compressibility (1/GPa) = 0.02016983
#
# Stress axis : x y z
#
# Youngs Moduli (GPa) = 53.22249 35.30070 219.17993
#
# Poissons Ratio (x) = 0.60717 0.23574
# Poissons Ratio (y) = 0.91543 -0.55248
# Poissons Ratio (z) = 0.05724 -0.08898
#
# Static dielectric constant tensor:
#      x y z
#    x 1.880800 -0.036470 -0.019730 
#    y -0.036470 1.966270 0.073670 
#    z -0.019730 0.073670 1.925330 
# 
# From -- ./inp_files/327237.got.cif
#   From: 2010.05.17/outbox.cif.g08.bks.cpg/sg2_164_cif.got.tgz:327237.got - 2010.06.03 11:33:40.
