data_PCOD9076068
_publ_section_title
;
Structure prediction by ZEFSAII (Michael W. Deem and Ramdas Pophale) SiO2 
 PCOD9076068
Probable space group: P -1
;
_chemical_formula_sum "Si O2"
_cell_formula_units_Z 15
_cell_length_a 8.343469
_cell_length_b 18.398440
_cell_length_c 12.651335
_cell_angle_alpha 135.718759
_cell_angle_beta 49.984307
_cell_angle_gamma 149.142511
_cell_volume 693.260812
_symmetry_space_group_name_H-M "P -1"
_symmetry_group_IT_number 2
_symmetry_cell_setting 'triclinic'
loop_
_space_group_symop_operation_xyz
x,y,z
-x,-y,-z
loop_
_atom_site_type_symbol
_atom_site_label
_atom_site_fract_x
_atom_site_fract_y
_atom_site_fract_z
Si Si1 0.881736 0.798614 0.140980
Si Si2 0.424301 0.880317 0.764284
Si Si3 0.095189 0.137260 0.037755
Si Si4 0.616300 0.641554 0.487709
Si Si5 0.394387 0.602728 0.757840
Si Si6 0.701947 0.814891 0.443698
Si Si7 0.000000 0.500000 0.500000
Si Si8 0.985723 0.372817 0.164718
O O1 0.656276 0.754543 0.283251
O O2 0.233155 0.943827 0.190450
O O3 0.875501 0.860470 0.099054
O O4 0.832991 0.659744 0.989693
O O5 0.166439 0.870555 0.839009
O O6 0.419643 0.778705 0.579596
O O7 0.335026 0.799198 0.831079
O O8 0.422543 0.298517 0.112503
O O9 0.000000 0.000000 0.000000
O O10 0.643767 0.698200 0.652918
O O11 0.703938 0.553746 0.359591
O O12 0.781634 0.762490 0.447377
O O13 0.249633 0.527472 0.500055
O O14 0.117627 0.580656 0.827628
O O15 0.000000 0.000000 0.500000
O O16 0.881884 0.527179 0.681117
#
# Coordination Sequence:
#
# PCOD9076068 Si02
#       8
#     2   2   2   2   2   2   1   2
#     4  10  21  35  58  83 112 154 190 240 289 338
#     4  10  18  36  58  81 110 156 197 237 274 347
#     4  11  21  33  58  87 118 145 198 244 287 334
#     4  10  20  36  59  87 112 149 196 242 284 336
#     4  10  20  33  58  88 114 144 192 249 288 324
#     4  10  21  37  61  82 118 153 197 231 291 357
#     4  10  18  32  60  82 112 144 202 234 268 338
#     4  10  18  35  58  86 111 145 200 234 282 339
#
# _framework density 21.636877999999999
#
# number of rings (size 3 to 8) (size 9 to 14) (size 15 to 20)
#    0.000    1.867    2.667    4.800    1.867    0.000 
#    0.000    4.000    2.933    0.000    0.000    0.000 
#    0.000    0.000    0.000    0.000    0.000    0.000 
#
# Total GULP energy -83538.681424 kJ/mol
# GULP energy per Si atom -5569.245428 kJ/mol
# Density = 2.158763 g / cm^3
# Si number density = 21.636878 Si / 1000 Ang^3
#
#
#
# Elastic Constant Matrix: (Units=GPa)
#
#
# Indices 1 2 3 4 5 6 
#
# 1 93.1361 23.1010 29.6655 -3.6259 -4.8087 -35.0221
# 2 23.1010 71.3082 22.0295 -18.1817 -8.8695 -25.4954
# 3 29.6655 22.0295 154.1981 -18.7359 0.6417 -20.2767
# 4 -3.6259 -18.1817 -18.7359 30.1066 -5.0835 0.9760
# 5 -4.8087 -8.8695 0.6417 -5.0835 34.9300 14.2969
# 6 -35.0221 -25.4954 -20.2767 0.9760 14.2969 39.7067
#
#
#
# Elastic Compliance Matrix: (Units=1/GPa)
#
#
# Indices 1 2 3 4 5 6 
#
# 1 0.016797 0.000074 -0.001135 0.000164 -0.004068 0.015744
# 2 0.000074 0.022524 0.000195 0.013664 0.002187 0.013503
# 3 -0.001135 0.000195 0.007652 0.004481 -0.000928 0.003256
# 4 0.000164 0.013664 0.004481 0.045187 0.006866 0.007623
# 5 -0.004068 0.002187 -0.000928 0.006866 0.036120 -0.015832
# 6 0.015744 0.013503 0.003256 0.007623 -0.015832 0.054917
#
#
# Mechanical properties :
#
#
# Convention : Reuss Voigt Hill
#
# Bulk Modulus (GPa) = 22.10446 52.02602 37.06524
# Shear Modulus (GPa) = 24.99891 37.20509 31.10200
#
# Velocity S-wave (km/s) = 3.40278 4.15121 3.79549
# Velocity P-wave (km/s) = 5.06723 6.86105 6.03120
#
# Compressibility (1/GPa) = 0.04523973
#
# Stress axis : x y z
#
# Youngs Moduli (GPa) = 59.53610 44.39806 130.68345
#
# Poissons Ratio (x) = -0.00328 0.14831
# Poissons Ratio (y) = -0.00440 -0.02545
# Poissons Ratio (z) = 0.06757 -0.00865
#
# Static dielectric constant tensor:
#      x y z
#    x 1.524920 -0.394930 -0.302180 
#    y -0.394930 0.991330 -0.517530 
#    z -0.302180 -0.517530 1.459610 
# 
# From -- ./inp_files/385263.got.cif
#   From: 2010.05.17/outbox.cif.g08.bks.cpg/sg2_193_cif.got.tgz:385263.got - 2010.06.03 11:33:40.
