data_PCOD9076615
_publ_section_title
;
Structure prediction by ZEFSAII (Michael W. Deem and Ramdas Pophale) SiO2 
 PCOD9076615
Probable space group: P -1
;
_chemical_formula_sum "Si O2"
_cell_formula_units_Z 16
_cell_length_a 14.081225
_cell_length_b 9.934366
_cell_length_c 13.291348
_cell_angle_alpha 147.831495
_cell_angle_beta 128.700765
_cell_angle_gamma 40.965591
_cell_volume 648.474942
_symmetry_space_group_name_H-M "P -1"
_symmetry_group_IT_number 2
_symmetry_cell_setting 'triclinic'
loop_
_space_group_symop_operation_xyz
x,y,z
-x,-y,-z
loop_
_atom_site_type_symbol
_atom_site_label
_atom_site_fract_x
_atom_site_fract_y
_atom_site_fract_z
Si Si1 0.309509 0.103763 0.583181
Si Si2 0.260262 0.869207 0.599896
Si Si3 0.082510 0.097576 0.832224
Si Si4 0.217766 0.479976 0.191448
Si Si5 0.568132 0.155835 0.861087
Si Si6 0.935905 0.217935 0.195010
Si Si7 0.251022 0.888669 0.217068
Si Si8 0.404942 0.219022 0.964421
O O1 0.237346 0.010031 0.561978
O O2 0.461112 0.056896 0.688471
O O3 0.190936 0.452359 0.708811
O O4 0.341051 0.913446 0.382439
O O5 0.153848 0.994699 0.703947
O O6 0.263951 0.571818 0.381554
O O7 0.377758 0.949667 0.760451
O O8 0.125905 0.868486 0.806675
O O9 0.911843 0.253986 0.795226
O O10 0.134614 0.309479 0.043073
O O11 0.357927 0.314318 0.107573
O O12 0.713356 0.016526 0.805704
O O13 0.500000 0.500000 0.000000
O O14 0.554553 0.139849 0.962242
O O15 0.086763 0.149850 0.294763
O O16 0.000000 0.000000 0.000000
O O17 0.292242 0.541345 0.033643
#
# Coordination Sequence:
#
# PCOD9076615 Si02
#       8
#     2   2   2   2   2   2   2   2
#     4  11  22  36  63  95 121 157 198 252 308 358
#     4  10  19  35  59  83 117 155 205 244 299 350
#     4  10  22  35  54  83 119 158 200 243 297 366
#     4  10  18  33  58  81 115 153 206 249 289 351
#     4   9  19  34  58  85 124 158 200 245 296 358
#     4  12  24  39  57  87 133 160 189 251 319 356
#     4  11  20  38  55  88 129 159 200 245 301 366
#     4   9  17  32  54  85 114 145 197 249 289 335
#
# _framework density 24.673276000000001
#
# number of rings (size 3 to 8) (size 9 to 14) (size 15 to 20)
#    0.000    1.750    2.500    3.375    3.500    0.000 
#    2.250    0.000    0.000    0.000    0.000   75.250 
#    0.000    0.000    0.000    0.000    0.000    0.000 
#
# Total GULP energy -89138.231884 kJ/mol
# GULP energy per Si atom -5571.139493 kJ/mol
# Density = 2.461712 g / cm^3
# Si number density = 24.673276 Si / 1000 Ang^3
#
#
#
# Elastic Constant Matrix: (Units=GPa)
#
#
# Indices 1 2 3 4 5 6 
#
# 1 179.0286 20.2673 30.0991 -6.4539 -13.2485 9.0087
# 2 20.2673 56.0578 8.4772 -6.4622 4.1455 -9.1377
# 3 30.0991 8.4772 122.7308 -20.1060 0.5790 -12.4240
# 4 -6.4539 -6.4622 -20.1060 17.1086 1.8804 -0.0364
# 5 -13.2485 4.1455 0.5790 1.8804 24.5870 -13.7230
# 6 9.0087 -9.1377 -12.4240 -0.0364 -13.7230 28.0130
#
#
#
# Elastic Compliance Matrix: (Units=1/GPa)
#
#
# Indices 1 2 3 4 5 6 
#
# 1 0.006500 -0.002802 -0.001842 -0.001074 0.002707 -0.002497
# 2 -0.002802 0.021005 0.001459 0.008768 -0.001461 0.007695
# 3 -0.001842 0.001459 0.011305 0.013019 0.001244 0.006708
# 4 -0.001074 0.008768 0.013019 0.077155 -0.004400 0.006924
# 5 0.002707 -0.001461 0.001244 -0.004400 0.058131 0.027676
# 6 -0.002497 0.007695 0.006708 0.006924 0.027676 0.055553
#
#
# Mechanical properties :
#
#
# Convention : Reuss Voigt Hill
#
# Bulk Modulus (GPa) = 30.82806 52.83383 41.83095
# Shear Modulus (GPa) = 20.25667 33.87330 27.06499
#
# Velocity S-wave (km/s) = 2.86841 3.70925 3.31559
# Velocity P-wave (km/s) = 4.84686 6.30909 5.62568
#
# Compressibility (1/GPa) = 0.03243798
#
# Stress axis : x y z
#
# Youngs Moduli (GPa) = 153.84944 47.60883 88.45702
#
# Poissons Ratio (x) = 0.13342 0.16293
# Poissons Ratio (y) = 0.43115 -0.12903
# Poissons Ratio (z) = 0.28338 -0.06945
#
# Static dielectric constant tensor:
#      x y z
#    x 2.020940 -0.008210 -0.010730 
#    y -0.008210 2.081580 -0.013450 
#    z -0.010730 -0.013450 2.068520 
# 
# From -- ./inp_files/532805.got.cif
#   From: 2010.05.17/outbox.cif.g08.bks.cpg/sg2_267_cif.got.tgz:532805.got - 2010.06.03 11:33:40.
