data_PCOD9076033
_publ_section_title
;
Structure prediction by ZEFSAII (Michael W. Deem and Ramdas Pophale) SiO2 
 PCOD9076033
Probable space group: P -1
;
_chemical_formula_sum "Si O2"
_cell_formula_units_Z 14
_cell_length_a 8.521921
_cell_length_b 12.996031
_cell_length_c 9.286776
_cell_angle_alpha 124.469435
_cell_angle_beta 46.965497
_cell_angle_gamma 124.847729
_cell_volume 589.814058
_symmetry_space_group_name_H-M "P -1"
_symmetry_group_IT_number 2
_symmetry_cell_setting 'triclinic'
loop_
_space_group_symop_operation_xyz
x,y,z
-x,-y,-z
loop_
_atom_site_type_symbol
_atom_site_label
_atom_site_fract_x
_atom_site_fract_y
_atom_site_fract_z
Si Si1 0.442768 0.670576 0.414877
Si Si2 0.604536 0.428845 0.221550
Si Si3 0.134588 0.119777 0.611710
Si Si4 0.732242 0.990415 0.277164
Si Si5 0.985864 0.291033 0.335215
Si Si6 0.132985 0.349978 0.609108
Si Si7 0.554512 0.726843 0.057084
O O1 0.537364 0.552139 0.296786
O O2 0.178858 0.640188 0.581713
O O3 0.594025 0.804916 0.502416
O O4 0.474422 0.695226 0.244021
O O5 0.386375 0.354293 0.395064
O O6 0.819443 0.504003 0.241755
O O7 0.622900 0.336513 0.006234
O O8 0.124243 0.064192 0.737296
O O9 0.054152 0.240040 0.695726
O O10 0.873275 0.135706 0.260113
O O11 0.000000 0.000000 0.500000
O O12 0.653334 0.884118 0.116029
O O13 0.500000 0.000000 0.500000
O O14 0.995761 0.314866 0.519905
O O15 0.235919 0.328544 0.146667
#
# Coordination Sequence:
#
# PCOD9076033 Si02
#       7
#     2   2   2   2   2   2   2
#     4  10  21  37  60  87 114 151 189 241 276 337
#     4   9  19  38  57  83 120 151 192 228 286 338
#     4  10  18  32  59  82 112 150 188 229 287 338
#     4  11  20  37  60  85 115 149 190 243 284 333
#     4  11  20  36  61  88 115 149 193 233 287 334
#     4   9  19  33  58  88 110 156 188 229 285 345
#     4  10  21  34  59  86 116 149 189 238 283 337
#
# _framework density 23.736291999999999
#
# number of rings (size 3 to 8) (size 9 to 14) (size 15 to 20)
#    0.000    2.000    4.286    0.857    0.000    2.286 
#    0.000    0.714    0.000   48.000    0.000    0.000 
#    0.000    0.000    0.000    0.000    0.000    0.000 
#
# Total GULP energy -78085.101787 kJ/mol
# GULP energy per Si atom -5577.507270 kJ/mol
# Density = 2.368227 g / cm^3
# Si number density = 23.736292 Si / 1000 Ang^3
#
#
#
# Elastic Constant Matrix: (Units=GPa)
#
#
# Indices 1 2 3 4 5 6 
#
# 1 98.0191 37.8435 35.9030 18.0122 12.5649 8.1964
# 2 37.8435 106.1108 27.9947 20.8989 32.3732 6.3925
# 3 35.9030 27.9947 80.5939 24.8945 19.5925 14.6123
# 4 18.0122 20.8989 24.8945 41.1977 18.8378 16.6334
# 5 12.5649 32.3732 19.5925 18.8378 43.2533 0.7911
# 6 8.1964 6.3925 14.6123 16.6334 0.7911 28.7301
#
#
#
# Elastic Compliance Matrix: (Units=1/GPa)
#
#
# Indices 1 2 3 4 5 6 
#
# 1 0.013456 -0.003780 -0.004547 -0.002401 0.002014 0.000649
# 2 -0.003780 0.013750 -0.000619 -0.000540 -0.008658 -0.001116
# 3 -0.004547 -0.000619 0.018011 -0.004649 -0.004260 -0.004917
# 4 -0.002401 -0.000540 -0.004649 0.044609 -0.015815 -0.022222
# 5 0.002014 -0.008658 -0.004260 -0.015815 0.037619 0.011639
# 6 0.000649 -0.001116 -0.004917 -0.022222 0.011639 0.049915
#
#
# Mechanical properties :
#
#
# Convention : Reuss Voigt Hill
#
# Bulk Modulus (GPa) = 36.59467 54.24515 45.41991
# Shear Modulus (GPa) = 24.46653 34.83506 29.65079
#
# Velocity S-wave (km/s) = 3.21404 3.83506 3.53820
# Velocity P-wave (km/s) = 5.40592 6.52021 5.98904
#
# Compressibility (1/GPa) = 0.02732638
#
# Stress axis : x y z
#
# Youngs Moduli (GPa) = 74.31806 72.72590 55.52019
#
# Poissons Ratio (x) = 0.27489 0.25245
# Poissons Ratio (y) = 0.28091 0.03435
# Poissons Ratio (z) = 0.33792 0.04500
#
# Static dielectric constant tensor:
#      x y z
#    x 1.970720 0.021200 -0.001360 
#    y 0.021200 1.937900 0.002440 
#    z -0.001360 0.002440 1.948590 
# 
# From -- ./inp_files/197466.got.cif
#   From: 2010.05.17/outbox.cif.g08.bks.cpg/sg2_99_cif.got.tgz:197466.got - 2010.06.03 11:33:40.
