data_PCOD9076197
_publ_section_title
;
Structure prediction by ZEFSAII (Michael W. Deem and Ramdas Pophale) SiO2 
 PCOD9076197
Probable space group: P -1
;
_chemical_formula_sum "Si O2"
_cell_formula_units_Z 16
_cell_length_a 8.627052
_cell_length_b 12.177968
_cell_length_c 15.944901
_cell_angle_alpha 110.612999
_cell_angle_beta 122.439126
_cell_angle_gamma 33.080121
_cell_volume 754.209245
_symmetry_space_group_name_H-M "P -1"
_symmetry_group_IT_number 2
_symmetry_cell_setting 'triclinic'
loop_
_space_group_symop_operation_xyz
x,y,z
-x,-y,-z
loop_
_atom_site_type_symbol
_atom_site_label
_atom_site_fract_x
_atom_site_fract_y
_atom_site_fract_z
Si Si1 0.905508 0.781759 0.783906
Si Si2 0.073789 0.972456 0.610874
Si Si3 0.213348 0.410309 0.233289
Si Si4 0.931158 0.789142 0.225524
Si Si5 0.159582 0.035428 0.022643
Si Si6 0.545453 0.163366 0.106446
Si Si7 0.389240 0.626922 0.176439
Si Si8 0.202029 0.958054 0.287333
O O1 0.845907 0.676714 0.755024
O O2 0.286747 0.591162 0.827113
O O3 0.749336 0.937130 0.704289
O O4 0.794749 0.908303 0.868680
O O5 0.071750 0.109914 0.676669
O O6 0.820296 0.043529 0.619550
O O7 0.000000 0.000000 0.500000
O O8 0.431117 0.736950 0.672359
O O9 0.950072 0.649669 0.229916
O O10 0.252468 0.357988 0.131318
O O11 0.256270 0.630672 0.220910
O O12 0.662769 0.980106 0.134556
O O13 0.457662 0.848371 0.997229
O O14 0.890494 0.232889 0.936592
O O15 0.000000 0.000000 0.000000
O O16 0.847990 0.092973 0.192016
O O17 0.425607 0.743076 0.249770
#
# Coordination Sequence:
#
# PCOD9076197 Si02
#       8
#     2   2   2   2   2   2   2   2
#     4  12  20  31  52  79 106 138 173 213 263 295
#     4   9  19  38  62  79  95 130 174 211 253 315
#     4  10  21  33  52  78 108 137 161 213 272 305
#     4   8  17  35  54  75 102 132 173 206 252 311
#     4  10  18  33  52  76  99 140 190 217 238 286
#     4   8  17  35  51  70 104 142 180 215 241 293
#     4   9  18  32  53  72 101 138 180 216 239 295
#     4   8  17  34  54  76  99 136 174 209 252 303
#
# _framework density 21.214272000000001
#
# number of rings (size 3 to 8) (size 9 to 14) (size 15 to 20)
#    0.000    3.500    2.500    1.875    0.000    3.000 
#    0.000    3.125    0.000    3.750    0.000    0.000 
#    0.000    0.000    0.000    0.000    0.000    0.000 
#
# Total GULP energy -89201.629529 kJ/mol
# GULP energy per Si atom -5575.101846 kJ/mol
# Density = 2.116599 g / cm^3
# Si number density = 21.214272 Si / 1000 Ang^3
#
#
#
# Elastic Constant Matrix: (Units=GPa)
#
#
# Indices 1 2 3 4 5 6 
#
# 1 72.0188 36.4764 20.3385 7.2127 -22.0587 22.6690
# 2 36.4764 102.4677 25.1560 0.8712 -16.0082 17.4953
# 3 20.3385 25.1560 98.7274 8.9186 -37.2089 1.1621
# 4 7.2127 0.8712 8.9186 13.5064 -6.5117 -1.8298
# 5 -22.0587 -16.0082 -37.2089 -6.5117 25.1597 -1.0844
# 6 22.6690 17.4953 1.1621 -1.8298 -1.0844 49.8104
#
#
#
# Elastic Compliance Matrix: (Units=1/GPa)
#
#
# Indices 1 2 3 4 5 6 
#
# 1 0.027441 -0.005118 0.007679 -0.006310 0.030076 -0.010447
# 2 -0.005118 0.012582 -0.001824 0.003689 0.001695 -0.001875
# 3 0.007679 -0.001824 0.025072 -0.000424 0.042433 -0.002531
# 4 -0.006310 0.003689 -0.000424 0.087323 0.019013 0.005208
# 5 0.030076 0.001695 0.042433 0.019013 0.134367 -0.011650
# 6 -0.010447 -0.001875 -0.002531 0.005208 -0.011650 0.025486
#
#
# Mechanical properties :
#
#
# Convention : Reuss Voigt Hill
#
# Bulk Modulus (GPa) = 15.02160 48.57285 31.79723
# Shear Modulus (GPa) = 15.01564 30.44484 22.73024
#
# Velocity S-wave (km/s) = 2.66335 3.79240 3.27687
# Velocity P-wave (km/s) = 4.06869 6.49017 5.41648
#
# Compressibility (1/GPa) = 0.06657078
#
# Stress axis : x y z
#
# Youngs Moduli (GPa) = 36.44179 79.47600 39.88511
#
# Poissons Ratio (x) = 0.40672 -0.30629
# Poissons Ratio (y) = 0.18649 0.07275
# Poissons Ratio (z) = -0.27984 0.14497
#
# Static dielectric constant tensor:
#      x y z
#    x 1.875880 0.005820 0.013440 
#    y 0.005820 1.799700 0.006810 
#    z 0.013440 0.006810 1.760080 
# 
# From -- ./inp_files/557992.got.cif
#   From: 2010.05.17/outbox.cif.g08.bks.cpg/sg2_279_cif.got.tgz:557992.got - 2010.06.03 11:33:40.
