data_PCOD9076002
_publ_section_title
;
Structure prediction by ZEFSAII (Michael W. Deem and Ramdas Pophale) SiO2 
 PCOD9076002
Probable space group: P -1
;
_chemical_formula_sum "Si O2"
_cell_formula_units_Z 12
_cell_length_a 7.699520
_cell_length_b 15.135492
_cell_length_c 7.436115
_cell_angle_alpha 117.200045
_cell_angle_beta 125.633664
_cell_angle_gamma 40.202273
_cell_volume 454.506394
_symmetry_space_group_name_H-M "P -1"
_symmetry_group_IT_number 2
_symmetry_cell_setting 'triclinic'
loop_
_space_group_symop_operation_xyz
x,y,z
-x,-y,-z
loop_
_atom_site_type_symbol
_atom_site_label
_atom_site_fract_x
_atom_site_fract_y
_atom_site_fract_z
Si Si1 0.290582 0.841414 0.847122
Si Si2 0.939099 0.642287 0.450240
Si Si3 0.548409 0.847556 0.691619
Si Si4 0.755863 0.891041 0.405949
Si Si5 0.161639 0.848898 0.173258
Si Si6 0.456493 0.425965 0.765701
O O1 0.551128 0.781296 0.810621
O O2 0.057563 0.845439 0.609140
O O3 0.311951 0.794152 0.016318
O O4 0.134827 0.999624 0.913296
O O5 0.850459 0.736769 0.662671
O O6 0.825680 0.751595 0.326341
O O7 0.763931 0.593488 0.316857
O O8 0.286752 0.513197 0.563734
O O9 0.323312 0.868230 0.431933
O O10 0.390199 0.005431 0.754169
O O11 0.500000 0.000000 0.500000
O O12 0.218550 0.726800 0.191615
O O13 0.500000 0.500000 0.000000
#
# Coordination Sequence:
#
# PCOD9076002 Si02
#       6
#     2   2   2   2   2   2
#     4  10  18  32  58  86 111 144 185 231 287 341
#     4   9  19  34  57  85 110 148 192 228 282 339
#     4   9  18  34  58  84 112 144 181 232 289 337
#     4   9  16  29  52  80 110 142 179 229 282 329
#     4   9  18  31  54  83 108 139 187 227 270 333
#     4  10  19  34  57  80 110 153 193 229 274 335
#
# _framework density 26.402266000000001
#
# number of rings (size 3 to 8) (size 9 to 14) (size 15 to 20)
#    0.000    2.667    0.000    4.000    0.000    0.000 
#    0.000    0.833    0.000  160.000    0.000    0.000 
#    0.000    0.000    0.000    0.000    0.000    0.000 
#
# Total GULP energy -66889.662653 kJ/mol
# GULP energy per Si atom -5574.138554 kJ/mol
# Density = 2.634217 g / cm^3
# Si number density = 26.402266 Si / 1000 Ang^3
#
#
#
# Elastic Constant Matrix: (Units=GPa)
#
#
# Indices 1 2 3 4 5 6 
#
# 1 89.4428 -3.5329 25.4862 -2.6123 -14.3259 25.2363
# 2 -3.5329 120.0287 17.4463 14.5582 7.7625 18.1610
# 3 25.4862 17.4463 114.4726 -4.0196 10.6990 19.3983
# 4 -2.6123 14.5582 -4.0196 24.7757 18.2780 5.8113
# 5 -14.3259 7.7625 10.6990 18.2780 44.6160 -1.5301
# 6 25.2363 18.1610 19.3983 5.8113 -1.5301 30.7223
#
#
#
# Elastic Compliance Matrix: (Units=1/GPa)
#
#
# Indices 1 2 3 4 5 6 
#
# 1 0.016497 0.002598 -0.002395 -0.001105 0.005423 -0.013095
# 2 0.002598 0.010115 -0.001424 -0.005572 0.001490 -0.006087
# 3 -0.002395 -0.001424 0.011661 0.009564 -0.007467 -0.006735
# 4 -0.001105 -0.005572 0.009564 0.072775 -0.032083 -0.017201
# 5 0.005423 0.001490 -0.007467 -0.032083 0.039083 0.007394
# 6 -0.013095 -0.006087 -0.006735 -0.017201 0.007394 0.054779
#
#
# Mechanical properties :
#
#
# Convention : Reuss Voigt Hill
#
# Bulk Modulus (GPa) = 27.90820 44.74925 36.32873
# Shear Modulus (GPa) = 22.80041 38.99242 30.89642
#
# Velocity S-wave (km/s) = 2.94186 3.84716 3.42456
# Velocity P-wave (km/s) = 4.70454 6.05970 5.42461
#
# Compressibility (1/GPa) = 0.03583176
#
# Stress axis : x y z
#
# Youngs Moduli (GPa) = 60.61831 98.86120 85.75646
#
# Poissons Ratio (x) = -0.25689 0.20542
# Poissons Ratio (y) = -0.15751 0.12208
# Poissons Ratio (z) = 0.14521 0.14074
#
# Static dielectric constant tensor:
#      x y z
#    x 2.222710 -0.004860 0.049230 
#    y -0.004860 2.183520 0.046940 
#    z 0.049230 0.046940 2.064360 
# 
# From -- ./inp_files/203853.got.cif
#   From: 2010.05.17/outbox.cif.g08.bks.cpg/sg2_102_cif.got.tgz:203853.got - 2010.06.03 11:33:40.
