data_PCOD9076200
_publ_section_title
;
Structure prediction by ZEFSAII (Michael W. Deem and Ramdas Pophale) SiO2 
 PCOD9076200
Probable space group: P -1
;
_chemical_formula_sum "Si O2"
_cell_formula_units_Z 14
_cell_length_a 6.672172
_cell_length_b 23.382508
_cell_length_c 5.337773
_cell_angle_alpha 100.004777
_cell_angle_beta 82.297051
_cell_angle_gamma 138.491440
_cell_volume 543.492419
_symmetry_space_group_name_H-M "P -1"
_symmetry_group_IT_number 2
_symmetry_cell_setting 'triclinic'
loop_
_space_group_symop_operation_xyz
x,y,z
-x,-y,-z
loop_
_atom_site_type_symbol
_atom_site_label
_atom_site_fract_x
_atom_site_fract_y
_atom_site_fract_z
Si Si1 0.524738 0.393072 0.132101
Si Si2 0.900244 0.568809 0.947497
Si Si3 0.269345 0.230392 0.866544
Si Si4 0.801366 0.035420 0.815547
Si Si5 0.173149 0.999898 0.711715
Si Si6 0.446886 0.207531 0.329889
Si Si7 0.920570 0.648749 0.504493
O O1 0.382842 0.379405 0.413556
O O2 0.818845 0.415746 0.107722
O O3 0.622411 0.469646 0.013429
O O4 0.274011 0.299314 0.970508
O O5 0.887703 0.594244 0.693600
O O6 0.950812 0.624789 0.212440
O O7 0.951083 0.129656 0.842569
O O8 0.404006 0.246429 0.583582
O O9 0.437276 0.234280 0.076806
O O10 0.647153 0.978105 0.550413
O O11 0.659689 0.990159 0.069932
O O12 0.089512 0.049438 0.783806
O O13 0.848263 0.896638 0.680837
O O14 0.772577 0.251629 0.388624
#
# Coordination Sequence:
#
# PCOD9076200 Si02
#       7
#     2   2   2   2   2   2   2
#     4  11  24  40  63  83 113 152 188 233 289 328
#     4  11  26  42  58  85 114 147 193 236 275 341
#     4  10  19  34  52  78 109 142 180 228 272 325
#     4   8  14  25  44  70 101 134 177 213 261 322
#     4   8  14  24  44  71  99 138 172 214 264 317
#     4  10  18  33  52  77 112 139 180 227 271 326
#     4  12  23  41  60  84 115 149 189 233 282 337
#
# _framework density 25.759328
#
# number of rings (size 3 to 8) (size 9 to 14) (size 15 to 20)
#    0.000    2.000    2.857    0.857    0.000    5.714 
#    0.000    0.000    0.000    0.857    0.000    0.000 
#    0.000   25.143    0.000    0.000    0.000    3.714 
#
# Total GULP energy -78235.842568 kJ/mol
# GULP energy per Si atom -5588.274469 kJ/mol
# Density = 2.570070 g / cm^3
# Si number density = 25.759328 Si / 1000 Ang^3
#
#
#
# Elastic Constant Matrix: (Units=GPa)
#
#
# Indices 1 2 3 4 5 6 
#
# 1 66.8863 24.3824 29.5849 -3.5697 0.4728 15.7936
# 2 24.3824 117.4850 17.9835 8.7744 -7.9368 -3.3383
# 3 29.5849 17.9835 187.1404 -10.0695 8.9652 5.1930
# 4 -3.5697 8.7744 -10.0695 39.3715 -3.6268 -1.9055
# 5 0.4728 -7.9368 8.9652 -3.6268 37.9561 -9.3886
# 6 15.7936 -3.3383 5.1930 -1.9055 -9.3886 36.7799
#
#
#
# Elastic Compliance Matrix: (Units=1/GPa)
#
#
# Indices 1 2 3 4 5 6 
#
# 1 0.019791 -0.004322 -0.002246 0.001484 -0.002753 -0.009199
# 2 -0.004322 0.009978 -0.000638 -0.002341 0.002928 0.003478
# 3 -0.002246 -0.000638 0.005905 0.001306 -0.001431 -0.000225
# 4 0.001484 -0.002341 0.001306 0.026608 0.001933 0.000838
# 5 -0.002753 0.002928 -0.001431 0.001933 0.029832 0.009365
# 6 -0.009199 0.003478 -0.000225 0.000838 0.009365 0.033920
#
#
# Mechanical properties :
#
#
# Convention : Reuss Voigt Hill
#
# Bulk Modulus (GPa) = 47.03490 57.26815 52.15153
# Shear Modulus (GPa) = 33.89063 42.79222 38.34143
#
# Velocity S-wave (km/s) = 3.63114 4.08024 3.86223
# Velocity P-wave (km/s) = 5.98993 6.66919 6.33867
#
# Compressibility (1/GPa) = 0.02126081
#
# Stress axis : x y z
#
# Youngs Moduli (GPa) = 50.52902 100.22313 169.34467
#
# Poissons Ratio (x) = 0.43313 0.38041
# Poissons Ratio (y) = 0.21837 0.10809
# Poissons Ratio (z) = 0.11351 0.06397
#
# Static dielectric constant tensor:
#      x y z
#    x 2.147220 0.021050 -0.010340 
#    y 0.021050 2.015180 -0.013440 
#    z -0.010340 -0.013440 2.083160 
# 
# From -- ./inp_files/55183.got.cif
#   From: 2010.05.17/outbox.cif.g08.bks.cpg/sg2_28_cif.got.tgz:55183.got - 2010.06.03 11:33:40.
