data_PCOD9076580
_publ_section_title
;
Structure prediction by ZEFSAII (Michael W. Deem and Ramdas Pophale) SiO2 
 PCOD9076580
Probable space group: P -1
;
_chemical_formula_sum "Si O2"
_cell_formula_units_Z 16
_cell_length_a 6.505293
_cell_length_b 31.178499
_cell_length_c 12.118016
_cell_angle_alpha 152.120486
_cell_angle_beta 54.278094
_cell_angle_gamma 134.077533
_cell_volume 822.138271
_symmetry_space_group_name_H-M "P -1"
_symmetry_group_IT_number 2
_symmetry_cell_setting 'triclinic'
loop_
_space_group_symop_operation_xyz
x,y,z
-x,-y,-z
loop_
_atom_site_type_symbol
_atom_site_label
_atom_site_fract_x
_atom_site_fract_y
_atom_site_fract_z
Si Si1 0.487188 0.303917 0.589728
Si Si2 0.879478 0.401800 0.161628
Si Si3 0.372395 0.827390 0.592848
Si Si4 0.248870 0.196819 0.204984
Si Si5 0.945792 0.509829 0.168073
Si Si6 0.010074 0.025419 0.186610
Si Si7 0.122895 0.783954 0.340884
Si Si8 0.539079 0.419167 0.504011
O O1 0.600361 0.267786 0.576999
O O2 0.406709 0.221110 0.329159
O O3 0.734431 0.410397 0.711095
O O4 0.190218 0.300840 0.706508
O O5 0.841700 0.417779 0.080059
O O6 0.653531 0.419356 0.345685
O O7 0.191622 0.488327 0.305272
O O8 0.824727 0.283149 0.920785
O O9 0.661084 0.927256 0.768581
O O10 0.347616 0.818890 0.449796
O O11 0.073814 0.819385 0.710589
O O12 0.426879 0.301982 0.319571
O O13 0.191627 0.081758 0.930376
O O14 0.727258 0.557085 0.352774
O O15 0.000000 0.500000 0.000000
O O16 0.920175 0.115561 0.441984
O O17 0.000000 0.000000 0.000000
#
# Coordination Sequence:
#
# PCOD9076580 Si02
#       8
#     2   2   2   2   2   2   2   2
#     4  10  19  32  55  91 119 143 197 249 300 350
#     4  11  25  44  60  86 128 169 205 245 301 373
#     4  10  18  33  57  88 124 153 189 253 315 347
#     4  11  20  35  59  87 120 156 199 245 302 360
#     4  12  23  36  65  94 118 153 206 260 305 357
#     4  11  20  33  58  94 124 152 198 258 307 360
#     4  10  22  36  57  88 125 158 197 249 308 358
#     4  11  25  43  63  86 124 172 203 245 306 369
#
# _framework density 19.461445000000001
#
# number of rings (size 3 to 8) (size 9 to 14) (size 15 to 20)
#    0.000    1.250    6.250    2.250    1.750    2.000 
#    0.000    0.625    0.000    0.750    0.000    0.000 
#    0.000    0.000    0.000    0.000    0.000    0.000 
#
# Total GULP energy -89162.924511 kJ/mol
# GULP energy per Si atom -5572.682782 kJ/mol
# Density = 1.941715 g / cm^3
# Si number density = 19.461445 Si / 1000 Ang^3
#
#
#
# Elastic Constant Matrix: (Units=GPa)
#
#
# Indices 1 2 3 4 5 6 
#
# 1 77.8654 19.6003 38.7357 -1.0951 7.4616 -1.9490
# 2 19.6003 38.5013 43.4012 5.6721 2.0200 -1.2225
# 3 38.7357 43.4012 119.1845 3.2313 -4.1719 -0.0002
# 4 -1.0951 5.6721 3.2313 30.7838 2.3665 -2.1791
# 5 7.4616 2.0200 -4.1719 2.3665 30.3193 8.4660
# 6 -1.9490 -1.2225 -0.0002 -2.1791 8.4660 24.5290
#
#
#
# Elastic Compliance Matrix: (Units=1/GPa)
#
#
# Indices 1 2 3 4 5 6 
#
# 1 0.016530 -0.003425 -0.004382 0.002335 -0.005535 0.003261
# 2 -0.003425 0.047112 -0.016037 -0.006519 -0.004882 0.003182
# 3 -0.004382 -0.016037 0.015817 0.000547 0.005077 -0.002851
# 4 0.002335 -0.006519 0.000547 0.034316 -0.003935 0.004268
# 5 -0.005535 -0.004882 0.005077 -0.003935 0.039800 -0.014769
# 6 0.003261 0.003182 -0.002851 0.004268 -0.014769 0.046662
#
#
# Mechanical properties :
#
#
# Convention : Reuss Voigt Hill
#
# Bulk Modulus (GPa) = 31.47551 48.78060 40.12805
# Shear Modulus (GPa) = 19.34115 26.04735 22.69425
#
# Velocity S-wave (km/s) = 3.15591 3.66239 3.41854
# Velocity P-wave (km/s) = 5.43029 6.55773 6.02046
#
# Compressibility (1/GPa) = 0.03177074
#
# Stress axis : x y z
#
# Youngs Moduli (GPa) = 60.49710 21.22587 63.22213
#
# Poissons Ratio (x) = 0.07271 0.27704
# Poissons Ratio (y) = 0.20723 1.01389
# Poissons Ratio (z) = 0.26510 0.34040
#
# Static dielectric constant tensor:
#      x y z
#    x 1.686760 -0.012140 0.007170 
#    y -0.012140 1.694200 0.035600 
#    z 0.007170 0.035600 1.773650 
# 
# From -- ./inp_files/81637.got.cif
#   From: 2010.05.17/outbox.cif.g08.bks.cpg/sg2_41_cif.got.tgz:81637.got - 2010.06.03 11:33:40.
