data_PCOD9076180
_publ_section_title
;
Structure prediction by ZEFSAII (Michael W. Deem and Ramdas Pophale) SiO2 
 PCOD9076180
Probable space group: P -1
;
_chemical_formula_sum "Si O2"
_cell_formula_units_Z 14
_cell_length_a 10.244305
_cell_length_b 13.104826
_cell_length_c 17.658987
_cell_angle_alpha 30.725518
_cell_angle_beta 37.134435
_cell_angle_gamma 33.505508
_cell_volume 640.866414
_symmetry_space_group_name_H-M "P -1"
_symmetry_group_IT_number 2
_symmetry_cell_setting 'triclinic'
loop_
_space_group_symop_operation_xyz
x,y,z
-x,-y,-z
loop_
_atom_site_type_symbol
_atom_site_label
_atom_site_fract_x
_atom_site_fract_y
_atom_site_fract_z
Si Si1 0.153839 0.213391 0.267695
Si Si2 0.221587 0.075829 0.018261
Si Si3 0.032115 0.751414 0.128967
Si Si4 0.047929 0.722264 0.838808
Si Si5 0.613486 0.590891 0.304816
Si Si6 0.557309 0.736087 0.407909
Si Si7 0.498171 0.619872 0.081516
O O1 0.049936 0.164653 0.268557
O O2 0.897184 0.388474 0.313744
O O3 0.336507 0.983483 0.373572
O O4 0.328093 0.319363 0.091706
O O5 0.024874 0.235139 0.942598
O O6 0.377916 0.209479 0.873690
O O7 0.087336 0.105032 0.140657
O O8 0.365555 0.835693 0.062394
O O9 0.821224 0.726479 0.288749
O O10 0.302073 0.590059 0.139503
O O11 0.000000 0.000000 0.000000
O O12 0.333490 0.600196 0.806279
O O13 0.000000 0.500000 0.000000
O O14 0.512487 0.704292 0.360056
O O15 0.464792 0.473305 0.412931
#
# Coordination Sequence:
#
# PCOD9076180 Si02
#       7
#     2   2   2   2   2   2   2
#     4  11  19  33  51  77 106 129 164 212 250 296
#     4  10  18  33  51  79 103 134 160 210 258 289
#     4   9  17  33  52  73 104 132 165 206 254 296
#     4  10  21  31  49  79 106 133 169 198 260 300
#     4  10  19  32  50  77 102 130 168 203 258 293
#     4  10  20  34  51  75 104 130 167 208 251 300
#     4  10  19  33  51  77 108 127 166 208 250 305
#
# _framework density 21.845427000000001
#
# number of rings (size 3 to 8) (size 9 to 14) (size 15 to 20)
#    0.000    2.000    7.143    0.429    0.000    4.000 
#    0.000    0.000    0.000    0.857    0.000   15.000 
#    0.000    1.429    0.000    0.000    0.000    0.000 
#
# Total GULP energy -78053.276206 kJ/mol
# GULP energy per Si atom -5575.234015 kJ/mol
# Density = 2.179571 g / cm^3
# Si number density = 21.845427 Si / 1000 Ang^3
#
#
#
# Elastic Constant Matrix: (Units=GPa)
#
#
# Indices 1 2 3 4 5 6 
#
# 1 75.5740 20.2279 10.1620 6.1805 -13.0026 -24.5944
# 2 20.2279 114.5035 8.3962 11.1556 -3.8798 -5.5265
# 3 10.1620 8.3962 67.3669 -1.4730 -25.0405 -5.1811
# 4 6.1805 11.1556 -1.4730 20.4419 1.2021 -1.8390
# 5 -13.0026 -3.8798 -25.0405 1.2021 28.6127 10.1483
# 6 -24.5944 -5.5265 -5.1811 -1.8390 10.1483 43.2755
#
#
#
# Elastic Compliance Matrix: (Units=1/GPa)
#
#
# Indices 1 2 3 4 5 6 
#
# 1 0.017727 -0.002196 -0.000009 -0.003686 0.004894 0.008489
# 2 -0.002196 0.009634 -0.001141 -0.004676 -0.000402 -0.000259
# 3 -0.000009 -0.001141 0.022310 0.000857 0.020094 -0.002155
# 4 -0.003686 -0.004676 0.000857 0.052936 -0.003994 0.000597
# 5 0.004894 -0.000402 0.020094 -0.003994 0.057929 -0.008618
# 6 0.008489 -0.000259 -0.002155 0.000597 -0.008618 0.029687
#
#
# Mechanical properties :
#
#
# Convention : Reuss Voigt Hill
#
# Bulk Modulus (GPa) = 23.26728 37.22409 30.24569
# Shear Modulus (GPa) = 23.66952 33.04322 28.35637
#
# Velocity S-wave (km/s) = 3.29523 3.89342 3.60675
# Velocity P-wave (km/s) = 5.01518 6.10643 5.58751
#
# Compressibility (1/GPa) = 0.04297881
#
# Stress axis : x y z
#
# Youngs Moduli (GPa) = 56.41048 103.79438 44.82369
#
# Poissons Ratio (x) = 0.22797 0.00040
# Poissons Ratio (y) = 0.12390 0.05115
# Poissons Ratio (z) = 0.00050 0.11843
#
# Static dielectric constant tensor:
#      x y z
#    x 1.851790 -0.040470 -0.003460 
#    y -0.040470 1.846350 0.006720 
#    z -0.003460 0.006720 1.910110 
# 
# From -- ./inp_files/420842.got.cif
#   From: 2010.05.17/outbox.cif.g08.bks.cpg/sg2_211_cif.got.tgz:420842.got - 2010.06.03 11:33:40.
