data_PCOD9076119
_publ_section_title
;
Structure prediction by ZEFSAII (Michael W. Deem and Ramdas Pophale) SiO2 
 PCOD9076119
Probable space group: P -1
;
_chemical_formula_sum "Si O2"
_cell_formula_units_Z 16
_cell_length_a 17.335080
_cell_length_b 12.153870
_cell_length_c 9.742675
_cell_angle_alpha 124.076565
_cell_angle_beta 42.564446
_cell_angle_gamma 147.568516
_cell_volume 733.895876
_symmetry_space_group_name_H-M "P -1"
_symmetry_group_IT_number 2
_symmetry_cell_setting 'triclinic'
loop_
_space_group_symop_operation_xyz
x,y,z
-x,-y,-z
loop_
_atom_site_type_symbol
_atom_site_label
_atom_site_fract_x
_atom_site_fract_y
_atom_site_fract_z
Si Si1 0.367653 0.609106 0.947729
Si Si2 0.666270 0.049623 0.836310
Si Si3 0.633315 0.674240 0.330513
Si Si4 0.859895 0.249760 0.250935
Si Si5 0.526724 0.224087 0.557998
Si Si6 0.200069 0.612731 0.916908
Si Si7 0.901793 0.124518 0.370270
Si Si8 0.212163 0.534972 0.375259
O O1 0.326406 0.417346 0.878851
O O2 0.297280 0.599850 0.888440
O O3 0.577808 0.829997 0.838319
O O4 0.282022 0.615867 0.186705
O O5 0.761178 0.102751 0.606079
O O6 0.780773 0.225101 0.924817
O O7 0.500000 0.000000 0.000000
O O8 0.500000 0.500000 0.500000
O O9 0.541682 0.709355 0.388999
O O10 0.809412 0.899408 0.321493
O O11 0.937390 0.211528 0.231369
O O12 0.868581 0.400117 0.419156
O O13 0.651291 0.022422 0.350188
O O14 0.992258 0.381486 0.038607
O O15 0.680240 0.292317 0.309974
O O16 0.626319 0.352774 0.656764
O O17 0.065806 0.288853 0.374138
#
# Coordination Sequence:
#
# PCOD9076119 Si02
#       8
#     2   2   2   2   2   2   2   2
#     4  11  21  38  69  89 119 174 215 258 316 367
#     4  10  18  32  61  98 120 153 213 261 304 367
#     4  11  21  43  68  87 123 171 223 260 305 378
#     4  11  21  41  67  94 130 169 208 253 319 394
#     4  11  26  43  62  97 133 166 208 265 320 375
#     4  11  20  39  68  95 125 167 212 255 317 385
#     4  11  21  38  64  96 122 163 214 265 301 378
#     4  12  24  41  61  97 136 157 205 274 321 366
#
# _framework density 21.801458
#
# number of rings (size 3 to 8) (size 9 to 14) (size 15 to 20)
#    0.000    1.000    5.000    5.250    0.000    1.500 
#    2.250    0.625    0.000    0.000    0.000    0.000 
#    0.000    0.000    0.000    0.000    0.000    0.000 
#
# Total GULP energy -89338.727232 kJ/mol
# GULP energy per Si atom -5583.670452 kJ/mol
# Density = 2.175184 g / cm^3
# Si number density = 21.801458 Si / 1000 Ang^3
#
#
#
# Elastic Constant Matrix: (Units=GPa)
#
#
# Indices 1 2 3 4 5 6 
#
# 1 53.0304 52.8425 16.5500 -1.9397 8.2478 10.5458
# 2 52.8425 205.5978 42.2737 -6.1436 3.3329 16.3558
# 3 16.5500 42.2737 89.3368 -12.1721 1.5964 2.2210
# 4 -1.9397 -6.1436 -12.1721 37.7755 -2.8509 -6.0710
# 5 8.2478 3.3329 1.5964 -2.8509 24.7032 2.8182
# 6 10.5458 16.3558 2.2210 -6.0710 2.8182 36.5132
#
#
#
# Elastic Compliance Matrix: (Units=1/GPa)
#
#
# Indices 1 2 3 4 5 6 
#
# 1 0.027910 -0.006267 -0.002169 -0.001656 -0.007978 -0.004781
# 2 -0.006267 0.006995 -0.002139 0.000026 0.001438 -0.001300
# 3 -0.002169 -0.002139 0.013113 0.004030 0.000468 0.001421
# 4 -0.001656 0.000026 0.004030 0.028685 0.003057 0.004755
# 5 -0.007978 0.001438 0.000468 0.003057 0.043411 -0.001211
# 6 -0.004781 -0.001300 0.001421 0.004755 -0.001211 0.030148
#
#
# Mechanical properties :
#
#
# Convention : Reuss Voigt Hill
#
# Bulk Modulus (GPa) = 37.21889 63.47750 50.34820
# Shear Modulus (GPa) = 27.72101 35.55163 31.63632
#
# Velocity S-wave (km/s) = 3.56971 4.04257 3.81348
# Velocity P-wave (km/s) = 5.83945 7.13927 6.52183
#
# Compressibility (1/GPa) = 0.02686808
#
# Stress axis : x y z
#
# Youngs Moduli (GPa) = 35.82928 142.95241 76.26081
#
# Poissons Ratio (x) = 0.89592 0.16541
# Poissons Ratio (y) = 0.22455 0.16312
# Poissons Ratio (z) = 0.07771 0.30576
#
# Static dielectric constant tensor:
#      x y z
#    x 1.811770 0.022940 -0.027370 
#    y 0.022940 1.880650 -0.070820 
#    z -0.027370 -0.070820 1.863910 
# 
# From -- ./inp_files/333602.got.cif
#   From: 2010.05.17/outbox.cif.g08.bks.cpg/sg2_167_cif.got.tgz:333602.got - 2010.06.03 11:33:40.
