data_PCOD9076992
_publ_section_title
;
Structure prediction by ZEFSAII (Michael W. Deem and Ramdas Pophale) SiO2 
 PCOD9076992
Probable space group: P -1
;
_chemical_formula_sum "Si O2"
_cell_formula_units_Z 16
_cell_length_a 10.565479
_cell_length_b 10.060793
_cell_length_c 9.207812
_cell_angle_alpha 67.521870
_cell_angle_beta 120.936032
_cell_angle_gamma 71.504035
_cell_volume 590.672969
_symmetry_space_group_name_H-M "P -1"
_symmetry_group_IT_number 2
_symmetry_cell_setting 'triclinic'
loop_
_space_group_symop_operation_xyz
x,y,z
-x,-y,-z
loop_
_atom_site_type_symbol
_atom_site_label
_atom_site_fract_x
_atom_site_fract_y
_atom_site_fract_z
Si Si1 0.443842 0.433703 0.858610
Si Si2 0.049268 0.119905 0.404435
Si Si3 0.646748 0.327792 0.549461
Si Si4 0.609186 0.776332 0.641796
Si Si5 0.239717 0.292938 0.940060
Si Si6 0.056888 0.250662 0.635599
Si Si7 0.375608 0.095854 0.674969
Si Si8 0.164414 0.868824 0.969692
O O1 0.303780 0.597554 0.586602
O O2 0.500000 0.500000 0.000000
O O3 0.354446 0.345852 0.903814
O O4 0.635238 0.277406 0.941900
O O5 0.965424 0.286127 0.404171
O O6 0.276237 0.011666 0.589767
O O7 0.972867 0.161294 0.179234
O O8 0.000000 0.000000 0.500000
O O9 0.500000 0.500000 0.500000
O O10 0.535610 0.266231 0.433807
O O11 0.802492 0.174885 0.822018
O O12 0.762155 0.665841 0.907848
O O13 0.691679 0.738151 0.543923
O O14 0.500000 0.000000 0.500000
O O15 0.394657 0.061356 0.126556
O O16 0.043067 0.370809 0.710349
O O17 0.269554 0.171356 0.732805
O O18 0.086156 0.074880 0.795250
#
# Coordination Sequence:
#
# PCOD9076992 Si02
#       8
#     2   2   2   2   2   2   2   2
#     4  11  21  34  52  77 103 138 173 209 267 308
#     4   8  16  30  52  78 103 134 173 209 254 309
#     4  10  22  33  52  79 104 138 178 213 260 310
#     4  10  20  32  50  79 111 130 162 224 274 303
#     4  11  18  31  53  79 110 130 163 224 262 307
#     4   9  18  29  56  82  99 131 177 208 264 304
#     4   9  18  29  53  81 104 129 175 207 267 306
#     4  10  18  34  54  74 109 132 173 217 253 306
#
# _framework density 27.087745999999999
#
# number of rings (size 3 to 8) (size 9 to 14) (size 15 to 20)
#    0.750    1.500    2.500    1.875    3.500    0.000 
#    0.000    0.000    2.750   12.000    0.000    0.000 
#    0.000    0.000    0.000    0.000    0.000    0.000 
#
# Total GULP energy -89381.229665 kJ/mol
# GULP energy per Si atom -5586.326854 kJ/mol
# Density = 2.702609 g / cm^3
# Si number density = 27.087746 Si / 1000 Ang^3
#
#
#
# Elastic Constant Matrix: (Units=GPa)
#
#
# Indices 1 2 3 4 5 6 
#
# 1 25.7245 14.4693 21.6892 -5.0724 -16.4913 -3.1245
# 2 14.4693 98.1597 45.6722 24.0910 10.1798 3.1030
# 3 21.6892 45.6722 233.1617 28.6128 -17.3863 18.3455
# 4 -5.0724 24.0910 28.6128 51.1277 4.7948 13.3355
# 5 -16.4913 10.1798 -17.3863 4.7948 59.0537 -1.1048
# 6 -3.1245 3.1030 18.3455 13.3355 -1.1048 47.1060
#
#
#
# Elastic Compliance Matrix: (Units=1/GPa)
#
#
# Indices 1 2 3 4 5 6 
#
# 1 0.063167 -0.012328 -0.003848 0.011618 0.017757 0.003628
# 2 -0.012328 0.014990 -0.001401 -0.007114 -0.005850 0.000617
# 3 -0.003848 -0.001401 0.005412 -0.002430 0.000928 -0.001561
# 4 0.011618 -0.007114 -0.002430 0.026674 0.001490 -0.005331
# 5 0.017757 -0.005850 0.000928 0.001490 0.023078 0.001321
# 6 0.003628 0.000617 -0.001561 -0.005331 0.001321 0.023577
#
#
# Mechanical properties :
#
#
# Convention : Reuss Voigt Hill
#
# Bulk Modulus (GPa) = 20.65542 57.85638 39.25590
# Shear Modulus (GPa) = 24.01647 49.80515 36.91081
#
# Velocity S-wave (km/s) = 2.98084 4.29261 3.69540
# Velocity P-wave (km/s) = 4.41465 6.78041 5.72115
#
# Compressibility (1/GPa) = 0.04841343
#
# Stress axis : x y z
#
# Youngs Moduli (GPa) = 15.83103 66.71133 184.79083
#
# Poissons Ratio (x) = 0.82243 0.71110
# Poissons Ratio (y) = 0.19517 0.25893
# Poissons Ratio (z) = 0.06092 0.09348
#
# Static dielectric constant tensor:
#      x y z
#    x 3.678650 -0.853570 0.495650 
#    y -0.853570 2.549460 -0.249580 
#    z 0.495650 -0.249580 2.396500 
# 
# From -- ./inp_files/300640.got.cif
#   From: 2010.05.17/outbox.cif.g08.bks.cpg/sg2_151_cif.got.tgz:300640.got - 2010.06.03 11:33:40.
