data_PCOD9076702
_publ_section_title
;
Structure prediction by ZEFSAII (Michael W. Deem and Ramdas Pophale) SiO2 
 PCOD9076702
Probable space group: P -1
;
_chemical_formula_sum "Si O2"
_cell_formula_units_Z 14
_cell_length_a 20.567460
_cell_length_b 9.616535
_cell_length_c 9.923698
_cell_angle_alpha 29.852758
_cell_angle_beta 53.786186
_cell_angle_gamma 65.286023
_cell_volume 766.232162
_symmetry_space_group_name_H-M "P -1"
_symmetry_group_IT_number 2
_symmetry_cell_setting 'triclinic'
loop_
_space_group_symop_operation_xyz
x,y,z
-x,-y,-z
loop_
_atom_site_type_symbol
_atom_site_label
_atom_site_fract_x
_atom_site_fract_y
_atom_site_fract_z
Si Si1 0.309544 0.150861 0.302186
Si Si2 0.220933 0.488663 0.953815
Si Si3 0.349182 0.030617 0.837838
Si Si4 0.559932 0.800373 0.136232
Si Si5 0.403311 0.467893 0.174418
Si Si6 0.812282 0.953459 0.853552
Si Si7 0.904730 0.502669 0.106057
O O1 0.349299 0.265285 0.298671
O O2 0.275301 0.808819 0.629174
O O3 0.237133 0.307620 0.214444
O O4 0.380533 0.229822 0.035169
O O5 0.129459 0.503940 0.000861
O O6 0.242498 0.303330 0.956482
O O7 0.387899 0.065640 0.909873
O O8 0.381018 0.318734 0.471415
O O9 0.379471 0.773358 0.945730
O O10 0.249795 0.969852 0.026695
O O11 0.500000 0.500000 0.500000
O O12 0.500000 0.000000 0.000000
O O13 0.500000 0.500000 0.000000
O O14 0.851116 0.225653 0.483557
O O15 0.883324 0.793494 0.947342
O O16 0.000000 0.500000 0.000000
#
# Coordination Sequence:
#
# PCOD9076702 Si02
#       7
#     2   2   2   2   2   2   2
#     4  12  22  39  57  81 115 152 199 249 284 355
#     4  10  19  35  59  85 116 145 191 232 289 343
#     4  12  23  42  59  81 119 155 198 250 290 358
#     4  12  23  35  57  82 105 146 194 247 304 343
#     4  12  27  42  56  83 119 161 205 254 301 337
#     4  10  20  35  58  90 118 150 191 231 293 347
#     4  10  18  33  58  99 130 140 176 244 302 346
#
# _framework density 18.271224
#
# number of rings (size 3 to 8) (size 9 to 14) (size 15 to 20)
#    0.857    0.000    2.857    6.000    2.000    0.000 
#    0.000    0.000    0.000    0.000    0.000   20.000 
#    0.000    0.000    0.000    0.000    0.000    0.000 
#
# Total GULP energy -78080.263585 kJ/mol
# GULP energy per Si atom -5577.161685 kJ/mol
# Density = 1.822964 g / cm^3
# Si number density = 18.271224 Si / 1000 Ang^3
#
#
#
# Elastic Constant Matrix: (Units=GPa)
#
#
# Indices 1 2 3 4 5 6 
#
# 1 102.9521 30.6264 12.4835 1.9516 10.5137 -22.6210
# 2 30.6264 44.7592 5.1470 -4.4266 -2.4350 -10.2973
# 3 12.4835 5.1470 79.5850 -15.6408 14.3501 -14.2423
# 4 1.9516 -4.4266 -15.6408 29.0076 -2.1149 2.3937
# 5 10.5137 -2.4350 14.3501 -2.1149 26.4466 -4.3412
# 6 -22.6210 -10.2973 -14.2423 2.3937 -4.3412 34.2380
#
#
#
# Elastic Compliance Matrix: (Units=1/GPa)
#
#
# Indices 1 2 3 4 5 6 
#
# 1 0.014462 -0.009082 -0.000198 -0.003399 -0.005723 0.006253
# 2 -0.009082 0.030356 -0.000188 0.005392 0.007534 0.003630
# 3 -0.000198 -0.000188 0.016405 0.007868 -0.007365 0.005153
# 4 -0.003399 0.005392 0.007868 0.039826 0.000757 -0.000040
# 5 -0.005723 0.007534 -0.007365 0.000757 0.045014 0.001076
# 6 0.006253 0.003630 0.005153 -0.000040 0.001076 0.036713
#
#
# Mechanical properties :
#
#
# Convention : Reuss Voigt Hill
#
# Bulk Modulus (GPa) = 23.64802 35.97888 29.81345
# Shear Modulus (GPa) = 23.16894 29.87439 26.52166
#
# Velocity S-wave (km/s) = 3.56484 4.04796 3.81406
# Velocity P-wave (km/s) = 5.46946 6.44844 5.97902
#
# Compressibility (1/GPa) = 0.04228683
#
# Stress axis : x y z
#
# Youngs Moduli (GPa) = 69.14820 32.94288 60.95780
#
# Poissons Ratio (x) = 0.29917 0.01207
# Poissons Ratio (y) = 0.62797 0.01146
# Poissons Ratio (z) = 0.01370 0.00619
#
# Static dielectric constant tensor:
#      x y z
#    x 1.653160 -0.068260 0.063090 
#    y -0.068260 1.468230 0.129290 
#    z 0.063090 0.129290 1.489150 
# 
# From -- ./inp_files/106736.got.cif
#   From: 2010.05.17/outbox.cif.g08.bks.cpg/sg2_54_cif.got.tgz:106736.got - 2010.06.03 11:33:40.
