data_PCOD9076012
_publ_section_title
;
Structure prediction by ZEFSAII (Michael W. Deem and Ramdas Pophale) SiO2 
 PCOD9076012
Probable space group: P -1
;
_chemical_formula_sum "Si O2"
_cell_formula_units_Z 15
_cell_length_a 7.979090
_cell_length_b 20.931330
_cell_length_c 13.675735
_cell_angle_alpha 37.101478
_cell_angle_beta 68.368333
_cell_angle_gamma 38.294575
_cell_volume 619.345137
_symmetry_space_group_name_H-M "P -1"
_symmetry_group_IT_number 2
_symmetry_cell_setting 'triclinic'
loop_
_space_group_symop_operation_xyz
x,y,z
-x,-y,-z
loop_
_atom_site_type_symbol
_atom_site_label
_atom_site_fract_x
_atom_site_fract_y
_atom_site_fract_z
Si Si1 0.426623 0.167156 0.067985
Si Si2 0.500000 0.500000 0.000000
Si Si3 0.633596 0.818514 0.232537
Si Si4 0.768311 0.767779 0.483726
Si Si5 0.523047 0.328394 0.609098
Si Si6 0.260466 0.584486 0.181019
Si Si7 0.350776 0.717450 0.150356
Si Si8 0.811275 0.562484 0.865210
O O1 0.655019 0.945266 0.313855
O O2 0.676504 0.141033 0.024193
O O3 0.117237 0.291988 0.901237
O O4 0.161600 0.335374 0.008010
O O5 0.404377 0.533282 0.102697
O O6 0.474509 0.386198 0.128278
O O7 0.581097 0.835585 0.339032
O O8 0.433730 0.820381 0.224792
O O9 0.079347 0.576224 0.420416
O O10 0.500000 0.000000 0.000000
O O11 0.653520 0.744650 0.619881
O O12 0.207966 0.528531 0.664937
O O13 0.554620 0.366594 0.449691
O O14 0.718013 0.275356 0.729153
O O15 0.183608 0.728580 0.088448
O O16 0.000000 0.500000 0.000000
#
# Coordination Sequence:
#
# PCOD9076012 Si02
#       8
#     2   1   2   2   2   2   2   2
#     4  10  21  39  61  86 118 153 192 240 295 353
#     4  10  20  36  58  80 110 152 192 238 288 336
#     4  10  18  32  58  87 117 151 188 235 293 354
#     4  10  20  37  61  88 117 153 194 239 296 355
#     4  10  19  33  55  84 116 153 193 236 290 350
#     4  11  21  38  60  84 117 156 197 242 292 345
#     4  10  21  38  60  88 121 152 191 242 294 353
#     4  10  21  39  60  84 117 153 197 248 292 339
#
# _framework density 24.219128999999999
#
# number of rings (size 3 to 8) (size 9 to 14) (size 15 to 20)
#    0.000    1.867    0.000    7.600    0.000    0.533 
#    0.000   10.667    0.000    7.200    0.000    0.000 
#    0.000    0.000    0.000    0.000    0.000    0.000 
#
# Total GULP energy -83638.399044 kJ/mol
# GULP energy per Si atom -5575.893270 kJ/mol
# Density = 2.416401 g / cm^3
# Si number density = 24.219129 Si / 1000 Ang^3
#
#
#
# Elastic Constant Matrix: (Units=GPa)
#
#
# Indices 1 2 3 4 5 6 
#
# 1 147.4426 49.2639 71.4160 15.6649 -12.3361 39.6187
# 2 49.2639 108.2452 56.7344 29.8503 -10.6484 40.5001
# 3 71.4160 56.7344 174.8412 19.0602 -37.9080 18.5307
# 4 15.6649 29.8503 19.0602 51.6595 2.8034 -0.9332
# 5 -12.3361 -10.6484 -37.9080 2.8034 50.6267 -5.1380
# 6 39.6187 40.5001 18.5307 -0.9332 -5.1380 51.4729
#
#
#
# Elastic Compliance Matrix: (Units=1/GPa)
#
#
# Indices 1 2 3 4 5 6 
#
# 1 0.010482 0.000253 -0.003516 -0.002122 -0.000629 -0.007102
# 2 0.000253 0.019094 -0.003602 -0.010063 0.000512 -0.014053
# 3 -0.003516 -0.003602 0.009325 -0.000552 0.005677 0.002740
# 4 -0.002122 -0.010063 -0.000552 0.026387 -0.003505 0.009878
# 5 -0.000629 0.000512 0.005677 -0.003505 0.024191 0.000389
# 6 -0.007102 -0.014053 0.002740 0.009878 0.000389 0.035183
#
#
# Mechanical properties :
#
#
# Convention : Reuss Voigt Hill
#
# Bulk Modulus (GPa) = 39.72740 87.26198 63.49469
# Shear Modulus (GPa) = 34.06392 47.62616 40.84504
#
# Velocity S-wave (km/s) = 3.75439 4.43930 4.11113
# Velocity P-wave (km/s) = 5.93572 7.89841 6.98633
#
# Compressibility (1/GPa) = 0.02517154
#
# Stress axis : x y z
#
# Youngs Moduli (GPa) = 95.40130 52.37170 107.24069
#
# Poissons Ratio (x) = -0.01324 0.37704
# Poissons Ratio (y) = -0.02412 0.38626
# Poissons Ratio (z) = 0.33541 0.18863
#
# Static dielectric constant tensor:
#      x y z
#    x 1.989420 -0.046680 0.010980 
#    y -0.046680 2.068670 -0.022520 
#    z 0.010980 -0.022520 1.956740 
# 
# From -- ./inp_files/402834.got.cif
#   From: 2010.05.17/outbox.cif.g08.bks.cpg/sg2_202_cif.got.tgz:402834.got - 2010.06.03 11:33:40.
