data_PCOD9076085
_publ_section_title
;
Structure prediction by ZEFSAII (Michael W. Deem and Ramdas Pophale) SiO2 
 PCOD9076085
Probable space group: P -1
;
_chemical_formula_sum "Si O2"
_cell_formula_units_Z 14
_cell_length_a 10.587731
_cell_length_b 11.897469
_cell_length_c 12.687799
_cell_angle_alpha 34.890502
_cell_angle_beta 114.442000
_cell_angle_gamma 135.875301
_cell_volume 571.732271
_symmetry_space_group_name_H-M "P -1"
_symmetry_group_IT_number 2
_symmetry_cell_setting 'triclinic'
loop_
_space_group_symop_operation_xyz
x,y,z
-x,-y,-z
loop_
_atom_site_type_symbol
_atom_site_label
_atom_site_fract_x
_atom_site_fract_y
_atom_site_fract_z
Si Si1 0.375362 0.927317 0.726955
Si Si2 0.697158 0.778956 0.669958
Si Si3 0.667930 0.461054 0.711944
Si Si4 0.156964 0.494287 0.589820
Si Si5 0.068777 0.075688 0.719985
Si Si6 0.236132 0.847603 0.975837
Si Si7 0.639809 0.334460 0.262093
O O1 0.280699 0.007076 0.563416
O O2 0.616254 0.217387 0.593286
O O3 0.283209 0.839869 0.877422
O O4 0.338536 0.686046 0.837902
O O5 0.693346 0.595212 0.728645
O O6 0.490246 0.610084 0.791758
O O7 0.876368 0.942577 0.688568
O O8 0.738787 0.679081 0.476925
O O9 0.438628 0.153219 0.858613
O O10 0.800378 0.398912 0.792968
O O11 0.091284 0.227416 0.715418
O O12 0.180981 0.495622 0.722488
O O13 0.000000 0.500000 0.500000
O O14 0.074302 0.851914 0.917663
O O15 0.500000 0.000000 0.500000
#
# Coordination Sequence:
#
# PCOD9076085 Si02
#       7
#     2   2   2   2   2   2   2
#     4  10  18  36  56  85 119 148 190 236 286 336
#     4  10  20  36  57  86 117 150 191 234 283 340
#     4  11  23  38  56  87 116 153 194 234 281 345
#     4  10  18  32  60  89 107 151 196 231 284 340
#     4  12  21  37  62  86 118 151 189 236 286 340
#     4  11  23  38  59  86 116 154 191 234 288 337
#     4   8  17  32  55  84 114 145 193 233 277 342
#
# _framework density 24.486989000000001
#
# number of rings (size 3 to 8) (size 9 to 14) (size 15 to 20)
#    0.000    2.000    2.857    5.143    0.000    0.571 
#    0.000    0.714    0.000    0.857    3.714    0.000 
#    0.000    0.000    0.000    0.000    0.000    0.000 
#
# Total GULP energy -78388.991159 kJ/mol
# GULP energy per Si atom -5599.213654 kJ/mol
# Density = 2.443126 g / cm^3
# Si number density = 24.486989 Si / 1000 Ang^3
#
#
#
# Elastic Constant Matrix: (Units=GPa)
#
#
# Indices 1 2 3 4 5 6 
#
# 1 74.4240 50.1156 36.5857 -6.2134 24.4005 -8.2535
# 2 50.1156 154.2989 11.5161 -4.4746 8.8100 -11.5044
# 3 36.5857 11.5161 72.0101 0.3539 12.2073 4.9086
# 4 -6.2134 -4.4746 0.3539 26.6951 1.5129 11.6371
# 5 24.4005 8.8100 12.2073 1.5129 40.3356 5.6280
# 6 -8.2535 -11.5044 4.9086 11.6371 5.6280 61.5119
#
#
#
# Elastic Compliance Matrix: (Units=1/GPa)
#
#
# Indices 1 2 3 4 5 6 
#
# 1 0.029505 -0.007516 -0.011809 0.004866 -0.013345 0.003796
# 2 -0.007516 0.008664 0.002071 -0.000602 0.001997 0.000378
# 3 -0.011809 0.002071 0.019535 -0.001612 0.001197 -0.002560
# 4 0.004866 -0.000602 -0.001612 0.041710 -0.002918 -0.006955
# 5 -0.013345 0.001997 0.001197 -0.002918 0.032728 -0.003955
# 6 0.003796 0.000378 -0.002560 -0.006955 -0.003955 0.018719
#
#
# Mechanical properties :
#
#
# Convention : Reuss Voigt Hill
#
# Bulk Modulus (GPa) = 43.10713 55.24086 49.17399
# Shear Modulus (GPa) = 25.89332 39.20956 32.55144
#
# Velocity S-wave (km/s) = 3.25535 4.00589 3.64996
# Velocity P-wave (km/s) = 5.63667 6.63359 6.15534
#
# Compressibility (1/GPa) = 0.02319802
#
# Stress axis : x y z
#
# Youngs Moduli (GPa) = 33.89252 115.41956 51.19044
#
# Poissons Ratio (x) = 0.86745 0.60450
# Poissons Ratio (y) = 0.25472 -0.10604
# Poissons Ratio (z) = 0.40023 -0.23909
#
# Static dielectric constant tensor:
#      x y z
#    x 1.999370 0.014780 -0.021270 
#    y 0.014780 1.906680 0.014280 
#    z -0.021270 0.014280 1.946970 
# 
# From -- ./inp_files/305774.got.cif
#   From: 2010.05.17/outbox.cif.g08.bks.cpg/sg2_153_cif.got.tgz:305774.got - 2010.06.03 11:33:40.
