data_PCOD9076869
_publ_section_title
;
Structure prediction by ZEFSAII (Michael W. Deem and Ramdas Pophale) SiO2 
 PCOD9076869
Probable space group: P -1
;
_chemical_formula_sum "Si O2"
_cell_formula_units_Z 16
_cell_length_a 7.704503
_cell_length_b 19.484409
_cell_length_c 24.084056
_cell_angle_alpha 162.338712
_cell_angle_beta 41.805958
_cell_angle_gamma 145.312725
_cell_volume 608.840822
_symmetry_space_group_name_H-M "P -1"
_symmetry_group_IT_number 2
_symmetry_cell_setting 'triclinic'
loop_
_space_group_symop_operation_xyz
x,y,z
-x,-y,-z
loop_
_atom_site_type_symbol
_atom_site_label
_atom_site_fract_x
_atom_site_fract_y
_atom_site_fract_z
Si Si1 0.311872 0.590218 0.807320
Si Si2 0.902996 0.140152 0.781801
Si Si3 0.361655 0.179992 0.789906
Si Si4 0.028606 0.698941 0.230522
Si Si5 0.576686 0.453599 0.370914
Si Si6 0.235502 0.714674 0.653377
Si Si7 0.966456 0.850018 0.048437
Si Si8 0.076499 0.793139 0.862202
O O1 0.352692 0.452388 0.637868
O O2 0.235888 0.424243 0.754078
O O3 0.033116 0.634670 0.892853
O O4 0.606610 0.902518 0.982035
O O5 0.984811 0.154990 0.708682
O O6 0.088064 0.052265 0.710285
O O7 0.530970 0.974837 0.754699
O O8 0.014766 0.439833 0.007905
O O9 0.640485 0.133256 0.686195
O O10 0.500000 0.500000 0.000000
O O11 0.230699 0.106380 0.826908
O O12 0.429745 0.601917 0.548728
O O13 0.855122 0.432609 0.309808
O O14 0.294589 0.137972 0.190248
O O15 0.022697 0.740851 0.769274
O O16 0.000000 0.500000 0.500000
O O17 0.871189 0.782634 0.954677
#
# Coordination Sequence:
#
# PCOD9076869 Si02
#       8
#     2   2   2   2   2   2   2   2
#     4   9  15  35  61  88 114 142 199 253 288 342
#     4  10  21  37  55  89 121 151 200 248 289 346
#     4  10  18  33  61  93 117 145 196 253 296 343
#     4  10  19  35  64  89 116 157 197 250 296 341
#     4   9  20  34  61  82 112 159 187 241 305 348
#     4  12  24  39  52  84 128 159 193 237 298 368
#     4   9  16  32  59  90 111 142 199 250 286 347
#     4   9  18  36  60  80 114 153 195 242 291 347
#
# _framework density 26.279447999999999
#
# number of rings (size 3 to 8) (size 9 to 14) (size 15 to 20)
#    0.000    2.250    3.750    2.625    1.750    0.000 
#    0.000    6.875    0.000    0.750    0.000    0.000 
#    0.000    0.000    0.000    0.000    0.000    0.000 
#
# Total GULP energy -89348.930628 kJ/mol
# GULP energy per Si atom -5584.308164 kJ/mol
# Density = 2.621963 g / cm^3
# Si number density = 26.279448 Si / 1000 Ang^3
#
#
#
# Elastic Constant Matrix: (Units=GPa)
#
#
# Indices 1 2 3 4 5 6 
#
# 1 135.4022 57.0884 28.3676 5.6346 3.0163 -20.6308
# 2 57.0884 125.2071 16.8663 -7.9782 10.9623 -46.8111
# 3 28.3676 16.8663 39.9088 -4.0499 9.2479 -8.4737
# 4 5.6346 -7.9782 -4.0499 25.4141 5.6356 11.0827
# 5 3.0163 10.9623 9.2479 5.6356 43.5122 -6.9846
# 6 -20.6308 -46.8111 -8.4737 11.0827 -6.9846 46.2978
#
#
#
# Elastic Compliance Matrix: (Units=1/GPa)
#
#
# Indices 1 2 3 4 5 6 
#
# 1 0.011029 -0.004269 -0.007042 -0.006035 0.002778 0.001173
# 2 -0.004269 0.014904 -0.000181 0.000302 -0.001397 0.012850
# 3 -0.007042 -0.000181 0.032662 0.008644 -0.007618 -0.000561
# 4 -0.006035 0.000302 0.008644 0.050804 -0.010408 -0.014533
# 5 0.002778 -0.001397 -0.007618 -0.010408 0.026908 0.004982
# 6 0.001173 0.012850 -0.000561 -0.014533 0.004982 0.039242
#
#
# Mechanical properties :
#
#
# Convention : Reuss Voigt Hill
#
# Bulk Modulus (GPa) = 28.08226 56.12919 42.10573
# Shear Modulus (GPa) = 23.76377 36.25787 30.01082
#
# Velocity S-wave (km/s) = 3.01037 3.71847 3.38300
# Velocity P-wave (km/s) = 4.77413 6.31197 5.59613
#
# Compressibility (1/GPa) = 0.03560967
#
# Stress axis : x y z
#
# Youngs Moduli (GPa) = 90.67234 67.09796 30.61618
#
# Poissons Ratio (x) = 0.28646 0.21560
# Poissons Ratio (y) = 0.38710 0.00555
# Poissons Ratio (z) = 0.63853 0.01216
#
# Static dielectric constant tensor:
#      x y z
#    x 2.201000 -0.012160 -0.013350 
#    y -0.012160 2.082510 0.002700 
#    z -0.013350 0.002700 2.056090 
# 
# From -- ./inp_files/306504.got.cif
#   From: 2010.05.17/outbox.cif.g08.bks.cpg/sg2_154_cif.got.tgz:306504.got - 2010.06.03 11:33:40.
