data_PCOD9076698
_publ_section_title
;
Structure prediction by ZEFSAII (Michael W. Deem and Ramdas Pophale) SiO2 
 PCOD9076698
Probable space group: P -1
;
_chemical_formula_sum "Si O2"
_cell_formula_units_Z 14
_cell_length_a 11.668015
_cell_length_b 11.359985
_cell_length_c 13.291856
_cell_angle_alpha 43.052463
_cell_angle_beta 145.585414
_cell_angle_gamma 110.069746
_cell_volume 502.772881
_symmetry_space_group_name_H-M "P -1"
_symmetry_group_IT_number 2
_symmetry_cell_setting 'triclinic'
loop_
_space_group_symop_operation_xyz
x,y,z
-x,-y,-z
loop_
_atom_site_type_symbol
_atom_site_label
_atom_site_fract_x
_atom_site_fract_y
_atom_site_fract_z
Si Si1 0.969406 0.510074 0.851409
Si Si2 0.825957 0.177000 0.356566
Si Si3 0.606528 0.489205 0.324074
Si Si4 0.443522 0.847992 0.504350
Si Si5 0.213415 0.245997 0.682115
Si Si6 0.852817 0.219415 0.016953
Si Si7 0.397636 0.956148 0.170379
O O1 0.908813 0.342044 0.903506
O O2 0.716612 0.775009 0.480131
O O3 0.000000 0.500000 0.000000
O O4 0.260350 0.400324 0.092228
O O5 0.972697 0.264174 0.452740
O O6 0.533801 0.376473 0.968037
O O7 0.000000 0.000000 0.500000
O O8 0.874685 0.007297 0.586914
O O9 0.735981 0.224417 0.569455
O O10 0.783655 0.549713 0.456205
O O11 0.370362 0.607427 0.166608
O O12 0.397674 0.930006 0.304760
O O13 0.500000 0.000000 0.500000
O O14 0.500000 0.000000 0.000000
O O15 0.236833 0.199996 0.847833
O O16 0.717497 0.147233 0.901054
#
# Coordination Sequence:
#
# PCOD9076698 Si02
#       7
#     2   2   2   2   2   2   2
#     4  10  20  32  61  88 112 154 201 248 306 347
#     4   9  19  30  53  89 130 147 184 241 314 364
#     4  11  21  35  60  90 126 156 199 249 309 360
#     4  11  26  43  57  82 123 170 210 243 297 365
#     4  11  20  32  60 101 125 150 188 260 316 355
#     4  10  18  33  58  97 117 147 189 260 312 353
#     4  10  21  37  63  90 125 144 200 258 305 361
#
# _framework density 27.845576000000001
#
# number of rings (size 3 to 8) (size 9 to 14) (size 15 to 20)
#    0.000    1.714    7.143    0.429    6.000    0.000 
#    0.000    1.429    0.000    1.714    0.000    0.000 
#    0.000    0.000    0.000    0.000    0.000    0.000 
#
# Total GULP energy -78275.919390 kJ/mol
# GULP energy per Si atom -5591.137099 kJ/mol
# Density = 2.778220 g / cm^3
# Si number density = 27.845576 Si / 1000 Ang^3
#
#
#
# Elastic Constant Matrix: (Units=GPa)
#
#
# Indices 1 2 3 4 5 6 
#
# 1 54.9050 40.4781 35.0132 -3.4561 -16.1516 2.0422
# 2 40.4781 240.9695 34.2615 4.1764 -16.0196 27.0747
# 3 35.0132 34.2615 110.3998 15.6443 -38.6526 -13.4935
# 4 -3.4561 4.1764 15.6443 30.1331 0.8440 -4.3379
# 5 -16.1516 -16.0196 -38.6526 0.8440 56.9420 -0.4776
# 6 2.0422 27.0747 -13.4935 -4.3379 -0.4776 41.4435
#
#
#
# Elastic Compliance Matrix: (Units=1/GPa)
#
#
# Indices 1 2 3 4 5 6 
#
# 1 0.026743 -0.003249 -0.008405 0.007697 0.000842 -0.001116
# 2 -0.003249 0.005256 -0.000916 -0.001155 -0.000079 -0.003693
# 3 -0.008405 -0.000916 0.017264 -0.009229 0.009263 0.005774
# 4 0.007697 -0.001155 -0.009229 0.039366 -0.004978 0.001434
# 5 0.000842 -0.000079 0.009263 -0.004978 0.024163 0.002783
# 6 -0.001116 -0.003693 0.005774 0.001434 0.002783 0.028659
#
#
# Mechanical properties :
#
#
# Convention : Reuss Voigt Hill
#
# Bulk Modulus (GPa) = 41.45550 69.53109 55.49330
# Shear Modulus (GPa) = 28.63157 45.47181 37.05169
#
# Velocity S-wave (km/s) = 3.21008 4.04542 3.65171
# Velocity P-wave (km/s) = 5.35345 6.84434 6.14428
#
# Compressibility (1/GPa) = 0.02412225
#
# Stress axis : x y z
#
# Youngs Moduli (GPa) = 37.39356 190.27045 57.92270
#
# Poissons Ratio (x) = 0.61821 0.48686
# Poissons Ratio (y) = 0.12150 0.05305
# Poissons Ratio (z) = 0.31430 0.17426
#
# Static dielectric constant tensor:
#      x y z
#    x 2.370390 0.094030 -0.018250 
#    y 0.094030 2.422030 -0.214160 
#    z -0.018250 -0.214160 2.307290 
# 
# From -- ./inp_files/532354.got.cif
#   From: 2010.05.17/outbox.cif.g08.bks.cpg/sg2_267_cif.got.tgz:532354.got - 2010.06.03 11:33:40.
