data_PCOD9076970
_publ_section_title
;
Structure prediction by ZEFSAII (Michael W. Deem and Ramdas Pophale) SiO2 
 PCOD9076970
Probable space group: P -1
;
_chemical_formula_sum "Si O2"
_cell_formula_units_Z 16
_cell_length_a 14.284103
_cell_length_b 7.296435
_cell_length_c 22.343347
_cell_angle_alpha 124.880279
_cell_angle_beta 159.232148
_cell_angle_gamma 56.095771
_cell_volume 675.233284
_symmetry_space_group_name_H-M "P -1"
_symmetry_group_IT_number 2
_symmetry_cell_setting 'triclinic'
loop_
_space_group_symop_operation_xyz
x,y,z
-x,-y,-z
loop_
_atom_site_type_symbol
_atom_site_label
_atom_site_fract_x
_atom_site_fract_y
_atom_site_fract_z
Si Si1 0.218615 0.341498 0.002367
Si Si2 0.247796 0.996370 0.058348
Si Si3 0.124905 0.892265 0.347627
Si Si4 0.825481 0.467207 0.579041
Si Si5 0.727483 0.660596 0.773720
Si Si6 0.668507 0.110261 0.172606
Si Si7 0.624455 0.685518 0.152024
Si Si8 0.717264 0.824684 0.673099
O O1 0.036006 0.203021 0.822225
O O2 0.023961 0.555360 0.943242
O O3 0.291160 0.204206 0.079792
O O4 0.500065 0.334856 0.134855
O O5 0.306120 0.085209 0.175334
O O6 0.420574 0.773891 0.098444
O O7 0.940716 0.969859 0.858724
O O8 0.137089 0.713565 0.377012
O O9 0.419766 0.929538 0.510038
O O10 0.958807 0.106611 0.317327
O O11 0.527096 0.453653 0.374687
O O12 0.830263 0.705003 0.658838
O O13 0.074157 0.411567 0.673993
O O14 0.701510 0.644604 0.683703
O O15 0.662015 0.919441 0.183800
O O16 0.500000 0.000000 0.000000
O O17 0.500000 0.500000 0.000000
#
# Coordination Sequence:
#
# PCOD9076970 Si02
#       8
#     2   2   2   2   2   2   2   2
#     4  10  18  34  53  75 108 139 171 212 260 313
#     4  11  24  33  51  83 111 136 169 214 273 310
#     4   9  16  32  55  80  97 134 182 218 248 303
#     4  10  18  34  60  75 100 140 182 213 251 306
#     4  11  21  37  54  76 107 145 175 207 258 319
#     4   8  17  29  50  78  99 132 173 210 250 306
#     4  10  19  34  53  77 107 132 169 223 261 299
#     4  11  19  35  56  78 103 136 179 222 253 298
#
# _framework density 23.695513999999999
#
# number of rings (size 3 to 8) (size 9 to 14) (size 15 to 20)
#    0.000    2.000    3.750    1.500    0.000    1.000 
#    0.000    0.000    0.000    0.750    0.000    0.000 
#    0.000    0.000    0.000    0.000    0.000    0.000 
#
# Total GULP energy -89219.235261 kJ/mol
# GULP energy per Si atom -5576.202204 kJ/mol
# Density = 2.364158 g / cm^3
# Si number density = 23.695514 Si / 1000 Ang^3
#
#
#
# Elastic Constant Matrix: (Units=GPa)
#
#
# Indices 1 2 3 4 5 6 
#
# 1 56.2982 42.7199 17.9463 -19.3092 7.7135 -27.0657
# 2 42.7199 102.1936 31.2623 -22.0407 11.4072 -30.9412
# 3 17.9463 31.2623 57.8738 -12.8277 16.3185 -36.9821
# 4 -19.3092 -22.0407 -12.8277 39.5601 -13.4174 4.8724
# 5 7.7135 11.4072 16.3185 -13.4174 22.7558 -19.3866
# 6 -27.0657 -30.9412 -36.9821 4.8724 -19.3866 51.1850
#
#
#
# Elastic Compliance Matrix: (Units=1/GPa)
#
#
# Indices 1 2 3 4 5 6 
#
# 1 0.039005 -0.008452 0.009126 0.020807 0.020504 0.027895
# 2 -0.008452 0.015995 -0.004005 0.003990 0.002528 0.002883
# 3 0.009126 -0.004005 0.037002 0.012262 0.005079 0.029896
# 4 0.020807 0.003990 0.012262 0.051229 0.040130 0.032596
# 5 0.020504 0.002528 0.005079 0.040130 0.097675 0.049215
# 6 0.027895 0.002883 0.029896 0.032596 0.049215 0.073168
#
#
# Mechanical properties :
#
#
# Convention : Reuss Voigt Hill
#
# Bulk Modulus (GPa) = 11.71794 44.46918 28.09356
# Shear Modulus (GPa) = 14.31913 30.99600 22.65756
#
# Velocity S-wave (km/s) = 2.46091 3.62068 3.09560
# Velocity P-wave (km/s) = 3.60981 6.02385 4.96576
#
# Compressibility (1/GPa) = 0.08533926
#
# Stress axis : x y z
#
# Youngs Moduli (GPa) = 25.63773 62.51851 27.02564
#
# Poissons Ratio (x) = 0.52843 -0.24664
# Poissons Ratio (y) = 0.21670 0.10824
# Poissons Ratio (z) = -0.23397 0.25040
#
# Static dielectric constant tensor:
#      x y z
#    x 2.004480 0.009960 0.056720 
#    y 0.009960 1.927020 -0.052840 
#    z 0.056720 -0.052840 1.884910 
# 
# From -- ./inp_files/205659.got.cif
#   From: 2010.05.17/outbox.cif.g08.bks.cpg/sg2_103_cif.got.tgz:205659.got - 2010.06.03 11:33:40.
