data_PCOD9076378
_publ_section_title
;
Structure prediction by ZEFSAII (Michael W. Deem and Ramdas Pophale) SiO2 
 PCOD9076378
Probable space group: P -1
;
_chemical_formula_sum "Si O2"
_cell_formula_units_Z 16
_cell_length_a 17.545094
_cell_length_b 25.780513
_cell_length_c 28.469660
_cell_angle_alpha 10.023086
_cell_angle_beta 157.426292
_cell_angle_gamma 157.679721
_cell_volume 836.005946
_symmetry_space_group_name_H-M "P -1"
_symmetry_group_IT_number 2
_symmetry_cell_setting 'triclinic'
loop_
_space_group_symop_operation_xyz
x,y,z
-x,-y,-z
loop_
_atom_site_type_symbol
_atom_site_label
_atom_site_fract_x
_atom_site_fract_y
_atom_site_fract_z
Si Si1 0.254838 0.752450 0.062385
Si Si2 0.863968 0.209601 0.210348
Si Si3 0.580314 0.835729 0.302190
Si Si4 0.803973 0.140887 0.558077
Si Si5 0.151720 0.866367 0.000010
Si Si6 0.193108 0.408603 0.079521
Si Si7 0.817992 0.235424 0.371021
Si Si8 0.474368 0.456113 0.105256
O O1 0.379070 0.504090 0.370730
O O2 0.235878 0.958213 0.913562
O O3 0.027661 0.559600 0.091951
O O4 0.336118 0.964517 0.874888
O O5 0.704016 0.008738 0.262523
O O6 0.750337 0.360833 0.051196
O O7 0.000000 0.000000 0.500000
O O8 0.000000 0.500000 0.000000
O O9 0.339346 0.824964 0.174912
O O10 0.837836 0.190937 0.477173
O O11 0.699005 0.399755 0.287524
O O12 0.638850 0.814040 0.754219
O O13 0.016175 0.088528 0.744968
O O14 0.987922 0.545862 0.182492
O O15 0.356787 0.440325 0.102230
O O16 0.147091 0.046783 0.387804
O O17 0.586310 0.255636 0.210093
#
# Coordination Sequence:
#
# PCOD9076378 Si02
#       8
#     2   2   2   2   2   2   2   2
#     4  12  22  39  58  88 121 153 195 237 295 353
#     4  12  25  42  62  84 117 157 205 248 281 337
#     4  12  26  40  59  86 120 164 197 238 291 349
#     4   9  18  32  53  83 117 148 189 240 295 353
#     4  11  23  35  58  85 124 154 193 237 297 361
#     4  11  21  35  60  82 119 149 196 241 296 333
#     4  10  18  33  55  84 120 150 189 236 299 348
#     4   9  18  32  54  83 114 151 190 239 298 347
#
# _framework density 19.138621000000001
#
# number of rings (size 3 to 8) (size 9 to 14) (size 15 to 20)
#    0.000    1.250    6.250    1.875    3.500    1.000 
#    0.000    0.000    0.000    0.750    0.000    1.750 
#    0.000    0.000    0.000    0.000    0.000    0.000 
#
# Total GULP energy -89189.254928 kJ/mol
# GULP energy per Si atom -5574.328433 kJ/mol
# Density = 1.909506 g / cm^3
# Si number density = 19.138621 Si / 1000 Ang^3
#
#
#
# Elastic Constant Matrix: (Units=GPa)
#
#
# Indices 1 2 3 4 5 6 
#
# 1 74.5450 31.0940 44.5104 6.3268 10.6034 0.1157
# 2 31.0940 80.9659 49.6446 28.8406 16.1425 -1.1976
# 3 44.5104 49.6446 128.6423 39.1823 9.0840 13.2541
# 4 6.3268 28.8406 39.1823 41.2554 8.2687 5.2736
# 5 10.6034 16.1425 9.0840 8.2687 33.2494 2.9801
# 6 0.1157 -1.1976 13.2541 5.2736 2.9801 17.3269
#
#
#
# Elastic Compliance Matrix: (Units=1/GPa)
#
#
# Indices 1 2 3 4 5 6 
#
# 1 0.019834 -0.005007 -0.007393 0.007864 -0.004143 0.003496
# 2 -0.005007 0.021818 -0.003917 -0.010679 -0.006062 0.008830
# 3 -0.007393 -0.003917 0.015832 -0.010615 0.003442 -0.009693
# 4 0.007864 -0.010679 -0.010615 0.042077 -0.004465 -0.004709
# 5 -0.004143 -0.006062 0.003442 -0.004465 0.035202 -0.007720
# 6 0.003496 0.008830 -0.009693 -0.004709 -0.007720 0.068476
#
#
# Mechanical properties :
#
#
# Convention : Reuss Voigt Hill
#
# Bulk Modulus (GPa) = 40.24088 59.40571 49.82330
# Shear Modulus (GPa) = 20.47858 28.95996 24.71927
#
# Velocity S-wave (km/s) = 3.27465 3.89417 3.59777
# Velocity P-wave (km/s) = 5.94722 7.16425 6.58392
#
# Compressibility (1/GPa) = 0.02485035
#
# Stress axis : x y z
#
# Youngs Moduli (GPa) = 50.41779 45.83284 63.16389
#
# Poissons Ratio (x) = 0.22951 0.46698
# Poissons Ratio (y) = 0.25247 0.24738
# Poissons Ratio (z) = 0.37274 0.17951
#
# Static dielectric constant tensor:
#      x y z
#    x 1.714090 0.062450 -0.034640 
#    y 0.062450 1.694090 0.032100 
#    z -0.034640 0.032100 1.771620 
# 
# From -- ./inp_files/74852.got.cif
#   From: 2010.05.17/outbox.cif.g08.bks.cpg/sg2_38_cif.got.tgz:74852.got - 2010.06.03 11:33:40.
