data_PCOD9076864
_publ_section_title
;
Structure prediction by ZEFSAII (Michael W. Deem and Ramdas Pophale) SiO2 
 PCOD9076864
Probable space group: P -1
;
_chemical_formula_sum "Si O2"
_cell_formula_units_Z 16
_cell_length_a 13.944404
_cell_length_b 7.387192
_cell_length_c 15.150636
_cell_angle_alpha 84.068218
_cell_angle_beta 26.351581
_cell_angle_gamma 97.327843
_cell_volume 597.261601
_symmetry_space_group_name_H-M "P -1"
_symmetry_group_IT_number 2
_symmetry_cell_setting 'triclinic'
loop_
_space_group_symop_operation_xyz
x,y,z
-x,-y,-z
loop_
_atom_site_type_symbol
_atom_site_label
_atom_site_fract_x
_atom_site_fract_y
_atom_site_fract_z
Si Si1 0.759256 0.959824 0.754474
Si Si2 0.446737 0.165966 0.638640
Si Si3 0.187577 0.088911 0.015192
Si Si4 0.341414 0.724527 0.911071
Si Si5 0.160935 0.166459 0.557590
Si Si6 0.862970 0.441477 0.416477
Si Si7 0.281157 0.685278 0.764937
Si Si8 0.590550 0.273820 0.814604
O O1 0.628440 0.075322 0.810697
O O2 0.903392 0.081909 0.719515
O O3 0.000000 0.000000 0.500000
O O4 0.543920 0.733391 0.981070
O O5 0.673804 0.248108 0.520039
O O6 0.559682 0.307031 0.451887
O O7 0.234113 0.172777 0.873298
O O8 0.331284 0.924281 0.716817
O O9 0.253726 0.898325 0.969518
O O10 0.392119 0.253476 0.905181
O O11 0.919160 0.995396 0.286289
O O12 0.633400 0.816964 0.681744
O O13 0.348166 0.652264 0.809575
O O14 0.143095 0.540220 0.144954
O O15 0.215278 0.383653 0.543187
O O16 0.839727 0.415732 0.543681
O O17 0.000000 0.500000 0.000000
#
# Coordination Sequence:
#
# PCOD9076864 Si02
#       8
#     2   2   2   2   2   2   2   2
#     4  10  20  36  57  80 110 143 191 243 285 335
#     4   9  18  34  59  84 114 149 189 236 281 330
#     4   8  17  35  57  77 111 151 189 230 278 336
#     4  10  19  34  56  80 113 153 185 230 287 333
#     4  10  21  35  55  83 113 149 192 233 280 346
#     4  10  20  37  56  79 115 150 187 232 280 343
#     4  10  18  33  61  90 112 148 195 234 282 341
#     4   9  19  35  56  80 106 149 189 231 287 339
#
# _framework density 26.788933
#
# number of rings (size 3 to 8) (size 9 to 14) (size 15 to 20)
#    0.000    2.500    1.250    0.750    0.000    2.500 
#    0.000    8.750    0.000    0.000    0.000    0.000 
#    0.000    0.000    0.000    0.000    0.000    0.000 
#
# Total GULP energy -89182.680285 kJ/mol
# GULP energy per Si atom -5573.917518 kJ/mol
# Density = 2.672796 g / cm^3
# Si number density = 26.788933 Si / 1000 Ang^3
#
#
#
# Elastic Constant Matrix: (Units=GPa)
#
#
# Indices 1 2 3 4 5 6 
#
# 1 73.7141 9.8484 51.3520 -2.3185 15.1673 6.1931
# 2 9.8484 82.1148 39.8533 4.8532 -8.6868 8.6996
# 3 51.3520 39.8533 268.8113 -8.8240 54.1309 -14.6100
# 4 -2.3185 4.8532 -8.8240 39.9354 -4.0472 -2.4814
# 5 15.1673 -8.6868 54.1309 -4.0472 65.5325 -3.8875
# 6 6.1931 8.6996 -14.6100 -2.4814 -3.8875 14.8116
#
#
#
# Elastic Compliance Matrix: (Units=1/GPa)
#
#
# Indices 1 2 3 4 5 6 
#
# 1 0.017435 0.000974 -0.003867 -0.000871 -0.001490 -0.012214
# 2 0.000974 0.016297 -0.004363 -0.003277 0.004527 -0.013643
# 3 -0.003867 -0.004363 0.006596 0.001926 -0.004428 0.009846
# 4 -0.000871 -0.003277 0.001926 0.026386 0.000321 0.008694
# 5 -0.001490 0.004527 -0.004428 0.000321 0.019814 -0.001150
# 6 -0.012214 -0.013643 0.009846 0.008694 -0.001150 0.091502
#
#
# Mechanical properties :
#
#
# Convention : Reuss Voigt Hill
#
# Bulk Modulus (GPa) = 38.73737 69.63862 54.18800
# Shear Modulus (GPa) = 24.85726 45.62833 35.24279
#
# Velocity S-wave (km/s) = 3.04944 4.13153 3.63102
# Velocity P-wave (km/s) = 5.18559 6.98649 6.15229
#
# Compressibility (1/GPa) = 0.02581487
#
# Stress axis : x y z
#
# Youngs Moduli (GPa) = 57.35461 61.36210 151.61100
#
# Poissons Ratio (x) = -0.05975 0.58635
# Poissons Ratio (y) = -0.05585 0.66145
# Poissons Ratio (z) = 0.22182 0.26771
#
# Static dielectric constant tensor:
#      x y z
#    x -1.416530 -1.262510 1.988640 
#    y -1.262510 1.668480 0.634010 
#    z 1.988640 0.634010 1.188000 
# 
# From -- ./inp_files/575543.got.cif
#   From: 2010.05.17/outbox.cif.g08.bks.cpg/sg2_288_cif.got.tgz:575543.got - 2010.06.03 11:33:40.
