data_PCOD9076310
_publ_section_title
;
Structure prediction by ZEFSAII (Michael W. Deem and Ramdas Pophale) SiO2 
 PCOD9076310
Probable space group: P -1
;
_chemical_formula_sum "Si O2"
_cell_formula_units_Z 16
_cell_length_a 11.777699
_cell_length_b 11.759550
_cell_length_c 9.801690
_cell_angle_alpha 37.702705
_cell_angle_beta 108.199383
_cell_angle_gamma 108.791165
_cell_volume 782.089337
_symmetry_space_group_name_H-M "P -1"
_symmetry_group_IT_number 2
_symmetry_cell_setting 'triclinic'
loop_
_space_group_symop_operation_xyz
x,y,z
-x,-y,-z
loop_
_atom_site_type_symbol
_atom_site_label
_atom_site_fract_x
_atom_site_fract_y
_atom_site_fract_z
Si Si1 0.861287 0.587400 0.966787
Si Si2 0.841422 0.976705 0.307673
Si Si3 0.519362 0.294099 0.349855
Si Si4 0.556491 0.952903 0.853685
Si Si5 0.057967 0.793930 0.643211
Si Si6 0.333805 0.333434 0.998603
Si Si7 0.667932 0.205603 0.902858
Si Si8 0.318907 0.404503 0.358634
O O1 0.796491 0.697860 0.951307
O O2 0.765002 0.543251 0.848778
O O3 0.974804 0.706739 0.823170
O O4 0.894074 0.389644 0.221968
O O5 0.742633 0.796276 0.422772
O O6 0.969406 0.897417 0.417781
O O7 0.844154 0.055711 0.389643
O O8 0.797011 0.139690 0.046978
O O9 0.433313 0.295168 0.185575
O O10 0.445794 0.373865 0.370998
O O11 0.543005 0.087632 0.593105
O O12 0.635741 0.445163 0.229302
O O13 0.639840 0.795850 0.994510
O O14 0.614312 0.092519 0.859693
O O15 0.426687 0.857319 0.949975
O O16 0.675007 0.429118 0.689085
#
# Coordination Sequence:
#
# PCOD9076310 Si02
#       8
#     2   2   2   2   2   2   2   2
#     4   9  18  34  58  83 112 139 177 245 288 323
#     4  10  19  33  57  85 109 144 181 234 285 324
#     4  10  20  35  55  83 113 150 185 225 276 342
#     4  11  23  37  54  83 116 158 189 216 272 341
#     4   9  18  34  57  88 110 134 190 241 290 322
#     4  10  21  37  56  81 117 148 181 231 281 334
#     4  11  22  35  57  81 119 152 188 228 263 339
#     4  10  18  33  54  82 115 145 179 228 280 324
#
# _framework density 20.458022
#
# number of rings (size 3 to 8) (size 9 to 14) (size 15 to 20)
#    0.000    2.000    3.750    0.375    0.000    1.500 
#    9.000    0.000    0.000    1.500    0.000    0.000 
#    0.000    0.000    0.000    0.000    0.000    0.000 
#
# Total GULP energy -89278.730124 kJ/mol
# GULP energy per Si atom -5579.920633 kJ/mol
# Density = 2.041146 g / cm^3
# Si number density = 20.458022 Si / 1000 Ang^3
#
#
#
# Elastic Constant Matrix: (Units=GPa)
#
#
# Indices 1 2 3 4 5 6 
#
# 1 57.6443 23.1378 7.3049 -6.1289 2.8110 -9.2507
# 2 23.1378 86.0338 9.7105 -23.8544 -5.5028 -11.1530
# 3 7.3049 9.7105 35.4451 -17.9519 1.7012 -4.6063
# 4 -6.1289 -23.8544 -17.9519 26.8688 0.3388 5.0865
# 5 2.8110 -5.5028 1.7012 0.3388 23.4864 -4.9961
# 6 -9.2507 -11.1530 -4.6063 5.0865 -4.9961 24.3659
#
#
#
# Elastic Compliance Matrix: (Units=1/GPa)
#
#
# Indices 1 2 3 4 5 6 
#
# 1 0.020608 -0.005704 -0.003888 -0.003835 -0.002450 0.004776
# 2 -0.005704 0.018409 0.005472 0.017743 0.005340 0.004686
# 3 -0.003888 0.005472 0.044866 0.033551 -0.001520 0.002195
# 4 -0.003835 0.017743 0.033551 0.074984 0.000567 -0.002529
# 5 -0.002450 0.005340 -0.001520 0.000567 0.046488 0.010641
# 6 0.004776 0.004686 0.002195 -0.002529 0.010641 0.048124
#
#
# Mechanical properties :
#
#
# Convention : Reuss Voigt Hill
#
# Bulk Modulus (GPa) = 13.22041 28.82552 21.02297
# Shear Modulus (GPa) = 17.42566 24.20888 20.81727
#
# Velocity S-wave (km/s) = 2.92169 3.44371 3.19338
# Velocity P-wave (km/s) = 4.22586 5.47109 4.88829
#
# Compressibility (1/GPa) = 0.07564063
#
# Stress axis : x y z
#
# Youngs Moduli (GPa) = 48.52398 54.32251 22.28881
#
# Poissons Ratio (x) = 0.30987 0.08666
# Poissons Ratio (y) = 0.27679 -0.12196
# Poissons Ratio (z) = 0.18867 -0.29723
#
# Static dielectric constant tensor:
#      x y z
#    x 1.730900 0.013940 0.001470 
#    y 0.013940 1.733610 -0.011560 
#    z 0.001470 -0.011560 1.764960 
# 
# From -- ./inp_files/256022.got.cif
#   From: 2010.05.17/outbox.cif.g08.bks.cpg/sg2_129_cif.got.tgz:256022.got - 2010.06.03 11:33:40.
