data_PCOD9076178
_publ_section_title
;
Structure prediction by ZEFSAII (Michael W. Deem and Ramdas Pophale) SiO2 
 PCOD9076178
Probable space group: P -1
;
_chemical_formula_sum "Si O2"
_cell_formula_units_Z 16
_cell_length_a 27.579222
_cell_length_b 12.060585
_cell_length_c 9.874143
_cell_angle_alpha 142.975711
_cell_angle_beta 38.863099
_cell_angle_gamma 150.822931
_cell_volume 926.174864
_symmetry_space_group_name_H-M "P -1"
_symmetry_group_IT_number 2
_symmetry_cell_setting 'triclinic'
loop_
_space_group_symop_operation_xyz
x,y,z
-x,-y,-z
loop_
_atom_site_type_symbol
_atom_site_label
_atom_site_fract_x
_atom_site_fract_y
_atom_site_fract_z
Si Si1 0.635751 0.895257 0.597219
Si Si2 0.594228 0.432364 0.149683
Si Si3 0.901873 0.919223 0.931036
Si Si4 0.260193 0.622894 0.331776
Si Si5 0.749274 0.770040 0.351453
Si Si6 0.151836 0.587484 0.794497
Si Si7 0.087792 0.889814 0.197760
Si Si8 0.134444 0.242115 0.680615
O O1 0.609765 0.678619 0.343296
O O2 0.526286 0.795290 0.791610
O O3 0.700890 0.897515 0.576110
O O4 0.698583 0.148313 0.628703
O O5 0.659019 0.503441 0.217550
O O6 0.653387 0.401632 0.882938
O O7 0.843273 0.633868 0.754751
O O8 0.886100 0.010169 0.915273
O O9 0.843790 0.918281 0.182696
O O10 0.024104 0.088127 0.845523
O O11 0.231711 0.651891 0.569147
O O12 0.787532 0.744502 0.381449
O O13 0.170038 0.499575 0.804966
O O14 0.035225 0.346646 0.764671
O O15 0.146949 0.798980 0.023675
O O16 0.112730 0.091592 0.444429
#
# Coordination Sequence:
#
# PCOD9076178 Si02
#       8
#     2   2   2   2   2   2   2   2
#     4   9  18  34  53  77  99 127 172 219 252 298
#     4   8  19  35  52  78  96 128 169 223 256 288
#     4  10  18  33  51  77 106 138 168 207 236 301
#     4  11  17  30  56  79  94 130 178 206 248 296
#     4   9  19  33  54  75 103 136 165 208 261 298
#     4  10  20  31  53  74  99 143 176 202 236 302
#     4  10  19  34  51  71 106 141 179 200 234 291
#     4  11  19  35  48  75 115 137 160 205 257 292
#
# _framework density 17.275355999999999
#
# number of rings (size 3 to 8) (size 9 to 14) (size 15 to 20)
#    0.750    1.500    2.500    2.250    0.000    0.000 
#    4.500    0.625    0.000    1.500    0.000    0.000 
#    0.000    0.000    0.000    0.000    0.000    0.000 
#
# Total GULP energy -89086.870075 kJ/mol
# GULP energy per Si atom -5567.929380 kJ/mol
# Density = 1.723604 g / cm^3
# Si number density = 17.275356 Si / 1000 Ang^3
#
#
#
# Elastic Constant Matrix: (Units=GPa)
#
#
# Indices 1 2 3 4 5 6 
#
# 1 75.1048 28.6504 19.5179 -11.4588 -16.9116 -4.4859
# 2 28.6504 75.1769 4.6441 -2.0605 -17.7393 -13.8890
# 3 19.5179 4.6441 49.9319 -10.4927 -21.7313 -2.4386
# 4 -11.4588 -2.0605 -10.4927 20.7372 2.9460 -6.4928
# 5 -16.9116 -17.7393 -21.7313 2.9460 20.4265 1.0535
# 6 -4.4859 -13.8890 -2.4386 -6.4928 1.0535 16.8026
#
#
#
# Elastic Compliance Matrix: (Units=1/GPa)
#
#
# Indices 1 2 3 4 5 6 
#
# 1 0.018986 -0.003129 0.000462 0.010611 0.011657 0.005918
# 2 -0.003129 0.028636 0.020924 0.015011 0.040872 0.029110
# 3 0.000462 0.020924 0.058808 0.031998 0.074768 0.033631
# 4 0.010611 0.015011 0.031998 0.081064 0.041665 0.048597
# 5 0.011657 0.040872 0.074768 0.041665 0.164878 0.053511
# 6 0.005918 0.029110 0.033631 0.048597 0.053511 0.105461
#
#
# Mechanical properties :
#
#
# Convention : Reuss Voigt Hill
#
# Bulk Modulus (GPa) = 6.99578 33.98205 20.48891
# Shear Modulus (GPa) = 10.66175 21.42000 16.04087
#
# Velocity S-wave (km/s) = 2.48698 3.52506 3.05050
# Velocity P-wave (km/s) = 3.50786 6.02342 4.92883
#
# Compressibility (1/GPa) = 0.14294331
#
# Stress axis : x y z
#
# Youngs Moduli (GPa) = 52.67148 34.92113 17.00458
#
# Poissons Ratio (x) = 0.10927 -0.00785
# Poissons Ratio (y) = 0.16482 -0.35581
# Poissons Ratio (z) = -0.02433 -0.73070
#
# Static dielectric constant tensor:
#      x y z
#    x 1.590050 -0.000550 -0.023990 
#    y -0.000550 1.590060 0.007710 
#    z -0.023990 0.007710 1.604120 
# 
# From -- ./inp_files/358601.got.cif
#   From: 2010.05.17/outbox.cif.g08.bks.cpg/sg2_180_cif.got.tgz:358601.got - 2010.06.03 11:33:40.
