data_PCOD9076174
_publ_section_title
;
Structure prediction by ZEFSAII (Michael W. Deem and Ramdas Pophale) SiO2 
 PCOD9076174
Probable space group: P -1
;
_chemical_formula_sum "Si O2"
_cell_formula_units_Z 14
_cell_length_a 12.785712
_cell_length_b 11.440727
_cell_length_c 7.282732
_cell_angle_alpha 125.459887
_cell_angle_beta 130.973880
_cell_angle_gamma 45.466909
_cell_volume 558.852478
_symmetry_space_group_name_H-M "P -1"
_symmetry_group_IT_number 2
_symmetry_cell_setting 'triclinic'
loop_
_space_group_symop_operation_xyz
x,y,z
-x,-y,-z
loop_
_atom_site_type_symbol
_atom_site_label
_atom_site_fract_x
_atom_site_fract_y
_atom_site_fract_z
Si Si1 0.248549 0.702460 0.316724
Si Si2 0.249439 0.085998 0.135403
Si Si3 0.571838 0.966429 0.254008
Si Si4 0.030302 0.812074 0.837708
Si Si5 0.115785 0.070943 0.574918
Si Si6 0.509987 0.713237 0.118054
Si Si7 0.411737 0.472503 0.593908
O O1 0.271230 0.564301 0.365023
O O2 0.428514 0.667204 0.457654
O O3 0.184567 0.694411 0.034691
O O4 0.132283 0.888900 0.435920
O O5 0.113640 0.193044 0.224590
O O6 0.161837 0.114258 0.862983
O O7 0.412177 0.094408 0.307182
O O8 0.337537 0.888561 0.113943
O O9 0.732195 0.971035 0.423303
O O10 0.608626 0.783782 0.191529
O O11 0.500000 0.000000 0.000000
O O12 0.029744 0.795266 0.601935
O O13 0.000000 0.000000 0.000000
O O14 0.599964 0.607285 0.304451
O O15 0.459483 0.607087 0.837866
#
# Coordination Sequence:
#
# PCOD9076174 Si02
#       7
#     2   2   2   2   2   2   2
#     4  10  20  33  49  76 106 137 169 209 261 306
#     4   9  18  34  51  81 104 129 169 217 265 302
#     4   8  16  31  55  79 103 127 174 219 262 299
#     4  10  21  32  48  79 112 133 169 209 268 316
#     4  10  18  35  54  80 105 133 168 221 268 300
#     4   9  17  31  53  80  95 131 177 210 257 302
#     4  10  18  33  51  71 107 136 174 212 241 312
#
# _framework density 25.051333
#
# number of rings (size 3 to 8) (size 9 to 14) (size 15 to 20)
#    0.857    1.714    1.429    1.714    0.000    2.857 
#    5.143    0.000    0.000    1.714    0.000    0.000 
#    0.000    0.000    0.000    0.000    0.000    0.000 
#
# Total GULP energy -78138.069413 kJ/mol
# GULP energy per Si atom -5581.290672 kJ/mol
# Density = 2.499431 g / cm^3
# Si number density = 25.051333 Si / 1000 Ang^3
#
#
#
# Elastic Constant Matrix: (Units=GPa)
#
#
# Indices 1 2 3 4 5 6 
#
# 1 73.8428 11.8057 15.1511 -14.1573 -13.1113 12.2451
# 2 11.8057 75.5242 40.9607 -28.5253 -20.9057 17.3116
# 3 15.1511 40.9607 156.1398 -58.0499 -45.3798 21.2670
# 4 -14.1573 -28.5253 -58.0499 57.6032 20.9743 -13.1887
# 5 -13.1113 -20.9057 -45.3798 20.9743 52.5859 -10.7053
# 6 12.2451 17.3116 21.2670 -13.1887 -10.7053 37.4636
#
#
#
# Elastic Compliance Matrix: (Units=1/GPa)
#
#
# Indices 1 2 3 4 5 6 
#
# 1 0.014968 -0.000265 0.000827 0.002627 0.002563 -0.003582
# 2 -0.000265 0.017865 -0.001122 0.005503 0.002903 -0.004765
# 3 0.000827 -0.001122 0.012036 0.009166 0.006166 -0.001595
# 4 0.002627 0.005503 0.009166 0.030827 -0.001152 0.001918
# 5 0.002563 0.002903 0.006166 -0.001152 0.026917 0.001607
# 6 -0.003582 -0.004765 -0.001595 0.001918 0.001607 0.032105
#
#
# Mechanical properties :
#
#
# Convention : Reuss Voigt Hill
#
# Bulk Modulus (GPa) = 22.85927 49.03799 35.94863
# Shear Modulus (GPa) = 33.23984 45.36982 39.30483
#
# Velocity S-wave (km/s) = 3.64657 4.26029 3.96532
# Velocity P-wave (km/s) = 5.18409 6.61948 5.94527
#
# Compressibility (1/GPa) = 0.04374594
#
# Stress axis : x y z
#
# Youngs Moduli (GPa) = 66.81033 55.97531 83.08530
#
# Poissons Ratio (x) = 0.01486 -0.06868
# Poissons Ratio (y) = 0.01773 0.09326
# Poissons Ratio (z) = -0.05522 0.06283
#
# Static dielectric constant tensor:
#      x y z
#    x 2.092500 -0.029040 0.015730 
#    y -0.029040 2.025430 -0.044410 
#    z 0.015730 -0.044410 1.988870 
# 
# From -- ./inp_files/302656.got.cif
#   From: 2010.05.17/outbox.cif.g08.bks.cpg/sg2_152_cif.got.tgz:302656.got - 2010.06.03 11:33:40.
