data_PCOD9076067
_publ_section_title
;
Structure prediction by ZEFSAII (Michael W. Deem and Ramdas Pophale) SiO2 
 PCOD9076067
Probable space group: P -1
;
_chemical_formula_sum "Si O2"
_cell_formula_units_Z 14
_cell_length_a 9.195054
_cell_length_b 26.260236
_cell_length_c 8.538650
_cell_angle_alpha 45.647280
_cell_angle_beta 74.392750
_cell_angle_gamma 38.722656
_cell_volume 725.150429
_symmetry_space_group_name_H-M "P -1"
_symmetry_group_IT_number 2
_symmetry_cell_setting 'triclinic'
loop_
_space_group_symop_operation_xyz
x,y,z
-x,-y,-z
loop_
_atom_site_type_symbol
_atom_site_label
_atom_site_fract_x
_atom_site_fract_y
_atom_site_fract_z
Si Si1 0.245281 0.498139 0.004713
Si Si2 0.652061 0.698070 0.593602
Si Si3 0.578252 0.409645 0.804183
Si Si4 0.950699 0.701468 0.914955
Si Si5 0.380325 0.897348 0.478585
Si Si6 0.274196 0.800522 0.931962
Si Si7 0.771424 0.650588 0.307694
O O1 0.344254 0.501612 0.816793
O O2 0.914654 0.602107 0.849663
O O3 0.206009 0.560287 0.038387
O O4 0.442448 0.346549 0.283171
O O5 0.425201 0.849895 0.391161
O O6 0.787070 0.656327 0.474293
O O7 0.500000 0.500000 0.500000
O O8 0.595151 0.325569 0.900557
O O9 0.888984 0.299928 0.037847
O O10 0.663219 0.825797 0.618600
O O11 0.841825 0.692306 0.100671
O O12 0.344426 0.837570 0.714349
O O13 0.075202 0.062241 0.235735
O O14 0.447531 0.752374 0.141446
O O15 0.000000 0.500000 0.500000
#
# Coordination Sequence:
#
# PCOD9076067 Si02
#       7
#     2   2   2   2   2   2   2
#     4  10  19  34  54  85 111 145 183 226 277 330
#     4  10  18  32  60  81 112 141 186 235 272 319
#     4  12  23  35  55  86 117 145 178 234 284 330
#     4  10  21  35  56  80 116 148 181 225 282 334
#     4   9  20  39  58  79 106 154 191 226 266 331
#     4  10  21  37  57  81 113 145 192 226 270 330
#     4  11  19  33  58  86 111 142 182 237 279 318
#
# _framework density 19.306339000000001
#
# number of rings (size 3 to 8) (size 9 to 14) (size 15 to 20)
#    0.000    1.714    2.857    3.000    0.000    1.143 
#    0.000    0.000    0.000    7.714    0.000    0.000 
#    0.000    0.000    0.000    0.000    0.000    0.000 
#
# Total GULP energy -78032.648622 kJ/mol
# GULP energy per Si atom -5573.760616 kJ/mol
# Density = 1.926240 g / cm^3
# Si number density = 19.306339 Si / 1000 Ang^3
#
#
#
# Elastic Constant Matrix: (Units=GPa)
#
#
# Indices 1 2 3 4 5 6 
#
# 1 67.6066 -0.7738 2.2150 -3.8552 15.4583 -0.5847
# 2 -0.7738 80.6168 12.7103 11.5606 2.1279 4.6877
# 3 2.2150 12.7103 34.2905 2.1077 2.5766 -1.7096
# 4 -3.8552 11.5606 2.1077 27.1500 -6.0129 5.7392
# 5 15.4583 2.1279 2.5766 -6.0129 22.3975 0.5871
# 6 -0.5847 4.6877 -1.7096 5.7392 0.5871 27.5513
#
#
#
# Elastic Compliance Matrix: (Units=1/GPa)
#
#
# Indices 1 2 3 4 5 6 
#
# 1 0.017604 0.000601 -0.000364 -0.000595 -0.012341 0.000636
# 2 0.000601 0.014164 -0.004791 -0.005885 -0.002752 -0.001410
# 3 -0.000364 -0.004791 0.031506 -0.001921 -0.003519 0.003238
# 4 -0.000595 -0.005885 -0.001921 0.044163 0.013273 -0.008613
# 5 -0.012341 -0.002752 -0.003519 0.013273 0.057500 -0.004002
# 6 0.000636 -0.001410 0.003238 -0.008613 -0.004002 0.038630
#
#
# Mechanical properties :
#
#
# Convention : Reuss Voigt Hill
#
# Bulk Modulus (GPa) = 18.46207 23.42409 20.94308
# Shear Modulus (GPa) = 21.67035 26.64393 24.15714
#
# Velocity S-wave (km/s) = 3.35393 3.71895 3.54114
# Velocity P-wave (km/s) = 4.95802 5.53172 5.25271
#
# Compressibility (1/GPa) = 0.05416509
#
# Stress axis : x y z
#
# Youngs Moduli (GPa) = 56.80628 70.60136 31.74026
#
# Poissons Ratio (x) = -0.04240 0.01156
# Poissons Ratio (y) = -0.03411 0.15206
# Poissons Ratio (z) = 0.02068 0.33823
#
# Static dielectric constant tensor:
#      x y z
#    x 1.697130 -0.000580 0.010730 
#    y -0.000580 1.692330 -0.018570 
#    z 0.010730 -0.018570 1.691730 
# 
# From -- ./inp_files/157529.got.cif
#   From: 2010.05.17/outbox.cif.g08.bks.cpg/sg2_79_cif.got.tgz:157529.got - 2010.06.03 11:33:40.
