data_PCOD9076987
_publ_section_title
;
Structure prediction by ZEFSAII (Michael W. Deem and Ramdas Pophale) SiO2 
 PCOD9076987
Probable space group: P -1
;
_chemical_formula_sum "Si O2"
_cell_formula_units_Z 16
_cell_length_a 8.435286
_cell_length_b 20.073183
_cell_length_c 9.375528
_cell_angle_alpha 43.743460
_cell_angle_beta 80.616986
_cell_angle_gamma 54.366971
_cell_volume 792.668494
_symmetry_space_group_name_H-M "P -1"
_symmetry_group_IT_number 2
_symmetry_cell_setting 'triclinic'
loop_
_space_group_symop_operation_xyz
x,y,z
-x,-y,-z
loop_
_atom_site_type_symbol
_atom_site_label
_atom_site_fract_x
_atom_site_fract_y
_atom_site_fract_z
Si Si1 0.745325 0.099359 0.343418
Si Si2 0.656279 0.747305 0.663291
Si Si3 0.951061 0.695720 0.079261
Si Si4 0.766694 0.339912 0.336341
Si Si5 0.170575 0.129079 0.444424
Si Si6 0.251048 0.587862 0.455895
Si Si7 0.347101 0.334681 0.906559
Si Si8 0.273316 0.468878 0.164948
O O1 0.604849 0.153027 0.426517
O O2 0.702404 0.019303 0.383263
O O3 0.609451 0.232669 0.060987
O O4 0.000000 0.000000 0.500000
O O5 0.718525 0.833683 0.531855
O O6 0.736847 0.640389 0.698331
O O7 0.742030 0.665132 0.926580
O O8 0.068707 0.688928 0.210603
O O9 0.138184 0.555717 0.188595
O O10 0.742775 0.711603 0.112784
O O11 0.883091 0.802871 0.807261
O O12 0.792084 0.342341 0.496579
O O13 0.525702 0.396886 0.258289
O O14 0.943976 0.200758 0.447775
O O15 0.795971 0.432397 0.109756
O O16 0.500000 0.500000 0.500000
O O17 0.245287 0.476191 0.659348
#
# Coordination Sequence:
#
# PCOD9076987 Si02
#       8
#     2   2   2   2   2   2   2   2
#     4  10  20  36  60  83 114 142 192 239 280 325
#     4   9  19  33  58  85 113 139 185 233 282 332
#     4  10  22  34  59  81 123 144 182 229 282 349
#     4  10  20  32  55  80 119 143 192 226 281 334
#     4  10  21  35  59  89 106 149 187 238 278 325
#     4  12  22  37  54  86 117 154 184 226 282 342
#     4   9  22  36  55  83 111 154 180 231 278 339
#     4  10  18  34  53  86 111 149 178 236 285 327
#
# _framework density 20.184982999999999
#
# number of rings (size 3 to 8) (size 9 to 14) (size 15 to 20)
#    0.750    1.250    2.500    1.500    3.500    1.500 
#    0.000    0.000    0.000    3.000    0.000    0.000 
#    0.000    0.000    0.000    0.000    0.000    0.000 
#
# Total GULP energy -89135.412987 kJ/mol
# GULP energy per Si atom -5570.963312 kJ/mol
# Density = 2.013904 g / cm^3
# Si number density = 20.184983 Si / 1000 Ang^3
#
#
#
# Elastic Constant Matrix: (Units=GPa)
#
#
# Indices 1 2 3 4 5 6 
#
# 1 55.3968 -7.0408 6.2688 3.3106 11.7101 -1.7191
# 2 -7.0408 60.4834 6.6177 -0.4856 -0.7749 10.9860
# 3 6.2688 6.6177 30.6668 6.3182 12.1765 3.6233
# 4 3.3106 -0.4856 6.3182 26.3161 5.1580 5.2729
# 5 11.7101 -0.7749 12.1765 5.1580 26.9934 -6.1995
# 6 -1.7191 10.9860 3.6233 5.2729 -6.1995 34.0396
#
#
#
# Elastic Compliance Matrix: (Units=1/GPa)
#
#
# Indices 1 2 3 4 5 6 
#
# 1 0.020271 0.002588 -0.001159 -0.000345 -0.008398 -0.001164
# 2 0.002588 0.018344 -0.004056 0.002253 -0.000530 -0.005804
# 3 -0.001159 -0.004056 0.043282 -0.005271 -0.019531 -0.006097
# 4 -0.000345 0.002253 -0.005271 0.042417 -0.007373 -0.008097
# 5 -0.008398 -0.000530 -0.019531 -0.007373 0.053826 0.012771
# 6 -0.001164 -0.005804 -0.006097 -0.008097 0.012771 0.035421
#
#
# Mechanical properties :
#
#
# Convention : Reuss Voigt Hill
#
# Bulk Modulus (GPa) = 13.04742 17.58205 15.31474
# Shear Modulus (GPa) = 20.46133 26.84993 23.65563
#
# Velocity S-wave (km/s) = 3.18731 3.65114 3.42708
# Velocity P-wave (km/s) = 4.47473 5.14818 4.82322
#
# Compressibility (1/GPa) = 0.07664350
#
# Stress axis : x y z
#
# Youngs Moduli (GPa) = 49.33057 54.51418 23.10436
#
# Poissons Ratio (x) = -0.14106 0.02678
# Poissons Ratio (y) = -0.12765 0.09370
# Poissons Ratio (z) = 0.05717 0.22109
#
# Static dielectric constant tensor:
#      x y z
#    x 1.814790 -0.012100 0.016710 
#    y -0.012100 1.710150 -0.013930 
#    z 0.016710 -0.013930 1.705530 
# 
# From -- ./inp_files/221830.got.cif
#   From: 2010.05.17/outbox.cif.g08.bks.cpg/sg2_111_cif.got.tgz:221830.got - 2010.06.03 11:33:40.
