data_PCOD9076493
_publ_section_title
;
Structure prediction by ZEFSAII (Michael W. Deem and Ramdas Pophale) SiO2 
 PCOD9076493
Probable space group: P -1
;
_chemical_formula_sum "Si O2"
_cell_formula_units_Z 16
_cell_length_a 10.620805
_cell_length_b 14.292583
_cell_length_c 10.634907
_cell_angle_alpha 75.107253
_cell_angle_beta 62.051824
_cell_angle_gamma 127.938196
_cell_volume 700.318590
_symmetry_space_group_name_H-M "P -1"
_symmetry_group_IT_number 2
_symmetry_cell_setting 'triclinic'
loop_
_space_group_symop_operation_xyz
x,y,z
-x,-y,-z
loop_
_atom_site_type_symbol
_atom_site_label
_atom_site_fract_x
_atom_site_fract_y
_atom_site_fract_z
Si Si1 0.604218 0.481995 0.110505
Si Si2 0.900819 0.376785 0.898533
Si Si3 0.811242 0.454911 0.693067
Si Si4 0.014562 0.890159 0.372376
Si Si5 0.268648 0.873415 0.427586
Si Si6 0.836145 0.294103 0.223105
Si Si7 0.313719 0.258802 0.060007
Si Si8 0.262931 0.900685 0.048258
O O1 0.500305 0.392824 0.050073
O O2 0.317004 0.316770 0.379640
O O3 0.758827 0.676518 0.973722
O O4 0.839781 0.543416 0.016511
O O5 0.732907 0.341017 0.887119
O O6 0.146488 0.594674 0.747240
O O7 0.723492 0.247575 0.152044
O O8 0.956323 0.310237 0.820611
O O9 0.000000 0.500000 0.500000
O O10 0.007564 0.657409 0.571866
O O11 0.516312 0.327904 0.837163
O O12 0.181170 0.926852 0.391353
O O13 0.089323 0.047590 0.278275
O O14 0.113706 0.899041 0.192007
O O15 0.261351 0.846744 0.588608
O O16 0.538845 0.974916 0.209110
O O17 0.500000 0.000000 0.000000
#
# Coordination Sequence:
#
# PCOD9076493 Si02
#       8
#     2   2   2   2   2   2   2   2
#     4  11  21  38  56  87 123 165 200 242 300 365
#     4  10  21  39  59  88 120 153 208 249 298 365
#     4  11  18  33  61  90 118 151 195 255 306 350
#     4  11  21  36  59  92 122 154 201 258 305 352
#     4  10  18  33  56  87 119 153 194 249 305 348
#     4  10  22  39  60  84 120 166 203 240 300 368
#     4  11  21  36  58  91 122 154 204 251 303 354
#     4  10  21  35  58  92 118 147 199 255 308 350
#
# _framework density 22.846747000000001
#
# number of rings (size 3 to 8) (size 9 to 14) (size 15 to 20)
#    0.000    1.500    3.750    4.875    0.000    0.500 
#    0.000    0.625    0.000    0.750    0.000    0.000 
#    0.000    0.000    0.000    0.000    0.000    0.000 
#
# Total GULP energy -89181.555419 kJ/mol
# GULP energy per Si atom -5573.847214 kJ/mol
# Density = 2.279475 g / cm^3
# Si number density = 22.846747 Si / 1000 Ang^3
#
#
#
# Elastic Constant Matrix: (Units=GPa)
#
#
# Indices 1 2 3 4 5 6 
#
# 1 57.6418 22.4350 41.8201 -3.8644 8.0550 -13.7008
# 2 22.4350 108.1558 26.9982 -5.5956 7.8211 -23.0126
# 3 41.8201 26.9982 128.9577 4.9645 1.1431 -20.5927
# 4 -3.8644 -5.5956 4.9645 34.5599 -13.4747 7.4937
# 5 8.0550 7.8211 1.1431 -13.4747 35.9848 -5.0036
# 6 -13.7008 -23.0126 -20.5927 7.4937 -5.0036 29.2151
#
#
#
# Elastic Compliance Matrix: (Units=1/GPa)
#
#
# Indices 1 2 3 4 5 6 
#
# 1 0.024830 -0.002215 -0.006941 0.001005 -0.003913 0.004079
# 2 -0.002215 0.011495 -0.000447 -0.000394 -0.001077 0.007617
# 3 -0.006941 -0.000447 0.011037 -0.003235 0.000804 0.005140
# 4 0.001005 -0.000394 -0.003235 0.036241 0.012238 -0.009319
# 5 -0.003913 -0.001077 0.000804 0.012238 0.033524 0.000486
# 6 0.004079 0.007617 0.005140 -0.009319 0.000486 0.048238
#
#
# Mechanical properties :
#
#
# Convention : Reuss Voigt Hill
#
# Bulk Modulus (GPa) = 35.51638 53.02909 44.27273
# Shear Modulus (GPa) = 25.77872 33.51878 29.64875
#
# Velocity S-wave (km/s) = 3.36271 3.83445 3.60630
# Velocity P-wave (km/s) = 5.53682 6.54715 6.06306
#
# Compressibility (1/GPa) = 0.02815602
#
# Stress axis : x y z
#
# Youngs Moduli (GPa) = 40.27337 86.99233 90.60218
#
# Poissons Ratio (x) = 0.19269 0.62888
# Poissons Ratio (y) = 0.08921 0.04052
# Poissons Ratio (z) = 0.27954 0.03890
#
# Static dielectric constant tensor:
#      x y z
#    x 1.862600 0.025490 0.031880 
#    y 0.025490 1.967790 -0.013270 
#    z 0.031880 -0.013270 1.960970 
# 
# From -- ./inp_files/314147.got.cif
#   From: 2010.05.17/outbox.cif.g08.bks.cpg/sg2_158_cif.got.tgz:314147.got - 2010.06.03 11:33:40.
