data_PCOD9076283
_publ_section_title
;
Structure prediction by ZEFSAII (Michael W. Deem and Ramdas Pophale) SiO2 
 PCOD9076283
Probable space group: P -1
;
_chemical_formula_sum "Si O2"
_cell_formula_units_Z 16
_cell_length_a 11.268168
_cell_length_b 7.328445
_cell_length_c 9.393482
_cell_angle_alpha 93.337596
_cell_angle_beta 113.421138
_cell_angle_gamma 72.568791
_cell_volume 677.455647
_symmetry_space_group_name_H-M "P -1"
_symmetry_group_IT_number 2
_symmetry_cell_setting 'triclinic'
loop_
_space_group_symop_operation_xyz
x,y,z
-x,-y,-z
loop_
_atom_site_type_symbol
_atom_site_label
_atom_site_fract_x
_atom_site_fract_y
_atom_site_fract_z
Si Si1 0.838546 0.093222 0.945630
Si Si2 0.385545 0.339643 0.845451
Si Si3 0.568363 0.803627 0.440772
Si Si4 0.828609 0.835524 0.691757
Si Si5 0.128227 0.690825 0.763393
Si Si6 0.491249 0.692618 0.810314
Si Si7 0.781490 0.184233 0.466425
Si Si8 0.339949 0.586936 0.325683
O O1 0.770553 0.283166 0.830031
O O2 0.786268 0.933867 0.831255
O O3 0.815754 0.170354 0.099594
O O4 0.000000 0.000000 0.000000
O O5 0.412891 0.195438 0.720484
O O6 0.231737 0.476650 0.799598
O O7 0.457584 0.499351 0.838668
O O8 0.446427 0.243257 0.017808
O O9 0.720015 0.745742 0.571949
O O10 0.465347 0.677727 0.404721
O O11 0.500000 0.000000 0.500000
O O12 0.982005 0.698557 0.755344
O O13 0.829416 0.008226 0.589926
O O14 0.119916 0.777730 0.604616
O O15 0.351591 0.822720 0.684367
O O16 0.599567 0.614884 0.733507
O O17 0.729304 0.368887 0.551768
#
# Coordination Sequence:
#
# PCOD9076283 Si02
#       8
#     2   2   2   2   2   2   2   2
#     4   9  17  30  53  76 100 135 173 214 253 297
#     4   9  19  31  54  78  99 140 171 222 253 296
#     4  11  20  34  54  72 110 141 176 205 252 323
#     4  10  21  35  53  78 108 143 170 208 259 314
#     4  10  19  35  55  82 104 129 180 220 259 299
#     4   9  17  31  51  79 107 125 176 218 262 299
#     4  10  19  29  52  83 106 133 162 220 272 295
#     4  10  18  33  54  78 106 135 172 216 260 308
#
# _framework density 23.617782999999999
#
# number of rings (size 3 to 8) (size 9 to 14) (size 15 to 20)
#    0.000    2.250    3.750    0.750    1.750    0.500 
#    0.000    0.625    2.750    0.000    0.000    1.750 
#    0.000    0.000    0.000    0.000    0.000    0.000 
#
# Total GULP energy -89306.026752 kJ/mol
# GULP energy per Si atom -5581.626672 kJ/mol
# Density = 2.356403 g / cm^3
# Si number density = 23.617783 Si / 1000 Ang^3
#
#
#
# Elastic Constant Matrix: (Units=GPa)
#
#
# Indices 1 2 3 4 5 6 
#
# 1 63.6640 26.8919 38.1110 13.8573 -6.8790 -24.3881
# 2 26.8919 66.5477 19.2910 20.3986 0.2470 -15.9011
# 3 38.1110 19.2910 144.9678 35.5370 -7.0186 -16.6146
# 4 13.8573 20.3986 35.5370 37.0673 -13.0513 -1.4470
# 5 -6.8790 0.2470 -7.0186 -13.0513 33.4084 5.8579
# 6 -24.3881 -15.9011 -16.6146 -1.4470 5.8579 35.1141
#
#
#
# Elastic Compliance Matrix: (Units=1/GPa)
#
#
# Indices 1 2 3 4 5 6 
#
# 1 0.026235 -0.005732 -0.004136 -0.001600 0.001612 0.013333
# 2 -0.005732 0.023705 0.003002 -0.016510 -0.008744 0.008953
# 3 -0.004136 0.003002 0.010642 -0.011494 -0.003773 0.003679
# 4 -0.001600 -0.016510 -0.011494 0.054619 0.021406 -0.015347
# 5 0.001612 -0.008744 -0.003773 0.021406 0.039717 -0.010369
# 6 0.013333 0.008953 0.003679 -0.015347 -0.010369 0.044631
#
#
# Mechanical properties :
#
#
# Convention : Reuss Voigt Hill
#
# Bulk Modulus (GPa) = 21.34412 49.30748 35.32580
# Shear Modulus (GPa) = 21.84377 33.84366 27.84372
#
# Velocity S-wave (km/s) = 3.04449 3.78957 3.43728
# Velocity P-wave (km/s) = 4.62769 6.33012 5.54463
#
# Compressibility (1/GPa) = 0.04685131
#
# Stress axis : x y z
#
# Youngs Moduli (GPa) = 38.11748 42.18475 93.96427
#
# Poissons Ratio (x) = 0.24181 0.38861
# Poissons Ratio (y) = 0.21850 -0.28212
# Poissons Ratio (z) = 0.15764 -0.12666
#
# Static dielectric constant tensor:
#      x y z
#    x 1.949290 0.050140 -0.027640 
#    y 0.050140 1.993400 -0.061420 
#    z -0.027640 -0.061420 1.960770 
# 
# From -- ./inp_files/244674.got.cif
#   From: 2010.05.17/outbox.cif.g08.bks.cpg/sg2_123_cif.got.tgz:244674.got - 2010.06.03 11:33:40.
