data_PCOD9076078
_publ_section_title
;
Structure prediction by ZEFSAII (Michael W. Deem and Ramdas Pophale) SiO2 
 PCOD9076078
Probable space group: P -1
;
_chemical_formula_sum "Si O2"
_cell_formula_units_Z 16
_cell_length_a 14.270600
_cell_length_b 18.947272
_cell_length_c 9.149126
_cell_angle_alpha 130.603228
_cell_angle_beta 135.282788
_cell_angle_gamma 20.183974
_cell_volume 599.242062
_symmetry_space_group_name_H-M "P -1"
_symmetry_group_IT_number 2
_symmetry_cell_setting 'triclinic'
loop_
_space_group_symop_operation_xyz
x,y,z
-x,-y,-z
loop_
_atom_site_type_symbol
_atom_site_label
_atom_site_fract_x
_atom_site_fract_y
_atom_site_fract_z
Si Si1 0.846874 0.762013 0.741289
Si Si2 0.182735 0.836836 0.322781
Si Si3 0.025656 0.121869 0.120486
Si Si4 0.608788 0.322997 0.377932
Si Si5 0.622910 0.646405 0.109207
Si Si6 0.791055 0.921945 0.140925
Si Si7 0.815457 0.669176 0.139521
Si Si8 0.789184 0.897334 0.447546
O O1 0.865254 0.849224 0.795359
O O2 0.167588 0.518899 0.752443
O O3 0.538432 0.900263 0.568557
O O4 0.838103 0.792015 0.946302
O O5 0.437925 0.693401 0.531837
O O6 0.936311 0.071512 0.368102
O O7 0.040232 0.835416 0.243272
O O8 0.215652 0.777196 0.114154
O O9 0.979250 0.183365 0.317313
O O10 0.298157 0.881813 0.107091
O O11 0.500000 0.500000 0.500000
O O12 0.425705 0.392206 0.134962
O O13 0.795199 0.627355 0.210570
O O14 0.764075 0.937900 0.304882
O O15 0.502153 0.133725 0.023062
O O16 0.889300 0.728996 0.333730
O O17 0.000000 0.500000 0.000000
#
# Coordination Sequence:
#
# PCOD9076078 Si02
#       8
#     2   2   2   2   2   2   2   2
#     4  10  19  34  55  77 113 150 184 218 258 319
#     4   9  19  36  57  82 108 135 182 239 272 316
#     4  10  20  37  52  81 121 143 183 223 268 331
#     4  10  18  32  60  84  99 137 184 237 283 309
#     4  11  20  35  57  85 110 140 185 232 270 323
#     4  10  18  36  52  79 113 144 184 227 260 324
#     4  11  20  34  53  82 114 145 188 223 259 325
#     4  11  21  34  55  80 120 157 175 213 277 326
#
# _framework density 26.700395
#
# number of rings (size 3 to 8) (size 9 to 14) (size 15 to 20)
#    0.000    1.750    5.000    4.875    0.000    0.500 
#    2.250    0.000    0.000    6.750    0.000    8.750 
#    0.000    0.000    0.000    0.000    0.000    0.000 
#
# Total GULP energy -89371.468977 kJ/mol
# GULP energy per Si atom -5585.716811 kJ/mol
# Density = 2.663962 g / cm^3
# Si number density = 26.700395 Si / 1000 Ang^3
#
#
#
# Elastic Constant Matrix: (Units=GPa)
#
#
# Indices 1 2 3 4 5 6 
#
# 1 82.1592 18.4255 9.5959 0.6768 -0.8672 21.9511
# 2 18.4255 134.9275 21.9387 -4.5355 7.7098 25.8096
# 3 9.5959 21.9387 158.8258 -7.3331 -2.8330 21.2802
# 4 0.6768 -4.5355 -7.3331 28.0774 3.0130 -1.6661
# 5 -0.8672 7.7098 -2.8330 3.0130 29.1434 -3.3054
# 6 21.9511 25.8096 21.2802 -1.6661 -3.3054 33.5279
#
#
#
# Elastic Compliance Matrix: (Units=1/GPa)
#
#
# Indices 1 2 3 4 5 6 
#
# 1 0.014814 -0.000194 0.000412 -0.000814 -0.000507 -0.009901
# 2 -0.000194 0.009045 -0.000311 0.001334 -0.003350 -0.006902
# 3 0.000412 -0.000311 0.006970 0.001488 0.000123 -0.004368
# 4 -0.000814 0.001334 0.001488 0.036671 -0.004025 -0.000013
# 5 -0.000507 -0.003350 0.000123 -0.004025 0.036317 0.006213
# 6 -0.009901 -0.006902 -0.004368 -0.000013 0.006213 0.045006
#
#
# Mechanical properties :
#
#
# Convention : Reuss Voigt Hill
#
# Bulk Modulus (GPa) = 32.63525 52.87031 42.75278
# Shear Modulus (GPa) = 31.40238 39.87989 35.64114
#
# Velocity S-wave (km/s) = 3.43315 3.86891 3.65753
# Velocity P-wave (km/s) = 5.28817 6.30891 5.82095
#
# Compressibility (1/GPa) = 0.03064171
#
# Stress axis : x y z
#
# Youngs Moduli (GPa) = 67.50547 110.55811 143.46249
#
# Poissons Ratio (x) = 0.02150 -0.05907
# Poissons Ratio (y) = 0.01313 0.04462
# Poissons Ratio (z) = -0.02780 0.03439
#
# Static dielectric constant tensor:
#      x y z
#    x 2.124140 -0.022120 0.001120 
#    y -0.022120 2.185250 -0.049830 
#    z 0.001120 -0.049830 2.320570 
# 
# From -- ./inp_files/338158.got.cif
#   From: 2010.05.17/outbox.cif.g08.bks.cpg/sg2_170_cif.got.tgz:338158.got - 2010.06.03 11:33:40.
