data_PCOD9076529
_publ_section_title
;
Structure prediction by ZEFSAII (Michael W. Deem and Ramdas Pophale) SiO2 
 PCOD9076529
Probable space group: P -1
;
_chemical_formula_sum "Si O2"
_cell_formula_units_Z 16
_cell_length_a 13.787982
_cell_length_b 7.633245
_cell_length_c 11.449700
_cell_angle_alpha 67.064671
_cell_angle_beta 137.077775
_cell_angle_gamma 134.185311
_cell_volume 570.218526
_symmetry_space_group_name_H-M "P -1"
_symmetry_group_IT_number 2
_symmetry_cell_setting 'triclinic'
loop_
_space_group_symop_operation_xyz
x,y,z
-x,-y,-z
loop_
_atom_site_type_symbol
_atom_site_label
_atom_site_fract_x
_atom_site_fract_y
_atom_site_fract_z
Si Si1 0.111384 0.832890 0.035789
Si Si2 0.919982 0.095997 0.259277
Si Si3 0.277553 0.627597 0.378117
Si Si4 0.036732 0.274380 0.716316
Si Si5 0.615704 0.305338 0.194617
Si Si6 0.398311 0.029234 0.573293
Si Si7 0.597344 0.689892 0.210537
Si Si8 0.759338 0.654436 0.887457
O O1 0.164046 0.687332 0.186568
O O2 0.214112 0.098971 0.122473
O O3 0.164258 0.864424 0.937501
O O4 0.890833 0.707482 0.881780
O O5 0.131937 0.357473 0.381998
O O6 0.910537 0.879084 0.253943
O O7 0.802635 0.969462 0.308112
O O8 0.369654 0.826825 0.511773
O O9 0.448042 0.707893 0.425153
O O10 0.812876 0.081782 0.571826
O O11 0.163836 0.530038 0.687814
O O12 0.125192 0.349944 0.904670
O O13 0.542935 0.039530 0.243879
O O14 0.596960 0.470437 0.222464
O O15 0.512782 0.289473 0.992276
O O16 0.463117 0.581063 0.233512
#
# Coordination Sequence:
#
# PCOD9076529 Si02
#       8
#     2   2   2   2   2   2   2   2
#     4  10  18  33  57  82 110 139 178 228 267 308
#     4  10  21  36  56  79 112 143 174 226 274 312
#     4  11  23  35  52  79 112 143 180 220 266 320
#     4   9  18  35  56  79 107 140 178 221 264 316
#     4   9  17  32  59  82 102 136 183 221 262 317
#     4  11  21  35  55  78 105 146 184 217 259 322
#     4   9  17  34  57  84 107 135 177 226 270 316
#     4   9  17  31  58  86 107 135 182 223 266 314
#
# _framework density 28.059418999999998
#
# number of rings (size 3 to 8) (size 9 to 14) (size 15 to 20)
#    0.000    2.250    1.250    4.500    0.000    0.500 
#    0.000    3.125    5.500    0.000    0.000    0.000 
#    0.000    0.000    0.000    0.000    0.000    0.000 
#
# Total GULP energy -89558.625155 kJ/mol
# GULP energy per Si atom -5597.414072 kJ/mol
# Density = 2.799555 g / cm^3
# Si number density = 28.059419 Si / 1000 Ang^3
#
#
#
# Elastic Constant Matrix: (Units=GPa)
#
#
# Indices 1 2 3 4 5 6 
#
# 1 93.2885 41.1664 9.1991 10.5646 15.6850 30.5655
# 2 41.1664 162.0317 9.9347 21.6835 19.1761 31.6219
# 3 9.1991 9.9347 64.0722 -0.1309 12.1847 18.8268
# 4 10.5646 21.6835 -0.1309 44.9950 16.4934 15.5701
# 5 15.6850 19.1761 12.1847 16.4934 34.0894 20.2458
# 6 30.5655 31.6219 18.8268 15.5701 20.2458 50.0281
#
#
#
# Elastic Compliance Matrix: (Units=1/GPa)
#
#
# Indices 1 2 3 4 5 6 
#
# 1 0.014120 -0.002152 0.000720 0.000810 -0.001723 -0.007092
# 2 -0.002152 0.007572 0.000034 -0.001963 -0.000823 -0.002540
# 3 0.000720 0.000034 0.018387 0.003958 -0.004900 -0.006629
# 4 0.000810 -0.001963 0.003958 0.029038 -0.011747 -0.005027
# 5 -0.001723 -0.000823 -0.004900 -0.011747 0.044527 -0.010946
# 6 -0.007092 -0.002540 -0.006629 -0.005027 -0.010946 0.034417
#
#
# Mechanical properties :
#
#
# Convention : Reuss Voigt Hill
#
# Bulk Modulus (GPa) = 26.82262 48.88807 37.85535
# Shear Modulus (GPa) = 30.62163 43.09532 36.85848
#
# Velocity S-wave (km/s) = 3.30709 3.92326 3.62828
# Velocity P-wave (km/s) = 4.91553 6.16307 5.57431
#
# Compressibility (1/GPa) = 0.03728197
#
# Stress axis : x y z
#
# Youngs Moduli (GPa) = 70.82292 132.06383 54.38700
#
# Poissons Ratio (x) = 0.28417 -0.03914
# Poissons Ratio (y) = 0.15239 -0.00184
# Poissons Ratio (z) = -0.05097 -0.00446
#
# Static dielectric constant tensor:
#      x y z
#    x 2.216690 0.089650 -0.002370 
#    y 0.089650 2.228350 0.118220 
#    z -0.002370 0.118220 2.242320 
# 
# From -- ./inp_files/178981.got.cif
#   From: 2010.05.17/outbox.cif.g08.bks.cpg/sg2_90_cif.got.tgz:178981.got - 2010.06.03 11:33:40.
