data_PCOD9076468
_publ_section_title
;
Structure prediction by ZEFSAII (Michael W. Deem and Ramdas Pophale) SiO2 
 PCOD9076468
Probable space group: P -1
;
_chemical_formula_sum "Si O2"
_cell_formula_units_Z 16
_cell_length_a 10.990430
_cell_length_b 8.639428
_cell_length_c 15.534209
_cell_angle_alpha 145.763511
_cell_angle_beta 55.526276
_cell_angle_gamma 122.439997
_cell_volume 676.616207
_symmetry_space_group_name_H-M "P -1"
_symmetry_group_IT_number 2
_symmetry_cell_setting 'triclinic'
loop_
_space_group_symop_operation_xyz
x,y,z
-x,-y,-z
loop_
_atom_site_type_symbol
_atom_site_label
_atom_site_fract_x
_atom_site_fract_y
_atom_site_fract_z
Si Si1 0.867895 0.816180 0.858030
Si Si2 0.372704 0.539366 0.999264
Si Si3 0.640844 0.677038 0.277293
Si Si4 0.185358 0.752629 0.296211
Si Si5 0.376358 0.724483 0.528865
Si Si6 0.108683 0.278239 0.379677
Si Si7 0.790548 0.049004 0.163795
Si Si8 0.900799 0.807879 0.348251
O O1 0.789400 0.502435 0.768778
O O2 0.846341 0.870572 0.792582
O O3 0.046600 0.839227 0.812263
O O4 0.805182 0.024854 0.044677
O O5 0.410363 0.522539 0.875603
O O6 0.246219 0.270384 0.937528
O O7 0.500000 0.500000 0.000000
O O8 0.294326 0.781738 0.183961
O O9 0.525213 0.656197 0.393059
O O10 0.800053 0.647756 0.241717
O O11 0.654961 0.996305 0.382211
O O12 0.015840 0.660658 0.288803
O O13 0.196851 0.035114 0.475064
O O14 0.252502 0.460746 0.443850
O O15 0.345341 0.809119 0.678742
O O16 0.000000 0.500000 0.500000
O O17 0.012907 0.059879 0.378067
#
# Coordination Sequence:
#
# PCOD9076468 Si02
#       8
#     2   2   2   2   2   2   2   2
#     4  10  18  33  56  84 113 142 196 236 283 332
#     4  10  22  35  56  85 117 152 194 239 288 340
#     4  10  21  34  55  85 114 151 192 238 288 343
#     4  10  22  37  59  85 119 153 187 238 292 345
#     4  10  19  31  54  86 112 141 189 244 282 332
#     4  12  18  32  59  84 111 148 196 240 276 336
#     4   9  18  31  51  81 110 138 182 239 279 328
#     4  11  22  38  59  86 119 154 193 234 291 350
#
# _framework density 23.647084
#
# number of rings (size 3 to 8) (size 9 to 14) (size 15 to 20)
#    0.000    1.750    3.750    0.750    8.750    0.500 
#    0.000    0.000    2.750    3.000    0.000    0.000 
#    0.000    0.000    0.000    0.000    0.000    0.000 
#
# Total GULP energy -89335.208328 kJ/mol
# GULP energy per Si atom -5583.450520 kJ/mol
# Density = 2.359326 g / cm^3
# Si number density = 23.647084 Si / 1000 Ang^3
#
#
#
# Elastic Constant Matrix: (Units=GPa)
#
#
# Indices 1 2 3 4 5 6 
#
# 1 61.6944 6.5962 32.8730 -5.2512 15.0507 6.6036
# 2 6.5962 74.1836 29.1601 -16.7192 -6.2959 1.4531
# 3 32.8730 29.1601 152.4093 -53.2676 25.5875 4.0895
# 4 -5.2512 -16.7192 -53.2676 36.0703 -4.6664 -1.9785
# 5 15.0507 -6.2959 25.5875 -4.6664 24.6898 -4.1899
# 6 6.6036 1.4531 4.0895 -1.9785 -4.1899 19.0646
#
#
#
# Elastic Compliance Matrix: (Units=1/GPa)
#
#
# Indices 1 2 3 4 5 6 
#
# 1 0.022389 -0.002723 -0.003974 -0.006128 -0.013115 -0.010213
# 2 -0.002723 0.016669 -0.002696 0.004821 0.010120 0.002975
# 3 -0.003974 -0.002696 0.018549 0.023656 -0.013511 -0.002911
# 4 -0.006128 0.004821 0.023656 0.063140 -0.007343 0.001620
# 5 -0.013115 0.010120 -0.013511 -0.007343 0.067201 0.020677
# 6 -0.010213 0.002975 -0.002911 0.001620 0.020677 0.061101
#
#
# Mechanical properties :
#
#
# Convention : Reuss Voigt Hill
#
# Bulk Modulus (GPa) = 25.75913 47.28288 36.52101
# Shear Modulus (GPa) = 17.80791 30.60882 24.20837
#
# Velocity S-wave (km/s) = 2.74719 3.60168 3.20306
# Velocity P-wave (km/s) = 4.58034 6.11022 5.39974
#
# Compressibility (1/GPa) = 0.03882119
#
# Stress axis : x y z
#
# Youngs Moduli (GPa) = 44.66546 59.99121 53.91253
#
# Poissons Ratio (x) = 0.16335 0.21424
# Poissons Ratio (y) = 0.12162 0.14534
# Poissons Ratio (z) = 0.17750 0.16172
#
# Static dielectric constant tensor:
#      x y z
#    x 1.898430 -0.006810 -0.017360 
#    y -0.006810 1.879030 -0.013220 
#    z -0.017360 -0.013220 2.036120 
# 
# From -- ./inp_files/568978.got.cif
#   From: 2010.05.17/outbox.cif.g08.bks.cpg/sg2_285_cif.got.tgz:568978.got - 2010.06.03 11:33:40.
