data_PCOD9076582
_publ_section_title
;
Structure prediction by ZEFSAII (Michael W. Deem and Ramdas Pophale) SiO2 
 PCOD9076582
Probable space group: P -1
;
_chemical_formula_sum "Si O2"
_cell_formula_units_Z 16
_cell_length_a 12.992917
_cell_length_b 13.783550
_cell_length_c 19.866467
_cell_angle_alpha 21.624752
_cell_angle_beta 31.886714
_cell_angle_gamma 31.125538
_cell_volume 650.682130
_symmetry_space_group_name_H-M "P -1"
_symmetry_group_IT_number 2
_symmetry_cell_setting 'triclinic'
loop_
_space_group_symop_operation_xyz
x,y,z
-x,-y,-z
loop_
_atom_site_type_symbol
_atom_site_label
_atom_site_fract_x
_atom_site_fract_y
_atom_site_fract_z
Si Si1 0.942543 0.926594 0.215560
Si Si2 0.887630 0.770026 0.178981
Si Si3 0.002764 0.175332 0.281141
Si Si4 0.326420 0.373507 0.386830
Si Si5 0.826513 0.790751 0.558613
Si Si6 0.737952 0.454654 0.077501
Si Si7 0.739159 0.378057 0.422747
Si Si8 0.463716 0.248408 0.140319
O O1 0.977609 0.062367 0.038879
O O2 0.755734 0.801959 0.401455
O O3 0.150732 0.679760 0.281159
O O4 0.882883 0.169176 0.147439
O O5 0.842668 0.591833 0.257123
O O6 0.007960 0.524111 0.322431
O O7 0.668207 0.987727 0.181669
O O8 0.805351 0.333814 0.336341
O O9 0.151746 0.917531 0.409639
O O10 0.135254 0.376383 0.064760
O O11 0.936814 0.022324 0.353801
O O12 0.309455 0.227349 0.418695
O O13 0.547496 0.404210 0.254692
O O14 0.693898 0.835738 0.671238
O O15 0.629620 0.635504 0.954947
O O16 0.500000 0.500000 0.500000
O O17 0.500000 0.500000 0.000000
#
# Coordination Sequence:
#
# PCOD9076582 Si02
#       8
#     2   2   2   2   2   2   2   2
#     4  11  23  42  62  88 119 166 213 244 300 370
#     4  11  21  36  63  91 123 159 201 253 305 360
#     4  10  21  35  59  90 122 153 200 253 299 363
#     4  11  26  41  63  88 123 163 207 256 299 362
#     4  11  23  41  60  96 128 154 199 259 309 356
#     4  12  21  40  63  89 121 162 202 250 307 365
#     4  10  18  33  57  89 120 158 199 243 298 364
#     4  12  22  34  60  96 125 153 200 256 308 353
#
# _framework density 24.589579000000001
#
# number of rings (size 3 to 8) (size 9 to 14) (size 15 to 20)
#    0.000    1.000    5.000    3.375    1.750    1.000 
#    0.000    0.625    0.000    3.000    0.000    0.000 
#    0.000    0.000    0.000    0.000    0.000    0.000 
#
# Total GULP energy -89700.389985 kJ/mol
# GULP energy per Si atom -5606.274374 kJ/mol
# Density = 2.453361 g / cm^3
# Si number density = 24.589579 Si / 1000 Ang^3
#
#
#
# Elastic Constant Matrix: (Units=GPa)
#
#
# Indices 1 2 3 4 5 6 
#
# 1 101.4615 28.5544 47.1871 2.5660 -4.3078 -1.2684
# 2 28.5544 168.3670 70.7828 0.5247 -1.3591 -8.2365
# 3 47.1871 70.7828 191.9703 8.0735 -30.0476 1.4323
# 4 2.5660 0.5247 8.0735 49.0515 4.7295 1.6869
# 5 -4.3078 -1.3591 -30.0476 4.7295 38.7814 5.0987
# 6 -1.2684 -8.2365 1.4323 1.6869 5.0987 25.2084
#
#
#
# Elastic Compliance Matrix: (Units=1/GPa)
#
#
# Indices 1 2 3 4 5 6 
#
# 1 0.011268 -0.000785 -0.002619 -0.000087 -0.000879 0.000643
# 2 -0.000785 0.007471 -0.003024 0.000609 -0.002646 0.003068
# 3 -0.002619 -0.003024 0.008064 -0.001682 0.006420 -0.002764
# 4 -0.000087 0.000609 -0.001682 0.021041 -0.003812 -0.000347
# 5 -0.000879 -0.002646 0.006420 -0.003812 0.032019 -0.007495
# 6 0.000643 0.003068 -0.002764 -0.000347 -0.007495 0.042400
#
#
# Mechanical properties :
#
#
# Convention : Reuss Voigt Hill
#
# Bulk Modulus (GPa) = 71.70523 83.87193 77.78858
# Shear Modulus (GPa) = 35.77338 43.62659 39.69999
#
# Velocity S-wave (km/s) = 3.81835 4.21668 4.02245
# Velocity P-wave (km/s) = 6.97595 7.60855 7.29910
#
# Compressibility (1/GPa) = 0.01394598
#
# Stress axis : x y z
#
# Youngs Moduli (GPa) = 88.74819 133.85376 124.00652
#
# Poissons Ratio (x) = 0.10513 0.32474
# Poissons Ratio (y) = 0.06970 0.37502
# Poissons Ratio (z) = 0.23241 0.40480
#
# Static dielectric constant tensor:
#      x y z
#    x 1.992300 -0.004210 -0.005370 
#    y -0.004210 1.922070 -0.010720 
#    z -0.005370 -0.010720 2.011900 
# 
# From -- ./inp_files/612078.got.cif
#   From: 2010.05.17/outbox.cif.g08.bks.cpg/sg2_307_cif.got.tgz:612078.got - 2010.06.03 11:33:40.
