data_PCOD9076862
_publ_section_title
;
Structure prediction by ZEFSAII (Michael W. Deem and Ramdas Pophale) SiO2 
 PCOD9076862
Probable space group: P -1
;
_chemical_formula_sum "Si O2"
_cell_formula_units_Z 16
_cell_length_a 14.988564
_cell_length_b 7.109325
_cell_length_c 8.755225
_cell_angle_alpha 116.808043
_cell_angle_beta 98.674204
_cell_angle_gamma 62.463253
_cell_volume 736.379596
_symmetry_space_group_name_H-M "P -1"
_symmetry_group_IT_number 2
_symmetry_cell_setting 'triclinic'
loop_
_space_group_symop_operation_xyz
x,y,z
-x,-y,-z
loop_
_atom_site_type_symbol
_atom_site_label
_atom_site_fract_x
_atom_site_fract_y
_atom_site_fract_z
Si Si1 0.130922 0.340254 0.658921
Si Si2 0.780833 0.545226 0.006042
Si Si3 0.601318 0.777367 0.801132
Si Si4 0.768654 0.118779 0.023367
Si Si5 0.057584 0.709312 0.282695
Si Si6 0.460074 0.705113 0.938568
Si Si7 0.217579 0.298905 0.346496
Si Si8 0.955581 0.106320 0.193750
O O1 0.213341 0.303942 0.796091
O O2 0.186041 0.237101 0.477248
O O3 0.071410 0.622130 0.717830
O O4 0.045701 0.278618 0.679466
O O5 0.772629 0.317545 0.985864
O O6 0.687820 0.680962 0.920115
O O7 0.887238 0.453531 0.910107
O O8 0.528040 0.664107 0.789750
O O9 0.670097 0.721513 0.647258
O O10 0.541480 0.059689 0.900056
O O11 0.790133 0.887344 0.844285
O O12 0.656335 0.223183 0.098144
O O13 0.852738 0.077067 0.156756
O O14 0.141393 0.567973 0.379253
O O15 0.028283 0.966020 0.299439
O O16 0.500000 0.500000 0.000000
O O17 0.000000 0.000000 0.000000
#
# Coordination Sequence:
#
# PCOD9076862 Si02
#       8
#     2   2   2   2   2   2   2   2
#     4  11  23  38  54  83 120 155 188 233 284 334
#     4  10  20  36  60  83 110 150 195 234 269 335
#     4   9  20  36  57  88 109 145 189 234 282 339
#     4  10  20  35  59  84 113 143 190 234 283 326
#     4  11  22  36  58  80 114 157 194 227 278 329
#     4  10  18  33  61  89 108 137 192 241 277 330
#     4  10  23  38  55  84 123 149 185 236 290 337
#     4  11  22  36  58  85 113 150 198 236 269 333
#
# _framework density 21.727924000000002
#
# number of rings (size 3 to 8) (size 9 to 14) (size 15 to 20)
#    0.000    1.750    3.750    1.500    5.250    0.500 
#    4.500    0.000    0.000    9.750    0.000    0.000 
#    0.000    0.000    0.000    0.000    0.000    0.000 
#
# Total GULP energy -89293.513951 kJ/mol
# GULP energy per Si atom -5580.844622 kJ/mol
# Density = 2.167847 g / cm^3
# Si number density = 21.727924 Si / 1000 Ang^3
#
#
#
# Elastic Constant Matrix: (Units=GPa)
#
#
# Indices 1 2 3 4 5 6 
#
# 1 115.7920 21.8043 45.7022 -3.1471 -45.1287 -1.6398
# 2 21.8043 80.9686 13.2267 -5.6710 -6.4172 4.8174
# 3 45.7022 13.2267 62.2706 -7.0040 -24.4049 2.7802
# 4 -3.1471 -5.6710 -7.0040 17.2477 3.6670 -4.7211
# 5 -45.1287 -6.4172 -24.4049 3.6670 36.8189 -2.4565
# 6 -1.6398 4.8174 2.7802 -4.7211 -2.4565 29.9036
#
#
#
# Elastic Compliance Matrix: (Units=1/GPa)
#
#
# Indices 1 2 3 4 5 6 
#
# 1 0.019224 -0.003021 -0.006406 -0.003322 0.019334 0.003200
# 2 -0.003021 0.013507 -0.001206 0.003436 -0.002617 -0.001902
# 3 -0.006406 -0.001206 0.024805 0.006664 0.007663 -0.000781
# 4 -0.003322 0.003436 0.006664 0.064564 -0.004923 0.008433
# 5 0.019334 -0.002617 0.007663 -0.004923 0.056279 0.004615
# 6 0.003200 -0.001902 -0.000781 0.008433 0.004615 0.035706
#
#
# Mechanical properties :
#
#
# Convention : Reuss Voigt Hill
#
# Bulk Modulus (GPa) = 27.57201 46.72195 37.14698
# Shear Modulus (GPa) = 20.20675 28.68055 24.44365
#
# Velocity S-wave (km/s) = 3.05288 3.63710 3.35772
# Velocity P-wave (km/s) = 5.01438 6.26002 5.67150
#
# Compressibility (1/GPa) = 0.03626867
#
# Stress axis : x y z
#
# Youngs Moduli (GPa) = 52.01847 74.03321 40.31478
#
# Poissons Ratio (x) = 0.22366 0.25828
# Poissons Ratio (y) = 0.15715 0.04863
# Poissons Ratio (z) = 0.33326 0.08930
#
# Static dielectric constant tensor:
#      x y z
#    x 1.832960 0.005420 -0.033980 
#    y 0.005420 1.814530 0.000090 
#    z -0.033980 0.000090 1.840950 
# 
# From -- ./inp_files/326177.got.cif
#   From: 2010.05.17/outbox.cif.g08.bks.cpg/sg2_164_cif.got.tgz:326177.got - 2010.06.03 11:33:40.
