data_PCOD9076011
_publ_section_title
;
Structure prediction by ZEFSAII (Michael W. Deem and Ramdas Pophale) SiO2 
 PCOD9076011
Probable space group: P -1
;
_chemical_formula_sum "Si O2"
_cell_formula_units_Z 14
_cell_length_a 17.123642
_cell_length_b 20.781196
_cell_length_c 10.439494
_cell_angle_alpha 35.581879
_cell_angle_beta 149.239460
_cell_angle_gamma 161.762576
_cell_volume 594.515559
_symmetry_space_group_name_H-M "P -1"
_symmetry_group_IT_number 2
_symmetry_cell_setting 'triclinic'
loop_
_space_group_symop_operation_xyz
x,y,z
-x,-y,-z
loop_
_atom_site_type_symbol
_atom_site_label
_atom_site_fract_x
_atom_site_fract_y
_atom_site_fract_z
Si Si1 0.659805 0.183062 0.519933
Si Si2 0.112103 0.944993 0.225852
Si Si3 0.535768 0.426096 0.779296
Si Si4 0.994773 0.963155 0.698490
Si Si5 0.858447 0.656796 0.110336
Si Si6 0.144266 0.744768 0.041196
Si Si7 0.347722 0.067628 0.634535
O O1 0.422816 0.132392 0.289521
O O2 0.500000 0.000000 0.500000
O O3 0.707354 0.168209 0.753429
O O4 0.984560 0.367799 0.624943
O O5 0.185542 0.945805 0.469633
O O6 0.894359 0.735825 0.173354
O O7 0.000000 0.000000 0.000000
O O8 0.500000 0.500000 0.500000
O O9 0.252587 0.184509 0.765518
O O10 0.594538 0.490067 0.909025
O O11 0.812306 0.528434 0.952178
O O12 0.000000 0.000000 0.500000
O O13 0.024173 0.852747 0.944814
O O14 0.711139 0.841968 0.556571
O O15 0.206520 0.899126 0.810836
O O16 0.321054 0.761057 0.185766
#
# Coordination Sequence:
#
# PCOD9076011 Si02
#       7
#     2   2   2   2   2   2   2
#     4   8  16  31  55  82 111 151 192 232 290 345
#     4  10  18  32  58  87 114 157 199 238 291 352
#     4  11  20  36  59  86 117 153 196 247 289 349
#     4  12  21  34  61  87 114 151 199 241 292 351
#     4  10  20  36  57  85 117 155 196 239 294 349
#     4   9  18  34  55  83 118 153 189 241 295 341
#     4  10  19  33  57  86 115 156 194 237 294 350
#
# _framework density 23.548584999999999
#
# number of rings (size 3 to 8) (size 9 to 14) (size 15 to 20)
#    0.000    2.000    4.286    0.857    0.000    0.000 
#    0.000    1.429    0.000   30.857    0.000    0.000 
#    0.000    0.000    0.000    0.000    0.000    0.000 
#
# Total GULP energy -77971.904186 kJ/mol
# GULP energy per Si atom -5569.421728 kJ/mol
# Density = 2.349499 g / cm^3
# Si number density = 23.548585 Si / 1000 Ang^3
#
#
#
# Elastic Constant Matrix: (Units=GPa)
#
#
# Indices 1 2 3 4 5 6 
#
# 1 104.8510 5.3234 43.6960 9.5850 19.6369 -12.6180
# 2 5.3234 49.3091 17.5294 13.8587 10.9238 -13.8542
# 3 43.6960 17.5294 135.8392 11.7010 16.9019 -10.3132
# 4 9.5850 13.8587 11.7010 32.8041 -3.7695 -5.9964
# 5 19.6369 10.9238 16.9019 -3.7695 70.0399 7.3867
# 6 -12.6180 -13.8542 -10.3132 -5.9964 7.3867 27.2641
#
#
#
# Elastic Compliance Matrix: (Units=1/GPa)
#
#
# Indices 1 2 3 4 5 6 
#
# 1 0.012598 0.003553 -0.003183 -0.003278 -0.004217 0.006853
# 2 0.003553 0.029657 -0.001930 -0.010877 -0.007386 0.015593
# 3 -0.003183 -0.001930 0.008970 -0.001414 -0.001146 0.000939
# 4 -0.003278 -0.010877 -0.001414 0.036972 0.005032 -0.000811
# 5 -0.004217 -0.007386 -0.001146 0.005032 0.018210 -0.009965
# 6 0.006853 0.015593 0.000939 -0.000811 -0.009965 0.050650
#
#
# Mechanical properties :
#
#
# Convention : Reuss Voigt Hill
#
# Bulk Modulus (GPa) = 20.78839 47.01077 33.89958
# Shear Modulus (GPa) = 28.37465 40.91834 34.64649
#
# Velocity S-wave (km/s) = 3.47499 4.17299 3.83988
# Velocity P-wave (km/s) = 4.99478 6.57458 5.83836
#
# Compressibility (1/GPa) = 0.04810378
#
# Stress axis : x y z
#
# Youngs Moduli (GPa) = 79.37880 33.71850 111.47686
#
# Poissons Ratio (x) = -0.11979 0.35488
# Poissons Ratio (y) = -0.28201 0.21517
# Poissons Ratio (z) = 0.25270 0.06508
#
# Static dielectric constant tensor:
#      x y z
#    x 2.002310 0.043080 0.060480 
#    y 0.043080 1.920890 0.016680 
#    z 0.060480 0.016680 1.977630 
# 
# From -- ./inp_files/254025.got.cif
#   From: 2010.05.17/outbox.cif.g08.bks.cpg/sg2_128_cif.got.tgz:254025.got - 2010.06.03 11:33:40.
