data_PCOD9076383
_publ_section_title
;
Structure prediction by ZEFSAII (Michael W. Deem and Ramdas Pophale) SiO2 
 PCOD9076383
Probable space group: P -1
;
_chemical_formula_sum "Si O2"
_cell_formula_units_Z 16
_cell_length_a 11.113241
_cell_length_b 23.962800
_cell_length_c 11.485575
_cell_angle_alpha 28.147351
_cell_angle_beta 50.186473
_cell_angle_gamma 31.292865
_cell_volume 664.724650
_symmetry_space_group_name_H-M "P -1"
_symmetry_group_IT_number 2
_symmetry_cell_setting 'triclinic'
loop_
_space_group_symop_operation_xyz
x,y,z
-x,-y,-z
loop_
_atom_site_type_symbol
_atom_site_label
_atom_site_fract_x
_atom_site_fract_y
_atom_site_fract_z
Si Si1 0.532400 0.626703 0.753471
Si Si2 0.573557 0.114640 0.048463
Si Si3 0.688043 0.501187 0.376879
Si Si4 0.075980 0.289382 0.971030
Si Si5 0.500484 0.310549 0.072314
Si Si6 0.733783 0.190189 0.635804
Si Si7 0.790573 0.927805 0.480660
Si Si8 0.177049 0.658151 0.187507
O O1 0.539848 0.657991 0.824312
O O2 0.304132 0.813814 0.469691
O O3 0.500000 0.500000 0.000000
O O4 0.796007 0.520453 0.729474
O O5 0.468297 0.289119 0.868160
O O6 0.770296 0.056609 0.943122
O O7 0.334165 0.209464 0.947217
O O8 0.662172 0.968728 0.361507
O O9 0.500000 0.500000 0.500000
O O10 0.899361 0.351197 0.622996
O O11 0.733558 0.501913 0.211574
O O12 0.096728 0.222818 0.211053
O O13 0.020836 0.240039 0.984079
O O14 0.591016 0.129215 0.307052
O O15 0.739524 0.257380 0.001940
O O16 0.459068 0.423230 0.412416
O O17 0.972370 0.134557 0.598103
#
# Coordination Sequence:
#
# PCOD9076383 Si02
#       8
#     2   2   2   2   2   2   2   2
#     4  11  19  36  58  87 109 146 191 235 278 337
#     4  10  22  36  56  86 115 152 191 229 286 333
#     4   8  17  32  53  78 111 143 179 233 273 328
#     4  11  21  36  59  83 117 150 190 235 279 336
#     4  10  18  33  55  85 112 142 192 234 276 333
#     4  10  19  35  58  82 111 145 194 235 266 334
#     4  11  21  35  57  84 115 153 189 232 278 336
#     4   9  17  33  56  82 109 142 191 233 282 319
#
# _framework density 24.070117
#
# number of rings (size 3 to 8) (size 9 to 14) (size 15 to 20)
#    0.000    2.000    3.750    0.750    0.000    6.500 
#    0.000    2.500    0.000   12.000    0.000    0.000 
#    0.000    0.000    0.000    0.000    0.000    0.000 
#
# Total GULP energy -89196.066174 kJ/mol
# GULP energy per Si atom -5574.754136 kJ/mol
# Density = 2.401533 g / cm^3
# Si number density = 24.070117 Si / 1000 Ang^3
#
#
#
# Elastic Constant Matrix: (Units=GPa)
#
#
# Indices 1 2 3 4 5 6 
#
# 1 106.4923 22.9676 28.6207 4.9670 29.3822 -0.5562
# 2 22.9676 35.2007 10.3484 4.6516 5.3895 6.0215
# 3 28.6207 10.3484 67.2207 14.6177 23.0154 16.4626
# 4 4.9670 4.6516 14.6177 34.0918 12.1580 8.0134
# 5 29.3822 5.3895 23.0154 12.1580 44.6551 8.2798
# 6 -0.5562 6.0215 16.4626 8.0134 8.2798 31.8664
#
#
#
# Elastic Compliance Matrix: (Units=1/GPa)
#
#
# Indices 1 2 3 4 5 6 
#
# 1 0.014351 -0.008201 -0.003895 0.002323 -0.008065 0.005324
# 2 -0.008201 0.034969 -0.000910 -0.002965 0.003654 -0.006485
# 3 -0.003895 -0.000910 0.021696 -0.004591 -0.005688 -0.008472
# 4 0.002323 -0.002965 -0.004591 0.034988 -0.007617 -0.003847
# 5 -0.008065 0.003654 -0.005688 -0.007617 0.033114 -0.004581
# 6 0.005324 -0.006485 -0.008472 -0.003847 -0.004581 0.039234
#
#
# Mechanical properties :
#
#
# Convention : Reuss Voigt Hill
#
# Bulk Modulus (GPa) = 22.22104 36.97635 29.59870
# Shear Modulus (GPa) = 22.79319 31.92113 27.35716
#
# Velocity S-wave (km/s) = 3.08059 3.64562 3.37495
# Velocity P-wave (km/s) = 4.68030 5.75465 5.24506
#
# Compressibility (1/GPa) = 0.04500240
#
# Stress axis : x y z
#
# Youngs Moduli (GPa) = 69.68369 28.59703 46.09218
#
# Poissons Ratio (x) = 0.23453 0.17954
# Poissons Ratio (y) = 0.57149 0.04193
# Poissons Ratio (z) = 0.27144 0.02602
#
# Static dielectric constant tensor:
#      x y z
#    x 1.960350 0.030370 0.029470 
#    y 0.030370 1.992900 0.012220 
#    z 0.029470 0.012220 2.012260 
# 
# From -- ./inp_files/332304.got.cif
#   From: 2010.05.17/outbox.cif.g08.bks.cpg/sg2_167_cif.got.tgz:332304.got - 2010.06.03 11:33:40.
