data_PCOD9076370
_publ_section_title
;
Structure prediction by ZEFSAII (Michael W. Deem and Ramdas Pophale) SiO2 
 PCOD9076370
Probable space group: P -1
;
_chemical_formula_sum "Si O2"
_cell_formula_units_Z 14
_cell_length_a 13.838154
_cell_length_b 7.752693
_cell_length_c 12.924465
_cell_angle_alpha 106.893632
_cell_angle_beta 149.640216
_cell_angle_gamma 60.601660
_cell_volume 582.067108
_symmetry_space_group_name_H-M "P -1"
_symmetry_group_IT_number 2
_symmetry_cell_setting 'triclinic'
loop_
_space_group_symop_operation_xyz
x,y,z
-x,-y,-z
loop_
_atom_site_type_symbol
_atom_site_label
_atom_site_fract_x
_atom_site_fract_y
_atom_site_fract_z
Si Si1 0.296212 0.926849 0.995046
Si Si2 0.331390 0.916200 0.351558
Si Si3 0.720432 0.467325 0.285830
Si Si4 0.852735 0.252492 0.997410
Si Si5 0.647135 0.020563 0.397924
Si Si6 0.028998 0.562123 0.700070
Si Si7 0.321283 0.925483 0.797774
O O1 0.516568 0.699955 0.144970
O O2 0.400970 0.059413 0.159821
O O3 0.151614 0.886720 0.935021
O O4 0.187673 0.000782 0.795520
O O5 0.500000 0.000000 0.500000
O O6 0.355016 0.849280 0.482253
O O7 0.334120 0.739419 0.249200
O O8 0.090882 0.117369 0.142425
O O9 0.918419 0.426685 0.540146
O O10 0.632743 0.309896 0.199355
O O11 0.828502 0.442958 0.268229
O O12 0.838751 0.453838 0.075745
O O13 0.811493 0.787069 0.548005
O O14 0.737747 0.016748 0.365971
O O15 0.500000 0.000000 0.000000
#
# Coordination Sequence:
#
# PCOD9076370 Si02
#       7
#     2   2   2   2   2   2   2
#     4  10  18  33  55  83 111 143 182 221 269 335
#     4  10  19  34  56  80 109 142 187 237 274 312
#     4  10  19  33  54  78 115 149 179 222 269 337
#     4  10  19  32  56  84 104 138 191 232 269 316
#     4   9  19  34  52  81 113 143 177 230 282 317
#     4   9  19  33  52  82 107 144 191 218 272 329
#     4  10  20  32  52  81 117 146 175 221 284 334
#
# _framework density 24.052209000000001
#
# number of rings (size 3 to 8) (size 9 to 14) (size 15 to 20)
#    0.000    2.286    2.857    0.429    0.000    0.571 
#    0.000    0.000    0.000    1.714    0.000    0.000 
#    0.000    0.000    0.000    0.000    0.000    0.000 
#
# Total GULP energy -77991.820930 kJ/mol
# GULP energy per Si atom -5570.844352 kJ/mol
# Density = 2.399746 g / cm^3
# Si number density = 24.052209 Si / 1000 Ang^3
#
#
#
# Elastic Constant Matrix: (Units=GPa)
#
#
# Indices 1 2 3 4 5 6 
#
# 1 86.5239 8.7949 56.0797 10.3074 -13.2907 -2.4450
# 2 8.7949 70.3302 46.6866 19.2776 -4.9549 8.0298
# 3 56.0797 46.6866 174.1339 56.8977 -23.9019 0.0759
# 4 10.3074 19.2776 56.8977 34.3202 -7.7163 -4.5911
# 5 -13.2907 -4.9549 -23.9019 -7.7163 68.0489 5.9076
# 6 -2.4450 8.0298 0.0759 -4.5911 5.9076 21.7601
#
#
#
# Elastic Compliance Matrix: (Units=1/GPa)
#
#
# Indices 1 2 3 4 5 6 
#
# 1 0.015903 0.000635 -0.008044 0.008865 0.001057 0.003164
# 2 0.000635 0.019029 -0.002941 -0.007053 0.000419 -0.008542
# 3 -0.008044 -0.002941 0.017859 -0.025865 0.002067 -0.005899
# 4 0.008865 -0.007053 -0.025865 0.075758 -0.001008 0.019946
# 5 0.001057 0.000419 0.002067 -0.001008 0.015942 -0.004584
# 6 0.003164 -0.008542 -0.005899 0.019946 -0.004584 0.054937
#
#
# Mechanical properties :
#
#
# Convention : Reuss Voigt Hill
#
# Bulk Modulus (GPa) = 31.16180 61.56784 46.36482
# Shear Modulus (GPa) = 21.66136 39.45428 30.55782
#
# Velocity S-wave (km/s) = 3.00425 4.05453 3.56824
# Velocity P-wave (km/s) = 5.00181 6.89725 6.02454
#
# Compressibility (1/GPa) = 0.03209057
#
# Stress axis : x y z
#
# Youngs Moduli (GPa) = 62.88251 52.55056 55.99290
#
# Poissons Ratio (x) = -0.03336 0.45043
# Poissons Ratio (y) = -0.03992 0.16466
# Poissons Ratio (z) = 0.50586 0.15454
#
# Static dielectric constant tensor:
#      x y z
#    x 1.975030 -0.084750 -0.024900 
#    y -0.084750 2.054070 -0.000120 
#    z -0.024900 -0.000120 2.092450 
# 
# From -- ./inp_files/415331.got.cif
#   From: 2010.05.17/outbox.cif.g08.bks.cpg/sg2_208_cif.got.tgz:415331.got - 2010.06.03 11:33:40.
