data_PCOD9076612
_publ_section_title
;
Structure prediction by ZEFSAII (Michael W. Deem and Ramdas Pophale) SiO2 
 PCOD9076612
Probable space group: P -1
;
_chemical_formula_sum "Si O2"
_cell_formula_units_Z 16
_cell_length_a 14.471079
_cell_length_b 9.463729
_cell_length_c 12.711275
_cell_angle_alpha 116.872658
_cell_angle_beta 45.242993
_cell_angle_gamma 80.493984
_cell_volume 712.526252
_symmetry_space_group_name_H-M "P -1"
_symmetry_group_IT_number 2
_symmetry_cell_setting 'triclinic'
loop_
_space_group_symop_operation_xyz
x,y,z
-x,-y,-z
loop_
_atom_site_type_symbol
_atom_site_label
_atom_site_fract_x
_atom_site_fract_y
_atom_site_fract_z
Si Si1 0.631397 0.958995 0.197798
Si Si2 0.316858 0.434193 0.966975
Si Si3 0.029403 0.569410 0.891664
Si Si4 0.841499 0.848055 0.442107
Si Si5 0.228973 0.839673 0.234307
Si Si6 0.904094 0.987313 0.224870
Si Si7 0.516624 0.625425 0.413312
Si Si8 0.230042 0.906346 0.008791
O O1 0.481201 0.223752 0.461803
O O2 0.717984 0.968740 0.030815
O O3 0.577175 0.827631 0.173988
O O4 0.814598 0.773637 0.072759
O O5 0.380554 0.409624 0.788491
O O6 0.353790 0.559660 0.045617
O O7 0.075617 0.636083 0.223085
O O8 0.058421 0.724731 0.953511
O O9 0.000000 0.500000 0.000000
O O10 0.179694 0.320294 0.619651
O O11 0.722851 0.057456 0.695073
O O12 0.836755 0.954031 0.372876
O O13 0.241265 0.878008 0.115282
O O14 0.000000 0.000000 0.500000
O O15 0.715621 0.190357 0.369598
O O16 0.012843 0.045942 0.192235
O O17 0.619230 0.359503 0.257917
#
# Coordination Sequence:
#
# PCOD9076612 Si02
#       8
#     2   2   2   2   2   2   2   2
#     4  10  20  33  54  81 116 145 179 226 285 323
#     4   9  17  33  53  79 106 142 185 225 261 327
#     4   8  17  30  51  81 107 138 176 227 264 322
#     4   9  15  33  57  78 110 139 187 234 260 319
#     4   9  16  32  59  77 106 148 189 225 267 323
#     4  10  18  33  58  80 112 142 184 224 277 327
#     4  10  20  34  55  81 109 147 184 221 277 334
#     4  11  21  36  55  83 115 146 179 232 275 327
#
# _framework density 22.455311999999999
#
# number of rings (size 3 to 8) (size 9 to 14) (size 15 to 20)
#    0.000    2.500    3.750    0.750    0.000    2.000 
#    2.250    8.125    2.750    0.000    0.000    1.750 
#    0.000    0.000    0.000    0.000    0.000    0.000 
#
# Total GULP energy -89301.575781 kJ/mol
# GULP energy per Si atom -5581.348486 kJ/mol
# Density = 2.240420 g / cm^3
# Si number density = 22.455312 Si / 1000 Ang^3
#
#
#
# Elastic Constant Matrix: (Units=GPa)
#
#
# Indices 1 2 3 4 5 6 
#
# 1 97.4115 21.4248 33.1082 14.5482 30.1446 11.7125
# 2 21.4248 86.9065 25.9764 8.8240 22.2760 13.6041
# 3 33.1082 25.9764 78.7851 15.2957 28.6626 0.0926
# 4 14.5482 8.8240 15.2957 20.9711 -2.4006 2.1374
# 5 30.1446 22.2760 28.6626 -2.4006 40.9444 16.0411
# 6 11.7125 13.6041 0.0926 2.1374 16.0411 31.8707
#
#
#
# Elastic Compliance Matrix: (Units=1/GPa)
#
#
# Indices 1 2 3 4 5 6 
#
# 1 0.016149 0.000537 0.001086 -0.014110 -0.014603 0.002129
# 2 0.000537 0.014513 -0.001496 -0.005858 -0.006525 -0.002711
# 3 0.001086 -0.001496 0.026919 -0.024267 -0.026100 0.014925
# 4 -0.014110 -0.005858 -0.024267 0.084591 0.043231 -0.019676
# 5 -0.014603 -0.006525 -0.026100 0.043231 0.071552 -0.030685
# 6 0.002129 -0.002711 0.014925 -0.019676 -0.030685 0.048472
#
#
# Mechanical properties :
#
#
# Convention : Reuss Voigt Hill
#
# Bulk Modulus (GPa) = 17.29093 47.12465 32.20779
# Shear Modulus (GPa) = 17.77968 30.93015 24.35492
#
# Velocity S-wave (km/s) = 2.81691 3.71537 3.29689
# Velocity P-wave (km/s) = 4.27748 6.27988 5.37279
#
# Compressibility (1/GPa) = 0.05783378
#
# Stress axis : x y z
#
# Youngs Moduli (GPa) = 61.92434 68.90268 37.14905
#
# Poissons Ratio (x) = -0.03697 -0.04036
# Poissons Ratio (y) = -0.03322 0.05559
# Poissons Ratio (z) = -0.06727 0.10310
#
# Static dielectric constant tensor:
#      x y z
#    x 1.831390 0.053750 0.032050 
#    y 0.053750 1.814160 0.002860 
#    z 0.032050 0.002860 1.791710 
# 
# From -- ./inp_files/537503.got.cif
#   From: 2010.05.17/outbox.cif.g08.bks.cpg/sg2_269_cif.got.tgz:537503.got - 2010.06.03 11:33:40.
