data_PCOD9076761
_publ_section_title
;
Structure prediction by ZEFSAII (Michael W. Deem and Ramdas Pophale) SiO2 
 PCOD9076761
Probable space group: P -1
;
_chemical_formula_sum "Si O2"
_cell_formula_units_Z 8
_cell_length_a 5.107330
_cell_length_b 6.578188
_cell_length_c 11.867838
_cell_angle_alpha 107.710665
_cell_angle_beta 60.587437
_cell_angle_gamma 74.271272
_cell_volume 285.247120
_symmetry_space_group_name_H-M "P -1"
_symmetry_group_IT_number 2
_symmetry_cell_setting 'triclinic'
loop_
_space_group_symop_operation_xyz
x,y,z
-x,-y,-z
loop_
_atom_site_type_symbol
_atom_site_label
_atom_site_fract_x
_atom_site_fract_y
_atom_site_fract_z
Si Si1 0.091298 0.578209 0.109539
Si Si2 0.263109 0.574157 0.397097
Si Si3 0.333802 0.192152 0.169131
Si Si4 0.090119 0.994657 0.642306
O O1 0.057290 0.425713 0.193495
O O2 0.851897 0.865474 0.242524
O O3 0.500000 0.500000 0.000000
O O4 0.000000 0.500000 0.000000
O O5 0.500434 0.325375 0.230838
O O6 0.000000 0.500000 0.500000
O O7 0.058863 0.797477 0.387880
O O8 0.366111 0.723915 0.490241
O O9 0.199431 0.061142 0.258881
O O10 0.500000 0.000000 0.000000
#
# Coordination Sequence:
#
# PCOD9076761 Si02
#       4
#     2   2   2   2
#     4  11  23  39  61  92 125 164 206 253 308 367
#     4   8  16  29  55  87 121 162 203 251 308 365
#     4  10  18  33  59  91 121 161 203 255 306 365
#     4   9  17  34  56  86 122 161 203 253 303 367
#
# _framework density 28.045853000000001
#
# number of rings (size 3 to 8) (size 9 to 14) (size 15 to 20)
#    0.000    2.500    2.500    0.000    0.000    1.000 
#    0.000    0.000    0.000   25.500    0.000    0.000 
#    0.000    0.000    0.000    0.000    0.000    0.000 
#
# Total GULP energy -44650.666983 kJ/mol
# GULP energy per Si atom -5581.333373 kJ/mol
# Density = 2.798202 g / cm^3
# Si number density = 28.045853 Si / 1000 Ang^3
#
#
#
# Elastic Constant Matrix: (Units=GPa)
#
#
# Indices 1 2 3 4 5 6 
#
# 1 124.3675 53.8759 68.6037 4.3545 26.3781 20.8979
# 2 53.8759 236.7232 79.3580 3.3742 13.0851 15.1639
# 3 68.6037 79.3580 243.4211 75.2057 39.3355 34.5942
# 4 4.3545 3.3742 75.2057 101.3152 38.3009 15.4679
# 5 26.3781 13.0851 39.3355 38.3009 53.9614 8.4562
# 6 20.8979 15.1639 34.5942 15.4679 8.4562 36.3987
#
#
#
# Elastic Compliance Matrix: (Units=1/GPa)
#
#
# Indices 1 2 3 4 5 6 
#
# 1 0.011952 -0.001247 -0.002782 0.004530 -0.006067 -0.004214
# 2 -0.001247 0.005057 -0.001579 0.001213 -0.000273 -0.000342
# 3 -0.002782 -0.001579 0.007247 -0.004954 0.000386 -0.002617
# 4 0.004530 0.001213 -0.004954 0.018069 -0.011177 -0.003480
# 5 -0.006067 -0.000273 0.000386 -0.011177 0.029021 0.001237
# 6 -0.004214 -0.000342 -0.002617 -0.003480 0.001237 0.033714
#
#
# Mechanical properties :
#
#
# Convention : Reuss Voigt Hill
#
# Bulk Modulus (GPa) = 76.69026 112.02080 94.35553
# Shear Modulus (GPa) = 41.45132 65.17999 53.31565
#
# Velocity S-wave (km/s) = 3.84863 4.82607 4.36480
# Velocity P-wave (km/s) = 6.86682 8.43109 7.68884
#
# Compressibility (1/GPa) = 0.01303947
#
# Stress axis : x y z
#
# Youngs Moduli (GPa) = 83.67001 197.73586 137.98604
#
# Poissons Ratio (x) = 0.24651 0.38391
# Poissons Ratio (y) = 0.10431 0.21793
# Poissons Ratio (z) = 0.23279 0.31230
#
# Static dielectric constant tensor:
#      x y z
#    x 2.533590 -0.032440 -0.044490 
#    y -0.032440 2.091820 0.037750 
#    z -0.044490 0.037750 2.367170 
# 
# From -- ./inp_files/1729.got.cif
#   From: 2010.05.17/outbox.cif.g08.bks.cpg/sg2_1_cif.got.tgz:1729.got - 2010.06.03 11:33:40.
