data_PCOD9076391
_publ_section_title
;
Structure prediction by ZEFSAII (Michael W. Deem and Ramdas Pophale) SiO2 
 PCOD9076391
Probable space group: P -1
;
_chemical_formula_sum "Si O2"
_cell_formula_units_Z 16
_cell_length_a 12.022401
_cell_length_b 11.491956
_cell_length_c 18.710223
_cell_angle_alpha 28.409515
_cell_angle_beta 34.615651
_cell_angle_gamma 47.391701
_cell_volume 688.060580
_symmetry_space_group_name_H-M "P -1"
_symmetry_group_IT_number 2
_symmetry_cell_setting 'triclinic'
loop_
_space_group_symop_operation_xyz
x,y,z
-x,-y,-z
loop_
_atom_site_type_symbol
_atom_site_label
_atom_site_fract_x
_atom_site_fract_y
_atom_site_fract_z
Si Si1 0.399621 0.425912 0.403975
Si Si2 0.800967 0.519391 0.760032
Si Si3 0.784111 0.354442 0.172789
Si Si4 0.588984 0.792047 0.829610
Si Si5 0.463439 0.720053 0.347339
Si Si6 0.899019 0.025580 0.924704
Si Si7 0.886069 0.826675 0.414513
Si Si8 0.707968 0.138968 0.179817
O O1 0.624300 0.483048 0.227990
O O2 0.365490 0.601131 0.391389
O O3 0.250657 0.404543 0.428233
O O4 0.368385 0.141864 0.601286
O O5 0.765106 0.661814 0.775679
O O6 0.912204 0.286124 0.818338
O O7 0.906070 0.720694 0.539325
O O8 0.568890 0.383856 0.940719
O O9 0.726324 0.328348 0.134009
O O10 0.778162 0.065555 0.353309
O O11 0.000000 0.500000 0.000000
O O12 0.440054 0.821704 0.825811
O O13 0.651909 0.069773 0.674766
O O14 0.500000 0.500000 0.500000
O O15 0.682354 0.870031 0.133112
O O16 0.950054 0.079999 0.783830
O O17 0.063201 0.876406 0.949805
#
# Coordination Sequence:
#
# PCOD9076391 Si02
#       8
#     2   2   2   2   2   2   2   2
#     4  10  18  33  55  86 115 151 194 243 292 339
#     4  10  20  37  60  83 121 157 197 231 291 363
#     4  10  19  32  57  89 119 146 192 250 297 333
#     4  10  21  37  59  90 114 162 195 234 292 352
#     4  11  21  35  57  88 122 151 192 245 297 345
#     4   9  21  37  59  88 112 151 197 246 291 339
#     4  10  20  36  59  85 114 155 197 242 292 346
#     4  10  19  37  59  89 114 147 199 249 288 337
#
# _framework density 23.253767
#
# number of rings (size 3 to 8) (size 9 to 14) (size 15 to 20)
#    0.000    2.250    1.250    4.875    0.000    2.000 
#    0.000    2.500    0.000   18.750    0.000    0.000 
#    0.000    0.000    0.000    0.000    0.000    0.000 
#
# Total GULP energy -89283.022381 kJ/mol
# GULP energy per Si atom -5580.188899 kJ/mol
# Density = 2.320084 g / cm^3
# Si number density = 23.253767 Si / 1000 Ang^3
#
#
#
# Elastic Constant Matrix: (Units=GPa)
#
#
# Indices 1 2 3 4 5 6 
#
# 1 52.5809 11.7040 14.8539 -3.4260 -1.3161 17.1714
# 2 11.7040 140.9371 16.5240 -23.5766 3.2818 30.5568
# 3 14.8539 16.5240 77.1574 7.5267 4.2706 12.3548
# 4 -3.4260 -23.5766 7.5267 33.4944 8.2419 -5.3439
# 5 -1.3161 3.2818 4.2706 8.2419 37.0404 -4.9769
# 6 17.1714 30.5568 12.3548 -5.3439 -4.9769 30.4830
#
#
#
# Elastic Compliance Matrix: (Units=1/GPa)
#
#
# Indices 1 2 3 4 5 6 
#
# 1 0.024162 0.001845 -0.002968 0.002545 -0.001416 -0.014042
# 2 0.001845 0.010699 -0.001469 0.007297 -0.003748 -0.010501
# 3 -0.002968 -0.001469 0.015050 -0.005087 -0.001120 -0.004030
# 4 0.002545 0.007297 -0.005087 0.038310 -0.008680 -0.001387
# 5 -0.001416 -0.003748 -0.001120 -0.008680 0.030477 0.008462
# 6 -0.014042 -0.010501 -0.004030 -0.001387 0.008462 0.054014
#
#
# Mechanical properties :
#
#
# Convention : Reuss Voigt Hill
#
# Bulk Modulus (GPa) = 22.35832 39.64881 31.00356
# Shear Modulus (GPa) = 25.93278 35.37645 30.65462
#
# Velocity S-wave (km/s) = 3.34310 3.90464 3.63473
# Velocity P-wave (km/s) = 4.95354 6.11685 5.56567
#
# Compressibility (1/GPa) = 0.04472609
#
# Stress axis : x y z
#
# Youngs Moduli (GPa) = 41.38673 93.46538 66.44492
#
# Poissons Ratio (x) = -0.17241 0.19721
# Poissons Ratio (y) = -0.07634 0.09763
# Poissons Ratio (z) = 0.12284 0.13733
#
# Static dielectric constant tensor:
#      x y z
#    x 1.903730 -0.008480 0.024710 
#    y -0.008480 1.931070 0.033520 
#    z 0.024710 0.033520 1.906960 
# 
# From -- ./inp_files/597788.got.cif
#   From: 2010.05.17/outbox.cif.g08.bks.cpg/sg2_299_cif.got.tgz:597788.got - 2010.06.03 11:33:40.
