data_PCOD9076137
_publ_section_title
;
Structure prediction by ZEFSAII (Michael W. Deem and Ramdas Pophale) SiO2 
 PCOD9076137
Probable space group: P -1
;
_chemical_formula_sum "Si O2"
_cell_formula_units_Z 16
_cell_length_a 9.215451
_cell_length_b 13.751308
_cell_length_c 11.989667
_cell_angle_alpha 70.844579
_cell_angle_beta 142.857173
_cell_angle_gamma 91.004881
_cell_volume 783.294941
_symmetry_space_group_name_H-M "P -1"
_symmetry_group_IT_number 2
_symmetry_cell_setting 'triclinic'
loop_
_space_group_symop_operation_xyz
x,y,z
-x,-y,-z
loop_
_atom_site_type_symbol
_atom_site_label
_atom_site_fract_x
_atom_site_fract_y
_atom_site_fract_z
Si Si1 0.569560 0.462827 0.429521
Si Si2 0.269204 0.774961 0.296076
Si Si3 0.954519 0.465647 0.334557
Si Si4 0.824134 0.940518 0.362579
Si Si5 0.701404 0.679096 0.209151
Si Si6 0.155530 0.251680 0.391818
Si Si7 0.779629 0.302819 0.948240
Si Si8 0.781546 0.893303 0.097920
O O1 0.500000 0.500000 0.500000
O O2 0.628520 0.331701 0.513930
O O3 0.830843 0.482163 0.562693
O O4 0.339742 0.558955 0.180719
O O5 0.530982 0.788804 0.416086
O O6 0.180203 0.739297 0.138265
O O7 0.018247 0.872690 0.164650
O O8 0.051000 0.382307 0.531611
O O9 0.004511 0.382508 0.292694
O O10 0.693250 0.579062 0.162175
O O11 0.898149 0.825202 0.520287
O O12 0.858174 0.921450 0.257188
O O13 0.000000 0.000000 0.500000
O O14 0.505585 0.013608 0.151501
O O15 0.446686 0.723371 0.117788
O O16 0.736541 0.778404 0.128545
O O17 0.036565 0.246192 0.201691
#
# Coordination Sequence:
#
# PCOD9076137 Si02
#       8
#     2   2   2   2   2   2   2   2
#     4   9  16  35  57  89 131 164 194 247 302 371
#     4  11  22  41  64  93 128 163 209 253 310 384
#     4  10  18  32  64  93 124 163 199 253 305 371
#     4  11  26  46  67  92 121 160 218 269 305 365
#     4  10  18  37  64  91 125 160 207 253 308 366
#     4  12  23  41  64  92 130 169 208 256 317 366
#     4  10  22  36  59  93 131 172 200 251 306 375
#     4  11  23  43  72  91 118 170 207 259 323 363
#
# _framework density 20.426532000000002
#
# number of rings (size 3 to 8) (size 9 to 14) (size 15 to 20)
#    0.000    1.500    6.250    0.750    0.000    3.500 
#    0.000    2.500    0.000    0.000    0.000    0.000 
#    0.000    0.000    0.000    0.000    0.000    0.000 
#
# Total GULP energy -89234.205538 kJ/mol
# GULP energy per Si atom -5577.137846 kJ/mol
# Density = 2.038004 g / cm^3
# Si number density = 20.426532 Si / 1000 Ang^3
#
#
#
# Elastic Constant Matrix: (Units=GPa)
#
#
# Indices 1 2 3 4 5 6 
#
# 1 96.6474 32.6426 23.0339 9.8615 5.7873 -22.1157
# 2 32.6426 74.8744 30.1351 11.4303 5.5057 -9.5093
# 3 23.0339 30.1351 76.5403 19.2044 -9.3933 -18.9996
# 4 9.8615 11.4303 19.2044 17.3327 -2.1514 -1.7662
# 5 5.7873 5.5057 -9.3933 -2.1514 21.0900 -10.5386
# 6 -22.1157 -9.5093 -18.9996 -1.7662 -10.5386 33.2521
#
#
#
# Elastic Compliance Matrix: (Units=1/GPa)
#
#
# Indices 1 2 3 4 5 6 
#
# 1 0.014209 -0.005021 0.001672 -0.005379 0.002313 0.009417
# 2 -0.005021 0.019266 -0.008181 -0.002708 -0.010568 -0.005997
# 3 0.001672 -0.008181 0.030240 -0.023819 0.023887 0.022356
# 4 -0.005379 -0.002708 -0.023819 0.086399 -0.007478 -0.015742
# 5 0.002313 -0.010568 0.023887 -0.007478 0.077583 0.036356
# 6 0.009417 -0.005997 0.022356 -0.015742 0.036356 0.058082
#
#
# Mechanical properties :
#
#
# Convention : Reuss Voigt Hill
#
# Bulk Modulus (GPa) = 24.59650 46.63172 35.61411
# Shear Modulus (GPa) = 15.50919 25.15165 20.33042
#
# Velocity S-wave (km/s) = 2.75847 3.51283 3.15825
# Velocity P-wave (km/s) = 4.71308 6.27151 5.54729
#
# Compressibility (1/GPa) = 0.04065619
#
# Stress axis : x y z
#
# Youngs Moduli (GPa) = 70.37560 51.90552 33.06884
#
# Poissons Ratio (x) = 0.26059 -0.05528
# Poissons Ratio (y) = 0.35332 0.27052
# Poissons Ratio (z) = -0.11764 0.42462
#
# Static dielectric constant tensor:
#      x y z
#    x 4.054530 -0.717480 -0.119210 
#    y -0.717480 1.986890 0.004930 
#    z -0.119210 0.004930 1.743650 
# 
# From -- ./inp_files/399002.got.cif
#   From: 2010.05.17/outbox.cif.g08.bks.cpg/sg2_200_cif.got.tgz:399002.got - 2010.06.03 11:33:40.
