data_PCOD9076797
_publ_section_title
;
Structure prediction by ZEFSAII (Michael W. Deem and Ramdas Pophale) SiO2 
 PCOD9076797
Probable space group: P -1
;
_chemical_formula_sum "Si O2"
_cell_formula_units_Z 16
_cell_length_a 14.046210
_cell_length_b 9.524124
_cell_length_c 21.442947
_cell_angle_alpha 47.103041
_cell_angle_beta 159.894436
_cell_angle_gamma 127.762213
_cell_volume 718.274724
_symmetry_space_group_name_H-M "P -1"
_symmetry_group_IT_number 2
_symmetry_cell_setting 'triclinic'
loop_
_space_group_symop_operation_xyz
x,y,z
-x,-y,-z
loop_
_atom_site_type_symbol
_atom_site_label
_atom_site_fract_x
_atom_site_fract_y
_atom_site_fract_z
Si Si1 0.339492 0.746717 0.508956
Si Si2 0.965144 0.541879 0.268337
Si Si3 0.111803 0.406650 0.179260
Si Si4 0.489388 0.398012 0.787874
Si Si5 0.515615 0.338393 0.613009
Si Si6 0.764217 0.930236 0.551733
Si Si7 0.506153 0.443828 0.932958
Si Si8 0.662099 0.004870 0.164311
O O1 0.633750 0.704155 0.668761
O O2 0.307254 0.564724 0.588994
O O3 0.094758 0.736151 0.311013
O O4 0.324738 0.929198 0.488886
O O5 0.764604 0.554693 0.080876
O O6 0.237278 0.394824 0.465339
O O7 0.769018 0.478667 0.221998
O O8 0.214346 0.612113 0.198303
O O9 0.091583 0.268876 0.269052
O O10 0.809232 0.418377 0.960551
O O11 0.421541 0.183070 0.795661
O O12 0.464082 0.436829 0.835075
O O13 0.500000 0.500000 0.500000
O O14 0.483690 0.134628 0.623349
O O15 0.007358 0.016689 0.637257
O O16 0.575696 0.222436 0.067574
O O17 0.500000 0.000000 0.000000
#
# Coordination Sequence:
#
# PCOD9076797 Si02
#       8
#     2   2   2   2   2   2   2   2
#     4  11  24  36  59  94 125 148 198 256 298 345
#     4  10  20  35  59  89 118 150 200 246 289 342
#     4  10  20  38  62  81 118 162 204 239 290 357
#     4  11  22  39  60  89 123 163 189 243 315 346
#     4   9  18  35  59  83 115 155 196 243 288 341
#     4  11  19  37  61  90 114 158 203 241 298 353
#     4  10  19  36  62  84 118 159 204 237 284 367
#     4  10  18  33  60  85 113 154 198 240 280 366
#
# _framework density 22.275597000000001
#
# number of rings (size 3 to 8) (size 9 to 14) (size 15 to 20)
#    0.000    1.750    3.750    3.000    0.000    2.000 
#    0.000    1.250   11.000    0.000    0.000    0.000 
#    0.000    0.000    0.000    0.000    0.000    0.000 
#
# Total GULP energy -89316.103580 kJ/mol
# GULP energy per Si atom -5582.256474 kJ/mol
# Density = 2.222490 g / cm^3
# Si number density = 22.275597 Si / 1000 Ang^3
#
#
#
# Elastic Constant Matrix: (Units=GPa)
#
#
# Indices 1 2 3 4 5 6 
#
# 1 75.0893 30.0435 19.7042 7.7402 11.8351 -9.3366
# 2 30.0435 137.0053 42.2589 35.9180 -3.1785 -20.4489
# 3 19.7042 42.2589 53.1586 30.8393 5.1876 1.2106
# 4 7.7402 35.9180 30.8393 33.1154 6.5663 -5.5446
# 5 11.8351 -3.1785 5.1876 6.5663 22.5980 -1.0076
# 6 -9.3366 -20.4489 1.2106 -5.5446 -1.0076 37.8231
#
#
#
# Elastic Compliance Matrix: (Units=1/GPa)
#
#
# Indices 1 2 3 4 5 6 
#
# 1 0.018426 -0.003756 -0.009595 0.011625 -0.011165 0.004231
# 2 -0.003756 0.012902 -0.003696 -0.010424 0.007875 0.004848
# 3 -0.009595 -0.003696 0.050554 -0.043898 0.005108 -0.012284
# 4 0.011625 -0.010424 -0.043898 0.085796 -0.021933 0.010632
# 5 -0.011165 0.007875 0.005108 -0.021933 0.056390 -0.000375
# 6 0.004231 0.004848 -0.012284 0.010632 -0.000375 0.032046
#
#
# Mechanical properties :
#
#
# Convention : Reuss Voigt Hill
#
# Bulk Modulus (GPa) = 20.92559 49.91850 35.42205
# Shear Modulus (GPa) = 16.33261 30.25708 23.29484
#
# Velocity S-wave (km/s) = 2.71072 3.68952 3.23732
# Velocity P-wave (km/s) = 4.38311 6.37246 5.46900
#
# Compressibility (1/GPa) = 0.04778837
#
# Stress axis : x y z
#
# Youngs Moduli (GPa) = 54.27237 77.50956 19.78078
#
# Poissons Ratio (x) = 0.29114 0.18979
# Poissons Ratio (y) = 0.20385 0.07311
# Poissons Ratio (z) = 0.52072 0.28646
#
# Static dielectric constant tensor:
#      x y z
#    x 1.888830 -0.017870 -0.019130 
#    y -0.017870 1.852260 0.028430 
#    z -0.019130 0.028430 1.829690 
# 
# From -- ./inp_files/305712.got.cif
#   From: 2010.05.17/outbox.cif.g08.bks.cpg/sg2_153_cif.got.tgz:305712.got - 2010.06.03 11:33:40.
