data_PCOD9076016
_publ_section_title
;
Structure prediction by ZEFSAII (Michael W. Deem and Ramdas Pophale) SiO2 
 PCOD9076016
Probable space group: P -1
;
_chemical_formula_sum "Si O2"
_cell_formula_units_Z 16
_cell_length_a 8.606125
_cell_length_b 14.013497
_cell_length_c 9.182541
_cell_angle_alpha 57.750430
_cell_angle_beta 63.481386
_cell_angle_gamma 47.295492
_cell_volume 681.859700
_symmetry_space_group_name_H-M "P -1"
_symmetry_group_IT_number 2
_symmetry_cell_setting 'triclinic'
loop_
_space_group_symop_operation_xyz
x,y,z
-x,-y,-z
loop_
_atom_site_type_symbol
_atom_site_label
_atom_site_fract_x
_atom_site_fract_y
_atom_site_fract_z
Si Si1 0.341646 0.808604 0.474496
Si Si2 0.186164 0.512841 0.679073
Si Si3 0.271156 0.062107 0.118047
Si Si4 0.169232 0.346939 0.615616
Si Si5 0.971841 0.854335 0.140955
Si Si6 0.246918 0.193108 0.313743
Si Si7 0.642855 0.355223 0.677632
Si Si8 0.721802 0.059066 0.325154
O O1 0.591465 0.721400 0.480337
O O2 0.310624 0.723965 0.434301
O O3 0.230851 0.863671 0.634207
O O4 0.288725 0.939450 0.298239
O O5 0.170413 0.386590 0.750984
O O6 0.393515 0.446907 0.748029
O O7 0.277818 0.549338 0.471493
O O8 0.957816 0.652168 0.693718
O O9 0.236259 0.169184 0.167410
O O10 0.098426 0.115024 0.020755
O O11 0.500000 0.000000 0.000000
O O12 0.119789 0.235596 0.702389
O O13 0.000000 0.500000 0.500000
O O14 0.216825 0.753287 0.167624
O O15 0.861904 0.990180 0.177610
O O16 0.476348 0.156143 0.294479
O O17 0.239223 0.075017 0.497000
#
# Coordination Sequence:
#
# PCOD9076016 Si02
#       8
#     2   2   2   2   2   2   2   2
#     4  10  22  36  58  87 117 155 189 235 292 352
#     4  10  20  37  57  84 117 153 191 244 282 337
#     4  11  21  38  60  86 119 151 188 242 296 345
#     4  11  18  32  59  86 110 146 200 238 285 327
#     4  12  21  37  61  88 118 153 190 239 293 345
#     4  10  18  35  59  87 113 146 191 249 284 328
#     4  10  22  37  57  84 122 154 192 230 292 343
#     4  10  18  32  58  89 114 139 197 251 284 325
#
# _framework density 23.465236999999998
#
# number of rings (size 3 to 8) (size 9 to 14) (size 15 to 20)
#    0.000    1.500    5.000    2.250    0.000    1.000 
#    0.000    1.250    0.000    0.000    0.000    0.000 
#    0.000    0.000    0.000    0.000    0.000    0.000 
#
# Total GULP energy -89355.951304 kJ/mol
# GULP energy per Si atom -5584.746957 kJ/mol
# Density = 2.341183 g / cm^3
# Si number density = 23.465237 Si / 1000 Ang^3
#
#
#
# Elastic Constant Matrix: (Units=GPa)
#
#
# Indices 1 2 3 4 5 6 
#
# 1 114.5192 57.0218 34.4402 -1.6724 31.2386 -15.2446
# 2 57.0218 135.8033 39.2144 13.9058 21.9232 -19.7965
# 3 34.4402 39.2144 90.1849 8.3586 37.0075 -9.5666
# 4 -1.6724 13.9058 8.3586 27.6839 0.0698 5.3425
# 5 31.2386 21.9232 37.0075 0.0698 38.7936 -5.1235
# 6 -15.2446 -19.7965 -9.5666 5.3425 -5.1235 59.7256
#
#
#
# Elastic Compliance Matrix: (Units=1/GPa)
#
#
# Indices 1 2 3 4 5 6 
#
# 1 0.013322 -0.004438 0.000004 0.002864 -0.008100 0.000979
# 2 -0.004438 0.010819 -0.002174 -0.005546 -0.000115 0.002591
# 3 0.000004 -0.002174 0.019841 -0.005128 -0.017506 0.001416
# 4 0.002864 -0.005546 -0.005128 0.041625 0.004954 -0.005227
# 5 -0.008100 -0.000115 -0.017506 0.004954 0.048903 -0.001158
# 6 0.000979 0.002591 0.001416 -0.005227 -0.001158 0.018447
#
#
# Mechanical properties :
#
#
# Convention : Reuss Voigt Hill
#
# Bulk Modulus (GPa) = 32.50181 66.87335 49.68758
# Shear Modulus (GPa) = 28.34017 39.22936 33.78477
#
# Velocity S-wave (km/s) = 3.47904 4.09321 3.79856
# Velocity P-wave (km/s) = 5.47900 7.13442 6.36079
#
# Compressibility (1/GPa) = 0.03076752
#
# Stress axis : x y z
#
# Youngs Moduli (GPa) = 75.06218 92.43142 50.40067
#
# Poissons Ratio (x) = 0.41022 -0.00022
# Poissons Ratio (y) = 0.33313 0.10955
# Poissons Ratio (z) = -0.00032 0.20090
#
# Static dielectric constant tensor:
#      x y z
#    x 1.991280 0.028770 0.029670 
#    y 0.028770 1.907390 0.019960 
#    z 0.029670 0.019960 1.923800 
# 
# From -- ./inp_files/200738.got.cif
#   From: 2010.05.17/outbox.cif.g08.bks.cpg/sg2_101_cif.got.tgz:200738.got - 2010.06.03 11:33:40.
