data_PCOD9076448
_publ_section_title
;
Structure prediction by ZEFSAII (Michael W. Deem and Ramdas Pophale) SiO2 
 PCOD9076448
Probable space group: P -1
;
_chemical_formula_sum "Si O2"
_cell_formula_units_Z 14
_cell_length_a 18.216175
_cell_length_b 18.094382
_cell_length_c 8.973342
_cell_angle_alpha 41.932031
_cell_angle_beta 149.681143
_cell_angle_gamma 149.219234
_cell_volume 764.062554
_symmetry_space_group_name_H-M "P -1"
_symmetry_group_IT_number 2
_symmetry_cell_setting 'triclinic'
loop_
_space_group_symop_operation_xyz
x,y,z
-x,-y,-z
loop_
_atom_site_type_symbol
_atom_site_label
_atom_site_fract_x
_atom_site_fract_y
_atom_site_fract_z
Si Si1 0.580176 0.915627 0.237054
Si Si2 0.954635 0.816423 0.813388
Si Si3 0.695493 0.881133 0.178949
Si Si4 0.824800 0.096277 0.630928
Si Si5 0.522833 0.127534 0.432677
Si Si6 0.168990 0.679924 0.877115
Si Si7 0.950548 0.347481 0.962263
O O1 0.620728 0.913436 0.139429
O O2 0.783773 0.006608 0.541637
O O3 0.389316 0.754377 0.184673
O O4 0.500000 0.000000 0.000000
O O5 0.768907 0.799082 0.486569
O O6 0.127815 0.967151 0.811776
O O7 0.013667 0.839052 0.057582
O O8 0.949636 0.698246 0.893298
O O9 0.539185 0.806502 0.887891
O O10 0.832895 0.227160 0.393317
O O11 0.630488 0.962894 0.571108
O O12 0.735281 0.246921 0.678073
O O13 0.500000 0.000000 0.500000
O O14 0.055555 0.515621 0.878988
O O15 0.073655 0.683204 0.855623
#
# Coordination Sequence:
#
# PCOD9076448 Si02
#       7
#     2   2   2   2   2   2   2
#     4  10  18  33  56  82 107 140 181 230 260 318
#     4  10  21  36  54  85 112 146 175 227 274 328
#     4  10  21  35  56  83 113 143 182 219 281 317
#     4  10  19  32  58  83 110 136 189 225 270 313
#     4  11  18  34  59  85 101 145 186 227 259 329
#     4  10  22  34  57  86 108 144 179 236 271 313
#     4  11  21  37  58  81 114 140 187 223 278 320
#
# _framework density 18.323107
#
# number of rings (size 3 to 8) (size 9 to 14) (size 15 to 20)
#    0.000    1.714    4.286    3.429    0.000    1.143 
#    0.000    2.143    0.000    1.714    0.000    0.000 
#    0.000    0.000    0.000    0.000    0.000    0.000 
#
# Total GULP energy -77935.706113 kJ/mol
# GULP energy per Si atom -5566.836151 kJ/mol
# Density = 1.828140 g / cm^3
# Si number density = 18.323107 Si / 1000 Ang^3
#
#
#
# Elastic Constant Matrix: (Units=GPa)
#
#
# Indices 1 2 3 4 5 6 
#
# 1 60.0576 16.9800 41.9965 -6.3378 -13.7722 -5.7482
# 2 16.9800 94.5630 49.4389 6.0982 -13.1792 -17.7517
# 3 41.9965 49.4389 125.5657 -6.1712 -12.3451 -11.9948
# 4 -6.3378 6.0982 -6.1712 12.0653 3.1131 -5.7727
# 5 -13.7722 -13.1792 -12.3451 3.1131 22.8678 0.5851
# 6 -5.7482 -17.7517 -11.9948 -5.7727 0.5851 20.5173
#
#
#
# Elastic Compliance Matrix: (Units=1/GPa)
#
#
# Indices 1 2 3 4 5 6 
#
# 1 0.025085 0.001061 -0.006677 0.009552 0.010650 0.006426
# 2 0.001061 0.016719 -0.005735 -0.008760 0.008148 0.008713
# 3 -0.006677 -0.005735 0.012985 0.007849 -0.001462 0.003009
# 4 0.009552 -0.008760 0.007849 0.114769 -0.011509 0.032306
# 5 0.010650 0.008148 -0.001462 -0.011509 0.055505 0.004358
# 6 0.006426 0.008713 0.003009 0.032306 0.004358 0.068802
#
#
# Mechanical properties :
#
#
# Convention : Reuss Voigt Hill
#
# Bulk Modulus (GPa) = 31.16542 55.22412 43.19477
# Shear Modulus (GPa) = 15.27824 22.54146 18.90985
#
# Velocity S-wave (km/s) = 2.89073 3.51125 3.21600
# Velocity P-wave (km/s) = 5.30919 6.82957 6.11680
#
# Compressibility (1/GPa) = 0.03208684
#
# Stress axis : x y z
#
# Youngs Moduli (GPa) = 39.86409 59.81324 77.01425
#
# Poissons Ratio (x) = -0.06348 0.51426
# Poissons Ratio (y) = -0.04231 0.44166
# Poissons Ratio (z) = 0.26619 0.34301
#
# Static dielectric constant tensor:
#      x y z
#    x 1.727380 -0.002760 -0.060340 
#    y -0.002760 1.632490 0.019630 
#    z -0.060340 0.019630 1.722290 
# 
# From -- ./inp_files/223799.got.cif
#   From: 2010.05.17/outbox.cif.g08.bks.cpg/sg2_112_cif.got.tgz:223799.got - 2010.06.03 11:33:40.
