data_PCOD9076979
_publ_section_title
;
Structure prediction by ZEFSAII (Michael W. Deem and Ramdas Pophale) SiO2 
 PCOD9076979
Probable space group: P -1
;
_chemical_formula_sum "Si O2"
_cell_formula_units_Z 16
_cell_length_a 12.940527
_cell_length_b 13.865720
_cell_length_c 16.002799
_cell_angle_alpha 127.427124
_cell_angle_beta 24.875090
_cell_angle_gamma 114.705601
_cell_volume 879.342789
_symmetry_space_group_name_H-M "P -1"
_symmetry_group_IT_number 2
_symmetry_cell_setting 'triclinic'
loop_
_space_group_symop_operation_xyz
x,y,z
-x,-y,-z
loop_
_atom_site_type_symbol
_atom_site_label
_atom_site_fract_x
_atom_site_fract_y
_atom_site_fract_z
Si Si1 0.434996 0.951962 0.113895
Si Si2 0.040896 0.668137 0.890745
Si Si3 0.514406 0.142996 0.560547
Si Si4 0.115385 0.032350 0.105700
Si Si5 0.044397 0.805161 0.316388
Si Si6 0.195169 0.760082 0.995633
Si Si7 0.764380 0.636168 0.457495
Si Si8 0.585341 0.192652 0.350026
O O1 0.296675 0.846719 0.160841
O O2 0.214924 0.075751 0.391427
O O3 0.500000 0.000000 0.000000
O O4 0.708431 0.905780 0.941318
O O5 0.119484 0.678428 0.936061
O O6 0.139541 0.518110 0.710976
O O7 0.193235 0.745575 0.771761
O O8 0.725559 0.750696 0.155891
O O9 0.465164 0.189669 0.525675
O O10 0.500000 0.000000 0.500000
O O11 0.810352 0.124327 0.360317
O O12 0.123083 0.906544 0.088514
O O13 0.269075 0.957032 0.870123
O O14 0.010099 0.679211 0.316726
O O15 0.046644 0.780006 0.202302
O O16 0.518321 0.689459 0.731534
O O17 0.613596 0.716950 0.527327
#
# Coordination Sequence:
#
# PCOD9076979 Si02
#       8
#     2   2   2   2   2   2   2   2
#     4  11  21  36  52  84 114 143 186 237 289 324
#     4  10  22  35  54  83 117 153 186 221 275 342
#     4  12  22  34  54  82 117 153 189 216 269 350
#     4  10  20  35  52  77 118 144 174 229 278 331
#     4  11  20  32  59  81 107 145 183 233 288 325
#     4  10  18  34  53  82 115 144 175 230 278 333
#     4  10  20  36  55  84 115 147 186 234 276 328
#     4  10  20  35  54  80 115 151 174 229 281 328
#
# _framework density 18.195405999999998
#
# number of rings (size 3 to 8) (size 9 to 14) (size 15 to 20)
#    0.000    1.750    6.250    2.625    0.000    3.000 
#    0.000    0.000    0.000    0.750    0.000    4.375 
#    0.000    0.000    0.000    0.000    0.000    0.000 
#
# Total GULP energy -89160.766052 kJ/mol
# GULP energy per Si atom -5572.547878 kJ/mol
# Density = 1.815399 g / cm^3
# Si number density = 18.195406 Si / 1000 Ang^3
#
#
#
# Elastic Constant Matrix: (Units=GPa)
#
#
# Indices 1 2 3 4 5 6 
#
# 1 34.6531 30.0564 27.0706 -8.9832 -3.6168 13.3174
# 2 30.0564 49.3144 40.8125 -6.3189 -0.7441 15.3673
# 3 27.0706 40.8125 100.9963 -11.2408 0.7418 -3.0703
# 4 -8.9832 -6.3189 -11.2408 28.4808 1.5355 -2.5345
# 5 -3.6168 -0.7441 0.7418 1.5355 34.5060 -10.1317
# 6 13.3174 15.3673 -3.0703 -2.5345 -10.1317 22.9683
#
#
#
# Elastic Compliance Matrix: (Units=1/GPa)
#
#
# Indices 1 2 3 4 5 6 
#
# 1 0.070494 -0.030378 -0.005964 0.011345 0.000525 -0.019862
# 2 -0.030378 0.064525 -0.019468 -0.005346 -0.011003 -0.033604
# 3 -0.005964 -0.019468 0.020383 0.003519 0.004726 0.021681
# 4 0.011345 -0.005346 0.003519 0.039054 -0.000250 0.001669
# 5 0.000525 -0.011003 0.004726 -0.000250 0.035563 0.023349
# 6 -0.019862 -0.033604 0.021681 0.001669 0.023349 0.090920
#
#
# Mechanical properties :
#
#
# Convention : Reuss Voigt Hill
#
# Bulk Modulus (GPa) = 22.84052 42.31588 32.57820
# Shear Modulus (GPa) = 11.18182 22.99263 17.08723
#
# Velocity S-wave (km/s) = 2.48168 3.55864 3.06779
# Velocity P-wave (km/s) = 4.55980 6.33972 5.52195
#
# Compressibility (1/GPa) = 0.04378184
#
# Stress axis : x y z
#
# Youngs Moduli (GPa) = 14.18557 15.49784 49.06053
#
# Poissons Ratio (x) = 0.47080 0.29260
# Poissons Ratio (y) = 0.43093 0.95511
# Poissons Ratio (z) = 0.08460 0.30171
#
# Static dielectric constant tensor:
#      x y z
#    x 1.673260 0.031490 -0.001430 
#    y 0.031490 1.636410 -0.044610 
#    z -0.001430 -0.044610 1.665690 
# 
# From -- ./inp_files/569877.got.cif
#   From: 2010.05.17/outbox.cif.g08.bks.cpg/sg2_285_cif.got.tgz:569877.got - 2010.06.03 11:33:40.
