data_PCOD9076141
_publ_section_title
;
Structure prediction by ZEFSAII (Michael W. Deem and Ramdas Pophale) SiO2 
 PCOD9076141
Probable space group: P -1
;
_chemical_formula_sum "Si O2"
_cell_formula_units_Z 13
_cell_length_a 19.986136
_cell_length_b 16.399157
_cell_length_c 14.262167
_cell_angle_alpha 152.336390
_cell_angle_beta 19.182757
_cell_angle_gamma 158.382275
_cell_volume 564.737069
_symmetry_space_group_name_H-M "P -1"
_symmetry_group_IT_number 2
_symmetry_cell_setting 'triclinic'
loop_
_space_group_symop_operation_xyz
x,y,z
-x,-y,-z
loop_
_atom_site_type_symbol
_atom_site_label
_atom_site_fract_x
_atom_site_fract_y
_atom_site_fract_z
Si Si1 0.630389 0.357700 0.357345
Si Si2 0.283298 0.082716 0.691773
Si Si3 0.500000 0.000000 0.000000
Si Si4 0.999879 0.721627 0.115394
Si Si5 0.408470 0.650650 0.266292
Si Si6 0.164011 0.560911 0.127943
Si Si7 0.492715 0.815467 0.111993
O O1 0.407387 0.268514 0.636296
O O2 0.767577 0.595211 0.367896
O O3 0.841366 0.368678 0.155116
O O4 0.547835 0.176216 0.200851
O O5 0.436418 0.167042 0.672658
O O6 0.327281 0.908702 0.420442
O O7 0.000000 0.000000 0.000000
O O8 0.693153 0.215086 0.894663
O O9 0.891784 0.631802 0.063594
O O10 0.212068 0.985606 0.104095
O O11 0.475367 0.745178 0.169618
O O12 0.109690 0.519566 0.552099
O O13 0.500000 0.500000 0.000000
O O14 0.350804 0.619372 0.026139
#
# Coordination Sequence:
#
# PCOD9076141 Si02
#       7
#     2   2   1   2   2   2   2
#     4   9  17  34  59  96 126 161 212 255 309 382
#     4  11  22  40  65  95 131 170 205 257 320 382
#     4  10  18  32  64  96 124 162 212 254 316 380
#     4   9  18  34  61  95 118 162 208 259 311 378
#     4  12  26  41  61  93 130 172 218 266 313 374
#     4  11  20  36  65  94 122 163 212 259 314 378
#     4  11  22  42  64  93 129 169 213 263 316 374
#
# _framework density 23.019562000000001
#
# number of rings (size 3 to 8) (size 9 to 14) (size 15 to 20)
#    0.000    1.538    6.154    1.846    0.000    0.000 
#    0.000    0.000    0.000    6.462    0.000    0.000 
#    0.000    0.000    0.000    0.000    0.000    0.000 
#
# Total GULP energy -72426.255292 kJ/mol
# GULP energy per Si atom -5571.250407 kJ/mol
# Density = 2.296717 g / cm^3
# Si number density = 23.019562 Si / 1000 Ang^3
#
#
#
# Elastic Constant Matrix: (Units=GPa)
#
#
# Indices 1 2 3 4 5 6 
#
# 1 170.5806 74.5693 60.0260 -32.2732 35.0634 9.1419
# 2 74.5693 69.7836 46.4696 -33.4436 -16.8739 11.2857
# 3 60.0260 46.4696 104.6409 -33.9867 17.1915 -13.1783
# 4 -32.2732 -33.4436 -33.9867 37.8356 -20.1711 6.1717
# 5 35.0634 -16.8739 17.1915 -20.1711 16.8358 -5.8114
# 6 9.1419 11.2857 -13.1783 6.1717 -5.8114 53.5181
#
#
#
# Elastic Compliance Matrix: (Units=1/GPa)
#
#
# Indices 1 2 3 4 5 6 
#
# 1 0.005348 0.004724 -0.003480 0.011150 0.009464 -0.003025
# 2 0.004724 -0.002089 -0.002083 -0.013737 -0.027032 -0.002231
# 3 -0.003480 -0.002083 0.015859 0.010070 0.002425 0.004041
# 4 0.011150 -0.013737 0.010070 0.021074 -0.022508 -0.001403
# 5 0.009464 -0.027032 0.002425 -0.022508 -0.014897 0.005659
# 6 -0.003025 -0.002231 0.004041 -0.001403 0.005659 0.021444
#
#
# Mechanical properties :
#
#
# Convention : Reuss Voigt Hill
#
# Bulk Modulus (GPa) = 57.34290 78.57051 67.95671
# Shear Modulus (GPa) = 92.19914 32.56727 62.38321
#
# Velocity S-wave (km/s) = 6.33557 3.76542 5.21142
# Velocity P-wave (km/s) = 8.85911 7.28771 8.11155
#
# Compressibility (1/GPa) = 0.01743895
#
# Stress axis : x y z
#
# Youngs Moduli (GPa) = 186.97520 -478.62523 63.05638
#
# Poissons Ratio (x) = 2.26082 0.21943
# Poissons Ratio (y) = -0.88319 0.13135
# Poissons Ratio (z) = 0.65066 -0.99702
#
# Static dielectric constant tensor:
#      x y z
#    x 1.870470 0.030500 0.029450 
#    y 0.030500 1.958300 0.061260 
#    z 0.029450 0.061260 1.939450 
# 
# From -- ./inp_files/198594.got.cif
#   From: 2010.05.17/outbox.cif.g08.bks.cpg/sg2_100_cif.got.tgz:198594.got - 2010.06.03 11:33:40.
