data_PCOD9076212
_publ_section_title
;
Structure prediction by ZEFSAII (Michael W. Deem and Ramdas Pophale) SiO2 
 PCOD9076212
Probable space group: P -1
;
_chemical_formula_sum "Si O2"
_cell_formula_units_Z 16
_cell_length_a 20.822544
_cell_length_b 17.816186
_cell_length_c 11.434133
_cell_angle_alpha 157.010102
_cell_angle_beta 28.842712
_cell_angle_gamma 157.014730
_cell_volume 635.575049
_symmetry_space_group_name_H-M "P -1"
_symmetry_group_IT_number 2
_symmetry_cell_setting 'triclinic'
loop_
_space_group_symop_operation_xyz
x,y,z
-x,-y,-z
loop_
_atom_site_type_symbol
_atom_site_label
_atom_site_fract_x
_atom_site_fract_y
_atom_site_fract_z
Si Si1 0.414495 0.107341 0.390291
Si Si2 0.129046 0.997094 0.871055
Si Si3 0.887978 0.938675 0.424997
Si Si4 0.219907 0.020736 0.095410
Si Si5 0.890336 0.489198 0.493717
Si Si6 0.554991 0.517491 0.303037
Si Si7 0.891536 0.305148 0.793316
Si Si8 0.651960 0.493425 0.721220
O O1 0.446478 0.297237 0.513072
O O2 0.585006 0.261860 0.415862
O O3 0.275340 0.044163 0.620774
O O4 0.309184 0.838941 0.115414
O O5 0.017344 0.724873 0.708270
O O6 0.216968 0.237510 0.153346
O O7 0.000000 0.000000 0.000000
O O8 0.753979 0.653625 0.197356
O O9 0.067862 0.022735 0.298141
O O10 0.809467 0.992489 0.735627
O O11 0.894177 0.087193 0.519314
O O12 0.411757 0.252565 0.101400
O O13 0.184869 0.783811 0.755002
O O14 0.734801 0.483384 0.691530
O O15 0.005192 0.564559 0.301798
O O16 0.500000 0.500000 0.500000
O O17 0.000000 0.500000 0.000000
O O18 0.500000 0.500000 0.000000
#
# Coordination Sequence:
#
# PCOD9076212 Si02
#       8
#     2   2   2   2   2   2   2   2
#     4   9  18  32  55  84 108 147 192 226 293 342
#     4   8  16  33  57  81 105 139 182 250 295 332
#     4   9  19  35  52  73 114 161 184 223 274 336
#     4  10  19  34  53  77 114 154 192 219 279 345
#     4  10  19  32  56  87 106 145 192 234 294 344
#     4   9  19  35  52  77 115 158 190 221 268 348
#     4  10  18  33  52  81 116 141 187 240 271 341
#     4   9  18  35  55  82 109 138 186 252 295 332
#
# _framework density 25.174053000000001
#
# number of rings (size 3 to 8) (size 9 to 14) (size 15 to 20)
#    0.000    2.750    1.250    0.000    1.750    0.000 
#    6.750    1.875    0.000    7.500    0.000    0.000 
#    0.000    0.000    0.000    0.000    0.000    0.000 
#
# Total GULP energy -89159.466855 kJ/mol
# GULP energy per Si atom -5572.466678 kJ/mol
# Density = 2.511676 g / cm^3
# Si number density = 25.174053 Si / 1000 Ang^3
#
#
#
# Elastic Constant Matrix: (Units=GPa)
#
#
# Indices 1 2 3 4 5 6 
#
# 1 80.3308 41.6653 5.9733 12.2215 19.8996 19.3169
# 2 41.6653 128.0161 65.1892 53.9040 31.4307 15.2395
# 3 5.9733 65.1892 85.1517 32.0301 12.2725 25.0769
# 4 12.2215 53.9040 32.0301 47.5112 7.2486 26.0974
# 5 19.8996 31.4307 12.2725 7.2486 20.3850 18.6853
# 6 19.3169 15.2395 25.0769 26.0974 18.6853 41.5604
#
#
#
# Elastic Compliance Matrix: (Units=1/GPa)
#
#
# Indices 1 2 3 4 5 6 
#
# 1 0.016547 0.003505 0.001102 -0.009406 -0.026285 0.008083
# 2 0.003505 -0.028194 0.011549 0.044213 0.070127 -0.057551
# 3 0.001102 0.011549 0.012173 -0.028043 -0.036225 0.021804
# 4 -0.009406 0.044213 -0.028043 -0.029186 -0.090463 0.064078
# 5 -0.026285 0.070127 -0.036225 -0.090463 -0.066621 0.095118
# 6 0.008083 -0.057551 0.021804 0.064078 0.095118 -0.054750
#
#
# Mechanical properties :
#
#
# Convention : Reuss Voigt Hill
#
# Bulk Modulus (GPa) = 30.45198 57.68378 44.06788
# Shear Modulus (GPa) = -29.17230 33.93606 2.38188
#
# Velocity S-wave (km/s) = -3.40784 3.67557 0.97377
# Velocity P-wave (km/s) = 1.83349 6.40132 4.33677
#
# Compressibility (1/GPa) = 0.03283858
#
# Stress axis : x y z
#
# Youngs Moduli (GPa) = 60.43256 -35.46889 82.14752
#
# Poissons Ratio (x) = 0.12432 -0.09051
# Poissons Ratio (y) = -0.21182 -0.94872
# Poissons Ratio (z) = -0.06659 0.40963
#
# Static dielectric constant tensor:
#      x y z
#    x 2.094700 0.022150 0.125440 
#    y 0.022150 2.074400 -0.006650 
#    z 0.125440 -0.006650 2.140700 
# 
# From -- ./inp_files/304641.got.cif
#   From: 2010.05.17/outbox.cif.g08.bks.cpg/sg2_153_cif.got.tgz:304641.got - 2010.06.03 11:33:40.
