data_PCOD9076049
_publ_section_title
;
Structure prediction by ZEFSAII (Michael W. Deem and Ramdas Pophale) SiO2 
 PCOD9076049
Probable space group: P -1
;
_chemical_formula_sum "Si O2"
_cell_formula_units_Z 16
_cell_length_a 18.556709
_cell_length_b 21.796774
_cell_length_c 10.335614
_cell_angle_alpha 28.768367
_cell_angle_beta 151.107464
_cell_angle_gamma 153.877668
_cell_volume 804.897321
_symmetry_space_group_name_H-M "P -1"
_symmetry_group_IT_number 2
_symmetry_cell_setting 'triclinic'
loop_
_space_group_symop_operation_xyz
x,y,z
-x,-y,-z
loop_
_atom_site_type_symbol
_atom_site_label
_atom_site_fract_x
_atom_site_fract_y
_atom_site_fract_z
Si Si1 0.440667 0.785396 0.222213
Si Si2 0.727042 0.947501 0.144478
Si Si3 0.614640 0.881822 0.816357
Si Si4 0.683109 0.006047 0.423862
Si Si5 0.911612 0.823560 0.305579
Si Si6 0.922941 0.771069 0.710775
Si Si7 0.614040 0.525602 0.260277
Si Si8 0.406272 0.527231 0.180292
O O1 0.573481 0.847101 0.193475
O O2 0.347343 0.605539 0.426023
O O3 0.562096 0.871842 0.379349
O O4 0.314032 0.845848 0.889772
O O5 0.818789 0.854041 0.428494
O O6 0.656083 0.967022 0.860288
O O7 0.877372 0.110995 0.140312
O O8 0.591236 0.951706 0.520753
O O9 0.792686 0.886184 0.047942
O O10 0.463397 0.702308 0.939505
O O11 0.886491 0.052814 0.649448
O O12 0.924087 0.752775 0.591974
O O13 0.795317 0.693825 0.255072
O O14 0.804264 0.603357 0.897491
O O15 0.489120 0.505212 0.222636
O O16 0.500000 0.500000 0.000000
O O17 0.500000 0.500000 0.500000
#
# Coordination Sequence:
#
# PCOD9076049 Si02
#       8
#     2   2   2   2   2   2   2   2
#     4  11  22  39  58  80 117 158 192 222 283 353
#     4  10  19  33  57  86 109 144 193 235 279 335
#     4  10  21  35  59  86 113 142 190 247 280 326
#     4  11  24  39  55  81 120 160 185 229 287 341
#     4  10  20  37  59  85 115 148 189 237 289 329
#     4  10  18  32  59  87 109 144 188 240 283 332
#     4  11  22  35  59  91 113 143 188 242 283 334
#     4  11  17  34  55  84 111 140 181 232 294 326
#
# _framework density 19.878312000000001
#
# number of rings (size 3 to 8) (size 9 to 14) (size 15 to 20)
#    0.000    1.500    6.250    1.875    0.000    2.000 
#    0.000    0.000    0.000    0.750    0.000    0.000 
#    0.000    0.000    0.000    0.000    0.000    0.000 
#
# Total GULP energy -89312.953504 kJ/mol
# GULP energy per Si atom -5582.059594 kJ/mol
# Density = 1.983307 g / cm^3
# Si number density = 19.878312 Si / 1000 Ang^3
#
#
#
# Elastic Constant Matrix: (Units=GPa)
#
#
# Indices 1 2 3 4 5 6 
#
# 1 64.2181 18.7164 16.7204 10.3334 -23.6290 -8.9306
# 2 18.7164 52.7877 27.0473 10.0059 -10.9481 -2.5126
# 3 16.7204 27.0473 48.1775 5.0337 -20.7859 -9.9682
# 4 10.3334 10.0059 5.0337 16.4897 -6.1378 -10.9039
# 5 -23.6290 -10.9481 -20.7859 -6.1378 35.5283 4.1431
# 6 -8.9306 -2.5126 -9.9682 -10.9039 4.1431 34.5549
#
#
#
# Elastic Compliance Matrix: (Units=1/GPa)
#
#
# Indices 1 2 3 4 5 6 
#
# 1 0.022715 -0.005247 0.001990 -0.004668 0.013502 0.002971
# 2 -0.005247 0.032643 -0.019595 -0.019837 -0.007151 -0.010037
# 3 0.001990 -0.019595 0.040984 0.014239 0.020209 0.012982
# 4 -0.004668 -0.019837 0.014239 0.095759 0.012132 0.030221
# 5 0.013502 -0.007151 0.020209 0.012132 0.048041 0.006868
# 6 0.002971 -0.010037 0.012982 0.030221 0.006868 0.041436
#
#
# Mechanical properties :
#
#
# Convention : Reuss Voigt Hill
#
# Bulk Modulus (GPa) = 19.74746 32.23907 25.99326
# Shear Modulus (GPa) = 14.52801 24.16119 19.34460
#
# Velocity S-wave (km/s) = 2.70635 3.49012 3.12292
# Velocity P-wave (km/s) = 4.44089 5.70041 5.10961
#
# Compressibility (1/GPa) = 0.05063943
#
# Stress axis : x y z
#
# Youngs Moduli (GPa) = 44.02284 30.63402 24.39964
#
# Poissons Ratio (x) = 0.16074 -0.04856
# Poissons Ratio (y) = 0.23100 0.47810
# Poissons Ratio (z) = -0.08761 0.60027
#
# Static dielectric constant tensor:
#      x y z
#    x 1.696850 -0.005480 -0.007340 
#    y -0.005480 1.697160 0.005140 
#    z -0.007340 0.005140 1.751750 
# 
# From -- ./inp_files/338048.got.cif
#   From: 2010.05.17/outbox.cif.g08.bks.cpg/sg2_170_cif.got.tgz:338048.got - 2010.06.03 11:33:40.
