data_PCOD9076762
_publ_section_title
;
Structure prediction by ZEFSAII (Michael W. Deem and Ramdas Pophale) SiO2 
 PCOD9076762
Probable space group: P -1
;
_chemical_formula_sum "Si O2"
_cell_formula_units_Z 16
_cell_length_a 12.204877
_cell_length_b 13.646940
_cell_length_c 9.716871
_cell_angle_alpha 128.686155
_cell_angle_beta 74.704315
_cell_angle_gamma 63.648630
_cell_volume 717.080383
_symmetry_space_group_name_H-M "P -1"
_symmetry_group_IT_number 2
_symmetry_cell_setting 'triclinic'
loop_
_space_group_symop_operation_xyz
x,y,z
-x,-y,-z
loop_
_atom_site_type_symbol
_atom_site_label
_atom_site_fract_x
_atom_site_fract_y
_atom_site_fract_z
Si Si1 0.017382 0.272424 0.369153
Si Si2 0.737593 0.744037 0.837069
Si Si3 0.406936 0.737279 0.176289
Si Si4 0.441415 0.399803 0.551201
Si Si5 0.338965 0.210590 0.421863
Si Si6 0.674547 0.414758 0.547322
Si Si7 0.874702 0.812541 0.440011
Si Si8 0.250618 0.623853 0.064892
O O1 0.858412 0.524961 0.673387
O O2 0.893303 0.263753 0.360881
O O3 0.150906 0.221933 0.168120
O O4 0.136268 0.141907 0.353591
O O5 0.723444 0.727073 0.663267
O O6 0.522787 0.954280 0.144776
O O7 0.252230 0.760606 0.252623
O O8 0.288614 0.968041 0.395708
O O9 0.548486 0.577296 0.860632
O O10 0.548337 0.610844 0.148108
O O11 0.413489 0.280849 0.495495
O O12 0.634506 0.302914 0.441452
O O13 0.405894 0.449053 0.444969
O O14 0.275818 0.616246 0.886530
O O15 0.169737 0.296163 0.639350
O O16 0.078332 0.685646 0.213196
#
# Coordination Sequence:
#
# PCOD9076762 Si02
#       8
#     2   2   2   2   2   2   2   2
#     4  10  18  33  59  92 113 152 201 252 292 341
#     4   9  19  33  57  87 124 149 199 253 295 340
#     4  10  21  40  66  89 117 154 211 246 289 350
#     4  10  22  37  59  86 126 162 187 242 316 350
#     4  10  20  35  57  88 119 159 196 247 294 358
#     4  10  19  38  64  86 118 159 198 246 297 356
#     4  11  22  35  66  92 112 158 210 247 285 356
#     4  10  22  41  61  87 124 162 191 249 298 356
#
# _framework density 22.312701000000001
#
# number of rings (size 3 to 8) (size 9 to 14) (size 15 to 20)
#    0.000    2.000    2.500    1.125    3.500    0.500 
#    0.000    2.500    0.000    0.000    0.000    0.000 
#    0.000    0.000    0.000    0.000    0.000    0.000 
#
# Total GULP energy -89292.215634 kJ/mol
# GULP energy per Si atom -5580.763477 kJ/mol
# Density = 2.226192 g / cm^3
# Si number density = 22.312701 Si / 1000 Ang^3
#
#
#
# Elastic Constant Matrix: (Units=GPa)
#
#
# Indices 1 2 3 4 5 6 
#
# 1 160.1491 17.0128 17.2666 -13.4888 -29.7722 37.4479
# 2 17.0128 63.0218 7.9495 -6.7054 -3.1074 10.2011
# 3 17.2666 7.9495 24.3007 -8.6536 -15.9022 3.2718
# 4 -13.4888 -6.7054 -8.6536 28.4979 5.5031 -4.4467
# 5 -29.7722 -3.1074 -15.9022 5.5031 26.3993 -10.0792
# 6 37.4479 10.2011 3.2718 -4.4467 -10.0792 36.1102
#
#
#
# Elastic Compliance Matrix: (Units=1/GPa)
#
#
# Indices 1 2 3 4 5 6 
#
# 1 0.009618 -0.000839 0.000003 0.001740 0.007557 -0.007414
# 2 -0.000839 0.017747 -0.007625 0.001806 -0.005663 -0.004811
# 3 0.000003 -0.007625 0.078203 0.014431 0.047009 0.009963
# 4 0.001740 0.001806 0.014431 0.040438 0.003309 0.002281
# 5 0.007557 -0.005663 0.047009 0.003309 0.077802 0.011628
# 6 -0.007414 -0.004811 0.009963 0.002281 0.011628 0.039364
#
#
# Mechanical properties :
#
#
# Convention : Reuss Voigt Hill
#
# Bulk Modulus (GPa) = 11.28061 36.88104 24.08083
# Shear Modulus (GPa) = 16.14768 31.88434 24.01601
#
# Velocity S-wave (km/s) = 2.69308 3.78428 3.28432
# Velocity P-wave (km/s) = 3.83887 5.97155 5.01978
#
# Compressibility (1/GPa) = 0.08864768
#
# Stress axis : x y z
#
# Youngs Moduli (GPa) = 103.97252 56.34600 12.78727
#
# Poissons Ratio (x) = 0.04727 -0.00004
# Poissons Ratio (y) = 0.08723 0.09750
# Poissons Ratio (z) = -0.00036 0.42962
#
# Static dielectric constant tensor:
#      x y z
#    x 1.889380 0.035640 -0.009520 
#    y 0.035640 1.798870 -0.016710 
#    z -0.009520 -0.016710 1.823970 
# 
# From -- ./inp_files/431774.got.cif
#   From: 2010.05.17/outbox.cif.g08.bks.cpg/sg2_216_cif.got.tgz:431774.got - 2010.06.03 11:33:40.
