data_PCOD9076202
_publ_section_title
;
Structure prediction by ZEFSAII (Michael W. Deem and Ramdas Pophale) SiO2 
 PCOD9076202
Probable space group: P -1
;
_chemical_formula_sum "Si O2"
_cell_formula_units_Z 14
_cell_length_a 13.814769
_cell_length_b 11.873013
_cell_length_c 7.341993
_cell_angle_alpha 142.034068
_cell_angle_beta 128.319216
_cell_angle_gamma 66.405691
_cell_volume 571.377027
_symmetry_space_group_name_H-M "P -1"
_symmetry_group_IT_number 2
_symmetry_cell_setting 'triclinic'
loop_
_space_group_symop_operation_xyz
x,y,z
-x,-y,-z
loop_
_atom_site_type_symbol
_atom_site_label
_atom_site_fract_x
_atom_site_fract_y
_atom_site_fract_z
Si Si1 0.616470 0.034571 0.045117
Si Si2 0.201094 0.640715 0.909920
Si Si3 0.197687 0.583015 0.218139
Si Si4 0.680966 0.048430 0.760156
Si Si5 0.080638 0.364224 0.121286
Si Si6 0.944852 0.005707 0.146480
Si Si7 0.793057 0.946119 0.422857
O O1 0.686157 0.249351 0.403931
O O2 0.588379 0.986170 0.739603
O O3 0.500000 0.000000 0.000000
O O4 0.713526 0.927323 0.123883
O O5 0.105187 0.529541 0.514465
O O6 0.166115 0.829410 0.198965
O O7 0.215376 0.517487 0.946877
O O8 0.321593 0.751173 0.080407
O O9 0.185762 0.440941 0.189828
O O10 0.059756 0.641524 0.128584
O O11 0.817340 0.082086 0.067344
O O12 0.702926 0.903027 0.440609
O O13 0.090521 0.184111 0.024235
O O14 0.073248 0.115204 0.525585
O O15 0.000000 0.000000 0.000000
#
# Coordination Sequence:
#
# PCOD9076202 Si02
#       7
#     2   2   2   2   2   2   2
#     4  11  20  35  53  75 107 141 182 220 247 299
#     4   9  17  31  53  73 109 133 167 209 263 313
#     4  10  19  31  48  82 101 131 182 213 252 309
#     4   9  19  34  52  78 108 137 172 211 268 313
#     4  11  18  31  54  74 114 133 159 223 262 317
#     4  10  18  33  52  79 117 136 161 213 269 330
#     4   8  18  34  48  81 108 130 175 213 255 317
#
# _framework density 24.502210000000002
#
# number of rings (size 3 to 8) (size 9 to 14) (size 15 to 20)
#    0.857    1.429    4.286    0.429    0.000    1.143 
#    0.000    1.429    0.000    0.857    0.000    8.000 
#    0.000    0.000    0.000    0.000    0.000    0.000 
#
# Total GULP energy -77958.873283 kJ/mol
# GULP energy per Si atom -5568.490949 kJ/mol
# Density = 2.444644 g / cm^3
# Si number density = 24.502210 Si / 1000 Ang^3
#
#
#
# Elastic Constant Matrix: (Units=GPa)
#
#
# Indices 1 2 3 4 5 6 
#
# 1 131.0667 56.6475 20.1155 18.4395 14.5970 61.2546
# 2 56.6475 105.5722 23.2240 0.3678 -5.4017 51.0069
# 3 20.1155 23.2240 72.1161 6.5825 9.7197 16.0487
# 4 18.4395 0.3678 6.5825 27.7785 10.9495 -4.1723
# 5 14.5970 -5.4017 9.7197 10.9495 26.5506 -1.2422
# 6 61.2546 51.0069 16.0487 -4.1723 -1.2422 53.9413
#
#
#
# Elastic Compliance Matrix: (Units=1/GPa)
#
#
# Indices 1 2 3 4 5 6 
#
# 1 0.025642 0.001019 0.002659 -0.019219 -0.008460 -0.032554
# 2 0.001019 0.018600 -0.002457 -0.005225 0.005423 -0.018294
# 3 0.002659 -0.002457 0.016525 -0.003929 -0.006675 -0.006070
# 4 -0.019219 -0.005225 -0.003929 0.059339 -0.012021 0.032248
# 5 -0.008460 0.005423 -0.006675 -0.012021 0.051134 0.006714
# 6 -0.032554 -0.018294 -0.006070 0.032248 0.006714 0.077260
#
#
# Mechanical properties :
#
#
# Convention : Reuss Voigt Hill
#
# Bulk Modulus (GPa) = 15.82057 56.52543 36.17300
# Shear Modulus (GPa) = 18.71759 35.57195 27.14477
#
# Velocity S-wave (km/s) = 2.76690 3.81436 3.33205
# Velocity P-wave (km/s) = 4.08393 6.52064 5.44046
#
# Compressibility (1/GPa) = 0.06320884
#
# Stress axis : x y z
#
# Youngs Moduli (GPa) = 38.99871 53.76300 60.51344
#
# Poissons Ratio (x) = -0.05478 -0.16089
# Poissons Ratio (y) = -0.03974 0.14868
# Poissons Ratio (z) = -0.10369 0.13209
#
# Static dielectric constant tensor:
#      x y z
#    x 2.125460 0.032550 -0.066500 
#    y 0.032550 2.060780 -0.057300 
#    z -0.066500 -0.057300 2.060550 
# 
# From -- ./inp_files/310593.got.cif
#   From: 2010.05.17/outbox.cif.g08.bks.cpg/sg2_156_cif.got.tgz:310593.got - 2010.06.03 11:33:40.
