data_PCOD9076054
_publ_section_title
;
Structure prediction by ZEFSAII (Michael W. Deem and Ramdas Pophale) SiO2 
 PCOD9076054
Probable space group: P -1
;
_chemical_formula_sum "Si O2"
_cell_formula_units_Z 16
_cell_length_a 10.637889
_cell_length_b 6.971976
_cell_length_c 9.696655
_cell_angle_alpha 98.462598
_cell_angle_beta 66.631110
_cell_angle_gamma 92.215288
_cell_volume 652.837259
_symmetry_space_group_name_H-M "P -1"
_symmetry_group_IT_number 2
_symmetry_cell_setting 'triclinic'
loop_
_space_group_symop_operation_xyz
x,y,z
-x,-y,-z
loop_
_atom_site_type_symbol
_atom_site_label
_atom_site_fract_x
_atom_site_fract_y
_atom_site_fract_z
Si Si1 0.776555 0.648813 0.121026
Si Si2 0.533014 0.723610 0.036899
Si Si3 0.732688 0.333150 0.714396
Si Si4 0.310268 0.203340 0.263523
Si Si5 0.792967 0.808140 0.404879
Si Si6 0.905507 0.395318 0.410377
Si Si7 0.091832 0.921888 0.203604
Si Si8 0.086139 0.734263 0.912873
O O1 0.678613 0.708428 0.046528
O O2 0.727450 0.787798 0.281729
O O3 0.787532 0.418902 0.128548
O O4 0.936637 0.679402 0.028598
O O5 0.406226 0.773658 0.196953
O O6 0.500000 0.500000 0.000000
O O7 0.556147 0.830278 0.892957
O O8 0.713296 0.563992 0.723302
O O9 0.803823 0.270313 0.534377
O O10 0.835386 0.276700 0.788038
O O11 0.306258 0.148088 0.419766
O O12 0.179754 0.091821 0.248793
O O13 0.837921 0.586017 0.393979
O O14 0.938770 0.910274 0.330493
O O15 0.938785 0.272370 0.242763
O O16 0.000000 0.500000 0.500000
O O17 0.110978 0.910977 0.028262
#
# Coordination Sequence:
#
# PCOD9076054 Si02
#       8
#     2   2   2   2   2   2   2   2
#     4   9  18  34  57  83 118 149 186 241 284 341
#     4  10  21  36  56  81 114 156 194 233 282 343
#     4  10  22  38  60  85 115 154 196 232 286 341
#     4  10  22  36  59  88 114 151 197 230 287 345
#     4   9  19  35  57  90 115 147 189 239 296 332
#     4  10  18  32  59  88 111 149 193 236 283 344
#     4  11  20  38  60  87 120 147 187 244 287 343
#     4   9  19  31  57  90 114 147 193 235 296 334
#
# _framework density 24.508403999999999
#
# number of rings (size 3 to 8) (size 9 to 14) (size 15 to 20)
#    0.000    2.250    1.250    2.625    5.250    0.500 
#    0.000   15.000    0.000    1.500    0.000    0.000 
#    0.000    0.000    0.000    0.000    0.000    0.000 
#
# Total GULP energy -89158.718633 kJ/mol
# GULP energy per Si atom -5572.419915 kJ/mol
# Density = 2.445262 g / cm^3
# Si number density = 24.508404 Si / 1000 Ang^3
#
#
#
# Elastic Constant Matrix: (Units=GPa)
#
#
# Indices 1 2 3 4 5 6 
#
# 1 17.3030 -5.9178 14.4876 6.1878 -6.7308 1.7495
# 2 -5.9178 84.8319 47.8824 -10.4304 -14.3867 6.5610
# 3 14.4876 47.8824 233.4209 7.6364 -12.7702 16.1564
# 4 6.1878 -10.4304 7.6364 41.0451 4.8024 -3.5976
# 5 -6.7308 -14.3867 -12.7702 4.8024 39.0451 0.1454
# 6 1.7495 6.5610 16.1564 -3.5976 0.1454 27.5555
#
#
#
# Elastic Compliance Matrix: (Units=1/GPa)
#
#
# Indices 1 2 3 4 5 6 
#
# 1 0.076361 0.010229 -0.005201 -0.010376 0.016529 -0.005676
# 2 0.010229 0.015975 -0.003496 0.002250 0.006237 -0.002142
# 3 -0.005201 -0.003496 0.005510 -0.001300 -0.000214 -0.002236
# 4 -0.010376 0.002250 -0.001300 0.027701 -0.004809 0.004527
# 5 0.016529 0.006237 -0.000214 -0.004809 0.031292 -0.003202
# 6 -0.005676 -0.002142 -0.002236 0.004527 -0.003202 0.039080
#
#
# Mechanical properties :
#
#
# Convention : Reuss Voigt Hill
#
# Bulk Modulus (GPa) = 9.90990 49.82891 29.86941
# Shear Modulus (GPa) = 22.07586 40.13604 31.10595
#
# Velocity S-wave (km/s) = 3.00450 4.05117 3.56644
# Velocity P-wave (km/s) = 4.01102 6.50063 5.40122
#
# Compressibility (1/GPa) = 0.10090915
#
# Stress axis : x y z
#
# Youngs Moduli (GPa) = 13.09572 62.59772 181.49915
#
# Poissons Ratio (x) = -0.64031 0.94400
# Poissons Ratio (y) = -0.13395 0.63452
# Poissons Ratio (z) = 0.06811 0.21884
#
# Static dielectric constant tensor:
#      x y z
#    x 1.988570 -0.043510 -0.077530 
#    y -0.043510 2.051120 0.060860 
#    z -0.077530 0.060860 2.103140 
# 
# From -- ./inp_files/244503.got.cif
#   From: 2010.05.17/outbox.cif.g08.bks.cpg/sg2_123_cif.got.tgz:244503.got - 2010.06.03 11:33:40.
