data_PCOD9076363
_publ_section_title
;
Structure prediction by ZEFSAII (Michael W. Deem and Ramdas Pophale) SiO2 
 PCOD9076363
Probable space group: P -1
;
_chemical_formula_sum "Si O2"
_cell_formula_units_Z 16
_cell_length_a 7.666466
_cell_length_b 15.181921
_cell_length_c 10.039180
_cell_angle_alpha 32.330138
_cell_angle_beta 107.626755
_cell_angle_gamma 99.541834
_cell_volume 586.178201
_symmetry_space_group_name_H-M "P -1"
_symmetry_group_IT_number 2
_symmetry_cell_setting 'triclinic'
loop_
_space_group_symop_operation_xyz
x,y,z
-x,-y,-z
loop_
_atom_site_type_symbol
_atom_site_label
_atom_site_fract_x
_atom_site_fract_y
_atom_site_fract_z
Si Si1 0.598553 0.925917 0.414473
Si Si2 0.155084 0.962308 0.469789
Si Si3 0.900501 0.920883 0.251444
Si Si4 0.797892 0.440894 0.021594
Si Si5 0.144116 0.563275 0.679790
Si Si6 0.356812 0.807203 0.315824
Si Si7 0.519041 0.750413 0.156261
Si Si8 0.783518 0.458992 0.697746
O O1 0.691086 0.937532 0.564072
O O2 0.759327 0.905690 0.362247
O O3 0.456358 0.811398 0.476119
O O4 0.474863 0.107626 0.128050
O O5 0.204605 0.758322 0.736654
O O6 0.058467 0.007629 0.248162
O O7 0.000000 0.000000 0.500000
O O8 0.999708 0.735666 0.466543
O O9 0.800661 0.035149 0.963743
O O10 0.733951 0.497859 0.082791
O O11 0.724557 0.507558 0.775867
O O12 0.000000 0.500000 0.000000
O O13 0.271730 0.638187 0.509935
O O14 0.005561 0.438757 0.767657
O O15 0.501248 0.814315 0.221457
O O16 0.689335 0.601293 0.393481
O O17 0.320701 0.694143 0.157564
#
# Coordination Sequence:
#
# PCOD9076363 Si02
#       8
#     2   2   2   2   2   2   2   2
#     4  10  18  33  55  82 107 136 179 225 265 314
#     4   9  17  31  55  82 105 134 183 230 262 309
#     4   9  18  33  54  78 107 139 182 214 264 322
#     4   9  18  34  55  78 103 141 183 223 260 320
#     4  10  20  34  54  79 108 143 174 212 277 325
#     4  11  21  33  53  81 116 139 168 223 275 326
#     4  10  20  33  56  79 103 139 184 223 265 306
#     4  10  19  35  57  76 101 141 187 225 252 318
#
# _framework density 27.295453999999999
#
# number of rings (size 3 to 8) (size 9 to 14) (size 15 to 20)
#    0.000    2.250    1.250    3.375    0.000    1.500 
#    0.000    3.125    5.500    0.000    0.000    0.000 
#    0.000    0.000    0.000    0.000    0.000    0.000 
#
# Total GULP energy -89391.242958 kJ/mol
# GULP energy per Si atom -5586.952685 kJ/mol
# Density = 2.723333 g / cm^3
# Si number density = 27.295454 Si / 1000 Ang^3
#
#
#
# Elastic Constant Matrix: (Units=GPa)
#
#
# Indices 1 2 3 4 5 6 
#
# 1 72.7708 38.4038 14.7622 12.7973 -11.7513 7.6760
# 2 38.4038 192.0114 33.7859 11.5687 3.3361 41.6142
# 3 14.7622 33.7859 59.7599 21.9254 7.0647 0.0587
# 4 12.7973 11.5687 21.9254 31.4948 0.3382 3.2741
# 5 -11.7513 3.3361 7.0647 0.3382 35.5220 1.0410
# 6 7.6760 41.6142 0.0587 3.2741 1.0410 34.7726
#
#
#
# Elastic Compliance Matrix: (Units=1/GPa)
#
#
# Indices 1 2 3 4 5 6 
#
# 1 0.017595 -0.003078 -0.001521 -0.005037 0.006458 0.000083
# 2 -0.003078 0.008731 -0.005056 0.002608 -0.000565 -0.009989
# 3 -0.001521 -0.005056 0.026837 -0.016992 -0.005442 0.008104
# 4 -0.005037 0.002608 -0.016992 0.045309 0.001221 -0.006283
# 5 0.006458 -0.000565 -0.005442 0.001221 0.031464 -0.001797
# 6 0.000083 -0.009989 0.008104 -0.006283 -0.001797 0.041327
#
#
# Mechanical properties :
#
#
# Convention : Reuss Voigt Hill
#
# Bulk Modulus (GPa) = 29.54032 55.38285 42.46158
# Shear Modulus (GPa) = 24.76981 36.19724 30.48353
#
# Velocity S-wave (km/s) = 3.01569 3.64555 3.34548
# Velocity P-wave (km/s) = 4.79289 6.16881 5.52386
#
# Compressibility (1/GPa) = 0.03385204
#
# Stress axis : x y z
#
# Youngs Moduli (GPa) = 56.83504 114.53432 37.26134
#
# Poissons Ratio (x) = 0.35255 0.05669
# Poissons Ratio (y) = 0.17495 0.18840
# Poissons Ratio (z) = 0.08647 0.57909
#
# Static dielectric constant tensor:
#      x y z
#    x 2.184310 0.010470 0.027940 
#    y 0.010470 2.142770 0.001460 
#    z 0.027940 0.001460 2.116830 
# 
# From -- ./inp_files/259116.got.cif
#   From: 2010.05.17/outbox.cif.g08.bks.cpg/sg2_130_cif.got.tgz:259116.got - 2010.06.03 11:33:40.
