data_PCOD9076809
_publ_section_title
;
Structure prediction by ZEFSAII (Michael W. Deem and Ramdas Pophale) SiO2 
 PCOD9076809
Probable space group: P -1
;
_chemical_formula_sum "Si O2"
_cell_formula_units_Z 14
_cell_length_a 11.886343
_cell_length_b 9.379152
_cell_length_c 12.176180
_cell_angle_alpha 40.436828
_cell_angle_beta 65.387224
_cell_angle_gamma 44.836171
_cell_volume 597.822761
_symmetry_space_group_name_H-M "P -1"
_symmetry_group_IT_number 2
_symmetry_cell_setting 'triclinic'
loop_
_space_group_symop_operation_xyz
x,y,z
-x,-y,-z
loop_
_atom_site_type_symbol
_atom_site_label
_atom_site_fract_x
_atom_site_fract_y
_atom_site_fract_z
Si Si1 0.177071 0.236569 0.250066
Si Si2 0.906994 0.743383 0.488004
Si Si3 0.412220 0.301470 0.058901
Si Si4 0.462311 0.389087 0.456367
Si Si5 0.461810 0.753452 0.721890
Si Si6 0.053449 0.831611 0.693745
Si Si7 0.391228 0.323043 0.746349
O O1 0.945037 0.960740 0.348640
O O2 0.230884 0.406905 0.079680
O O3 0.077988 0.208574 0.218747
O O4 0.351625 0.911941 0.404996
O O5 0.000000 0.500000 0.500000
O O6 0.925211 0.632477 0.670874
O O7 0.715238 0.948198 0.415119
O O8 0.474909 0.216893 0.209493
O O9 0.522749 0.013328 0.105929
O O10 0.433132 0.527826 0.885744
O O11 0.425998 0.354697 0.368586
O O12 0.342950 0.444931 0.567918
O O13 0.481906 0.629368 0.305086
O O14 0.237743 0.523511 0.772919
O O15 0.000000 0.000000 0.500000
#
# Coordination Sequence:
#
# PCOD9076809 Si02
#       7
#     2   2   2   2   2   2   2
#     4   9  19  37  55  86 114 149 191 233 287 336
#     4  10  21  36  62  86 112 150 189 239 287 330
#     4  10  23  37  60  82 116 163 184 235 289 339
#     4   9  18  34  58  87 110 140 192 249 269 340
#     4  10  21  41  56  83 122 146 200 236 279 342
#     4  10  18  35  57  86 119 141 186 242 281 341
#     4  10  18  33  60  88 108 149 188 233 296 324
#
# _framework density 23.418313000000001
#
# number of rings (size 3 to 8) (size 9 to 14) (size 15 to 20)
#    0.000    2.286    4.286    0.000    4.000    5.714 
#    0.000    1.429    0.000    0.000    0.000    0.000 
#    0.000    0.000    0.000    0.000    0.000    0.000 
#
# Total GULP energy -78243.884943 kJ/mol
# GULP energy per Si atom -5588.848924 kJ/mol
# Density = 2.336501 g / cm^3
# Si number density = 23.418313 Si / 1000 Ang^3
#
#
#
# Elastic Constant Matrix: (Units=GPa)
#
#
# Indices 1 2 3 4 5 6 
#
# 1 136.1462 52.5814 30.6792 1.0552 -29.2261 25.7118
# 2 52.5814 162.3042 34.4638 7.6750 -9.2388 37.1816
# 3 30.6792 34.4638 73.4196 9.7934 -17.4419 9.3958
# 4 1.0552 7.6750 9.7934 38.4143 11.7952 1.5243
# 5 -29.2261 -9.2388 -17.4419 11.7952 39.5532 1.0225
# 6 25.7118 37.1816 9.3958 1.5243 1.0225 34.9688
#
#
#
# Elastic Compliance Matrix: (Units=1/GPa)
#
#
# Indices 1 2 3 4 5 6 
#
# 1 0.011118 -0.001300 -0.000928 -0.002092 0.008299 -0.006695
# 2 -0.001300 0.008988 -0.002382 -0.001022 0.000598 -0.007934
# 3 -0.000928 -0.002382 0.018387 -0.006870 0.008958 -0.001687
# 4 -0.002092 -0.001022 -0.006870 0.032377 -0.014559 0.003484
# 5 0.008299 0.000598 0.008958 -0.014559 0.040097 -0.009683
# 6 -0.006695 -0.007934 -0.001687 0.003484 -0.009683 0.042540
#
#
# Mechanical properties :
#
#
# Convention : Reuss Voigt Hill
#
# Bulk Modulus (GPa) = 34.16155 67.47988 50.82071
# Shear Modulus (GPa) = 28.98785 39.53031 34.25908
#
# Velocity S-wave (km/s) = 3.52210 4.11300 3.82896
# Velocity P-wave (km/s) = 5.58206 7.17169 6.42622
#
# Compressibility (1/GPa) = 0.02927268
#
# Stress axis : x y z
#
# Youngs Moduli (GPa) = 89.94040 111.25754 54.38669
#
# Poissons Ratio (x) = 0.14461 0.05049
# Poissons Ratio (y) = 0.11690 0.12956
# Poissons Ratio (z) = 0.08350 0.26504
#
# Static dielectric constant tensor:
#      x y z
#    x 1.937930 0.007180 0.008950 
#    y 0.007180 1.923710 0.035990 
#    z 0.008950 0.035990 2.007690 
# 
# From -- ./inp_files/324978.got.cif
#   From: 2010.05.17/outbox.cif.g08.bks.cpg/sg2_163_cif.got.tgz:324978.got - 2010.06.03 11:33:40.
