data_PCOD9076353
_publ_section_title
;
Structure prediction by ZEFSAII (Michael W. Deem and Ramdas Pophale) SiO2 
 PCOD9076353
Probable space group: P -1
;
_chemical_formula_sum "Si O2"
_cell_formula_units_Z 14
_cell_length_a 11.231616
_cell_length_b 11.349122
_cell_length_c 15.157271
_cell_angle_alpha 60.554008
_cell_angle_beta 29.373994
_cell_angle_gamma 71.543595
_cell_volume 796.498074
_symmetry_space_group_name_H-M "P -1"
_symmetry_group_IT_number 2
_symmetry_cell_setting 'triclinic'
loop_
_space_group_symop_operation_xyz
x,y,z
-x,-y,-z
loop_
_atom_site_type_symbol
_atom_site_label
_atom_site_fract_x
_atom_site_fract_y
_atom_site_fract_z
Si Si1 0.234388 0.980451 0.412705
Si Si2 0.249521 0.663272 0.488594
Si Si3 0.786205 0.667230 0.071438
Si Si4 0.246045 0.547885 0.148274
Si Si5 0.407516 0.839038 0.016795
Si Si6 0.127303 0.056841 0.187628
Si Si7 0.978939 0.478744 0.878125
O O1 0.268693 0.826702 0.427152
O O2 0.133379 0.986219 0.574568
O O3 0.472242 0.094251 0.178312
O O4 0.000000 0.000000 0.500000
O O5 0.493409 0.640965 0.292280
O O6 0.994089 0.583905 0.631725
O O7 0.207197 0.588583 0.639471
O O8 0.924957 0.624085 0.082302
O O9 0.884539 0.828629 0.920059
O O10 0.837419 0.570455 0.994244
O O11 0.190436 0.592972 0.068197
O O12 0.500000 0.500000 0.000000
O O13 0.278509 0.676462 0.146075
O O14 0.642849 0.865717 0.923178
O O15 0.216742 0.925480 0.142078
#
# Coordination Sequence:
#
# PCOD9076353 Si02
#       7
#     2   2   2   2   2   2   2
#     4  10  18  33  55  80 107 145 181 224 271 326
#     4  10  20  35  59  83 108 148 185 226 278 323
#     4  11  18  37  59  85 105 147 194 230 263 333
#     4  10  20  39  54  81 120 144 177 233 283 325
#     4  10  20  35  54  79 112 144 180 226 277 328
#     4  10  19  33  57  79 107 142 193 222 267 330
#     4   9  22  35  58  79 116 143 187 232 276 318
#
# _framework density 17.576941999999999
#
# number of rings (size 3 to 8) (size 9 to 14) (size 15 to 20)
#    0.857    1.143    2.857    3.000    0.000    0.000 
#    2.571    2.143    0.000    0.857    0.000    0.000 
#    0.000    0.000    0.000    0.000    0.000    0.000 
#
# Total GULP energy -77991.117587 kJ/mol
# GULP energy per Si atom -5570.794113 kJ/mol
# Density = 1.753694 g / cm^3
# Si number density = 17.576942 Si / 1000 Ang^3
#
#
#
# Elastic Constant Matrix: (Units=GPa)
#
#
# Indices 1 2 3 4 5 6 
#
# 1 23.8682 1.5924 -7.0574 -1.7167 -0.2978 -1.6726
# 2 1.5924 61.5566 7.9027 4.3847 -5.4432 -7.6638
# 3 -7.0574 7.9027 82.9167 18.6901 3.8766 -5.7579
# 4 -1.7167 4.3847 18.6901 25.9824 -7.7813 7.5977
# 5 -0.2978 -5.4432 3.8766 -7.7813 17.9795 -4.1017
# 6 -1.6726 -7.6638 -5.7579 7.5977 -4.1017 21.2157
#
#
#
# Elastic Compliance Matrix: (Units=1/GPa)
#
#
# Indices 1 2 3 4 5 6 
#
# 1 0.043519 -0.000996 0.004526 -0.001690 -0.000177 0.004871
# 2 -0.000996 0.018233 -0.000782 -0.003244 0.006245 0.008665
# 3 0.004526 -0.000782 0.017653 -0.017885 -0.009559 0.009423
# 4 -0.001690 -0.003244 -0.017885 0.066939 0.026093 -0.025087
# 5 -0.000177 0.006245 -0.009559 0.026093 0.071816 0.004187
# 6 0.004871 0.008665 0.009423 -0.025087 0.004187 0.063000
#
#
# Mechanical properties :
#
#
# Convention : Reuss Voigt Hill
#
# Bulk Modulus (GPa) = 11.77808 19.24633 15.51220
# Shear Modulus (GPa) = 16.44939 24.09577 20.27258
#
# Velocity S-wave (km/s) = 3.06249 3.70655 3.39980
# Velocity P-wave (km/s) = 4.38412 5.41217 4.92504
#
# Compressibility (1/GPa) = 0.08490349
#
# Stress axis : x y z
#
# Youngs Moduli (GPa) = 22.97843 54.84452 56.64837
#
# Poissons Ratio (x) = 0.05461 -0.25641
# Poissons Ratio (y) = 0.02288 0.04427
# Poissons Ratio (z) = -0.10401 0.04286
#
# Static dielectric constant tensor:
#      x y z
#    x 1.597480 0.006570 0.030100 
#    y 0.006570 1.582820 -0.004990 
#    z 0.030100 -0.004990 1.622870 
# 
# From -- ./inp_files/518730.got.cif
#   From: 2010.05.17/outbox.cif.g08.bks.cpg/sg2_260_cif.got.tgz:518730.got - 2010.06.03 11:33:40.
