data_PCOD9076500
_publ_section_title
;
Structure prediction by ZEFSAII (Michael W. Deem and Ramdas Pophale) SiO2 
 PCOD9076500
Probable space group: P -1
;
_chemical_formula_sum "Si O2"
_cell_formula_units_Z 13
_cell_length_a 24.064973
_cell_length_b 14.721566
_cell_length_c 5.387742
_cell_angle_alpha 65.930908
_cell_angle_beta 79.961128
_cell_angle_gamma 22.270247
_cell_volume 534.732919
_symmetry_space_group_name_H-M "P -1"
_symmetry_group_IT_number 2
_symmetry_cell_setting 'triclinic'
loop_
_space_group_symop_operation_xyz
x,y,z
-x,-y,-z
loop_
_atom_site_type_symbol
_atom_site_label
_atom_site_fract_x
_atom_site_fract_y
_atom_site_fract_z
Si Si1 0.956538 0.790242 0.023288
Si Si2 0.623898 0.068132 0.896358
Si Si3 0.282639 0.387770 0.252781
Si Si4 0.830045 0.745790 0.608832
Si Si5 0.224548 0.930552 0.646617
Si Si6 0.500000 0.500000 0.500000
Si Si7 0.641097 0.669674 0.242150
O O1 0.146402 0.523577 0.237541
O O2 0.984980 0.623333 0.174834
O O3 0.810650 0.052307 0.066076
O O4 0.891769 0.925857 0.645891
O O5 0.561184 0.283862 0.646889
O O6 0.467595 0.248539 0.806375
O O7 0.755006 0.823233 0.835474
O O8 0.709301 0.924609 0.263122
O O9 0.259283 0.495807 0.389112
O O10 0.500000 0.000000 0.500000
O O11 0.237620 0.513015 0.887191
O O12 0.839472 0.847532 0.525588
O O13 0.417781 0.604682 0.725913
O O14 0.500000 0.000000 0.000000
#
# Coordination Sequence:
#
# PCOD9076500 Si02
#       7
#     2   2   2   2   2   1   2
#     4  12  22  38  62  94 128 159 199 262 323 363
#     4  11  22  38  65  90 126 164 207 256 296 376
#     4  10  20  34  56  87 123 153 191 240 310 379
#     4  11  21  37  59  94 126 157 198 256 328 372
#     4  11  24  39  61  86 125 168 209 256 298 371
#     4  10  26  46  62  88 122 174 220 240 300 368
#     4  10  18  33  56  89 118 152 196 248 304 351
#
# _framework density 24.311201000000001
#
# number of rings (size 3 to 8) (size 9 to 14) (size 15 to 20)
#    0.000    1.231    0.000    9.231    0.000    5.538 
#    0.000    0.000    0.000    5.538    0.000    0.000 
#    0.000    0.000    0.000    0.000    0.000    0.000 
#
# Total GULP energy -72419.115338 kJ/mol
# GULP energy per Si atom -5570.701180 kJ/mol
# Density = 2.425587 g / cm^3
# Si number density = 24.311201 Si / 1000 Ang^3
#
#
#
# Elastic Constant Matrix: (Units=GPa)
#
#
# Indices 1 2 3 4 5 6 
#
# 1 96.5999 31.8814 35.1897 7.6158 24.6255 -4.1502
# 2 31.8814 165.6977 42.6814 46.2650 17.0397 0.4199
# 3 35.1897 42.6814 87.8332 39.0892 36.7247 15.1537
# 4 7.6158 46.2650 39.0892 47.6433 12.4492 11.2754
# 5 24.6255 17.0397 36.7247 12.4492 41.6499 7.2791
# 6 -4.1502 0.4199 15.1537 11.2754 7.2791 27.6487
#
#
#
# Elastic Compliance Matrix: (Units=1/GPa)
#
#
# Indices 1 2 3 4 5 6 
#
# 1 0.014059 -0.002043 -0.005282 0.004264 -0.004895 0.004586
# 2 -0.002043 0.008998 0.000153 -0.009214 -0.000439 0.003346
# 3 -0.005282 0.000153 0.028973 -0.017577 -0.016322 -0.005209
# 4 0.004264 -0.009214 -0.017577 0.044507 0.005027 -0.009060
# 5 -0.004895 -0.000439 -0.016322 0.005027 0.040771 -0.004566
# 6 0.004586 0.003346 -0.005209 -0.009060 -0.004566 0.044558
#
#
# Mechanical properties :
#
#
# Convention : Reuss Voigt Hill
#
# Bulk Modulus (GPa) = 26.53555 63.29285 44.91420
# Shear Modulus (GPa) = 23.94946 39.41360 31.68153
#
# Velocity S-wave (km/s) = 3.14207 4.03080 3.61386
# Velocity P-wave (km/s) = 4.90939 6.91043 5.99400
#
# Compressibility (1/GPa) = 0.03768530
#
# Stress axis : x y z
#
# Youngs Moduli (GPa) = 71.12754 111.13430 34.51472
#
# Poissons Ratio (x) = 0.22709 0.18231
# Poissons Ratio (y) = 0.14534 -0.00527
# Poissons Ratio (z) = 0.37569 -0.01697
#
# Static dielectric constant tensor:
#      x y z
#    x 1.907170 -0.163080 0.084300 
#    y -0.163080 2.530360 -0.100460 
#    z 0.084300 -0.100460 2.006860 
# 
# From -- ./inp_files/87406.got.cif
#   From: 2010.05.17/outbox.cif.g08.bks.cpg/sg2_44_cif.got.tgz:87406.got - 2010.06.03 11:33:40.
