data_PCOD9076601
_publ_section_title
;
Structure prediction by ZEFSAII (Michael W. Deem and Ramdas Pophale) SiO2 
 PCOD9076601
Probable space group: P -1
;
_chemical_formula_sum "Si O2"
_cell_formula_units_Z 16
_cell_length_a 7.673437
_cell_length_b 6.725057
_cell_length_c 17.870742
_cell_angle_alpha 60.977208
_cell_angle_beta 113.986090
_cell_angle_gamma 120.620699
_cell_volume 678.208475
_symmetry_space_group_name_H-M "P -1"
_symmetry_group_IT_number 2
_symmetry_cell_setting 'triclinic'
loop_
_space_group_symop_operation_xyz
x,y,z
-x,-y,-z
loop_
_atom_site_type_symbol
_atom_site_label
_atom_site_fract_x
_atom_site_fract_y
_atom_site_fract_z
Si Si1 0.985395 0.508250 0.698307
Si Si2 0.472413 0.976307 0.588866
Si Si3 0.182476 0.261750 0.497939
Si Si4 0.254269 0.044349 0.961241
Si Si5 0.042392 0.699434 0.114208
Si Si6 0.375185 0.744251 0.922072
Si Si7 0.413856 0.968342 0.735753
Si Si8 0.246955 0.385803 0.653206
O O1 0.889920 0.401267 0.781254
O O2 0.080797 0.340421 0.699047
O O3 0.838562 0.569768 0.603163
O O4 0.184404 0.767119 0.705214
O O5 0.377347 0.187109 0.543549
O O6 0.567792 0.013442 0.683670
O O7 0.500000 0.000000 0.500000
O O8 0.374477 0.677189 0.628386
O O9 0.152985 0.347586 0.559807
O O10 0.000000 0.000000 0.500000
O O11 0.316144 0.956472 0.911743
O O12 0.053471 0.106388 0.910039
O O13 0.203452 0.826789 0.053886
O O14 0.450085 0.270196 0.988870
O O15 0.842741 0.482470 0.083523
O O16 0.467685 0.837592 0.839460
O O17 0.372630 0.208823 0.709677
#
# Coordination Sequence:
#
# PCOD9076601 Si02
#       8
#     2   2   2   2   2   2   2   2
#     4  10  19  33  55  84 110 144 190 237 279 336
#     4  10  22  37  51  77 114 152 185 231 287 333
#     4  11  19  34  55  82 107 144 197 227 270 346
#     4  10  21  38  60  90 110 154 196 226 299 358
#     4  10  21  38  60  85 122 146 188 245 288 338
#     4  10  20  38  63  83 118 152 189 239 288 342
#     4   9  19  34  56  81 110 146 195 226 282 345
#     4  10  18  33  58  75 110 153 184 228 285 330
#
# _framework density 23.591564000000002
#
# number of rings (size 3 to 8) (size 9 to 14) (size 15 to 20)
#    0.000    2.000    3.750    1.875    0.000    2.000 
#    4.500    0.000    5.500    0.000    0.000    0.000 
#    0.000    0.000    0.000    0.000    0.000    0.000 
#
# Total GULP energy -89131.450000 kJ/mol
# GULP energy per Si atom -5570.715625 kJ/mol
# Density = 2.353787 g / cm^3
# Si number density = 23.591564 Si / 1000 Ang^3
#
#
#
# Elastic Constant Matrix: (Units=GPa)
#
#
# Indices 1 2 3 4 5 6 
#
# 1 44.7038 17.1715 12.8267 5.2265 -13.8351 -11.9708
# 2 17.1715 100.1458 22.1074 5.2737 -9.0357 -9.1754
# 3 12.8267 22.1074 95.9945 5.0396 -22.6438 3.2154
# 4 5.2265 5.2737 5.0396 29.8670 -2.5358 -4.2120
# 5 -13.8351 -9.0357 -22.6438 -2.5358 38.3048 3.3003
# 6 -11.9708 -9.1754 3.2154 -4.2120 3.3003 29.5665
#
#
#
# Elastic Compliance Matrix: (Units=1/GPa)
#
#
# Indices 1 2 3 4 5 6 
#
# 1 0.029339 -0.002934 -0.001579 -0.002273 0.007965 0.009927
# 2 -0.002934 0.011246 -0.002238 -0.000750 0.000011 0.002437
# 3 -0.001579 -0.002238 0.012943 -0.001460 0.006776 -0.003705
# 4 -0.002273 -0.000750 -0.001460 0.034825 0.000104 0.003955
# 5 0.007965 0.000011 0.006776 0.000104 0.033101 -0.001188
# 6 0.009927 0.002437 -0.003705 0.003955 -0.001188 0.039697
#
#
# Mechanical properties :
#
#
# Convention : Reuss Voigt Hill
#
# Bulk Modulus (GPa) = 24.98350 38.33948 31.66149
# Shear Modulus (GPa) = 26.59678 32.13023 29.36350
#
# Velocity S-wave (km/s) = 3.36130 3.69445 3.53180
# Velocity P-wave (km/s) = 5.06729 5.87241 5.48464
#
# Compressibility (1/GPa) = 0.04002642
#
# Stress axis : x y z
#
# Youngs Moduli (GPa) = 34.08481 88.91816 77.26451
#
# Poissons Ratio (x) = 0.26090 0.12197
# Poissons Ratio (y) = 0.10001 0.17289
# Poissons Ratio (z) = 0.05381 0.19897
#
# Static dielectric constant tensor:
#      x y z
#    x 2.056600 -0.144130 -0.152140 
#    y -0.144130 2.228430 0.195310 
#    z -0.152140 0.195310 2.046640 
# 
# From -- ./inp_files/52511.got.cif
#   From: 2010.05.17/outbox.cif.g08.bks.cpg/sg2_27_cif.got.tgz:52511.got - 2010.06.03 11:33:40.
