data_PCOD9076693
_publ_section_title
;
Structure prediction by ZEFSAII (Michael W. Deem and Ramdas Pophale) SiO2 
 PCOD9076693
Probable space group: P -1
;
_chemical_formula_sum "Si O2"
_cell_formula_units_Z 16
_cell_length_a 15.486054
_cell_length_b 11.974052
_cell_length_c 12.064554
_cell_angle_alpha 142.980337
_cell_angle_beta 51.263425
_cell_angle_gamma 149.859067
_cell_volume 660.659368
_symmetry_space_group_name_H-M "P -1"
_symmetry_group_IT_number 2
_symmetry_cell_setting 'triclinic'
loop_
_space_group_symop_operation_xyz
x,y,z
-x,-y,-z
loop_
_atom_site_type_symbol
_atom_site_label
_atom_site_fract_x
_atom_site_fract_y
_atom_site_fract_z
Si Si1 0.642483 0.488770 0.285236
Si Si2 0.846233 0.414398 0.109319
Si Si3 0.900669 0.124048 0.549239
Si Si4 0.423746 0.046830 0.318811
Si Si5 0.438422 0.175258 0.003331
Si Si6 0.450951 0.728008 0.365343
Si Si7 0.924839 0.674432 0.657654
Si Si8 0.228312 0.940882 0.764803
O O1 0.757817 0.456904 0.140731
O O2 0.512519 0.253366 0.301494
O O3 0.779488 0.823430 0.476056
O O4 0.557742 0.450941 0.208602
O O5 0.924811 0.608598 0.310261
O O6 0.695787 0.081267 0.002543
O O7 0.000000 0.500000 0.000000
O O8 0.960674 0.124514 0.382831
O O9 0.776372 0.144062 0.655703
O O10 0.532818 0.254790 0.502508
O O11 0.448962 0.857557 0.151250
O O12 0.316475 0.079312 0.923918
O O13 0.248324 0.431359 0.262390
O O14 0.500000 0.000000 0.500000
O O15 0.605308 0.808089 0.250968
O O16 0.844916 0.366013 0.441672
O O17 0.058410 0.834793 0.779882
#
# Coordination Sequence:
#
# PCOD9076693 Si02
#       8
#     2   2   2   2   2   2   2   2
#     4  11  25  40  57  90 131 165 197 250 323 375
#     4  11  22  40  61  90 119 159 213 258 298 360
#     4  12  22  38  62  92 126 163 201 256 317 371
#     4  11  20  37  63  88 119 163 209 251 306 372
#     4  11  21  40  59  89 121 159 207 260 301 369
#     4  10  18  33  58  94 117 148 206 271 305 344
#     4  10  19  34  58  94 119 154 213 260 303 365
#     4  10  19  35  61  92 118 158 211 262 307 353
#
# _framework density 24.218229000000001
#
# number of rings (size 3 to 8) (size 9 to 14) (size 15 to 20)
#    0.000    1.250    5.000    4.500    0.000    0.000 
#    2.250    0.625    0.000    0.750    0.000    0.000 
#    0.000    0.000    0.000    0.000    0.000    0.000 
#
# Total GULP energy -89424.540231 kJ/mol
# GULP energy per Si atom -5589.033764 kJ/mol
# Density = 2.416311 g / cm^3
# Si number density = 24.218229 Si / 1000 Ang^3
#
#
#
# Elastic Constant Matrix: (Units=GPa)
#
#
# Indices 1 2 3 4 5 6 
#
# 1 127.8516 39.4583 44.5358 -5.6648 38.1177 19.1467
# 2 39.4583 64.2410 40.1249 7.8327 13.6666 27.5389
# 3 44.5358 40.1249 -12.3898 -13.3562 2.2642 -9.2430
# 4 -5.6648 7.8327 -13.3562 19.8312 2.7438 -0.5465
# 5 38.1177 13.6666 2.2642 2.7438 38.2039 -0.4977
# 6 19.1467 27.5389 -9.2430 -0.5465 -0.4977 37.7806
#
#
#
# Elastic Compliance Matrix: (Units=1/GPa)
#
#
# Indices 1 2 3 4 5 6 
#
# 1 0.013300 -0.009388 0.002930 0.011007 -0.010865 0.000836
# 2 -0.009388 0.013571 0.012561 -0.000157 0.003753 -0.002014
# 3 0.002930 0.012561 -0.009763 -0.010196 -0.006279 -0.013260
# 4 0.011007 -0.000157 -0.010196 0.048483 -0.013901 -0.007440
# 5 -0.010865 0.003753 -0.006279 -0.013901 0.037064 0.001522
# 6 0.000836 -0.002014 -0.013260 -0.007440 0.001522 0.024182
#
#
# Mechanical properties :
#
#
# Convention : Reuss Voigt Hill
#
# Bulk Modulus (GPa) = 34.11249 47.54898 40.83073
# Shear Modulus (GPa) = 40.19233 22.86872 31.53052
#
# Velocity S-wave (km/s) = 4.07823 3.07624 3.61215
# Velocity P-wave (km/s) = 6.02428 5.68277 5.85601
#
# Compressibility (1/GPa) = 0.02931478
#
# Stress axis : x y z
#
# Youngs Moduli (GPa) = 75.18652 73.68588 -102.42906
#
# Poissons Ratio (x) = 0.69178 0.30011
# Poissons Ratio (y) = 0.70587 1.28666
# Poissons Ratio (z) = -0.22029 -0.92560
#
# Static dielectric constant tensor:
#      x y z
#    x 1.815010 -0.054710 0.023640 
#    y -0.054710 1.867870 0.007860 
#    z 0.023640 0.007860 1.944890 
# 
# From -- ./inp_files/186920.got.cif
#   From: 2010.05.17/outbox.cif.g08.bks.cpg/sg2_94_cif.got.tgz:186920.got - 2010.06.03 11:33:40.
