data_PCOD9076072
_publ_section_title
;
Structure prediction by ZEFSAII (Michael W. Deem and Ramdas Pophale) SiO2 
 PCOD9076072
Probable space group: P -1
;
_chemical_formula_sum "Si O2"
_cell_formula_units_Z 16
_cell_length_a 10.989897
_cell_length_b 24.668787
_cell_length_c 16.546640
_cell_angle_alpha 17.445942
_cell_angle_beta 138.955220
_cell_angle_gamma 150.082369
_cell_volume 586.217992
_symmetry_space_group_name_H-M "P -1"
_symmetry_group_IT_number 2
_symmetry_cell_setting 'triclinic'
loop_
_space_group_symop_operation_xyz
x,y,z
-x,-y,-z
loop_
_atom_site_type_symbol
_atom_site_label
_atom_site_fract_x
_atom_site_fract_y
_atom_site_fract_z
Si Si1 0.640169 0.781036 0.201707
Si Si2 0.942776 0.050090 0.718724
Si Si3 0.129102 0.612976 0.812488
Si Si4 0.266623 0.368570 0.288053
Si Si5 0.216272 0.124268 0.358543
Si Si6 0.762465 0.582568 0.178421
Si Si7 0.304352 0.789396 0.128921
Si Si8 0.365689 0.890123 0.834603
O O1 0.500000 0.500000 0.500000
O O2 0.948094 0.957106 0.134539
O O3 0.448797 0.711250 0.280888
O O4 0.609028 0.921248 0.922892
O O5 0.216411 0.337958 0.401486
O O6 0.763360 0.104668 0.553159
O O7 0.858630 0.813715 0.959771
O O8 0.353190 0.613490 0.935163
O O9 0.000000 0.500000 0.000000
O O10 0.896779 0.391084 0.944228
O O11 0.968573 0.113041 0.463363
O O12 0.454913 0.333655 0.412723
O O13 0.434030 0.130435 0.486267
O O14 0.288382 0.364410 0.010324
O O15 0.000000 0.000000 0.500000
O O16 0.982221 0.581529 0.290213
O O17 0.294898 0.879513 0.907911
O O18 0.500000 0.000000 0.000000
#
# Coordination Sequence:
#
# PCOD9076072 Si02
#       8
#     2   2   2   2   2   2   2   2
#     4  10  18  32  60  84 106 156 201 233 291 345
#     4  10  18  35  60  78 112 156 192 234 294 342
#     4   9  17  34  54  82 112 150 194 234 282 347
#     4   9  22  33  54  88 113 146 199 238 284 353
#     4  10  18  35  55  78 115 150 181 232 297 342
#     4  11  20  36  57  85 117 149 187 243 294 346
#     4  10  19  33  57  84 115 150 195 237 288 350
#     4   9  18  31  54  86 109 141 197 239 273 352
#
# _framework density 27.293603000000001
#
# number of rings (size 3 to 8) (size 9 to 14) (size 15 to 20)
#    0.750    1.500    3.750    0.750    0.000    1.000 
#    0.000    0.625    0.000    6.750    0.000    0.000 
#    0.000    0.000    0.000    0.000    0.000    0.000 
#
# Total GULP energy -89267.590922 kJ/mol
# GULP energy per Si atom -5579.224433 kJ/mol
# Density = 2.723148 g / cm^3
# Si number density = 27.293603 Si / 1000 Ang^3
#
#
#
# Elastic Constant Matrix: (Units=GPa)
#
#
# Indices 1 2 3 4 5 6 
#
# 1 121.3613 45.7757 25.9323 3.1997 24.2572 -1.8993
# 2 45.7757 135.4405 48.6295 31.0106 10.5998 -9.7013
# 3 25.9323 48.6295 81.4435 18.5761 21.9966 -13.2925
# 4 3.1997 31.0106 18.5761 41.8534 -11.5970 12.6989
# 5 24.2572 10.5998 21.9966 -11.5970 50.1429 2.2497
# 6 -1.8993 -9.7013 -13.2925 12.6989 2.2497 64.9210
#
#
#
# Elastic Compliance Matrix: (Units=1/GPa)
#
#
# Indices 1 2 3 4 5 6 
#
# 1 0.010310 -0.003198 -0.000597 0.000889 -0.003829 -0.000340
# 2 -0.003198 0.011876 -0.003314 -0.008330 -0.001556 0.002686
# 3 -0.000597 -0.003314 0.021449 -0.012245 -0.011551 0.006675
# 4 0.000889 -0.008330 -0.012245 0.044224 0.017513 -0.012983
# 5 -0.003829 -0.001556 -0.011551 0.017513 0.031566 -0.007229
# 6 -0.000340 0.002686 0.006675 -0.012983 -0.007229 0.019951
#
#
# Mechanical properties :
#
#
# Convention : Reuss Voigt Hill
#
# Bulk Modulus (GPa) = 33.99451 64.32447 49.15949
# Shear Modulus (GPa) = 30.59955 45.91065 38.25510
#
# Velocity S-wave (km/s) = 3.35195 4.10579 3.74788
# Velocity P-wave (km/s) = 5.24051 6.78937 6.06459
#
# Compressibility (1/GPa) = 0.02941652
#
# Stress axis : x y z
#
# Youngs Moduli (GPa) = 96.98922 84.20686 46.62145
#
# Poissons Ratio (x) = 0.26933 0.02784
# Poissons Ratio (y) = 0.31022 0.15449
# Poissons Ratio (z) = 0.05793 0.27904
#
# Static dielectric constant tensor:
#      x y z
#    x 2.254600 0.019550 0.011040 
#    y 0.019550 2.149170 -0.008330 
#    z 0.011040 -0.008330 2.283100 
# 
# From -- ./inp_files/571140.got.cif
#   From: 2010.05.17/outbox.cif.g08.bks.cpg/sg2_286_cif.got.tgz:571140.got - 2010.06.03 11:33:40.
