data_PCOD9076559
_publ_section_title
;
Structure prediction by ZEFSAII (Michael W. Deem and Ramdas Pophale) SiO2 
 PCOD9076559
Probable space group: P -1
;
_chemical_formula_sum "Si O2"
_cell_formula_units_Z 14
_cell_length_a 9.455840
_cell_length_b 12.398726
_cell_length_c 10.502460
_cell_angle_alpha 48.943079
_cell_angle_beta 74.790262
_cell_angle_gamma 40.656640
_cell_volume 530.615057
_symmetry_space_group_name_H-M "P -1"
_symmetry_group_IT_number 2
_symmetry_cell_setting 'triclinic'
loop_
_space_group_symop_operation_xyz
x,y,z
-x,-y,-z
loop_
_atom_site_type_symbol
_atom_site_label
_atom_site_fract_x
_atom_site_fract_y
_atom_site_fract_z
Si Si1 0.407871 0.383433 0.714724
Si Si2 0.765282 0.156959 0.592995
Si Si3 0.257123 0.107924 0.914929
Si Si4 0.222750 0.399482 0.959186
Si Si5 0.681964 0.878083 0.373448
Si Si6 0.170089 0.659885 0.981481
Si Si7 0.417831 0.829156 0.614341
O O1 0.530500 0.269079 0.636839
O O2 0.317728 0.614718 0.569070
O O3 0.193678 0.456462 0.772297
O O4 0.635619 0.140980 0.934415
O O5 0.772083 0.074457 0.520726
O O6 0.022025 0.922773 0.786489
O O7 0.042303 0.261407 0.951621
O O8 0.152647 0.249201 0.695480
O O9 0.500000 0.000000 0.000000
O O10 0.436320 0.124358 0.166139
O O11 0.000000 0.500000 0.000000
O O12 0.239222 0.535029 0.926819
O O13 0.712797 0.980390 0.389579
O O14 0.608610 0.793429 0.532451
O O15 0.419753 0.435407 0.175166
#
# Coordination Sequence:
#
# PCOD9076559 Si02
#       7
#     2   2   2   2   2   2   2
#     4   9  20  36  59  84 113 153 192 229 286 351
#     4  10  20  40  59  80 118 156 188 232 285 338
#     4  10  18  35  59  82 112 150 189 239 290 333
#     4  10  18  33  57  86 114 145 189 241 285 331
#     4   9  19  34  52  82 118 149 192 235 285 342
#     4  10  21  34  56  84 110 147 196 232 274 347
#     4  10  20  36  57  82 116 151 186 241 288 331
#
# _framework density 26.384475999999999
#
# number of rings (size 3 to 8) (size 9 to 14) (size 15 to 20)
#    0.000    2.286    0.000    4.286    0.000    1.143 
#    0.000   17.143    0.000    5.143    0.000    0.000 
#    0.000    0.000    0.000    0.000    0.000    0.000 
#
# Total GULP energy -78080.587894 kJ/mol
# GULP energy per Si atom -5577.184850 kJ/mol
# Density = 2.632442 g / cm^3
# Si number density = 26.384476 Si / 1000 Ang^3
#
#
#
# Elastic Constant Matrix: (Units=GPa)
#
#
# Indices 1 2 3 4 5 6 
#
# 1 55.3082 24.3692 34.0561 5.4252 -7.4030 0.1756
# 2 24.3692 109.0117 45.1960 18.9980 0.1486 14.8575
# 3 34.0561 45.1960 166.2418 -14.4678 -13.8325 9.1967
# 4 5.4252 18.9980 -14.4678 51.7942 -1.7004 -0.9314
# 5 -7.4030 0.1486 -13.8325 -1.7004 30.3122 1.0523
# 6 0.1756 14.8575 9.1967 -0.9314 1.0523 35.6804
#
#
#
# Elastic Compliance Matrix: (Units=1/GPa)
#
#
# Indices 1 2 3 4 5 6 
#
# 1 0.022538 -0.003479 -0.003652 -0.001946 0.003672 0.002120
# 2 -0.003479 0.012851 -0.003209 -0.005411 -0.002522 -0.004574
# 3 -0.003652 -0.003209 0.008286 0.003964 0.003154 -0.000771
# 4 -0.001946 -0.005411 0.003964 0.022719 0.002573 0.001758
# 5 0.003672 -0.002522 0.003154 0.002573 0.035509 -0.000761
# 6 0.002120 -0.004574 -0.000771 0.001758 -0.000761 0.030188
#
#
# Mechanical properties :
#
#
# Convention : Reuss Voigt Hill
#
# Bulk Modulus (GPa) = 43.48773 59.75604 51.62189
# Shear Modulus (GPa) = 31.16500 38.68671 34.92586
#
# Velocity S-wave (km/s) = 3.44057 3.83334 3.64225
# Velocity P-wave (km/s) = 5.68344 6.50308 6.10702
#
# Compressibility (1/GPa) = 0.02299499
#
# Stress axis : x y z
#
# Youngs Moduli (GPa) = 44.36966 77.81394 120.68503
#
# Poissons Ratio (x) = 0.27069 0.44080
# Poissons Ratio (y) = 0.15435 0.38726
# Poissons Ratio (z) = 0.16206 0.24969
#
# Static dielectric constant tensor:
#      x y z
#    x 2.166040 -0.176390 -0.087500 
#    y -0.176390 3.443350 0.248100 
#    z -0.087500 0.248100 2.114620 
# 
# From -- ./inp_files/432449.got.cif
#   From: 2010.05.17/outbox.cif.g08.bks.cpg/sg2_217_cif.got.tgz:432449.got - 2010.06.03 11:33:40.
