data_PCOD9076287
_publ_section_title
;
Structure prediction by ZEFSAII (Michael W. Deem and Ramdas Pophale) SiO2 
 PCOD9076287
Probable space group: P -1
;
_chemical_formula_sum "Si O2"
_cell_formula_units_Z 14
_cell_length_a 10.321849
_cell_length_b 18.757064
_cell_length_c 13.856479
_cell_angle_alpha 141.877584
_cell_angle_beta 149.958040
_cell_angle_gamma 40.865288
_cell_volume 804.184334
_symmetry_space_group_name_H-M "P -1"
_symmetry_group_IT_number 2
_symmetry_cell_setting 'triclinic'
loop_
_space_group_symop_operation_xyz
x,y,z
-x,-y,-z
loop_
_atom_site_type_symbol
_atom_site_label
_atom_site_fract_x
_atom_site_fract_y
_atom_site_fract_z
Si Si1 0.620581 0.075931 0.764328
Si Si2 0.347908 0.005208 0.807649
Si Si3 0.933280 0.636915 0.130856
Si Si4 0.473694 0.176240 0.584907
Si Si5 0.210383 0.814127 0.387123
Si Si6 0.922451 0.754609 0.447072
Si Si7 0.621681 0.184047 0.069313
O O1 0.685064 0.118363 0.744615
O O2 0.297554 0.134245 0.623229
O O3 0.652646 0.935623 0.640920
O O4 0.743871 0.138012 0.994923
O O5 0.045245 0.083663 0.704175
O O6 0.343472 0.878549 0.624432
O O7 0.493532 0.077449 0.906499
O O8 0.500000 0.000000 0.000000
O O9 0.988502 0.659446 0.303192
O O10 0.103127 0.708338 0.251965
O O11 0.621844 0.700550 0.979046
O O12 0.000000 0.500000 0.000000
O O13 0.598976 0.218478 0.616889
O O14 0.250133 0.272571 0.601721
O O15 0.173300 0.791848 0.693850
#
# Coordination Sequence:
#
# PCOD9076287 Si02
#       7
#     2   2   2   2   2   2   2
#     4   8  17  30  48  77 112 138 162 191 259 318
#     4  10  20  29  51  79 110 137 164 204 264 312
#     4  10  22  39  56  72  97 141 186 221 258 296
#     4   9  17  33  50  78 111 141 162 204 261 310
#     4  10  20  35  51  75 111 133 170 220 251 307
#     4   9  19  33  54  75 107 134 173 212 248 314
#     4  10  18  33  54  80 100 142 170 205 261 312
#
# _framework density 17.408944000000002
#
# number of rings (size 3 to 8) (size 9 to 14) (size 15 to 20)
#    0.857    1.714    1.429    0.857    4.000    1.143 
#    2.571    0.714    0.000    0.857    0.000    0.000 
#    0.000    0.000    0.000    0.000    0.000    0.000 
#
# Total GULP energy -77934.850160 kJ/mol
# GULP energy per Si atom -5566.775011 kJ/mol
# Density = 1.736932 g / cm^3
# Si number density = 17.408944 Si / 1000 Ang^3
#
#
#
# Elastic Constant Matrix: (Units=GPa)
#
#
# Indices 1 2 3 4 5 6 
#
# 1 111.8494 26.8746 41.2373 15.6465 -15.2191 -1.5622
# 2 26.8746 46.0985 42.2606 10.0820 -12.3044 0.9822
# 3 41.2373 42.2606 114.4593 -5.3902 -23.7014 -2.1506
# 4 15.6465 10.0820 -5.3902 30.5956 -2.9895 -3.2492
# 5 -15.2191 -12.3044 -23.7014 -2.9895 25.1553 -0.1886
# 6 -1.5622 0.9822 -2.1506 -3.2492 -0.1886 10.9829
#
#
#
# Elastic Compliance Matrix: (Units=1/GPa)
#
#
# Indices 1 2 3 4 5 6 
#
# 1 0.011746 -0.001892 -0.003328 -0.005791 0.002354 -0.000485
# 2 -0.001892 0.040878 -0.014775 -0.016042 0.002937 -0.011513
# 3 -0.003328 -0.014775 0.017966 0.011466 0.009109 0.007915
# 4 -0.005791 -0.016042 0.011466 0.045166 0.004943 0.016303
# 5 0.002354 0.002937 0.009109 0.004943 0.051815 0.004208
# 6 -0.000485 -0.011513 0.007915 0.016303 0.004208 0.098456
#
#
# Mechanical properties :
#
#
# Convention : Reuss Voigt Hill
#
# Bulk Modulus (GPa) = 32.67933 54.79470 43.73701
# Shear Modulus (GPa) = 15.81195 24.14908 19.98051
#
# Velocity S-wave (km/s) = 3.01701 3.72851 3.39147
# Velocity P-wave (km/s) = 5.56317 7.07665 6.36506
#
# Compressibility (1/GPa) = 0.03060038
#
# Stress axis : x y z
#
# Youngs Moduli (GPa) = 85.13834 24.46299 55.66122
#
# Poissons Ratio (x) = 0.04628 0.18522
# Poissons Ratio (y) = 0.16106 0.82240
# Poissons Ratio (z) = 0.28331 0.36144
#
# Static dielectric constant tensor:
#      x y z
#    x 1.674550 -0.012490 -0.021350 
#    y -0.012490 1.580630 -0.032070 
#    z -0.021350 -0.032070 1.597720 
# 
# From -- ./inp_files/401497.got.cif
#   From: 2010.05.17/outbox.cif.g08.bks.cpg/sg2_201_cif.got.tgz:401497.got - 2010.06.03 11:33:40.
