data_PCOD9076231
_publ_section_title
;
Structure prediction by ZEFSAII (Michael W. Deem and Ramdas Pophale) SiO2 
 PCOD9076231
Probable space group: P -1
;
_chemical_formula_sum "Si O2"
_cell_formula_units_Z 12
_cell_length_a 8.614156
_cell_length_b 16.315532
_cell_length_c 9.782670
_cell_angle_alpha 29.919907
_cell_angle_beta 78.424490
_cell_angle_gamma 99.089078
_cell_volume 493.098574
_symmetry_space_group_name_H-M "P -1"
_symmetry_group_IT_number 2
_symmetry_cell_setting 'triclinic'
loop_
_space_group_symop_operation_xyz
x,y,z
-x,-y,-z
loop_
_atom_site_type_symbol
_atom_site_label
_atom_site_fract_x
_atom_site_fract_y
_atom_site_fract_z
Si Si1 0.571717 0.529157 0.290261
Si Si2 0.294071 0.730495 0.344211
Si Si3 0.777124 0.691416 0.523684
Si Si4 0.042290 0.793075 0.828825
Si Si5 0.810098 0.045053 0.132499
Si Si6 0.094936 0.744523 0.599111
O O1 0.500000 0.500000 0.500000
O O2 0.553680 0.317509 0.587991
O O3 0.428348 0.519791 0.217172
O O4 0.823268 0.743659 0.919657
O O5 0.063859 0.465401 0.753446
O O6 0.295034 0.857251 0.036021
O O7 0.281275 0.837867 0.323823
O O8 0.958429 0.817593 0.187142
O O9 0.904908 0.701542 0.612317
O O10 0.693738 0.803255 0.442938
O O11 0.158872 0.927799 0.750678
O O12 0.157687 0.868460 0.552710
O O13 0.000000 0.500000 0.000000
#
# Coordination Sequence:
#
# PCOD9076231 Si02
#       6
#     2   2   2   2   2   2
#     4  10  19  32  52  80 102 126 171 213 251 291
#     4   8  18  32  54  75 101 133 171 205 246 297
#     4  10  20  32  52  77 105 131 167 208 257 295
#     4   9  18  31  55  74  99 135 170 204 244 297
#     4  10  18  33  53  76 101 136 170 206 244 301
#     4   9  18  35  52  76  98 137 170 206 243 307
#
# _framework density 24.335903999999999
#
# number of rings (size 3 to 8) (size 9 to 14) (size 15 to 20)
#    1.000    1.667    1.667    0.500    0.000    3.333 
#    0.000    0.000    0.000    1.000    0.000    0.000 
#    0.000    0.000    0.000    0.000    0.000    0.000 
#
# Total GULP energy -66913.450953 kJ/mol
# GULP energy per Si atom -5576.120913 kJ/mol
# Density = 2.428051 g / cm^3
# Si number density = 24.335904 Si / 1000 Ang^3
#
#
#
# Elastic Constant Matrix: (Units=GPa)
#
#
# Indices 1 2 3 4 5 6 
#
# 1 93.2934 64.3541 11.9790 13.0403 21.0679 9.9607
# 2 64.3541 213.0082 29.7104 32.5911 5.8722 17.8914
# 3 11.9790 29.7104 42.7674 8.2192 11.5920 2.5909
# 4 13.0403 32.5911 8.2192 31.4862 0.9399 7.3069
# 5 21.0679 5.8722 11.5920 0.9399 31.4830 4.2083
# 6 9.9607 17.8914 2.5909 7.3069 4.2083 38.0774
#
#
#
# Elastic Compliance Matrix: (Units=1/GPa)
#
#
# Indices 1 2 3 4 5 6 
#
# 1 0.016382 -0.004541 0.001901 -0.002101 -0.010660 -0.000700
# 2 -0.004541 0.007307 -0.003781 -0.004447 0.003402 -0.001511
# 3 0.001901 -0.003781 0.029358 -0.004525 -0.011430 0.001413
# 4 -0.002101 -0.004447 -0.004525 0.039474 0.003391 -0.005003
# 5 -0.010660 0.003402 -0.011430 0.003391 0.042826 -0.003416
# 6 -0.000700 -0.001511 0.001413 -0.005003 -0.003416 0.028397
#
#
# Mechanical properties :
#
#
# Convention : Reuss Voigt Hill
#
# Bulk Modulus (GPa) = 24.87074 62.35066 43.61070
# Shear Modulus (GPa) = 26.31753 36.41104 31.36428
#
# Velocity S-wave (km/s) = 3.29207 3.87225 3.59389
# Velocity P-wave (km/s) = 4.96913 6.75788 5.93132
#
# Compressibility (1/GPa) = 0.04020790
#
# Stress axis : x y z
#
# Youngs Moduli (GPa) = 61.04101 136.84899 34.06198
#
# Poissons Ratio (x) = 0.62137 -0.06475
# Poissons Ratio (y) = 0.27716 0.12877
# Poissons Ratio (z) = -0.11604 0.51736
#
# Static dielectric constant tensor:
#      x y z
#    x 1.948280 0.000730 0.019100 
#    y 0.000730 1.933340 -0.043720 
#    z 0.019100 -0.043720 1.982770 
# 
# From -- ./inp_files/151158.got.cif
#   From: 2010.05.17/outbox.cif.g08.bks.cpg/sg2_76_cif.got.tgz:151158.got - 2010.06.03 11:33:40.
