data_PCOD9076275
_publ_section_title
;
Structure prediction by ZEFSAII (Michael W. Deem and Ramdas Pophale) SiO2 
 PCOD9076275
Probable space group: P -1
;
_chemical_formula_sum "Si O2"
_cell_formula_units_Z 16
_cell_length_a 14.532630
_cell_length_b 8.509685
_cell_length_c 13.144784
_cell_angle_alpha 149.193381
_cell_angle_beta 60.651531
_cell_angle_gamma 115.059251
_cell_volume 725.669587
_symmetry_space_group_name_H-M "P -1"
_symmetry_group_IT_number 2
_symmetry_cell_setting 'triclinic'
loop_
_space_group_symop_operation_xyz
x,y,z
-x,-y,-z
loop_
_atom_site_type_symbol
_atom_site_label
_atom_site_fract_x
_atom_site_fract_y
_atom_site_fract_z
Si Si1 0.298773 0.554715 0.770488
Si Si2 0.394125 0.405302 0.444792
Si Si3 0.724482 0.991613 0.221462
Si Si4 0.562297 0.688859 0.257691
Si Si5 0.823514 0.369272 0.537562
Si Si6 0.998070 0.457590 0.338210
Si Si7 0.893065 0.167400 0.055945
Si Si8 0.619270 0.783076 0.874561
O O1 0.313827 0.338242 0.543138
O O2 0.356983 0.399702 0.745735
O O3 0.178160 0.670366 0.899962
O O4 0.361828 0.880252 0.904236
O O5 0.500000 0.500000 0.500000
O O6 0.397809 0.188917 0.223815
O O7 0.347478 0.710421 0.589393
O O8 0.637337 0.731117 0.141941
O O9 0.784128 0.058709 0.332908
O O10 0.810769 0.013584 0.097905
O O11 0.476753 0.419415 0.143991
O O12 0.500000 0.000000 0.500000
O O13 0.901269 0.337995 0.573587
O O14 0.724473 0.586841 0.731182
O O15 0.895287 0.531192 0.501025
O O16 0.962390 0.413219 0.217660
O O17 0.032833 0.116005 0.167754
#
# Coordination Sequence:
#
# PCOD9076275 Si02
#       8
#     2   2   2   2   2   2   2   2
#     4  11  22  36  60  84 117 151 198 238 276 338
#     4  10  18  33  54  76 110 148 188 235 270 320
#     4   9  19  33  52  79 114 148 185 227 285 344
#     4  12  21  36  57  83 119 162 185 223 295 346
#     4   9  16  30  55  86 106 141 190 233 280 339
#     4   9  16  30  58  84 105 139 190 246 284 325
#     4   9  18  33  55  87 110 138 191 246 281 328
#     4  11  21  36  59  86 118 151 197 232 276 344
#
# _framework density 22.048601000000001
#
# number of rings (size 3 to 8) (size 9 to 14) (size 15 to 20)
#    0.000    2.000    5.000    1.125    0.000    0.000 
#    0.000    2.500   11.000    7.500    0.000    0.000 
#    0.000    0.000    0.000    0.000    0.000    0.000 
#
# Total GULP energy -89145.035750 kJ/mol
# GULP energy per Si atom -5571.564734 kJ/mol
# Density = 2.199842 g / cm^3
# Si number density = 22.048601 Si / 1000 Ang^3
#
#
#
# Elastic Constant Matrix: (Units=GPa)
#
#
# Indices 1 2 3 4 5 6 
#
# 1 146.6689 12.7981 14.7736 7.9155 1.2458 6.3663
# 2 12.7981 47.2727 7.3181 0.7565 -4.1244 13.0468
# 3 14.7736 7.3181 47.2524 -4.9386 10.6963 3.8552
# 4 7.9155 0.7565 -4.9386 16.0313 -3.0894 -3.4208
# 5 1.2458 -4.1244 10.6963 -3.0894 42.7625 -2.8695
# 6 6.3663 13.0468 3.8552 -3.4208 -2.8695 20.6494
#
#
#
# Elastic Compliance Matrix: (Units=1/GPa)
#
#
# Indices 1 2 3 4 5 6 
#
# 1 0.007513 -0.001022 -0.002495 -0.004901 -0.000185 -0.002043
# 2 -0.001022 0.026773 -0.003454 -0.004956 0.002011 -0.016498
# 3 -0.002495 -0.003454 0.024726 0.007595 -0.005980 -0.001238
# 4 -0.004901 -0.004956 0.007595 0.071470 0.003976 0.015617
# 5 -0.000185 0.002011 -0.005980 0.003976 0.025644 0.004125
# 6 -0.002043 -0.016498 -0.001238 0.015617 0.004125 0.062872
#
#
# Mechanical properties :
#
#
# Convention : Reuss Voigt Hill
#
# Bulk Modulus (GPa) = 22.18692 34.55264 28.36978
# Shear Modulus (GPa) = 20.16416 29.64225 24.90320
#
# Velocity S-wave (km/s) = 3.02740 3.67059 3.36440
# Velocity P-wave (km/s) = 4.72280 5.80254 5.29029
#
# Compressibility (1/GPa) = 0.04507161
#
# Stress axis : x y z
#
# Youngs Moduli (GPa) = 133.09784 37.35081 40.44281
#
# Poissons Ratio (x) = 0.03816 0.10089
# Poissons Ratio (y) = 0.13600 0.13969
# Poissons Ratio (z) = 0.33203 0.12901
#
# Static dielectric constant tensor:
#      x y z
#    x 1.893570 0.015620 0.039080 
#    y 0.015620 1.849680 -0.043610 
#    z 0.039080 -0.043610 1.856010 
# 
# From -- ./inp_files/294513.got.cif
#   From: 2010.05.17/outbox.cif.g08.bks.cpg/sg2_148_cif.got.tgz:294513.got - 2010.06.03 11:33:40.
