data_PCOD9076007
_publ_section_title
;
Structure prediction by ZEFSAII (Michael W. Deem and Ramdas Pophale) SiO2 
 PCOD9076007
Probable space group: P -1
;
_chemical_formula_sum "Si O2"
_cell_formula_units_Z 14
_cell_length_a 11.091327
_cell_length_b 11.501924
_cell_length_c 10.462560
_cell_angle_alpha 128.959814
_cell_angle_beta 111.337364
_cell_angle_gamma 35.646622
_cell_volume 572.098410
_symmetry_space_group_name_H-M "P -1"
_symmetry_group_IT_number 2
_symmetry_cell_setting 'triclinic'
loop_
_space_group_symop_operation_xyz
x,y,z
-x,-y,-z
loop_
_atom_site_type_symbol
_atom_site_label
_atom_site_fract_x
_atom_site_fract_y
_atom_site_fract_z
Si Si1 0.859035 0.934032 0.901045
Si Si2 0.138791 0.254560 0.750298
Si Si3 0.450719 0.473915 0.165108
Si Si4 0.949209 0.941169 0.234972
Si Si5 0.903448 0.552022 0.634989
Si Si6 0.645929 0.767054 0.985336
Si Si7 0.254639 0.593357 0.612690
O O1 0.810605 0.802945 0.804481
O O2 0.061449 0.765267 0.765195
O O3 0.911954 0.929224 0.064672
O O4 0.654270 0.230047 0.985354
O O5 0.132788 0.107878 0.729732
O O6 0.109689 0.286193 0.608782
O O7 0.321135 0.197973 0.835004
O O8 0.895609 0.548170 0.882886
O O9 0.207640 0.727663 0.198776
O O10 0.538043 0.529977 0.320806
O O11 0.419468 0.343524 0.133210
O O12 0.820315 0.215906 0.389414
O O13 0.728062 0.583361 0.568338
O O14 0.000000 0.500000 0.500000
O O15 0.500000 0.000000 0.000000
#
# Coordination Sequence:
#
# PCOD9076007 Si02
#       7
#     2   2   2   2   2   2   2
#     4  10  20  37  59  81 110 148 188 232 276 325
#     4  10  20  35  57  83 111 146 187 232 278 328
#     4  10  19  33  57  85 108 142 186 232 281 321
#     4  10  20  36  59  86 109 138 191 239 277 327
#     4  10  21  39  58  78 114 157 188 223 279 341
#     4  10  18  32  58  87 111 138 185 240 280 322
#     4  10  22  37  54  81 119 152 179 224 282 336
#
# _framework density 24.471315000000001
#
# number of rings (size 3 to 8) (size 9 to 14) (size 15 to 20)
#    0.000    2.000    0.000    6.857    0.000    2.857 
#    0.000    7.143    0.000   14.571    0.000    0.000 
#    0.000    0.000    0.000    0.000    0.000    0.000 
#
# Total GULP energy -78137.044253 kJ/mol
# GULP energy per Si atom -5581.217447 kJ/mol
# Density = 2.441562 g / cm^3
# Si number density = 24.471315 Si / 1000 Ang^3
#
#
#
# Elastic Constant Matrix: (Units=GPa)
#
#
# Indices 1 2 3 4 5 6 
#
# 1 103.6216 28.9259 39.8478 -19.7041 25.0741 5.3239
# 2 28.9259 65.2849 25.6030 -7.6988 14.2999 -3.0556
# 3 39.8478 25.6030 84.4668 1.5063 43.2418 2.8495
# 4 -19.7041 -7.6988 1.5063 29.9390 3.2882 1.8878
# 5 25.0741 14.2999 43.2418 3.2882 60.1322 -7.6800
# 6 5.3239 -3.0556 2.8495 1.8878 -7.6800 49.9736
#
#
#
# Elastic Compliance Matrix: (Units=1/GPa)
#
#
# Indices 1 2 3 4 5 6 
#
# 1 0.015043 -0.003113 -0.004729 0.009812 -0.002968 -0.002350
# 2 -0.003113 0.018818 -0.004336 0.002908 -0.000011 0.001618
# 3 -0.004729 -0.004336 0.022313 -0.003714 -0.013213 -0.002924
# 4 0.009812 0.002908 -0.003714 0.041502 -0.004759 -0.002955
# 5 -0.002968 -0.000011 -0.013213 -0.004759 0.028348 0.005605
# 6 -0.002350 0.001618 -0.002924 -0.002955 0.005605 0.021500
#
#
# Mechanical properties :
#
#
# Convention : Reuss Voigt Hill
#
# Bulk Modulus (GPa) = 31.42883 49.12520 40.27701
# Shear Modulus (GPa) = 27.39909 38.60874 33.00392
#
# Velocity S-wave (km/s) = 3.34973 3.97635 3.67642
# Velocity P-wave (km/s) = 5.27560 6.41873 5.87503
#
# Compressibility (1/GPa) = 0.03181792
#
# Stress axis : x y z
#
# Youngs Moduli (GPa) = 66.47654 53.13939 44.81602
#
# Poissons Ratio (x) = 0.16544 0.21194
# Poissons Ratio (y) = 0.20696 0.19433
# Poissons Ratio (z) = 0.31437 0.23042
#
# Static dielectric constant tensor:
#      x y z
#    x 2.026440 0.050370 -0.132490 
#    y 0.050370 2.254930 -0.359660 
#    z -0.132490 -0.359660 2.502900 
# 
# From -- ./inp_files/426705.got.cif
#   From: 2010.05.17/outbox.cif.g08.bks.cpg/sg2_214_cif.got.tgz:426705.got - 2010.06.03 11:33:40.
