data_PCOD9076485
_publ_section_title
;
Structure prediction by ZEFSAII (Michael W. Deem and Ramdas Pophale) SiO2 
 PCOD9076485
Probable space group: P -1
;
_chemical_formula_sum "Si O2"
_cell_formula_units_Z 16
_cell_length_a 11.698127
_cell_length_b 6.613607
_cell_length_c 24.145880
_cell_angle_alpha 43.702371
_cell_angle_beta 147.868133
_cell_angle_gamma 123.628436
_cell_volume 677.752962
_symmetry_space_group_name_H-M "P -1"
_symmetry_group_IT_number 2
_symmetry_cell_setting 'triclinic'
loop_
_space_group_symop_operation_xyz
x,y,z
-x,-y,-z
loop_
_atom_site_type_symbol
_atom_site_label
_atom_site_fract_x
_atom_site_fract_y
_atom_site_fract_z
Si Si1 0.774284 0.228193 0.583039
Si Si2 0.720311 0.840308 0.788340
Si Si3 0.407417 0.714230 0.096557
Si Si4 0.035026 0.129072 0.928269
Si Si5 0.043104 0.970573 0.458201
Si Si6 0.165246 0.329926 0.657069
Si Si7 0.387568 0.182811 0.497091
Si Si8 0.922676 0.264500 0.129249
O O1 0.556185 0.372439 0.498167
O O2 0.930371 0.395489 0.577589
O O3 0.693260 0.001240 0.550866
O O4 0.943203 0.033594 0.732261
O O5 0.620298 0.620291 0.831147
O O6 0.929132 0.664004 0.876462
O O7 0.551219 0.975920 0.645906
O O8 0.820731 0.091478 0.812935
O O9 0.647877 0.757493 0.203925
O O10 0.313393 0.759005 0.987235
O O11 0.241498 0.935219 0.022545
O O12 0.074388 0.465585 0.881557
O O13 0.000000 0.000000 0.000000
O O14 0.193525 0.644580 0.580073
O O15 0.848642 0.916254 0.347435
O O16 0.163693 0.231145 0.431538
O O17 0.000000 0.000000 0.500000
#
# Coordination Sequence:
#
# PCOD9076485 Si02
#       8
#     2   2   2   2   2   2   2   2
#     4   9  20  39  61  82 119 167 190 233 296 355
#     4  10  18  33  56  86 113 142 194 252 286 337
#     4  11  20  33  57  85 114 150 192 243 294 339
#     4  11  19  32  54  86 114 149 194 240 296 334
#     4  10  21  39  61  90 119 151 196 251 287 340
#     4  10  22  39  59  86 122 157 195 235 299 354
#     4   9  18  38  62  83 115 152 197 240 286 345
#     4  10  20  36  54  82 119 149 196 245 280 348
#
# _framework density 23.607423000000001
#
# number of rings (size 3 to 8) (size 9 to 14) (size 15 to 20)
#    0.000    2.000    3.750    0.750    0.000    2.500 
#    0.000    9.375    0.000    0.000    0.000    0.000 
#    0.000    0.000    0.000    0.000    0.000    0.000 
#
# Total GULP energy -89250.017114 kJ/mol
# GULP energy per Si atom -5578.126070 kJ/mol
# Density = 2.355369 g / cm^3
# Si number density = 23.607423 Si / 1000 Ang^3
#
#
#
# Elastic Constant Matrix: (Units=GPa)
#
#
# Indices 1 2 3 4 5 6 
#
# 1 103.1844 29.6193 14.9174 20.9605 2.8667 -0.1005
# 2 29.6193 91.2990 32.7504 26.2642 10.4879 3.9155
# 3 14.9174 32.7504 143.9294 41.6308 -10.0328 1.8407
# 4 20.9605 26.2642 41.6308 43.4748 1.3654 -0.2863
# 5 2.8667 10.4879 -10.0328 1.3654 28.9211 6.2757
# 6 -0.1005 3.9155 1.8407 -0.2863 6.2757 33.2759
#
#
#
# Elastic Compliance Matrix: (Units=1/GPa)
#
#
# Indices 1 2 3 4 5 6 
#
# 1 0.011264 -0.002659 0.000779 -0.004578 0.000289 0.000210
# 2 -0.002659 0.014746 -0.001769 -0.005772 -0.005273 -0.000700
# 3 0.000779 -0.001769 0.010338 -0.009369 0.004889 -0.001364
# 4 -0.004578 -0.005772 -0.009369 0.037773 -0.002934 0.002062
# 5 0.000289 -0.005273 0.004889 -0.002934 0.039855 -0.007191
# 6 0.000210 -0.000700 -0.001364 0.002062 -0.007191 0.031584
#
#
# Mechanical properties :
#
#
# Convention : Reuss Voigt Hill
#
# Bulk Modulus (GPa) = 34.42257 54.77635 44.59946
# Shear Modulus (GPa) = 30.76126 38.54273 34.65200
#
# Velocity S-wave (km/s) = 3.61367 4.04499 3.83540
# Velocity P-wave (km/s) = 5.65901 6.71337 6.20861
#
# Compressibility (1/GPa) = 0.02905071
#
# Stress axis : x y z
#
# Youngs Moduli (GPa) = 88.77671 67.81320 96.73324
#
# Poissons Ratio (x) = 0.18031 -0.07538
# Poissons Ratio (y) = 0.23606 0.17113
# Poissons Ratio (z) = -0.06918 0.11997
#
# Static dielectric constant tensor:
#      x y z
#    x 1.979080 0.000710 0.008670 
#    y 0.000710 1.965840 0.055380 
#    z 0.008670 0.055380 1.883570 
# 
# From -- ./inp_files/604757.got.cif
#   From: 2010.05.17/outbox.cif.g08.bks.cpg/sg2_303_cif.got.tgz:604757.got - 2010.06.03 11:33:40.
