data_PCOD9076574
_publ_section_title
;
Structure prediction by ZEFSAII (Michael W. Deem and Ramdas Pophale) SiO2 
 PCOD9076574
Probable space group: P -1
;
_chemical_formula_sum "Si O2"
_cell_formula_units_Z 16
_cell_length_a 10.606436
_cell_length_b 7.082769
_cell_length_c 11.536871
_cell_angle_alpha 79.124812
_cell_angle_beta 127.963789
_cell_angle_gamma 96.044693
_cell_volume 670.956718
_symmetry_space_group_name_H-M "P -1"
_symmetry_group_IT_number 2
_symmetry_cell_setting 'triclinic'
loop_
_space_group_symop_operation_xyz
x,y,z
-x,-y,-z
loop_
_atom_site_type_symbol
_atom_site_label
_atom_site_fract_x
_atom_site_fract_y
_atom_site_fract_z
Si Si1 0.071387 0.323502 0.722798
Si Si2 0.577798 0.095322 0.320778
Si Si3 0.365164 0.636677 0.054385
Si Si4 0.391275 0.208481 0.001990
Si Si5 0.107133 0.741272 0.593070
Si Si6 0.456539 0.513541 0.608845
Si Si7 0.005947 0.581616 0.866714
Si Si8 0.794209 0.764396 0.558496
O O1 0.131777 0.519030 0.671147
O O2 0.003300 0.403596 0.795595
O O3 0.945012 0.241158 0.572174
O O4 0.219867 0.183774 0.848926
O O5 0.433971 0.074078 0.150992
O O6 0.724880 0.157824 0.313224
O O7 0.544763 0.270855 0.368587
O O8 0.650765 0.916317 0.451260
O O9 0.381278 0.423157 0.029739
O O10 0.430113 0.606086 0.225000
O O11 0.476429 0.773880 0.025564
O O12 0.176959 0.683230 0.937092
O O13 0.954906 0.812666 0.572966
O O14 0.500000 0.500000 0.500000
O O15 0.280820 0.421318 0.524680
O O16 0.857625 0.714535 0.727932
O O17 0.000000 0.500000 0.000000
#
# Coordination Sequence:
#
# PCOD9076574 Si02
#       8
#     2   2   2   2   2   2   2   2
#     4   9  17  31  56  82 110 150 190 229 278 337
#     4  11  22  37  60  87 116 148 185 236 289 339
#     4   9  17  31  55  80 106 146 188 227 276 333
#     4   9  16  31  53  81 110 141 183 231 284 330
#     4  10  18  33  57  87 117 144 184 238 291 337
#     4  11  23  40  60  81 114 157 195 232 276 330
#     4  10  19  33  54  80 111 149 189 228 275 332
#     4  11  23  38  60  88 114 147 191 234 284 344
#
# _framework density 23.846547000000001
#
# number of rings (size 3 to 8) (size 9 to 14) (size 15 to 20)
#    0.000    2.000    0.000    7.875    0.000    0.500 
#    0.000    3.750    0.000    5.250    0.000    0.000 
#    0.000    0.000    0.000    0.000    0.000    0.000 
#
# Total GULP energy -89515.707045 kJ/mol
# GULP energy per Si atom -5594.731690 kJ/mol
# Density = 2.379227 g / cm^3
# Si number density = 23.846547 Si / 1000 Ang^3
#
#
#
# Elastic Constant Matrix: (Units=GPa)
#
#
# Indices 1 2 3 4 5 6 
#
# 1 49.6038 20.7819 42.5728 -7.5838 -12.2112 -11.6022
# 2 20.7819 58.0831 39.3452 -12.5363 -3.2775 -18.5736
# 3 42.5728 39.3452 230.8542 -17.2777 -0.0880 -26.4546
# 4 -7.5838 -12.5363 -17.2777 32.3999 -7.1769 5.2773
# 5 -12.2112 -3.2775 -0.0880 -7.1769 47.3474 2.6397
# 6 -11.6022 -18.5736 -26.4546 5.2773 2.6397 19.6394
#
#
#
# Elastic Compliance Matrix: (Units=1/GPa)
#
#
# Indices 1 2 3 4 5 6 
#
# 1 0.029001 -0.004927 -0.003580 0.003683 0.007374 0.005669
# 2 -0.004927 0.027307 -0.001034 0.005695 0.000369 0.019942
# 3 -0.003580 -0.001034 0.005756 0.000838 -0.001113 0.004585
# 4 0.003683 0.005695 0.000838 0.036239 0.006949 -0.001982
# 5 0.007374 0.000369 -0.001113 0.006949 0.024206 -0.001915
# 6 0.005669 0.019942 0.004585 -0.001982 -0.001915 0.080092
#
#
# Mechanical properties :
#
#
# Convention : Reuss Voigt Hill
#
# Bulk Modulus (GPa) = 23.26616 60.43789 41.85202
# Shear Modulus (GPa) = 21.18548 35.60009 28.39278
#
# Velocity S-wave (km/s) = 2.98385 3.86798 3.45432
# Velocity P-wave (km/s) = 4.65284 6.73408 5.78778
#
# Compressibility (1/GPa) = 0.04298088
#
# Stress axis : x y z
#
# Youngs Moduli (GPa) = 34.48117 36.62100 173.73494
#
# Poissons Ratio (x) = 0.18045 0.62203
# Poissons Ratio (y) = 0.16990 0.17960
# Poissons Ratio (z) = 0.12346 0.03786
#
# Static dielectric constant tensor:
#      x y z
#    x 1.915830 -0.009060 0.015240 
#    y -0.009060 1.984700 -0.038370 
#    z 0.015240 -0.038370 1.906420 
# 
# From -- ./inp_files/414553.got.cif
#   From: 2010.05.17/outbox.cif.g08.bks.cpg/sg2_208_cif.got.tgz:414553.got - 2010.06.03 11:33:40.
