data_PCOD9076094
_publ_section_title
;
Structure prediction by ZEFSAII (Michael W. Deem and Ramdas Pophale) SiO2 
 PCOD9076094
Probable space group: P -1
;
_chemical_formula_sum "Si O2"
_cell_formula_units_Z 15
_cell_length_a 11.905013
_cell_length_b 15.450032
_cell_length_c 8.589023
_cell_angle_alpha 71.313518
_cell_angle_beta 67.768717
_cell_angle_gamma 23.890264
_cell_volume 590.862472
_symmetry_space_group_name_H-M "P -1"
_symmetry_group_IT_number 2
_symmetry_cell_setting 'triclinic'
loop_
_space_group_symop_operation_xyz
x,y,z
-x,-y,-z
loop_
_atom_site_type_symbol
_atom_site_label
_atom_site_fract_x
_atom_site_fract_y
_atom_site_fract_z
Si Si1 0.000000 0.500000 0.500000
Si Si2 0.194764 0.732614 0.389507
Si Si3 0.529548 0.936255 0.351806
Si Si4 0.761017 0.028576 0.670410
Si Si5 0.227906 0.084750 0.952989
Si Si6 0.726025 0.539804 0.489070
Si Si7 0.435866 0.454380 0.955370
Si Si8 0.669286 0.136595 0.220257
O O1 0.825838 0.681134 0.364447
O O2 0.008188 0.407398 0.408283
O O3 0.240315 0.591318 0.430833
O O4 0.468011 0.589396 0.245089
O O5 0.084084 0.832578 0.563495
O O6 0.942517 0.952572 0.293801
O O7 0.500000 0.000000 0.500000
O O8 0.300339 0.014847 0.388232
O O9 0.565247 0.972828 0.158143
O O10 0.730483 0.009909 0.868230
O O11 0.517759 0.267183 0.617452
O O12 0.897928 0.339139 0.982809
O O13 0.283818 0.986532 0.827470
O O14 0.611463 0.669944 0.634506
O O15 0.500000 0.500000 0.000000
O O16 0.622001 0.249585 0.058270
#
# Coordination Sequence:
#
# PCOD9076094 Si02
#       8
#     1   2   2   2   2   2   2   2
#     4  10  18  32  60  92 116 148 204 258 306 356
#     4  11  22  41  65  90 125 166 213 262 310 367
#     4  11  22  41  67  94 122 164 212 259 307 368
#     4  10  25  41  62  92 135 169 202 255 317 381
#     4  12  25  41  62  96 131 168 206 256 321 376
#     4  10  20  38  61  91 122 163 211 262 307 369
#     4  12  24  39  67  96 123 163 218 270 307 366
#     4  11  21  38  64  92 121 160 216 266 309 363
#
# _framework density 25.386619
#
# number of rings (size 3 to 8) (size 9 to 14) (size 15 to 20)
#    0.000    1.067    2.667    5.600    0.000    1.600 
#    0.000    1.333    0.000    8.000    0.000    0.000 
#    0.000    0.000    0.000    0.000    0.000    0.000 
#
# Total GULP energy -83622.411577 kJ/mol
# GULP energy per Si atom -5574.827438 kJ/mol
# Density = 2.532884 g / cm^3
# Si number density = 25.386619 Si / 1000 Ang^3
#
#
#
# Elastic Constant Matrix: (Units=GPa)
#
#
# Indices 1 2 3 4 5 6 
#
# 1 53.4418 10.2540 10.5272 6.6197 -5.5388 10.3802
# 2 10.2540 124.6152 51.4395 -13.0928 -7.7334 -3.9739
# 3 10.5272 51.4395 160.7847 -8.4714 -13.7422 -0.1528
# 4 6.6197 -13.0928 -8.4714 48.7669 5.3247 -2.2008
# 5 -5.5388 -7.7334 -13.7422 5.3247 36.4980 -2.3037
# 6 10.3802 -3.9739 -0.1528 -2.2008 -2.3037 30.6545
#
#
#
# Elastic Compliance Matrix: (Units=1/GPa)
#
#
# Indices 1 2 3 4 5 6 
#
# 1 0.021532 -0.001971 -0.000779 -0.004226 0.002690 -0.007652
# 2 -0.001971 0.009696 -0.002802 0.002427 0.000480 0.002121
# 3 -0.000779 -0.002802 0.007361 0.000418 0.002006 0.000118
# 4 -0.004226 0.002427 0.000418 0.022275 -0.003022 0.003120
# 5 0.002690 0.000480 0.002006 -0.003022 0.029177 0.001137
# 6 -0.007652 0.002121 0.000118 0.003120 0.001137 0.035798
#
#
# Mechanical properties :
#
#
# Convention : Reuss Voigt Hill
#
# Bulk Modulus (GPa) = 36.38496 53.69812 45.04154
# Shear Modulus (GPa) = 34.22224 40.95862 37.59043
#
# Velocity S-wave (km/s) = 3.67555 4.02107 3.85218
# Velocity P-wave (km/s) = 5.69002 6.53886 6.12915
#
# Compressibility (1/GPa) = 0.02748388
#
# Stress axis : x y z
#
# Youngs Moduli (GPa) = 46.44197 103.13547 135.85938
#
# Poissons Ratio (x) = 0.20331 0.10586
# Poissons Ratio (y) = 0.09155 0.38068
# Poissons Ratio (z) = 0.03619 0.28899
#
# Static dielectric constant tensor:
#      x y z
#    x 1.886600 0.218230 0.145350 
#    y 0.218230 1.836600 -0.116320 
#    z 0.145350 -0.116320 1.872460 
# 
# From -- ./inp_files/317549.got.cif
#   From: 2010.05.17/outbox.cif.g08.bks.cpg/sg2_159_cif.got.tgz:317549.got - 2010.06.03 11:33:40.
