data_PCOD9076059
_publ_section_title
;
Structure prediction by ZEFSAII (Michael W. Deem and Ramdas Pophale) SiO2 
 PCOD9076059
Probable space group: P -1
;
_chemical_formula_sum "Si O2"
_cell_formula_units_Z 12
_cell_length_a 9.948769
_cell_length_b 15.603670
_cell_length_c 11.788522
_cell_angle_alpha 152.155386
_cell_angle_beta 53.292351
_cell_angle_gamma 142.638232
_cell_volume 481.756682
_symmetry_space_group_name_H-M "P -1"
_symmetry_group_IT_number 2
_symmetry_cell_setting 'triclinic'
loop_
_space_group_symop_operation_xyz
x,y,z
-x,-y,-z
loop_
_atom_site_type_symbol
_atom_site_label
_atom_site_fract_x
_atom_site_fract_y
_atom_site_fract_z
Si Si1 0.123648 0.697698 0.890453
Si Si2 0.983289 0.290012 0.664079
Si Si3 0.487266 0.559232 0.827655
Si Si4 0.833375 0.807853 0.250249
Si Si5 0.494492 0.965340 0.327539
Si Si6 0.379767 0.742691 0.610690
O O1 0.027844 0.449779 0.719637
O O2 0.179033 0.682098 0.716489
O O3 0.947666 0.728134 0.034921
O O4 0.373069 0.970314 0.134992
O O5 0.241915 0.412542 0.712242
O O6 0.796045 0.251600 0.797681
O O7 0.835032 0.984036 0.375282
O O8 0.403127 0.442766 0.860971
O O9 0.610185 0.468081 0.617792
O O10 0.600355 0.848675 0.106301
O O11 0.000000 0.000000 0.500000
O O12 0.500000 0.000000 0.500000
O O13 0.614684 0.204300 0.463144
#
# Coordination Sequence:
#
# PCOD9076059 Si02
#       6
#     2   2   2   2   2   2
#     4  11  21  35  63  97 126 151 193 266 303 350
#     4  11  20  36  64  89 115 159 206 243 299 359
#     4  11  20  37  66  89 118 158 209 252 293 356
#     4  10  18  32  59  92 115 156 199 243 292 357
#     4  12  25  40  62  90 123 162 207 251 297 366
#     4  11  23  38  58  99 127 150 201 257 310 342
#
# _framework density 24.908842
#
# number of rings (size 3 to 8) (size 9 to 14) (size 15 to 20)
#    0.000    1.000    8.333    1.500    0.000    2.667 
#    0.000    0.833    0.000    2.000    0.000    0.000 
#    0.000    0.000    0.000    0.000    0.000    0.000 
#
# Total GULP energy -67068.757535 kJ/mol
# GULP energy per Si atom -5589.063128 kJ/mol
# Density = 2.485215 g / cm^3
# Si number density = 24.908842 Si / 1000 Ang^3
#
#
#
# Elastic Constant Matrix: (Units=GPa)
#
#
# Indices 1 2 3 4 5 6 
#
# 1 83.1378 14.1456 54.7102 -8.3362 -14.1860 -22.5184
# 2 14.1456 94.9095 51.7973 -22.6783 -19.7943 -10.9662
# 3 54.7102 51.7973 153.7678 -5.6507 -45.3959 -8.4475
# 4 -8.3362 -22.6783 -5.6507 53.2612 -1.2763 -9.6754
# 5 -14.1860 -19.7943 -45.3959 -1.2763 57.8314 8.2516
# 6 -22.5184 -10.9662 -8.4475 -9.6754 8.2516 32.5387
#
#
#
# Elastic Compliance Matrix: (Units=1/GPa)
#
#
# Indices 1 2 3 4 5 6 
#
# 1 0.022325 0.005068 -0.009052 0.007856 -0.002249 0.017714
# 2 0.005068 0.016718 -0.006323 0.009076 0.000775 0.010002
# 3 -0.009052 -0.006323 0.013390 -0.003954 0.007168 -0.007913
# 4 0.007856 0.009076 -0.003954 0.026215 0.000343 0.015177
# 5 -0.002249 0.000775 0.007168 0.000343 0.023391 -0.005264
# 6 0.017714 0.010002 -0.007913 0.015177 -0.005264 0.050156
#
#
# Mechanical properties :
#
#
# Convention : Reuss Voigt Hill
#
# Bulk Modulus (GPa) = 31.42870 63.68017 47.55444
# Shear Modulus (GPa) = 27.26061 42.80373 35.03217
#
# Velocity S-wave (km/s) = 3.31178 4.14987 3.75429
# Velocity P-wave (km/s) = 5.22195 6.97013 6.15839
#
# Compressibility (1/GPa) = 0.03181805
#
# Stress axis : x y z
#
# Youngs Moduli (GPa) = 44.79319 59.81671 74.68225
#
# Poissons Ratio (x) = -0.30313 0.67605
# Poissons Ratio (y) = -0.22700 0.47219
# Poissons Ratio (z) = 0.40548 0.37820
#
# Static dielectric constant tensor:
#      x y z
#    x 2.196600 0.036940 0.166390 
#    y 0.036940 1.890660 0.028470 
#    z 0.166390 0.028470 2.084810 
# 
# From -- ./inp_files/166805.got.cif
#   From: 2010.05.17/outbox.cif.g08.bks.cpg/sg2_84_cif.got.tgz:166805.got - 2010.06.03 11:33:40.
