data_PCOD9076023
_publ_section_title
;
Structure prediction by ZEFSAII (Michael W. Deem and Ramdas Pophale) SiO2 
 PCOD9076023
Probable space group: P -1
;
_chemical_formula_sum "Si O2"
_cell_formula_units_Z 15
_cell_length_a 12.477072
_cell_length_b 9.344885
_cell_length_c 7.881152
_cell_angle_alpha 119.662182
_cell_angle_beta 117.875196
_cell_angle_gamma 99.183504
_cell_volume 607.571205
_symmetry_space_group_name_H-M "P -1"
_symmetry_group_IT_number 2
_symmetry_cell_setting 'triclinic'
loop_
_space_group_symop_operation_xyz
x,y,z
-x,-y,-z
loop_
_atom_site_type_symbol
_atom_site_label
_atom_site_fract_x
_atom_site_fract_y
_atom_site_fract_z
Si Si1 0.269384 0.501330 0.339353
Si Si2 0.160119 0.086580 0.608522
Si Si3 0.330197 0.887227 0.596163
Si Si4 0.431895 0.475842 0.161746
Si Si5 0.000000 0.500000 0.000000
Si Si6 0.775780 0.215385 0.915399
Si Si7 0.163803 0.110567 0.224079
Si Si8 0.585199 0.297801 0.031641
O O1 0.301348 0.700310 0.565848
O O2 0.405632 0.554470 0.359337
O O3 0.136499 0.466841 0.102033
O O4 0.225422 0.307750 0.288583
O O5 0.178010 0.136960 0.452488
O O6 0.201190 0.922190 0.559092
O O7 0.282421 0.278090 0.900789
O O8 0.000000 0.000000 0.500000
O O9 0.323296 0.851414 0.366480
O O10 0.473595 0.076929 0.852119
O O11 0.461740 0.631180 0.130871
O O12 0.551625 0.419932 0.211369
O O13 0.073472 0.632790 0.962252
O O14 0.726550 0.308889 0.076797
O O15 0.775870 0.025936 0.865029
O O16 0.000000 0.000000 0.000000
#
# Coordination Sequence:
#
# PCOD9076023 Si02
#       8
#     2   2   2   2   1   2   2   2
#     4  11  21  37  64  90 121 156 208 253 301 363
#     4  10  22  39  62  91 125 157 199 252 310 363
#     4   9  20  35  61  88 116 159 212 247 291 366
#     4  10  21  35  65  91 120 156 206 258 299 357
#     4  10  18  32  58  92 112 152 204 244 296 352
#     4  10  19  33  60  88 120 153 203 249 292 364
#     4  11  22  38  60  92 125 157 202 249 309 367
#     4  10  19  37  61  88 117 162 214 246 297 359
#
# _framework density 24.688464
#
# number of rings (size 3 to 8) (size 9 to 14) (size 15 to 20)
#    0.000    1.867    4.000    1.200    3.733    0.000 
#    0.000    2.000    5.867    0.000    0.000    0.000 
#    0.000    0.000    0.000    0.000    0.000    0.000 
#
# Total GULP energy -83646.495720 kJ/mol
# GULP energy per Si atom -5576.433048 kJ/mol
# Density = 2.463227 g / cm^3
# Si number density = 24.688464 Si / 1000 Ang^3
#
#
#
# Elastic Constant Matrix: (Units=GPa)
#
#
# Indices 1 2 3 4 5 6 
#
# 1 153.2820 50.7043 19.5958 17.9334 -9.7466 -10.8178
# 2 50.7043 194.8330 4.6524 35.8638 -0.8592 -25.7083
# 3 19.5958 4.6524 52.7296 10.0884 -2.3037 -1.2872
# 4 17.9334 35.8638 10.0884 31.0664 1.5398 3.3784
# 5 -9.7466 -0.8592 -2.3037 1.5398 35.5915 2.7498
# 6 -10.8178 -25.7083 -1.2872 3.3784 2.7498 40.6006
#
#
#
# Elastic Compliance Matrix: (Units=1/GPa)
#
#
# Indices 1 2 3 4 5 6 
#
# 1 0.007743 -0.001346 -0.002177 -0.002438 0.001959 0.001212
# 2 -0.001346 0.007923 0.001757 -0.009536 -0.000077 0.005513
# 3 -0.002177 0.001757 0.021220 -0.007908 0.001023 0.001794
# 4 -0.002438 -0.009536 -0.007908 0.048480 -0.002673 -0.010792
# 5 0.001959 -0.000077 0.001023 -0.002673 0.028908 -0.001230
# 6 0.001212 0.005513 0.001794 -0.010792 -0.001230 0.029482
#
#
# Mechanical properties :
#
#
# Convention : Reuss Voigt Hill
#
# Bulk Modulus (GPa) = 29.98114 61.19440 45.58777
# Shear Modulus (GPa) = 31.56447 43.17784 37.37116
#
# Velocity S-wave (km/s) = 3.57951 4.18653 3.89486
# Velocity P-wave (km/s) = 5.40869 6.94333 6.22350
#
# Compressibility (1/GPa) = 0.03335431
#
# Stress axis : x y z
#
# Youngs Moduli (GPa) = 129.15382 126.20947 47.12482
#
# Poissons Ratio (x) = 0.16984 0.10259
# Poissons Ratio (y) = 0.17380 -0.08279
# Poissons Ratio (z) = 0.28118 -0.22172
#
# Static dielectric constant tensor:
#      x y z
#    x 1.920690 0.008260 -0.049080 
#    y 0.008260 1.946470 -0.047280 
#    z -0.049080 -0.047280 2.088910 
# 
# From -- ./inp_files/241138.got.cif
#   From: 2010.05.17/outbox.cif.g08.bks.cpg/sg2_121_cif.got.tgz:241138.got - 2010.06.03 11:33:40.
