data_PCOD9076319
_publ_section_title
;
Structure prediction by ZEFSAII (Michael W. Deem and Ramdas Pophale) SiO2 
 PCOD9076319
Probable space group: P -1
;
_chemical_formula_sum "Si O2"
_cell_formula_units_Z 12
_cell_length_a 12.381976
_cell_length_b 9.528599
_cell_length_c 8.359958
_cell_angle_alpha 113.919111
_cell_angle_beta 31.973811
_cell_angle_gamma 100.143059
_cell_volume 447.823143
_symmetry_space_group_name_H-M "P -1"
_symmetry_group_IT_number 2
_symmetry_cell_setting 'triclinic'
loop_
_space_group_symop_operation_xyz
x,y,z
-x,-y,-z
loop_
_atom_site_type_symbol
_atom_site_label
_atom_site_fract_x
_atom_site_fract_y
_atom_site_fract_z
Si Si1 0.752610 0.365108 0.765007
Si Si2 0.865833 0.000973 0.329753
Si Si3 0.458301 0.947579 0.701360
Si Si4 0.248686 0.501380 0.492804
Si Si5 0.737466 0.862430 0.688011
Si Si6 0.275679 0.655999 0.844404
O O1 0.760578 0.189868 0.602291
O O2 0.855842 0.434405 0.519876
O O3 0.501945 0.484083 0.149794
O O4 0.826556 0.341614 0.847297
O O5 0.698354 0.910864 0.451212
O O6 0.925899 0.910714 0.385087
O O7 0.000000 0.000000 0.000000
O O8 0.369567 0.801005 0.759762
O O9 0.500000 0.000000 0.500000
O O10 0.280820 0.100470 0.082969
O O11 0.256389 0.318925 0.432243
O O12 0.162364 0.616382 0.807988
O O13 0.500000 0.000000 0.000000
O O14 0.500000 0.500000 0.500000
#
# Coordination Sequence:
#
# PCOD9076319 Si02
#       6
#     2   2   2   2   2   2
#     4  10  18  33  54  85 112 152 191 239 295 343
#     4  11  21  38  59  83 123 162 188 236 308 358
#     4  11  21  35  61  90 112 147 211 249 278 348
#     4  10  19  32  60  87 115 143 202 252 290 334
#     4  10  18  37  57  85 116 153 197 245 286 350
#     4  10  19  31  55  87 116 141 191 252 292 331
#
# _framework density 26.796292000000001
#
# number of rings (size 3 to 8) (size 9 to 14) (size 15 to 20)
#    0.000    1.667    5.000    4.000    4.667    0.000 
#    0.000    1.667    0.000    9.000    0.000    0.000 
#    0.000    0.000    0.000    0.000    0.000    0.000 
#
# Total GULP energy -67015.630812 kJ/mol
# GULP energy per Si atom -5584.635901 kJ/mol
# Density = 2.673530 g / cm^3
# Si number density = 26.796292 Si / 1000 Ang^3
#
#
#
# Elastic Constant Matrix: (Units=GPa)
#
#
# Indices 1 2 3 4 5 6 
#
# 1 129.7331 47.4688 68.4712 -18.6937 43.9046 -14.7532
# 2 47.4688 180.2573 75.9243 -20.7050 33.2854 7.3331
# 3 68.4712 75.9243 198.8475 -18.2282 60.6410 5.8564
# 4 -18.6937 -20.7050 -18.2282 51.5618 1.0930 17.8510
# 5 43.9046 33.2854 60.6410 1.0930 68.0425 -12.1376
# 6 -14.7532 7.3331 5.8564 17.8510 -12.1376 41.6428
#
#
#
# Elastic Compliance Matrix: (Units=1/GPa)
#
#
# Indices 1 2 3 4 5 6 
#
# 1 0.011279 -0.001125 -0.001847 0.002376 -0.004754 0.002050
# 2 -0.001125 0.007377 -0.001239 0.003463 -0.002501 -0.003737
# 3 -0.001847 -0.001239 0.008836 0.004000 -0.007117 -0.005468
# 4 0.002376 0.003463 0.004000 0.028651 -0.010023 -0.015534
# 5 -0.004754 -0.002501 -0.007117 -0.010023 0.027652 0.012113
# 6 0.002050 -0.003737 -0.005468 -0.015534 0.012113 0.036357
#
#
# Mechanical properties :
#
#
# Convention : Reuss Voigt Hill
#
# Bulk Modulus (GPa) = 52.43906 99.17406 75.80656
# Shear Modulus (GPa) = 37.05599 53.38099 45.21849
#
# Velocity S-wave (km/s) = 3.72274 4.46814 4.11236
# Velocity P-wave (km/s) = 6.17174 7.98184 7.13443
#
# Compressibility (1/GPa) = 0.01906976
#
# Stress axis : x y z
#
# Youngs Moduli (GPa) = 88.66208 135.54784 113.16974
#
# Poissons Ratio (x) = 0.15247 0.20904
# Poissons Ratio (y) = 0.09973 0.14026
# Poissons Ratio (z) = 0.16377 0.16799
#
# Static dielectric constant tensor:
#      x y z
#    x 2.763890 -0.195540 0.426520 
#    y -0.195540 2.136930 0.057760 
#    z 0.426520 0.057760 2.540130 
# 
# From -- ./inp_files/151643.got.cif
#   From: 2010.05.17/outbox.cif.g08.bks.cpg/sg2_76_cif.got.tgz:151643.got - 2010.06.03 11:33:40.
