data_PCOD9076165
_publ_section_title
;
Structure prediction by ZEFSAII (Michael W. Deem and Ramdas Pophale) SiO2 
 PCOD9076165
Probable space group: P -1
;
_chemical_formula_sum "Si O2"
_cell_formula_units_Z 16
_cell_length_a 16.478280
_cell_length_b 7.122330
_cell_length_c 10.453247
_cell_angle_alpha 90.115505
_cell_angle_beta 49.288405
_cell_angle_gamma 89.048661
_cell_volume 929.679987
_symmetry_space_group_name_H-M "P -1"
_symmetry_group_IT_number 2
_symmetry_cell_setting 'triclinic'
loop_
_space_group_symop_operation_xyz
x,y,z
-x,-y,-z
loop_
_atom_site_type_symbol
_atom_site_label
_atom_site_fract_x
_atom_site_fract_y
_atom_site_fract_z
Si Si1 0.369272 0.516530 0.262849
Si Si2 0.037533 0.790817 0.751531
Si Si3 0.248376 0.369540 0.158591
Si Si4 0.986412 0.759011 0.236970
Si Si5 0.534371 0.793174 0.001369
Si Si6 0.794103 0.502983 0.345038
Si Si7 0.980060 0.780436 0.531863
Si Si8 0.844362 0.529985 0.014655
O O1 0.284441 0.515518 0.231419
O O2 0.445386 0.337733 0.145528
O O3 0.307326 0.494286 0.458030
O O4 0.442839 0.695551 0.177389
O O5 0.040645 0.724262 0.599186
O O6 0.142381 0.696958 0.705738
O O7 0.932561 0.694833 0.918790
O O8 0.973954 0.983426 0.232895
O O9 0.350606 0.226813 0.047646
O O10 0.143215 0.266631 0.315920
O O11 0.222624 0.454135 0.046877
O O12 0.878080 0.657401 0.308141
O O13 0.010669 0.705668 0.360747
O O14 0.083312 0.661210 0.060175
O O15 0.500000 0.000000 0.000000
O O16 0.776745 0.540815 0.213367
O O17 0.000000 0.000000 0.500000
#
# Coordination Sequence:
#
# PCOD9076165 Si02
#       8
#     2   2   2   2   2   2   2   2
#     4   9  20  36  58  81  99 132 177 222 268 314
#     4   9  20  32  49  76 108 146 187 209 250 309
#     4   9  18  37  53  76 108 136 170 225 259 310
#     4  10  18  33  50  72 112 148 178 217 251 297
#     4   9  19  38  62  82  97 126 175 227 276 315
#     4  11  21  33  52  76 108 145 177 212 256 311
#     4   9  17  28  50  83 106 136 175 214 258 299
#     4  10  22  33  48  77 110 146 177 207 258 311
#
# _framework density 17.210225000000001
#
# number of rings (size 3 to 8) (size 9 to 14) (size 15 to 20)
#    0.750    1.750    1.250    1.500    1.750    6.500 
#    4.500    0.625    0.000    0.750    0.000    0.000 
#    0.000    0.000    0.000    0.000    0.000    0.000 
#
# Total GULP energy -89092.526957 kJ/mol
# GULP energy per Si atom -5568.282935 kJ/mol
# Density = 1.717105 g / cm^3
# Si number density = 17.210225 Si / 1000 Ang^3
#
#
#
# Elastic Constant Matrix: (Units=GPa)
#
#
# Indices 1 2 3 4 5 6 
#
# 1 32.2367 6.2564 21.8254 -1.5846 0.6277 -1.3272
# 2 6.2564 102.4952 16.5233 -4.6872 -0.4292 -6.2772
# 3 21.8254 16.5233 128.1205 2.7253 15.1678 2.8403
# 4 -1.5846 -4.6872 2.7253 12.3816 -0.6381 3.0618
# 5 0.6277 -0.4292 15.1678 -0.6381 21.2080 -0.4642
# 6 -1.3272 -6.2772 2.8403 3.0618 -0.4642 15.2139
#
#
#
# Elastic Compliance Matrix: (Units=1/GPa)
#
#
# Indices 1 2 3 4 5 6 
#
# 1 0.035994 -0.000667 -0.006693 0.005244 0.003936 0.003179
# 2 -0.000667 0.010450 -0.001575 0.003326 0.001543 0.003925
# 3 -0.006693 -0.001575 0.010137 -0.003399 -0.007245 -0.002663
# 4 0.005244 0.003326 -0.003399 0.087387 0.004644 -0.014981
# 5 0.003936 0.001543 -0.007245 0.004644 0.052453 0.002998
# 6 0.003179 0.003925 -0.002663 -0.014981 0.002998 0.071230
#
#
# Mechanical properties :
#
#
# Convention : Reuss Voigt Hill
#
# Bulk Modulus (GPa) = 25.83242 39.11808 32.47525
# Shear Modulus (GPa) = 16.75460 24.31052 20.53256
#
# Velocity S-wave (km/s) = 3.12352 3.76249 3.45779
# Velocity P-wave (km/s) = 5.29632 6.45399 5.90360
#
# Compressibility (1/GPa) = 0.03871105
#
# Stress axis : x y z
#
# Youngs Moduli (GPa) = 27.78266 95.69323 98.64425
#
# Poissons Ratio (x) = 0.06383 0.66027
# Poissons Ratio (y) = 0.01853 0.15532
# Poissons Ratio (z) = 0.18596 0.15067
#
# Static dielectric constant tensor:
#      x y z
#    x 1.599020 0.002410 0.035960 
#    y 0.002410 1.591170 0.004880 
#    z 0.035960 0.004880 1.623970 
# 
# From -- ./inp_files/324741.got.cif
#   From: 2010.05.17/outbox.cif.g08.bks.cpg/sg2_163_cif.got.tgz:324741.got - 2010.06.03 11:33:40.
