data_PCOD9076103
_publ_section_title
;
Structure prediction by ZEFSAII (Michael W. Deem and Ramdas Pophale) SiO2 
 PCOD9076103
Probable space group: P -1
;
_chemical_formula_sum "Si O2"
_cell_formula_units_Z 14
_cell_length_a 9.189891
_cell_length_b 9.502281
_cell_length_c 13.148385
_cell_angle_alpha 134.344238
_cell_angle_beta 41.707354
_cell_angle_gamma 121.955631
_cell_volume 546.249686
_symmetry_space_group_name_H-M "P -1"
_symmetry_group_IT_number 2
_symmetry_cell_setting 'triclinic'
loop_
_space_group_symop_operation_xyz
x,y,z
-x,-y,-z
loop_
_atom_site_type_symbol
_atom_site_label
_atom_site_fract_x
_atom_site_fract_y
_atom_site_fract_z
Si Si1 0.371995 0.235621 0.837967
Si Si2 0.932376 0.741584 0.385539
Si Si3 0.345990 0.367528 0.145281
Si Si4 0.147753 0.693356 0.621454
Si Si5 0.788157 0.066673 0.494414
Si Si6 0.103752 0.715139 0.877889
Si Si7 0.573040 0.695022 0.713932
O O1 0.492113 0.442049 0.845524
O O2 0.526587 0.063336 0.633467
O O3 0.123312 0.219041 0.922906
O O4 0.366727 0.252472 0.971276
O O5 0.936449 0.516042 0.240708
O O6 0.728579 0.781521 0.588258
O O7 0.137525 0.806830 0.380126
O O8 0.899722 0.863746 0.361672
O O9 0.391069 0.238403 0.155810
O O10 0.089399 0.418808 0.314365
O O11 0.150138 0.827718 0.588717
O O12 0.145627 0.801272 0.786368
O O13 0.342376 0.533908 0.442346
O O14 0.324094 0.726883 0.831664
#
# Coordination Sequence:
#
# PCOD9076103 Si02
#       7
#     2   2   2   2   2   2   2
#     4  10  20  35  57  88 110 150 188 238 274 340
#     4  10  21  35  59  90 114 141 188 249 279 322
#     4  10  18  32  61  81 111 141 203 227 274 323
#     4  10  18  34  60  84 105 153 192 230 271 340
#     4  11  20  36  61  86 118 141 188 240 293 321
#     4  10  23  37  59  83 119 147 195 226 278 337
#     4  11  19  36  58  86 111 153 191 234 268 341
#
# _framework density 25.629303
#
# number of rings (size 3 to 8) (size 9 to 14) (size 15 to 20)
#    0.000    1.714    2.857    5.571    0.000    0.571 
#    0.000    4.286    6.286    0.000    0.000    0.000 
#    0.000    0.000    0.000    0.000    0.000    0.000 
#
# Total GULP energy -78394.153876 kJ/mol
# GULP energy per Si atom -5599.582420 kJ/mol
# Density = 2.557097 g / cm^3
# Si number density = 25.629303 Si / 1000 Ang^3
#
#
#
# Elastic Constant Matrix: (Units=GPa)
#
#
# Indices 1 2 3 4 5 6 
#
# 1 158.9016 34.4518 55.1538 -13.5862 -38.5363 -24.2950
# 2 34.4518 123.3244 29.2430 -11.4898 -2.4624 -35.1145
# 3 55.1538 29.2430 89.0312 -21.3019 -20.8691 -7.1461
# 4 -13.5862 -11.4898 -21.3019 22.5159 4.1766 12.0237
# 5 -38.5363 -2.4624 -20.8691 4.1766 51.6414 -4.3774
# 6 -24.2950 -35.1145 -7.1461 12.0237 -4.3774 39.0990
#
#
#
# Elastic Compliance Matrix: (Units=1/GPa)
#
#
# Indices 1 2 3 4 5 6 
#
# 1 0.010597 0.000329 -0.005428 -0.004028 0.006723 0.007880
# 2 0.000329 0.011834 -0.003937 -0.003591 0.000465 0.011269
# 3 -0.005428 -0.003937 0.019824 0.017743 0.001612 -0.008561
# 4 -0.004028 -0.003591 0.017743 0.070836 -0.003829 -0.024697
# 5 0.006723 0.000465 0.001612 -0.003829 0.026127 0.008993
# 6 0.007880 0.011269 -0.008561 -0.024697 0.008993 0.047630
#
#
# Mechanical properties :
#
#
# Convention : Reuss Voigt Hill
#
# Bulk Modulus (GPa) = 41.35068 67.66162 54.50615
# Shear Modulus (GPa) = 23.47654 39.47849 31.47752
#
# Velocity S-wave (km/s) = 3.02984 3.92901 3.50835
# Velocity P-wave (km/s) = 5.33002 6.85859 6.14204
#
# Compressibility (1/GPa) = 0.02418340
#
# Stress axis : x y z
#
# Youngs Moduli (GPa) = 94.36860 84.50541 50.44448
#
# Poissons Ratio (x) = -0.02784 0.27382
# Poissons Ratio (y) = -0.03109 0.19858
# Poissons Ratio (z) = 0.51224 0.33267
#
# Static dielectric constant tensor:
#      x y z
#    x 2.006580 0.023120 0.001630 
#    y 0.023120 2.065890 0.008260 
#    z 0.001630 0.008260 2.025990 
# 
# From -- ./inp_files/379800.got.cif
#   From: 2010.05.17/outbox.cif.g08.bks.cpg/sg2_190_cif.got.tgz:379800.got - 2010.06.03 11:33:40.
