data_PCOD9076509
_publ_section_title
;
Structure prediction by ZEFSAII (Michael W. Deem and Ramdas Pophale) SiO2 
 PCOD9076509
Probable space group: P -1
;
_chemical_formula_sum "Si O2"
_cell_formula_units_Z 16
_cell_length_a 15.170920
_cell_length_b 7.677197
_cell_length_c 7.475739
_cell_angle_alpha 59.735450
_cell_angle_beta 114.840163
_cell_angle_gamma 112.498042
_cell_volume 666.029164
_symmetry_space_group_name_H-M "P -1"
_symmetry_group_IT_number 2
_symmetry_cell_setting 'triclinic'
loop_
_space_group_symop_operation_xyz
x,y,z
-x,-y,-z
loop_
_atom_site_type_symbol
_atom_site_label
_atom_site_fract_x
_atom_site_fract_y
_atom_site_fract_z
Si Si1 0.619984 0.914272 0.313339
Si Si2 0.963594 0.941825 0.720442
Si Si3 0.921652 0.287115 0.297702
Si Si4 0.325527 0.352910 0.179683
Si Si5 0.423273 0.880891 0.355142
Si Si6 0.727805 0.232652 0.974000
Si Si7 0.120592 0.277409 0.874190
Si Si8 0.540855 0.514351 0.316921
O O1 0.664121 0.831548 0.576572
O O2 0.502862 0.908669 0.245834
O O3 0.611139 0.735659 0.248792
O O4 0.680100 0.123825 0.172724
O O5 0.065085 0.110418 0.770605
O O6 0.894808 0.090120 0.508713
O O7 0.981803 0.767565 0.687093
O O8 0.919040 0.824536 0.918356
O O9 0.914731 0.502764 0.274360
O O10 0.844121 0.266017 0.079551
O O11 0.299306 0.543304 0.170859
O O12 0.438164 0.442497 0.159118
O O13 0.239528 0.309872 0.980050
O O14 0.322031 0.902036 0.166559
O O15 0.397454 0.660394 0.545456
O O16 0.500000 0.000000 0.500000
O O17 0.500000 0.500000 0.500000
#
# Coordination Sequence:
#
# PCOD9076509 Si02
#       8
#     2   2   2   2   2   2   2   2
#     4  10  18  33  57  72 103 145 181 207 252 322
#     4  10  21  39  55  83 112 138 181 227 283 326
#     4  10  22  36  58  82 112 140 182 230 272 325
#     4   9  17  32  53  81 103 132 184 216 253 309
#     4  10  19  32  51  77 110 137 173 226 264 295
#     4  11  19  33  57  79  98 146 185 207 259 325
#     4  10  20  35  62  81 106 148 179 221 277 337
#     4   8  15  31  50  69 102 139 166 208 250 300
#
# _framework density 24.022971999999999
#
# number of rings (size 3 to 8) (size 9 to 14) (size 15 to 20)
#    0.000    2.500    3.750    1.875    0.000    2.000 
#    0.000    0.625    5.500    0.000    0.000    0.000 
#    0.000    0.000    0.000    0.000    0.000    0.000 
#
# Total GULP energy -89069.084867 kJ/mol
# GULP energy per Si atom -5566.817804 kJ/mol
# Density = 2.396829 g / cm^3
# Si number density = 24.022972 Si / 1000 Ang^3
#
#
#
# Elastic Constant Matrix: (Units=GPa)
#
#
# Indices 1 2 3 4 5 6 
#
# 1 24.7652 3.1355 16.5769 -4.2480 7.1044 -2.7490
# 2 3.1355 45.4857 12.2203 -1.1887 11.9952 -0.7509
# 3 16.5769 12.2203 102.3998 -0.4768 26.7105 2.2599
# 4 -4.2480 -1.1887 -0.4768 43.0581 2.2499 13.8159
# 5 7.1044 11.9952 26.7105 2.2499 28.9527 0.9785
# 6 -2.7490 -0.7509 2.2599 13.8159 0.9785 19.3003
#
#
#
# Elastic Compliance Matrix: (Units=1/GPa)
#
#
# Indices 1 2 3 4 5 6 
#
# 1 0.047481 0.000274 -0.006116 0.003190 -0.006557 0.005539
# 2 0.000274 0.024766 -0.000387 0.000951 -0.010075 0.000878
# 3 -0.006116 -0.000387 0.013732 0.000953 -0.010992 -0.002619
# 4 0.003190 0.000951 0.000953 0.030621 -0.003713 -0.021352
# 5 -0.006557 -0.010075 -0.010992 -0.003713 0.050750 0.000046
# 6 0.005539 0.000878 -0.002619 -0.021352 0.000046 0.068224
#
#
# Mechanical properties :
#
#
# Convention : Reuss Voigt Hill
#
# Bulk Modulus (GPa) = 13.60155 26.27956 19.94056
# Shear Modulus (GPa) = 18.34594 27.64342 22.99468
#
# Velocity S-wave (km/s) = 2.76648 3.39589 3.09721
# Velocity P-wave (km/s) = 3.98481 5.13217 4.59445
#
# Compressibility (1/GPa) = 0.07352104
#
# Stress axis : x y z
#
# Youngs Moduli (GPa) = 21.06086 40.37770 72.82519
#
# Poissons Ratio (x) = -0.01107 0.44541
# Poissons Ratio (y) = -0.00577 0.02818
# Poissons Ratio (z) = 0.12881 0.01563
#
# Static dielectric constant tensor:
#      x y z
#    x 1.997920 -0.087510 -0.006640 
#    y -0.087510 2.049020 0.023630 
#    z -0.006640 0.023630 1.998430 
# 
# From -- ./inp_files/327226.got.cif
#   From: 2010.05.17/outbox.cif.g08.bks.cpg/sg2_164_cif.got.tgz:327226.got - 2010.06.03 11:33:40.
