data_PCOD9076993
_publ_section_title
;
Structure prediction by ZEFSAII (Michael W. Deem and Ramdas Pophale) SiO2 
 PCOD9076993
Probable space group: P -1
;
_chemical_formula_sum "Si O2"
_cell_formula_units_Z 16
_cell_length_a 10.197826
_cell_length_b 18.754302
_cell_length_c 14.220644
_cell_angle_alpha 159.700087
_cell_angle_beta 132.392860
_cell_angle_gamma 50.052623
_cell_volume 696.360251
_symmetry_space_group_name_H-M "P -1"
_symmetry_group_IT_number 2
_symmetry_cell_setting 'triclinic'
loop_
_space_group_symop_operation_xyz
x,y,z
-x,-y,-z
loop_
_atom_site_type_symbol
_atom_site_label
_atom_site_fract_x
_atom_site_fract_y
_atom_site_fract_z
Si Si1 0.252084 0.342280 0.687951
Si Si2 0.634503 0.237736 0.661508
Si Si3 0.669628 0.602389 0.659934
Si Si4 0.137310 0.555432 0.715612
Si Si5 0.236853 0.843354 0.888303
Si Si6 0.040263 0.978315 0.154142
Si Si7 0.347696 0.191240 0.913224
Si Si8 0.497982 0.564628 0.345237
O O1 0.453922 0.257464 0.661766
O O2 0.164320 0.382568 0.593426
O O3 0.138107 0.178233 0.483798
O O4 0.256301 0.568004 0.013300
O O5 0.584240 0.289997 0.593824
O O6 0.718021 0.007911 0.418419
O O7 0.500000 0.500000 0.500000
O O8 0.788423 0.399519 0.442543
O O9 0.589063 0.682405 0.621556
O O10 0.740305 0.750962 0.957372
O O11 0.337632 0.564490 0.783061
O O12 0.000000 0.500000 0.500000
O O13 0.066611 0.782747 0.992034
O O14 0.154662 0.962648 0.906366
O O15 0.445457 0.869729 0.037010
O O16 0.143173 0.914544 0.027601
O O17 0.363920 0.398443 0.115651
#
# Coordination Sequence:
#
# PCOD9076993 Si02
#       8
#     2   2   2   2   2   2   2   2
#     4  10  22  33  47  77 107 138 171 204 248 309
#     4  10  20  34  50  72 106 139 174 205 243 309
#     4   8  16  31  51  77 103 129 169 213 259 295
#     4  11  20  30  51  80 106 133 165 207 260 311
#     4   9  16  28  50  76  99 130 161 203 262 301
#     4  11  18  31  51  71 107 138 159 203 264 306
#     4  10  18  34  54  75 105 134 170 214 257 292
#     4   9  18  32  50  76 106 131 167 211 258 301
#
# _framework density 22.976611999999999
#
# number of rings (size 3 to 8) (size 9 to 14) (size 15 to 20)
#    0.000    2.500    3.750    1.500    1.750    1.500 
#    0.000    3.750    0.000    0.750    0.000    8.750 
#    0.000    0.000    0.000    0.000    0.000    0.000 
#
# Total GULP energy -89288.756546 kJ/mol
# GULP energy per Si atom -5580.547284 kJ/mol
# Density = 2.292432 g / cm^3
# Si number density = 22.976612 Si / 1000 Ang^3
#
#
#
# Elastic Constant Matrix: (Units=GPa)
#
#
# Indices 1 2 3 4 5 6 
#
# 1 33.4787 -0.6406 6.8466 -0.8147 -2.3520 5.5841
# 2 -0.6406 26.0540 -16.3375 10.9188 6.2901 10.7377
# 3 6.8466 -16.3375 128.2067 11.2447 5.4596 8.0468
# 4 -0.8147 10.9188 11.2447 21.6112 8.0189 6.0681
# 5 -2.3520 6.2901 5.4596 8.0189 27.6458 1.6852
# 6 5.5841 10.7377 8.0468 6.0681 1.6852 18.4560
#
#
#
# Elastic Compliance Matrix: (Units=1/GPa)
#
#
# Indices 1 2 3 4 5 6 
#
# 1 0.032446 0.004262 -0.000665 0.002292 0.002046 -0.012947
# 2 0.004262 0.085005 0.016967 -0.035342 -0.009293 -0.045674
# 3 -0.000665 0.016967 0.011733 -0.010687 -0.002461 -0.011047
# 4 0.002292 -0.035342 -0.010687 0.073491 -0.011054 0.001375
# 5 0.002046 -0.009293 -0.002461 -0.011054 0.041807 0.005677
# 6 -0.012947 -0.045674 -0.011047 0.001375 0.005677 0.088520
#
#
# Mechanical properties :
#
#
# Convention : Reuss Voigt Hill
#
# Bulk Modulus (GPa) = 5.87160 18.60849 12.24004
# Shear Modulus (GPa) = 14.34124 26.73398 20.53761
#
# Velocity S-wave (km/s) = 2.50104 3.41476 2.99297
# Velocity P-wave (km/s) = 3.30171 4.86455 4.15723
#
# Compressibility (1/GPa) = 0.17031136
#
# Stress axis : x y z
#
# Youngs Moduli (GPa) = 30.82001 11.76408 85.22930
#
# Poissons Ratio (x) = -0.05014 0.05669
# Poissons Ratio (y) = -0.13135 -1.44607
# Poissons Ratio (z) = 0.02050 -0.19960
#
# Static dielectric constant tensor:
#      x y z
#    x 1.921030 0.003240 0.011880 
#    y 0.003240 1.851640 -0.004220 
#    z 0.011880 -0.004220 1.995220 
# 
# From -- ./inp_files/523986.got.cif
#   From: 2010.05.17/outbox.cif.g08.bks.cpg/sg2_262_cif.got.tgz:523986.got - 2010.06.03 11:33:40.
