data_PCOD9076828
_publ_section_title
;
Structure prediction by ZEFSAII (Michael W. Deem and Ramdas Pophale) SiO2 
 PCOD9076828
Probable space group: P -1
;
_chemical_formula_sum "Si O2"
_cell_formula_units_Z 12
_cell_length_a 4.890317
_cell_length_b 7.191408
_cell_length_c 16.412711
_cell_angle_alpha 56.447403
_cell_angle_beta 64.529541
_cell_angle_gamma 70.065247
_cell_volume 430.169165
_symmetry_space_group_name_H-M "P -1"
_symmetry_group_IT_number 2
_symmetry_cell_setting 'triclinic'
loop_
_space_group_symop_operation_xyz
x,y,z
-x,-y,-z
loop_
_atom_site_type_symbol
_atom_site_label
_atom_site_fract_x
_atom_site_fract_y
_atom_site_fract_z
Si Si1 0.107327 0.619959 0.197943
Si Si2 0.257890 0.886202 0.875067
Si Si3 0.813930 0.202730 0.363851
Si Si4 0.451696 0.966822 0.356071
Si Si5 0.638349 0.757230 0.004710
Si Si6 0.902221 0.518282 0.414175
O O1 0.912792 0.418646 0.252376
O O2 0.143705 0.599106 0.297609
O O3 0.902754 0.857765 0.145690
O O4 0.430054 0.600228 0.115979
O O5 0.547811 0.794964 0.913480
O O6 0.000787 0.732490 0.969081
O O7 0.357966 0.908919 0.764784
O O8 0.899415 0.991526 0.634992
O O9 0.815473 0.295027 0.433832
O O10 0.514842 0.108857 0.393977
O O11 0.616479 0.713257 0.394801
O O12 0.500000 0.000000 0.000000
O O13 0.000000 0.500000 0.500000
#
# Coordination Sequence:
#
# PCOD9076828 Si02
#       6
#     2   2   2   2   2   2
#     4   8  19  38  57  92 126 161 210 263 310 372
#     4  10  20  35  61  90 125 170 211 253 313 377
#     4  10  24  41  67  94 135 166 210 268 322 370
#     4  11  23  44  65  98 134 165 213 266 314 383
#     4  10  18  33  60  91 122 169 212 254 313 371
#     4   9  22  45  70  96 127 170 215 263 327 384
#
# _framework density 27.896004999999999
#
# number of rings (size 3 to 8) (size 9 to 14) (size 15 to 20)
#    1.000    1.333    0.000    3.000    0.000    6.667 
#    0.000    6.667    0.000    0.000    0.000    0.000 
#    0.000    0.000    0.000    0.000    0.000    0.000 
#
# Total GULP energy -67245.574205 kJ/mol
# GULP energy per Si atom -5603.797850 kJ/mol
# Density = 2.783251 g / cm^3
# Si number density = 27.896005 Si / 1000 Ang^3
#
#
#
# Elastic Constant Matrix: (Units=GPa)
#
#
# Indices 1 2 3 4 5 6 
#
# 1 95.6200 16.2662 6.7187 -0.8123 7.9810 4.5632
# 2 16.2662 125.1626 7.5952 -20.7359 14.6540 1.3870
# 3 6.7187 7.5952 122.8263 13.8792 7.8975 2.1662
# 4 -0.8123 -20.7359 13.8792 52.8700 3.3688 6.6316
# 5 7.9810 14.6540 7.8975 3.3688 42.7782 4.3487
# 6 4.5632 1.3870 2.1662 6.6316 4.3487 40.8743
#
#
#
# Elastic Compliance Matrix: (Units=1/GPa)
#
#
# Indices 1 2 3 4 5 6 
#
# 1 0.010860 -0.001204 -0.000412 0.000020 -0.001438 -0.001000
# 2 -0.001204 0.009228 -0.000757 0.004054 -0.003068 -0.000470
# 3 -0.000412 -0.000757 0.008559 -0.002500 -0.001061 0.000137
# 4 0.000020 0.004054 -0.002500 0.021720 -0.002307 -0.003286
# 5 -0.001438 -0.003068 -0.001061 -0.002307 0.025276 -0.001994
# 6 -0.001000 -0.000470 0.000137 -0.003286 -0.001994 0.025331
#
#
# Mechanical properties :
#
#
# Convention : Reuss Voigt Hill
#
# Bulk Modulus (GPa) = 41.83851 44.97434 43.40643
# Shear Modulus (GPa) = 43.98064 48.17310 46.07687
#
# Velocity S-wave (km/s) = 3.97494 4.16008 4.06857
# Velocity P-wave (km/s) = 6.00812 6.26356 6.13717
#
# Compressibility (1/GPa) = 0.02390142
#
# Stress axis : x y z
#
# Youngs Moduli (GPa) = 92.08412 108.36493 116.83314
#
# Poissons Ratio (x) = 0.13043 0.04811
# Poissons Ratio (y) = 0.11084 0.08848
# Poissons Ratio (z) = 0.03792 0.08207
#
# Static dielectric constant tensor:
#      x y z
#    x 2.098480 0.076840 0.017360 
#    y 0.076840 2.216200 0.002990 
#    z 0.017360 0.002990 2.236920 
# 
# From -- ./inp_files/546955.got.cif
#   From: 2010.05.17/outbox.cif.g08.bks.cpg/sg2_274_cif.got.tgz:546955.got - 2010.06.03 11:33:40.
