data_PCOD9076316
_publ_section_title
;
Structure prediction by ZEFSAII (Michael W. Deem and Ramdas Pophale) SiO2 
 PCOD9076316
Probable space group: P -1
;
_chemical_formula_sum "Si O2"
_cell_formula_units_Z 16
_cell_length_a 10.147780
_cell_length_b 8.260313
_cell_length_c 10.622828
_cell_angle_alpha 122.623087
_cell_angle_beta 103.711117
_cell_angle_gamma 56.485179
_cell_volume 622.942056
_symmetry_space_group_name_H-M "P -1"
_symmetry_group_IT_number 2
_symmetry_cell_setting 'triclinic'
loop_
_space_group_symop_operation_xyz
x,y,z
-x,-y,-z
loop_
_atom_site_type_symbol
_atom_site_label
_atom_site_fract_x
_atom_site_fract_y
_atom_site_fract_z
Si Si1 0.226008 0.336718 0.371139
Si Si2 0.527991 0.506659 0.207355
Si Si3 0.236003 0.324485 0.642969
Si Si4 0.701167 0.131537 0.903030
Si Si5 0.796177 0.716816 0.100931
Si Si6 0.233688 0.701410 0.400718
Si Si7 0.408854 0.892102 0.637934
Si Si8 0.087985 0.757846 0.144199
O O1 0.160754 0.350061 0.501349
O O2 0.153341 0.569321 0.380061
O O3 0.407729 0.278929 0.402298
O O4 0.243990 0.126009 0.211241
O O5 0.672043 0.542300 0.285886
O O6 0.422902 0.705819 0.165730
O O7 0.407231 0.550704 0.310432
O O8 0.608538 0.261244 0.061159
O O9 0.150657 0.377981 0.782376
O O10 0.358595 0.058426 0.576652
O O11 0.853366 0.153590 0.918476
O O12 0.918355 0.782981 0.104193
O O13 0.629954 0.941664 0.183177
O O14 0.797894 0.516685 0.943547
O O15 0.281228 0.814997 0.568590
O O16 0.119750 0.845880 0.319413
#
# Coordination Sequence:
#
# PCOD9076316 Si02
#       8
#     2   2   2   2   2   2   2   2
#     4  12  22  35  53  86 120 146 173 219 289 331
#     4  10  18  33  54  84 107 140 186 226 274 318
#     4  10  18  35  57  82 104 145 186 223 267 322
#     4  10  19  33  57  80 108 143 187 228 265 322
#     4   9  21  37  66  80 100 145 195 233 263 309
#     4  11  24  34  54  84 122 145 169 230 279 334
#     4  10  20  36  56  84 108 148 185 222 270 323
#     4  10  20  41  59  83 108 138 192 233 270 315
#
# _framework density 25.684571999999999
#
# number of rings (size 3 to 8) (size 9 to 14) (size 15 to 20)
#    0.750    1.000    3.750    2.250    3.500    1.000 
#    0.000    0.625    0.000    1.500    0.000    0.000 
#    0.000    0.000    0.000    0.000    0.000    0.000 
#
# Total GULP energy -89385.281098 kJ/mol
# GULP energy per Si atom -5586.580069 kJ/mol
# Density = 2.562611 g / cm^3
# Si number density = 25.684572 Si / 1000 Ang^3
#
#
#
# Elastic Constant Matrix: (Units=GPa)
#
#
# Indices 1 2 3 4 5 6 
#
# 1 75.1316 9.4044 8.4951 -0.6717 11.1059 11.9588
# 2 9.4044 50.8028 16.2150 -1.6983 0.6468 20.0836
# 3 8.4951 16.2150 52.4122 37.3037 4.1075 4.3477
# 4 -0.6717 -1.6983 37.3037 9.4628 19.5400 12.5604
# 5 11.1059 0.6468 4.1075 19.5400 30.8681 -2.4237
# 6 11.9588 20.0836 4.3477 12.5604 -2.4237 29.2187
#
#
#
# Elastic Compliance Matrix: (Units=1/GPa)
#
#
# Indices 1 2 3 4 5 6 
#
# 1 0.013827 -0.003045 0.003089 -0.005769 -0.001803 -0.001695
# 2 -0.003045 0.022018 0.002897 -0.012849 0.007743 -0.008153
# 3 0.003089 0.002897 0.007578 0.017266 -0.014129 -0.012977
# 4 -0.005769 -0.012849 0.017266 -0.021221 0.014972 0.018988
# 5 -0.001803 0.007743 -0.014129 0.014972 0.024746 -0.006865
# 6 -0.001695 -0.008153 -0.012977 0.018988 -0.006865 0.033721
#
#
# Mechanical properties :
#
#
# Convention : Reuss Voigt Hill
#
# Bulk Modulus (GPa) = 20.28255 27.39728 23.83992
# Shear Modulus (GPa) = 54.81064 23.52541 39.16803
#
# Velocity S-wave (km/s) = 4.62453 3.02973 3.90931
# Velocity P-wave (km/s) = 6.03564 4.78842 5.44784
#
# Compressibility (1/GPa) = 0.04930347
#
# Stress axis : x y z
#
# Youngs Moduli (GPa) = 72.32402 45.41707 131.96275
#
# Poissons Ratio (x) = 0.13831 -0.40763
# Poissons Ratio (y) = 0.22024 -0.38225
# Poissons Ratio (z) = -0.22341 -0.13156
#
# Static dielectric constant tensor:
#      x y z
#    x 2.004400 -0.019930 -0.005040 
#    y -0.019930 2.032760 -0.006250 
#    z -0.005040 -0.006250 2.029600 
# 
# From -- ./inp_files/179230.got.cif
#   From: 2010.05.17/outbox.cif.g08.bks.cpg/sg2_90_cif.got.tgz:179230.got - 2010.06.03 11:33:40.
