data_PCOD9076557
_publ_section_title
;
Structure prediction by ZEFSAII (Michael W. Deem and Ramdas Pophale) SiO2 
 PCOD9076557
Probable space group: P -1
;
_chemical_formula_sum "Si O2"
_cell_formula_units_Z 16
_cell_length_a 10.616086
_cell_length_b 22.490619
_cell_length_c 17.946751
_cell_angle_alpha 160.199686
_cell_angle_beta 42.249001
_cell_angle_gamma 147.794931
_cell_volume 735.581726
_symmetry_space_group_name_H-M "P -1"
_symmetry_group_IT_number 2
_symmetry_cell_setting 'triclinic'
loop_
_space_group_symop_operation_xyz
x,y,z
-x,-y,-z
loop_
_atom_site_type_symbol
_atom_site_label
_atom_site_fract_x
_atom_site_fract_y
_atom_site_fract_z
Si Si1 0.164611 0.460561 0.056725
Si Si2 0.387722 0.466448 0.117321
Si Si3 0.034123 0.099733 0.966603
Si Si4 0.221644 0.036225 0.406570
Si Si5 0.015809 0.686649 0.483044
Si Si6 0.440296 0.105738 0.256043
Si Si7 0.446655 0.739890 0.765719
Si Si8 0.091247 0.698662 0.634337
O O1 0.230653 0.392402 0.023135
O O2 0.130307 0.636692 0.309713
O O3 0.400317 0.553635 0.011694
O O4 0.904697 0.234258 0.867220
O O5 0.542105 0.741046 0.389680
O O6 0.206729 0.309240 0.079589
O O7 0.741343 0.924869 0.867707
O O8 0.033610 0.196574 0.160689
O O9 0.106088 0.941061 0.744687
O O10 0.264544 0.115600 0.394805
O O11 0.000000 0.000000 0.500000
O O12 0.063551 0.644391 0.495929
O O13 0.713965 0.486788 0.379762
O O14 0.571741 0.295159 0.356677
O O15 0.617101 0.127530 0.267094
O O16 0.337366 0.867963 0.981150
O O17 0.000000 0.500000 0.500000
#
# Coordination Sequence:
#
# PCOD9076557 Si02
#       8
#     2   2   2   2   2   2   2   2
#     4  10  21  39  65  88 113 158 206 252 297 346
#     4  10  22  39  61  90 119 152 207 254 292 353
#     4  11  24  38  56  89 125 159 193 239 310 364
#     4  10  19  34  59  87 114 146 194 252 294 339
#     4  12  22  38  59  86 125 159 195 242 303 368
#     4  10  18  33  57  86 108 144 204 246 290 339
#     4  10  21  34  58  84 117 156 194 244 290 356
#     4  11  21  36  59  84 113 154 198 247 293 345
#
# _framework density 21.751491000000001
#
# number of rings (size 3 to 8) (size 9 to 14) (size 15 to 20)
#    0.000    1.500    2.500    3.750    1.750    0.500 
#    0.000    0.000    0.000    0.000    0.000   10.500 
#    0.000    0.000    0.000    0.000    0.000    0.000 
#
# Total GULP energy -89114.142116 kJ/mol
# GULP energy per Si atom -5569.633882 kJ/mol
# Density = 2.170198 g / cm^3
# Si number density = 21.751491 Si / 1000 Ang^3
#
#
#
# Elastic Constant Matrix: (Units=GPa)
#
#
# Indices 1 2 3 4 5 6 
#
# 1 23.8541 7.7937 19.7795 3.3091 8.4483 8.3891
# 2 7.7937 116.4796 30.8369 -19.9639 4.7361 11.4361
# 3 19.7795 30.8369 127.4532 -18.5022 1.0287 10.1321
# 4 3.3091 -19.9639 -18.5022 50.4067 2.7775 5.7284
# 5 8.4483 4.7361 1.0287 2.7775 32.9975 0.4308
# 6 8.3891 11.4361 10.1321 5.7284 0.4308 21.5853
#
#
#
# Elastic Compliance Matrix: (Units=1/GPa)
#
#
# Indices 1 2 3 4 5 6 
#
# 1 0.061332 -0.000192 -0.008528 -0.004339 -0.014805 -0.018284
# 2 -0.000192 0.010356 -0.001357 0.004380 -0.001686 -0.005904
# 3 -0.008528 -0.001357 0.010190 0.003872 0.001758 -0.001812
# 4 -0.004339 0.004380 0.003872 0.024376 -0.001574 -0.008889
# 5 -0.014805 -0.001686 0.001758 -0.001574 0.034343 0.005555
# 6 -0.018284 -0.005904 -0.001812 -0.008889 0.005555 0.059661
#
#
# Mechanical properties :
#
#
# Convention : Reuss Voigt Hill
#
# Bulk Modulus (GPa) = 16.20171 42.73412 29.46792
# Shear Modulus (GPa) = 20.74794 34.95634 27.85214
#
# Velocity S-wave (km/s) = 3.09182 4.01319 3.58225
# Velocity P-wave (km/s) = 4.49561 6.41587 5.53958
#
# Compressibility (1/GPa) = 0.06172190
#
# Stress axis : x y z
#
# Youngs Moduli (GPa) = 16.30479 96.56005 98.13739
#
# Poissons Ratio (x) = 0.01858 0.83696
# Poissons Ratio (y) = 0.00314 0.13317
# Poissons Ratio (z) = 0.13905 0.13103
#
# Static dielectric constant tensor:
#      x y z
#    x 1.854430 0.091080 0.028260 
#    y 0.091080 1.909910 0.024440 
#    z 0.028260 0.024440 1.896640 
# 
# From -- ./inp_files/571055.got.cif
#   From: 2010.05.17/outbox.cif.g08.bks.cpg/sg2_286_cif.got.tgz:571055.got - 2010.06.03 11:33:40.
