data_PCOD9076838
_publ_section_title
;
Structure prediction by ZEFSAII (Michael W. Deem and Ramdas Pophale) SiO2 
 PCOD9076838
Probable space group: P -1
;
_chemical_formula_sum "Si O2"
_cell_formula_units_Z 11
_cell_length_a 21.724853
_cell_length_b 11.527613
_cell_length_c 14.617228
_cell_angle_alpha 151.191258
_cell_angle_beta 16.338363
_cell_angle_gamma 154.675985
_cell_volume 439.287498
_symmetry_space_group_name_H-M "P -1"
_symmetry_group_IT_number 2
_symmetry_cell_setting 'triclinic'
loop_
_space_group_symop_operation_xyz
x,y,z
-x,-y,-z
loop_
_atom_site_type_symbol
_atom_site_label
_atom_site_fract_x
_atom_site_fract_y
_atom_site_fract_z
Si Si1 0.722056 0.925399 0.149231
Si Si2 0.500466 0.986777 0.772540
Si Si3 0.500000 0.000000 0.000000
Si Si4 0.480920 0.492680 0.693087
Si Si5 0.970885 0.370458 0.243795
Si Si6 0.765620 0.757095 0.776732
O O1 0.596001 0.647824 0.195437
O O2 0.824243 0.904597 0.892193
O O3 0.500000 0.000000 0.500000
O O4 0.926844 0.148586 0.076439
O O5 0.753549 0.204619 0.511864
O O6 0.290709 0.068863 0.096984
O O7 0.446260 0.696278 0.604068
O O8 0.548685 0.999250 0.819060
O O9 0.356751 0.188694 0.314939
O O10 0.231337 0.487658 0.003432
O O11 0.937557 0.615642 0.416977
O O12 0.500000 0.500000 0.000000
#
# Coordination Sequence:
#
# PCOD9076838 Si02
#       6
#     2   2   1   2   2   2
#     4  11  18  34  66  91 117 155 196 257 309 338
#     4  10  21  39  62  90 121 161 205 246 299 367
#     4  12  26  38  64  82 132 174 196 232 314 376
#     4  11  23  41  61  95 123 156 206 253 302 359
#     4  10  22  37  65  98 120 145 210 269 293 344
#     4  10  18  33  60  94 120 150 199 252 302 355
#
# _framework density 25.04055
#
# number of rings (size 3 to 8) (size 9 to 14) (size 15 to 20)
#    0.000    1.455    5.455    4.909    0.000    4.364 
#    0.000    0.909    0.000    3.273    0.000    0.000 
#    0.000    0.000    0.000    0.000    0.000    0.000 
#
# Total GULP energy -61368.074999 kJ/mol
# GULP energy per Si atom -5578.915909 kJ/mol
# Density = 2.498356 g / cm^3
# Si number density = 25.040550 Si / 1000 Ang^3
#
#
#
# Elastic Constant Matrix: (Units=GPa)
#
#
# Indices 1 2 3 4 5 6 
#
# 1 126.9691 -5.5547 31.0402 -16.0442 27.4859 -27.5733
# 2 -5.5547 26.2378 56.5777 -16.1030 18.7258 -31.3026
# 3 31.0402 56.5777 82.5253 32.2553 -27.1927 -14.0796
# 4 -16.0442 -16.1030 32.2553 29.0991 7.5837 -20.1608
# 5 27.4859 18.7258 -27.1927 7.5837 42.4836 18.7485
# 6 -27.5733 -31.3026 -14.0796 -20.1608 18.7485 36.9635
#
#
#
# Elastic Compliance Matrix: (Units=1/GPa)
#
#
# Indices 1 2 3 4 5 6 
#
# 1 0.006632 -0.005643 0.002315 -0.002349 0.000257 -0.000361
# 2 -0.005643 0.006446 0.003636 -0.011341 0.008669 -0.007948
# 3 0.002315 0.003636 0.007835 0.004127 -0.004192 0.012168
# 4 -0.002349 -0.011341 0.004127 0.016507 0.008450 -0.005067
# 5 0.000257 0.008669 -0.004192 0.008450 0.013793 0.003549
# 6 -0.000361 -0.007948 0.012168 -0.005067 0.003549 0.020125
#
#
# Mechanical properties :
#
#
# Convention : Reuss Voigt Hill
#
# Bulk Modulus (GPa) = 46.44442 44.42874 45.43658
# Shear Modulus (GPa) = 64.18587 31.95383 48.06985
#
# Velocity S-wave (km/s) = 5.06837 3.57611 4.38617
# Velocity P-wave (km/s) = 7.26906 5.90192 6.62087
#
# Compressibility (1/GPa) = 0.02153111
#
# Stress axis : x y z
#
# Youngs Moduli (GPa) = 150.77463 155.12983 127.62783
#
# Poissons Ratio (x) = 0.87539 -0.29547
# Poissons Ratio (y) = 0.85082 -0.46411
# Poissons Ratio (z) = -0.34906 -0.56412
#
# Static dielectric constant tensor:
#      x y z
#    x 1.869440 -0.149850 0.006340 
#    y -0.149850 2.386930 -0.061980 
#    z 0.006340 -0.061980 1.997820 
# 
# From -- ./inp_files/540726.got.cif
#   From: 2010.05.17/outbox.cif.g08.bks.cpg/sg2_271_cif.got.tgz:540726.got - 2010.06.03 11:33:40.
