data_PCOD9076800
_publ_section_title
;
Structure prediction by ZEFSAII (Michael W. Deem and Ramdas Pophale) SiO2 
 PCOD9076800
Probable space group: P -1
;
_chemical_formula_sum "Si O2"
_cell_formula_units_Z 16
_cell_length_a 8.157369
_cell_length_b 22.888385
_cell_length_c 9.221081
_cell_angle_alpha 32.742149
_cell_angle_beta 132.275413
_cell_angle_gamma 133.763288
_cell_volume 654.029336
_symmetry_space_group_name_H-M "P -1"
_symmetry_group_IT_number 2
_symmetry_cell_setting 'triclinic'
loop_
_space_group_symop_operation_xyz
x,y,z
-x,-y,-z
loop_
_atom_site_type_symbol
_atom_site_label
_atom_site_fract_x
_atom_site_fract_y
_atom_site_fract_z
Si Si1 0.732866 0.431615 0.496184
Si Si2 0.202984 0.752351 0.266561
Si Si3 0.770459 0.849139 0.112290
Si Si4 0.762337 0.167840 0.564665
Si Si5 0.047299 0.187284 0.420306
Si Si6 0.302983 0.338363 0.990928
Si Si7 0.374978 0.947068 0.730630
Si Si8 0.502337 0.368489 0.765164
O O1 0.673718 0.332746 0.551962
O O2 0.608515 0.526996 0.203275
O O3 0.710013 0.381423 0.749248
O O4 0.000000 0.500000 0.500000
O O5 0.239402 0.762446 0.437433
O O6 0.930058 0.695652 0.179515
O O7 0.294731 0.871110 0.986478
O O8 0.694691 0.724983 0.250576
O O9 0.046485 0.898796 0.138329
O O10 0.777864 0.843966 0.301609
O O11 0.569006 0.905016 0.847173
O O12 0.886917 0.224397 0.370348
O O13 0.511040 0.076644 0.578402
O O14 0.859716 0.085055 0.437200
O O15 0.199236 0.270267 0.215852
O O16 0.488926 0.322161 0.017431
O O17 0.500000 0.500000 0.500000
#
# Coordination Sequence:
#
# PCOD9076800 Si02
#       8
#     2   2   2   2   2   2   2   2
#     4   9  18  31  58  90 114 153 202 239 296 366
#     4  10  18  33  60  85 119 157 200 248 292 359
#     4  10  21  38  62  87 120 155 204 244 301 353
#     4  10  21  37  59  87 124 157 202 254 295 351
#     4   9  22  37  61  89 126 153 198 256 295 354
#     4   9  17  35  57  85 118 158 194 245 304 351
#     4  11  20  38  64  85 117 167 203 245 307 343
#     4  10  18  35  63  88 115 158 199 244 301 357
#
# _framework density 24.463733999999999
#
# number of rings (size 3 to 8) (size 9 to 14) (size 15 to 20)
#    0.750    1.500    2.500    1.125    0.000    0.000 
#    0.000    4.375    2.750    4.500    0.000    0.000 
#    0.000    0.000    0.000    0.000    0.000    0.000 
#
# Total GULP energy -89141.946345 kJ/mol
# GULP energy per Si atom -5571.371647 kJ/mol
# Density = 2.440805 g / cm^3
# Si number density = 24.463734 Si / 1000 Ang^3
#
#
#
# Elastic Constant Matrix: (Units=GPa)
#
#
# Indices 1 2 3 4 5 6 
#
# 1 98.7519 36.5240 32.4159 4.8156 -45.4786 -19.0707
# 2 36.5240 114.0467 63.5570 12.4279 -11.8540 -27.3289
# 3 32.4159 63.5570 100.4982 1.9189 -34.2475 -15.9504
# 4 4.8156 12.4279 1.9189 33.1411 2.4566 -2.2103
# 5 -45.4786 -11.8540 -34.2475 2.4566 45.4842 11.5206
# 6 -19.0707 -27.3289 -15.9504 -2.2103 11.5206 36.9188
#
#
#
# Elastic Compliance Matrix: (Units=1/GPa)
#
#
# Indices 1 2 3 4 5 6 
#
# 1 0.023108 -0.007902 0.006542 -0.002653 0.025948 0.000657
# 2 -0.007902 0.020025 -0.013736 -0.003819 -0.015178 0.009314
# 3 0.006542 -0.013736 0.023212 0.001062 0.021222 -0.003319
# 4 -0.002653 -0.003819 0.001062 0.032235 -0.004486 -0.000409
# 5 0.025948 -0.015178 0.021222 -0.004486 0.062318 -0.008379
# 6 0.000657 0.009314 -0.003319 -0.000409 -0.008379 0.035477
#
#
# Mechanical properties :
#
#
# Convention : Reuss Voigt Hill
#
# Bulk Modulus (GPa) = 27.66184 64.25453 45.95818
# Shear Modulus (GPa) = 20.95374 35.16213 28.05794
#
# Velocity S-wave (km/s) = 2.92982 3.79531 3.39029
# Velocity P-wave (km/s) = 4.77252 6.74745 5.84401
#
# Compressibility (1/GPa) = 0.03615089
#
# Stress axis : x y z
#
# Youngs Moduli (GPa) = 43.27496 49.93810 43.08028
#
# Poissons Ratio (x) = 0.39463 -0.28181
# Poissons Ratio (y) = 0.34198 0.59177
# Poissons Ratio (z) = -0.28309 0.68597
#
# Static dielectric constant tensor:
#      x y z
#    x 2.094740 -0.018240 0.106780 
#    y -0.018240 1.929840 -0.037690 
#    z 0.106780 -0.037690 2.089720 
# 
# From -- ./inp_files/220524.got.cif
#   From: 2010.05.17/outbox.cif.g08.bks.cpg/sg2_111_cif.got.tgz:220524.got - 2010.06.03 11:33:40.
