data_PCOD9076519
_publ_section_title
;
Structure prediction by ZEFSAII (Michael W. Deem and Ramdas Pophale) SiO2 
 PCOD9076519
Probable space group: P -1
;
_chemical_formula_sum "Si O2"
_cell_formula_units_Z 16
_cell_length_a 20.353424
_cell_length_b 8.306298
_cell_length_c 11.654436
_cell_angle_alpha 53.260519
_cell_angle_beta 30.297793
_cell_angle_gamma 54.414245
_cell_volume 786.060456
_symmetry_space_group_name_H-M "P -1"
_symmetry_group_IT_number 2
_symmetry_cell_setting 'triclinic'
loop_
_space_group_symop_operation_xyz
x,y,z
-x,-y,-z
loop_
_atom_site_type_symbol
_atom_site_label
_atom_site_fract_x
_atom_site_fract_y
_atom_site_fract_z
Si Si1 0.359292 0.423591 0.873552
Si Si2 0.991643 0.767376 0.642870
Si Si3 0.231328 0.636883 0.504037
Si Si4 0.409991 0.949785 0.004601
Si Si5 0.178432 0.641824 0.218178
Si Si6 0.273568 0.053395 0.931440
Si Si7 0.375383 0.422591 0.574597
Si Si8 0.375935 0.389158 0.207527
O O1 0.366877 0.442138 0.716868
O O2 0.479623 0.529906 0.696104
O O3 0.389917 0.186644 0.964016
O O4 0.216651 0.525513 0.092026
O O5 0.089358 0.700703 0.631293
O O6 0.047490 0.653799 0.489435
O O7 0.000000 0.000000 0.500000
O O8 0.842834 0.784749 0.902649
O O9 0.262303 0.576970 0.613974
O O10 0.291817 0.430527 0.432137
O O11 0.315323 0.817100 0.270044
O O12 0.560251 0.836017 0.830237
O O13 0.364540 0.950055 0.940665
O O14 0.287345 0.513964 0.191738
O O15 0.207354 0.871466 0.057064
O O16 0.355049 0.192044 0.675786
O O17 0.500000 0.500000 0.000000
#
# Coordination Sequence:
#
# PCOD9076519 Si02
#       8
#     2   2   2   2   2   2   2   2
#     4  10  22  38  49  81 120 150 175 208 280 337
#     4   9  17  35  62  87  97 132 193 244 258 301
#     4  10  18  33  58  84 105 137 185 234 264 312
#     4  10  18  33  57  80 108 144 179 227 271 320
#     4  10  18  33  59  81 105 139 187 235 258 316
#     4  10  19  36  58  81 106 145 184 221 277 311
#     4  10  23  36  49  81 118 151 172 213 276 339
#     4   9  15  28  52  86 100 125 185 236 262 298
#
# _framework density 20.354669000000001
#
# number of rings (size 3 to 8) (size 9 to 14) (size 15 to 20)
#    0.000    2.250    5.000    1.500    0.000    3.000 
#    4.500    2.500    0.000    3.000    0.000    0.000 
#    0.000    0.000    0.000    0.000    0.000    0.000 
#
# Total GULP energy -89091.708089 kJ/mol
# GULP energy per Si atom -5568.231756 kJ/mol
# Density = 2.030834 g / cm^3
# Si number density = 20.354669 Si / 1000 Ang^3
#
#
#
# Elastic Constant Matrix: (Units=GPa)
#
#
# Indices 1 2 3 4 5 6 
#
# 1 49.6369 12.5784 18.1268 -4.1552 10.9821 -16.9452
# 2 12.5784 105.6748 42.3478 -1.0877 9.6361 1.6938
# 3 18.1268 42.3478 52.9132 -4.8996 -3.8725 5.6023
# 4 -4.1552 -1.0877 -4.8996 41.2588 0.3368 4.2259
# 5 10.9821 9.6361 -3.8725 0.3368 25.0672 -1.5356
# 6 -16.9452 1.6938 5.6023 4.2259 -1.5356 31.2981
#
#
#
# Elastic Compliance Matrix: (Units=1/GPa)
#
#
# Indices 1 2 3 4 5 6 
#
# 1 0.040069 0.005936 -0.022746 -0.000839 -0.021839 0.024486
# 2 0.005936 0.016305 -0.016543 -0.001351 -0.011104 0.004930
# 3 -0.022746 -0.016543 0.043914 0.004233 0.021901 -0.018777
# 4 -0.000839 -0.001351 0.004233 0.025071 0.000930 -0.004478
# 5 -0.021839 -0.011104 0.021901 0.000930 0.056334 -0.012505
# 6 0.024486 0.004930 -0.018777 -0.004478 -0.012505 0.048293
#
#
# Mechanical properties :
#
#
# Convention : Reuss Voigt Hill
#
# Bulk Modulus (GPa) = 29.77736 39.37009 34.57372
# Shear Modulus (GPa) = 16.23970 28.53628 22.38799
#
# Velocity S-wave (km/s) = 2.82766 3.74833 3.32006
# Velocity P-wave (km/s) = 5.03209 6.17392 5.63202
#
# Compressibility (1/GPa) = 0.03358257
#
# Stress axis : x y z
#
# Youngs Moduli (GPa) = 24.95666 61.32925 22.77182
#
# Poissons Ratio (x) = -0.36406 0.51797
# Poissons Ratio (y) = -0.14815 0.37672
# Poissons Ratio (z) = 0.56767 1.01457
#
# Static dielectric constant tensor:
#      x y z
#    x 1.815970 0.059720 0.038100 
#    y 0.059720 1.781480 0.061860 
#    z 0.038100 0.061860 1.825390 
# 
# From -- ./inp_files/180359.got.cif
#   From: 2010.05.17/outbox.cif.g08.bks.cpg/sg2_91_cif.got.tgz:180359.got - 2010.06.03 11:33:40.
