data_PCOD9076942
_publ_section_title
;
Structure prediction by ZEFSAII (Michael W. Deem and Ramdas Pophale) SiO2 
 PCOD9076942
Probable space group: P -1
;
_chemical_formula_sum "Si O2"
_cell_formula_units_Z 14
_cell_length_a 11.539609
_cell_length_b 13.899089
_cell_length_c 13.870834
_cell_angle_alpha 157.935244
_cell_angle_beta 66.058702
_cell_angle_gamma 114.093811
_cell_volume 760.472614
_symmetry_space_group_name_H-M "P -1"
_symmetry_group_IT_number 2
_symmetry_cell_setting 'triclinic'
loop_
_space_group_symop_operation_xyz
x,y,z
-x,-y,-z
loop_
_atom_site_type_symbol
_atom_site_label
_atom_site_fract_x
_atom_site_fract_y
_atom_site_fract_z
Si Si1 0.409039 0.432601 0.558598
Si Si2 0.494651 0.812174 0.190371
Si Si3 0.298224 0.943802 0.033094
Si Si4 0.172058 0.629190 0.472271
Si Si5 0.917213 0.830897 0.794795
Si Si6 0.409427 0.906981 0.752064
Si Si7 0.645146 0.313654 0.705123
O O1 0.500000 0.500000 0.500000
O O2 0.510281 0.342400 0.517376
O O3 0.328592 0.170410 0.309553
O O4 0.323097 0.668978 0.814693
O O5 0.363673 0.756534 0.243207
O O6 0.505841 0.875213 0.132528
O O7 0.569358 0.066573 0.449588
O O8 0.570678 0.565187 0.951608
O O9 0.160882 0.991007 0.080242
O O10 0.387036 0.972885 0.932836
O O11 0.172561 0.378868 0.308686
O O12 0.270135 0.839689 0.689552
O O13 0.226983 0.620319 0.337785
O O14 0.025349 0.687062 0.570621
O O15 0.000000 0.000000 0.000000
#
# Coordination Sequence:
#
# PCOD9076942 Si02
#       7
#     2   2   2   2   2   2   2
#     4  10  21  32  49  70  99 133 164 200 246 294
#     4   9  18  30  50  71 102 129 162 196 251 303
#     4  11  21  34  47  70 103 132 166 201 240 292
#     4  10  21  32  50  74 106 132 166 204 249 297
#     4  11  21  33  49  73  99 139 171 201 241 298
#     4  10  18  34  51  75 100 134 160 204 251 299
#     4   9  18  32  46  74 101 131 158 202 248 299
#
# _framework density 18.409604000000002
#
# number of rings (size 3 to 8) (size 9 to 14) (size 15 to 20)
#    0.000    2.000    1.429    4.286    4.000    4.571 
#    0.000    0.000    0.000    0.000    0.000    2.000 
#    0.000    0.000    0.000    0.000    0.000    0.000 
#
# Total GULP energy -77936.095736 kJ/mol
# GULP energy per Si atom -5566.863981 kJ/mol
# Density = 1.836770 g / cm^3
# Si number density = 18.409604 Si / 1000 Ang^3
#
#
#
# Elastic Constant Matrix: (Units=GPa)
#
#
# Indices 1 2 3 4 5 6 
#
# 1 76.6195 8.0536 25.5166 6.7855 -19.7986 0.7875
# 2 8.0536 118.2837 15.0852 -0.8946 -13.1373 11.8093
# 3 25.5166 15.0852 108.9429 13.7854 -16.8197 2.5046
# 4 6.7855 -0.8946 13.7854 22.4155 -8.3257 -6.1304
# 5 -19.7986 -13.1373 -16.8197 -8.3257 30.0085 3.3032
# 6 0.7875 11.8093 2.5046 -6.1304 3.3032 17.7200
#
#
#
# Elastic Compliance Matrix: (Units=1/GPa)
#
#
# Indices 1 2 3 4 5 6 
#
# 1 0.016393 0.000553 -0.002233 -0.000659 0.009939 -0.002862
# 2 0.000553 0.009808 -0.000573 0.000552 0.005291 -0.007275
# 3 -0.002233 -0.000573 0.011133 -0.006016 0.003263 -0.003782
# 4 -0.000659 0.000552 -0.006016 0.057417 0.010335 0.018449
# 5 0.009939 0.005291 0.003263 0.010335 0.047972 -0.009796
# 6 -0.002862 -0.007275 -0.003782 0.018449 -0.009796 0.070152
#
#
# Mechanical properties :
#
#
# Convention : Reuss Voigt Hill
#
# Bulk Modulus (GPa) = 30.46109 44.57300 37.51704
# Shear Modulus (GPa) = 21.89863 31.04152 26.47007
#
# Velocity S-wave (km/s) = 3.45269 4.11074 3.79600
# Velocity P-wave (km/s) = 5.69885 6.84071 6.29572
#
# Compressibility (1/GPa) = 0.03282877
#
# Stress axis : x y z
#
# Youngs Moduli (GPa) = 61.00260 101.95825 89.81904
#
# Poissons Ratio (x) = -0.05640 0.20053
# Poissons Ratio (y) = -0.03375 0.05150
# Poissons Ratio (z) = 0.13619 0.05846
#
# Static dielectric constant tensor:
#      x y z
#    x 1.689410 -0.025740 -0.021030 
#    y -0.025740 1.696040 0.002390 
#    z -0.021030 0.002390 1.774470 
# 
# From -- ./inp_files/64167.got.cif
#   From: 2010.05.17/outbox.cif.g08.bks.cpg/sg2_33_cif.got.tgz:64167.got - 2010.06.03 11:33:40.
