data_PCOD9076581
_publ_section_title
;
Structure prediction by ZEFSAII (Michael W. Deem and Ramdas Pophale) SiO2 
 PCOD9076581
Probable space group: P -1
;
_chemical_formula_sum "Si O2"
_cell_formula_units_Z 16
_cell_length_a 16.043741
_cell_length_b 16.117157
_cell_length_c 9.242430
_cell_angle_alpha 38.172302
_cell_angle_beta 140.758135
_cell_angle_gamma 145.093639
_cell_volume 786.257820
_symmetry_space_group_name_H-M "P -1"
_symmetry_group_IT_number 2
_symmetry_cell_setting 'triclinic'
loop_
_space_group_symop_operation_xyz
x,y,z
-x,-y,-z
loop_
_atom_site_type_symbol
_atom_site_label
_atom_site_fract_x
_atom_site_fract_y
_atom_site_fract_z
Si Si1 0.806456 0.987398 0.112733
Si Si2 0.092703 0.365048 0.382624
Si Si3 0.864499 0.744899 0.700737
Si Si4 0.833849 0.859515 0.031926
Si Si5 0.659427 0.298695 0.672666
Si Si6 0.527185 0.025971 0.670298
Si Si7 0.272301 0.891816 0.752964
Si Si8 0.661350 0.763220 0.632489
O O1 0.835182 0.864544 0.404340
O O2 0.794374 0.945682 0.984153
O O3 0.647683 0.976808 0.949575
O O4 0.962176 0.157118 0.130090
O O5 0.141258 0.372021 0.269666
O O6 0.153077 0.273784 0.684543
O O7 0.172654 0.541860 0.308561
O O8 0.906590 0.252398 0.299670
O O9 0.739328 0.693467 0.731847
O O10 0.717703 0.780931 0.849133
O O11 0.000000 0.000000 0.000000
O O12 0.525692 0.330219 0.497361
O O13 0.610326 0.211708 0.571716
O O14 0.650881 0.166362 0.949043
O O15 0.368120 0.932872 0.676610
O O16 0.500000 0.000000 0.500000
O O17 0.276647 0.052383 0.580327
#
# Coordination Sequence:
#
# PCOD9076581 Si02
#       8
#     2   2   2   2   2   2   2   2
#     4  10  18  33  57  89 111 140 203 246 284 333
#     4  11  24  39  59  88 123 160 195 242 307 351
#     4  10  19  33  58  86 113 148 196 248 283 346
#     4  11  20  37  64  87 116 157 194 248 293 355
#     4  11  24  40  59  88 126 159 193 244 300 355
#     4  11  23  38  63  88 114 156 203 246 283 354
#     4  11  21  40  63  85 119 161 201 241 292 353
#     4  11  20  37  63  90 113 153 208 243 295 344
#
# _framework density 20.34956
#
# number of rings (size 3 to 8) (size 9 to 14) (size 15 to 20)
#    0.000    1.250    2.500    7.125    0.000    1.000 
#    0.000    1.875    0.000    0.000    0.000    0.000 
#    0.000    0.000    0.000    0.000    0.000    0.000 
#
# Total GULP energy -89371.729280 kJ/mol
# GULP energy per Si atom -5585.733080 kJ/mol
# Density = 2.030324 g / cm^3
# Si number density = 20.349560 Si / 1000 Ang^3
#
#
#
# Elastic Constant Matrix: (Units=GPa)
#
#
# Indices 1 2 3 4 5 6 
#
# 1 129.0420 44.5153 21.4170 15.0056 -1.5908 -20.3832
# 2 44.5153 64.3675 5.0645 6.9481 5.2080 -4.9561
# 3 21.4170 5.0645 70.7548 20.3572 -2.8772 -6.5280
# 4 15.0056 6.9481 20.3572 29.5442 1.1988 -1.1320
# 5 -1.5908 5.2080 -2.8772 1.1988 28.2545 13.9391
# 6 -20.3832 -4.9561 -6.5280 -1.1320 13.9391 27.9876
#
#
#
# Elastic Compliance Matrix: (Units=1/GPa)
#
#
# Indices 1 2 3 4 5 6 
#
# 1 0.012059 -0.007114 -0.001638 -0.002934 -0.002010 0.008023
# 2 -0.007114 0.021018 0.001089 -0.001856 -0.004578 0.001000
# 3 -0.001638 0.001089 0.018237 -0.011940 0.000933 0.002306
# 4 -0.002934 -0.001856 -0.011940 0.043962 -0.001579 -0.002686
# 5 -0.002010 -0.004578 0.000933 -0.001579 0.049492 -0.026771
# 6 0.008023 0.001000 0.002306 -0.002686 -0.026771 0.055513
#
#
# Mechanical properties :
#
#
# Convention : Reuss Voigt Hill
#
# Bulk Modulus (GPa) = 27.78735 45.12867 36.45801
# Shear Modulus (GPa) = 21.96802 30.03508 26.00155
#
# Velocity S-wave (km/s) = 3.28919 3.84599 3.57843
# Velocity P-wave (km/s) = 5.30186 6.47665 5.91848
#
# Compressibility (1/GPa) = 0.03598760
#
# Stress axis : x y z
#
# Youngs Moduli (GPa) = 82.92495 47.57900 54.83304
#
# Poissons Ratio (x) = 0.33847 0.08984
# Poissons Ratio (y) = 0.58991 -0.05971
# Poissons Ratio (z) = 0.13586 -0.05181
#
# Static dielectric constant tensor:
#      x y z
#    x 1.751310 -0.016140 0.012600 
#    y -0.016140 1.709430 0.009320 
#    z 0.012600 0.009320 1.741750 
# 
# From -- ./inp_files/223458.got.cif
#   From: 2010.05.17/outbox.cif.g08.bks.cpg/sg2_112_cif.got.tgz:223458.got - 2010.06.03 11:33:40.
