data_PCOD9076080
_publ_section_title
;
Structure prediction by ZEFSAII (Michael W. Deem and Ramdas Pophale) SiO2 
 PCOD9076080
Probable space group: P -1
;
_chemical_formula_sum "Si O2"
_cell_formula_units_Z 16
_cell_length_a 16.821820
_cell_length_b 16.938328
_cell_length_c 16.345509
_cell_angle_alpha 162.060421
_cell_angle_beta 148.169058
_cell_angle_gamma 34.292008
_cell_volume 752.002544
_symmetry_space_group_name_H-M "P -1"
_symmetry_group_IT_number 2
_symmetry_cell_setting 'triclinic'
loop_
_space_group_symop_operation_xyz
x,y,z
-x,-y,-z
loop_
_atom_site_type_symbol
_atom_site_label
_atom_site_fract_x
_atom_site_fract_y
_atom_site_fract_z
Si Si1 0.359910 0.994700 0.736023
Si Si2 0.699139 0.252561 0.151421
Si Si3 0.328170 0.500136 0.312673
Si Si4 0.362644 0.250081 0.333001
Si Si5 0.006930 0.132338 0.407003
Si Si6 0.919486 0.636591 0.906555
Si Si7 0.505268 0.523897 0.931344
Si Si8 0.670876 0.001853 0.484110
O O1 0.332986 0.985135 0.605965
O O2 0.284880 0.777918 0.506877
O O3 0.539248 0.887594 0.789609
O O4 0.332997 0.271537 0.025611
O O5 0.596214 0.467156 0.328720
O O6 0.663725 0.391711 0.171098
O O7 0.860670 0.201550 0.287863
O O8 0.639409 0.973139 0.821643
O O9 0.500000 0.500000 0.500000
O O10 0.195046 0.444581 0.204419
O O11 0.191902 0.306571 0.211589
O O12 0.148892 0.032180 0.376763
O O13 0.031831 0.390597 0.734410
O O14 0.984540 0.910571 0.236484
O O15 0.586480 0.260085 0.704004
O O16 0.500000 0.500000 0.000000
O O17 0.601760 0.752533 0.212622
#
# Coordination Sequence:
#
# PCOD9076080 Si02
#       8
#     2   2   2   2   2   2   2   2
#     4  12  22  36  58  89 120 167 205 262 317 355
#     4  10  19  38  61  94 117 160 207 248 301 369
#     4  12  24  34  57  94 128 160 213 278 317 345
#     4  10  18  32  60  85 117 155 206 257 296 354
#     4  10  23  41  65  85 124 177 208 250 302 378
#     4  10  21  37  57  87 122 161 218 261 305 353
#     4  12  24  42  70 101 128 155 197 265 318 368
#     4  12  25  45  65  94 127 164 212 247 314 394
#
# _framework density 21.276523999999998
#
# number of rings (size 3 to 8) (size 9 to 14) (size 15 to 20)
#    0.000    1.000    3.750    3.750    3.500    0.000 
#    0.000    5.000    0.000    0.000    0.000    0.000 
#    0.000    0.000    0.000    0.000    0.000    0.000 
#
# Total GULP energy -89145.348391 kJ/mol
# GULP energy per Si atom -5571.584274 kJ/mol
# Density = 2.122810 g / cm^3
# Si number density = 21.276524 Si / 1000 Ang^3
#
#
#
# Elastic Constant Matrix: (Units=GPa)
#
#
# Indices 1 2 3 4 5 6 
#
# 1 81.7582 45.1796 48.4553 10.7564 -9.6004 13.4829
# 2 45.1796 78.2056 49.8485 14.3201 -8.0745 1.1576
# 3 48.4553 49.8485 127.5278 33.7004 -7.8891 6.7521
# 4 10.7564 14.3201 33.7004 21.1767 1.6646 1.9602
# 5 -9.6004 -8.0745 -7.8891 1.6646 23.8903 2.0324
# 6 13.4829 1.1576 6.7521 1.9602 2.0324 34.9032
#
#
#
# Elastic Compliance Matrix: (Units=1/GPa)
#
#
# Indices 1 2 3 4 5 6 
#
# 1 0.021596 -0.009537 -0.004678 0.003284 0.004324 -0.007557
# 2 -0.009537 0.021662 -0.003757 -0.004352 0.002227 0.003807
# 3 -0.004678 -0.003757 0.017524 -0.023271 0.004293 -0.000401
# 4 0.003284 -0.004352 -0.023271 0.086679 -0.013817 -0.000686
# 5 0.004324 0.002227 0.004293 -0.013817 0.047115 -0.004542
# 6 -0.007557 0.003807 -0.000401 -0.000686 -0.004542 0.031824
#
#
# Mechanical properties :
#
#
# Convention : Reuss Voigt Hill
#
# Bulk Modulus (GPa) = 40.26223 63.82872 52.04548
# Shear Modulus (GPa) = 18.47585 25.59461 22.03523
#
# Velocity S-wave (km/s) = 2.95001 3.47212 3.22166
# Velocity P-wave (km/s) = 5.52881 6.79256 6.19301
#
# Compressibility (1/GPa) = 0.02483717
#
# Stress axis : x y z
#
# Youngs Moduli (GPa) = 46.30501 46.16383 57.06595
#
# Poissons Ratio (x) = 0.44028 0.26693
# Poissons Ratio (y) = 0.44163 0.21440
# Poissons Ratio (z) = 0.21660 0.17344
#
# Static dielectric constant tensor:
#      x y z
#    x 1.747850 -0.012930 0.023950 
#    y -0.012930 1.890020 -0.023700 
#    z 0.023950 -0.023700 1.842610 
# 
# From -- ./inp_files/534680.got.cif
#   From: 2010.05.17/outbox.cif.g08.bks.cpg/sg2_268_cif.got.tgz:534680.got - 2010.06.03 11:33:40.
