data_PCOD9076201
_publ_section_title
;
Structure prediction by ZEFSAII (Michael W. Deem and Ramdas Pophale) SiO2 
 PCOD9076201
Probable space group: P -1
;
_chemical_formula_sum "Si O2"
_cell_formula_units_Z 16
_cell_length_a 9.145278
_cell_length_b 15.383078
_cell_length_c 9.792081
_cell_angle_alpha 119.855581
_cell_angle_beta 130.924652
_cell_angle_gamma 36.774249
_cell_volume 622.020672
_symmetry_space_group_name_H-M "P -1"
_symmetry_group_IT_number 2
_symmetry_cell_setting 'triclinic'
loop_
_space_group_symop_operation_xyz
x,y,z
-x,-y,-z
loop_
_atom_site_type_symbol
_atom_site_label
_atom_site_fract_x
_atom_site_fract_y
_atom_site_fract_z
Si Si1 0.862289 0.993643 0.279091
Si Si2 0.646859 0.107941 0.627254
Si Si3 0.440148 0.170699 0.855279
Si Si4 0.855100 0.309871 0.681745
Si Si5 0.642568 0.887865 0.788351
Si Si6 0.710106 0.564776 0.939334
Si Si7 0.859799 0.438419 0.210900
Si Si8 0.651297 0.596812 0.478948
O O1 0.022153 0.996834 0.264423
O O2 0.980084 0.834300 0.236265
O O3 0.000000 0.000000 0.500000
O O4 0.534587 0.110115 0.208900
O O5 0.554722 0.136756 0.747338
O O6 0.525548 0.066172 0.422102
O O7 0.500251 0.260074 0.589821
O O8 0.458957 0.267792 0.023341
O O9 0.112375 0.257120 0.710671
O O10 0.612785 0.014719 0.906270
O O11 0.572098 0.354504 0.506138
O O12 0.710456 0.459915 0.778185
O O13 0.952029 0.729236 0.835398
O O14 0.659759 0.539036 0.042634
O O15 0.000000 0.500000 0.000000
O O16 0.075031 0.452055 0.335685
O O17 0.750480 0.482744 0.332877
#
# Coordination Sequence:
#
# PCOD9076201 Si02
#       8
#     2   2   2   2   2   2   2   2
#     4   8  15  30  51  80 107 137 183 230 263 319
#     4   9  15  29  54  81 106 142 182 228 270 319
#     4  10  18  33  52  79 113 146 179 225 269 328
#     4   9  19  34  55  84 104 145 192 220 263 333
#     4   9  18  30  53  78 108 139 184 223 277 323
#     4  10  21  37  56  80 112 149 187 219 273 327
#     4  10  19  35  58  82 111 144 178 233 277 323
#     4   9  18  34  58  84 108 138 190 231 272 314
#
# _framework density 25.722618000000001
#
# number of rings (size 3 to 8) (size 9 to 14) (size 15 to 20)
#    0.000    2.750    1.250    1.125    0.000    0.500 
#    0.000    8.125    5.500    0.750    0.000    0.000 
#    0.000    0.000    0.000    0.000    0.000    0.000 
#
# Total GULP energy -89241.943664 kJ/mol
# GULP energy per Si atom -5577.621479 kJ/mol
# Density = 2.566407 g / cm^3
# Si number density = 25.722618 Si / 1000 Ang^3
#
#
#
# Elastic Constant Matrix: (Units=GPa)
#
#
# Indices 1 2 3 4 5 6 
#
# 1 109.8728 22.3810 12.7744 10.5268 -10.6386 -16.9890
# 2 22.3810 138.9014 36.2795 45.1591 -2.7773 1.3312
# 3 12.7744 36.2795 39.8044 21.5025 -4.4195 0.7798
# 4 10.5268 45.1591 21.5025 35.9789 -0.6298 3.4902
# 5 -10.6386 -2.7773 -4.4195 -0.6298 38.8989 1.6507
# 6 -16.9890 1.3312 0.7798 3.4902 1.6507 34.5229
#
#
#
# Elastic Compliance Matrix: (Units=1/GPa)
#
#
# Indices 1 2 3 4 5 6 
#
# 1 0.010673 -0.000742 -0.001688 -0.001661 0.002419 0.005371
# 2 -0.000742 0.012740 -0.004186 -0.013329 -0.000010 0.000586
# 3 -0.001688 -0.004186 0.039468 -0.017787 0.003432 0.000073
# 4 -0.001661 -0.013329 -0.017787 0.056130 -0.002286 -0.005467
# 5 0.002419 -0.000010 0.003432 -0.002286 0.026719 0.000067
# 6 0.005371 0.000586 0.000073 -0.005467 0.000067 0.032135
#
#
# Mechanical properties :
#
#
# Convention : Reuss Voigt Hill
#
# Bulk Modulus (GPa) = 20.14141 47.93871 34.04006
# Shear Modulus (GPa) = 24.07948 36.35639 30.21793
#
# Velocity S-wave (km/s) = 3.06293 3.76360 3.43120
# Velocity P-wave (km/s) = 4.51176 6.12891 5.38142
#
# Compressibility (1/GPa) = 0.04964896
#
# Stress axis : x y z
#
# Youngs Moduli (GPa) = 93.69647 78.49466 25.33690
#
# Poissons Ratio (x) = 0.05822 0.04278
# Poissons Ratio (y) = 0.06949 0.10606
# Poissons Ratio (z) = 0.15819 0.32857
#
# Static dielectric constant tensor:
#      x y z
#    x 2.035670 0.019210 0.031190 
#    y 0.019210 2.055740 -0.075910 
#    z 0.031190 -0.075910 2.235020 
# 
# From -- ./inp_files/202109.got.cif
#   From: 2010.05.17/outbox.cif.g08.bks.cpg/sg2_102_cif.got.tgz:202109.got - 2010.06.03 11:33:40.
