data_PCOD9076285
_publ_section_title
;
Structure prediction by ZEFSAII (Michael W. Deem and Ramdas Pophale) SiO2 
 PCOD9076285
Probable space group: P -1
;
_chemical_formula_sum "Si O2"
_cell_formula_units_Z 16
_cell_length_a 9.146147
_cell_length_b 6.000886
_cell_length_c 16.796747
_cell_angle_alpha 111.043699
_cell_angle_beta 54.839361
_cell_angle_gamma 125.826797
_cell_volume 610.741198
_symmetry_space_group_name_H-M "P -1"
_symmetry_group_IT_number 2
_symmetry_cell_setting 'triclinic'
loop_
_space_group_symop_operation_xyz
x,y,z
-x,-y,-z
loop_
_atom_site_type_symbol
_atom_site_label
_atom_site_fract_x
_atom_site_fract_y
_atom_site_fract_z
Si Si1 0.672990 0.642285 0.552208
Si Si2 0.100349 0.835332 0.229270
Si Si3 0.959073 0.119066 0.427332
Si Si4 0.826102 0.626878 0.918162
Si Si5 0.706595 0.013351 0.198556
Si Si6 0.682356 0.193138 0.407815
Si Si7 0.472421 0.245467 0.073310
Si Si8 0.329426 0.483182 0.770140
O O1 0.849681 0.650783 0.555712
O O2 0.663503 0.461850 0.457121
O O3 0.477986 0.526496 0.654912
O O4 0.773732 0.951067 0.526297
O O5 0.157220 0.594290 0.173392
O O6 0.906464 0.722665 0.213232
O O7 0.028676 0.908406 0.342683
O O8 0.310228 0.115597 0.179346
O O9 0.885032 0.219540 0.388432
O O10 0.673344 0.710138 0.936442
O O11 0.056859 0.869903 0.884886
O O12 0.709862 0.485754 0.018411
O O13 0.681369 0.105670 0.307100
O O14 0.649069 0.210418 0.186893
O O15 0.616341 0.685303 0.201683
O O16 0.500000 0.000000 0.500000
O O17 0.500000 0.000000 0.000000
#
# Coordination Sequence:
#
# PCOD9076285 Si02
#       8
#     2   2   2   2   2   2   2   2
#     4  11  24  37  52  78 114 155 199 239 290 337
#     4  10  18  33  54  79 112 146 191 234 288 339
#     4  11  23  38  53  78 115 155 196 239 287 343
#     4   9  17  28  49  82 114 140 175 234 290 340
#     4  11  21  34  59  84 115 147 193 238 289 339
#     4  12  21  35  58  80 113 149 197 243 286 335
#     4   9  16  28  49  82 115 137 174 229 294 342
#     4  11  21  37  57  82 112 148 198 240 286 338
#
# _framework density 26.197675
#
# number of rings (size 3 to 8) (size 9 to 14) (size 15 to 20)
#    0.000    1.500    3.750    2.625    0.000    1.500 
#    0.000    0.000    0.000    0.000    0.000   14.875 
#    0.000    0.625    0.000    0.000    0.000    0.000 
#
# Total GULP energy -89301.257720 kJ/mol
# GULP energy per Si atom -5581.328607 kJ/mol
# Density = 2.613805 g / cm^3
# Si number density = 26.197675 Si / 1000 Ang^3
#
#
#
# Elastic Constant Matrix: (Units=GPa)
#
#
# Indices 1 2 3 4 5 6 
#
# 1 66.9844 33.1816 5.0025 1.2758 -17.6679 -20.2043
# 2 33.1816 112.5306 55.7099 -12.4492 -8.6226 -31.3075
# 3 5.0025 55.7099 162.8341 -22.7001 -22.1611 4.2862
# 4 1.2758 -12.4492 -22.7001 69.0814 4.5459 -8.7141
# 5 -17.6679 -8.6226 -22.1611 4.5459 35.5839 4.4833
# 6 -20.2043 -31.3075 4.2862 -8.7141 4.4833 35.9944
#
#
#
# Elastic Compliance Matrix: (Units=1/GPa)
#
#
# Indices 1 2 3 4 5 6 
#
# 1 0.021884 -0.005117 0.002252 -0.000488 0.010314 0.006162
# 2 -0.005117 0.017663 -0.006426 0.003308 -0.004527 0.014621
# 3 0.002252 -0.006426 0.009352 0.000716 0.006052 -0.006019
# 4 -0.000488 0.003308 0.000716 0.016288 -0.001920 0.006701
# 5 0.010314 -0.004527 0.006052 -0.001920 0.036632 -0.003896
# 6 0.006162 0.014621 -0.006019 0.006701 -0.003896 0.046783
#
#
# Mechanical properties :
#
#
# Convention : Reuss Voigt Hill
#
# Bulk Modulus (GPa) = 32.98349 58.90412 45.94380
# Shear Modulus (GPa) = 28.20245 44.69562 36.44903
#
# Velocity S-wave (km/s) = 3.28460 4.13497 3.73407
# Velocity P-wave (km/s) = 5.19638 6.73280 6.01386
#
# Compressibility (1/GPa) = 0.03031820
#
# Stress axis : x y z
#
# Youngs Moduli (GPa) = 45.69586 56.61469 106.92443
#
# Poissons Ratio (x) = 0.28969 -0.24077
# Poissons Ratio (y) = 0.23382 0.68706
# Poissons Ratio (z) = -0.10290 0.36379
#
# Static dielectric constant tensor:
#      x y z
#    x 2.123250 0.040860 -0.030890 
#    y 0.040860 2.308080 -0.090990 
#    z -0.030890 -0.090990 1.971900 
# 
# From -- ./inp_files/83986.got.cif
#   From: 2010.05.17/outbox.cif.g08.bks.cpg/sg2_42_cif.got.tgz:83986.got - 2010.06.03 11:33:40.
