data_PCOD9076423
_publ_section_title
;
Structure prediction by ZEFSAII (Michael W. Deem and Ramdas Pophale) SiO2 
 PCOD9076423
Probable space group: P -1
;
_chemical_formula_sum "Si O2"
_cell_formula_units_Z 16
_cell_length_a 8.769956
_cell_length_b 22.853279
_cell_length_c 12.146460
_cell_angle_alpha 39.777905
_cell_angle_beta 105.471130
_cell_angle_gamma 136.174605
_cell_volume 820.208331
_symmetry_space_group_name_H-M "P -1"
_symmetry_group_IT_number 2
_symmetry_cell_setting 'triclinic'
loop_
_space_group_symop_operation_xyz
x,y,z
-x,-y,-z
loop_
_atom_site_type_symbol
_atom_site_label
_atom_site_fract_x
_atom_site_fract_y
_atom_site_fract_z
Si Si1 0.017800 0.027096 0.164261
Si Si2 0.146442 0.385954 0.493299
Si Si3 0.810058 0.315412 0.216472
Si Si4 0.353502 0.486973 0.130824
Si Si5 0.468854 0.343406 0.400208
Si Si6 0.588452 0.677956 0.326652
Si Si7 0.595988 0.211120 0.565747
Si Si8 0.709551 0.832954 0.750638
O O1 0.864791 0.853902 0.389139
O O2 0.779328 0.856266 0.068775
O O3 0.732752 0.953631 0.218580
O O4 0.196074 0.135429 0.151514
O O5 0.253910 0.444167 0.302890
O O6 0.339981 0.540521 0.388271
O O7 0.202883 0.309843 0.652204
O O8 0.820481 0.264020 0.604973
O O9 0.644490 0.209550 0.450765
O O10 0.547552 0.216002 0.230075
O O11 0.063078 0.363162 0.182650
O O12 0.000000 0.500000 0.000000
O O13 0.488619 0.452207 0.193808
O O14 0.577403 0.679073 0.888431
O O15 0.531082 0.375533 0.495882
O O16 0.653997 0.349333 0.379532
O O17 0.000000 0.000000 0.500000
#
# Coordination Sequence:
#
# PCOD9076423 Si02
#       8
#     2   2   2   2   2   2   2   2
#     4  10  20  33  53  78 109 136 171 214 261 306
#     4   9  18  32  55  81 101 137 181 213 241 317
#     4   9  18  33  56  78  96 139 178 214 253 307
#     4   9  18  35  57  76 103 138 176 210 256 315
#     4   9  20  35  54  76 111 140 165 210 268 315
#     4  10  18  33  56  77 105 141 177 206 258 306
#     4   9  19  34  51  79 111 131 172 216 263 307
#     4  11  18  33  56  80 100 132 178 224 255 297
#
# _framework density 19.507238999999998
#
# number of rings (size 3 to 8) (size 9 to 14) (size 15 to 20)
#    0.750    1.750    2.500    0.375    0.000    1.000 
#    0.000    6.250    2.750    0.000    0.000    0.000 
#    0.000    0.000    0.000    0.000    0.000    0.000 
#
# Total GULP energy -89088.698531 kJ/mol
# GULP energy per Si atom -5568.043658 kJ/mol
# Density = 1.946284 g / cm^3
# Si number density = 19.507239 Si / 1000 Ang^3
#
#
#
# Elastic Constant Matrix: (Units=GPa)
#
#
# Indices 1 2 3 4 5 6 
#
# 1 44.9330 34.2663 -5.6134 -6.2438 -5.2653 12.6070
# 2 34.2663 76.7631 7.8125 -17.7996 -9.7328 32.9720
# 3 -5.6134 7.8125 53.0306 -0.2747 -1.7128 4.7707
# 4 -6.2438 -17.7996 -0.2747 20.2402 -2.0300 -3.8858
# 5 -5.2653 -9.7328 -1.7128 -2.0300 20.7898 -4.9209
# 6 12.6070 32.9720 4.7707 -3.8858 -4.9209 30.2068
#
#
#
# Elastic Compliance Matrix: (Units=1/GPa)
#
#
# Indices 1 2 3 4 5 6 
#
# 1 0.036441 -0.020461 0.006373 -0.005501 0.000956 0.005567
# 2 -0.020461 0.045521 -0.005245 0.027930 0.010121 -0.035079
# 3 0.006373 -0.005245 0.020342 -0.002390 0.000513 -0.000372
# 4 -0.005501 0.027930 -0.002390 0.070549 0.014498 -0.016376
# 5 0.000956 0.010121 0.000513 0.014498 0.054347 -0.000809
# 6 0.005567 -0.035079 -0.000372 -0.016376 -0.000809 0.066893
#
#
# Mechanical properties :
#
#
# Convention : Reuss Voigt Hill
#
# Bulk Modulus (GPa) = 15.71350 27.51749 21.61549
# Shear Modulus (GPa) = 14.12546 23.46478 18.79512
#
# Velocity S-wave (km/s) = 2.69386 3.47201 3.10739
# Velocity P-wave (km/s) = 4.21290 5.49637 4.89687
#
# Compressibility (1/GPa) = 0.06363956
#
# Stress axis : x y z
#
# Youngs Moduli (GPa) = 27.44164 21.96772 49.15954
#
# Poissons Ratio (x) = 0.44948 -0.31331
# Poissons Ratio (y) = 0.56148 0.25783
# Poissons Ratio (z) = -0.17489 0.11521
#
# Static dielectric constant tensor:
#      x y z
#    x 1.693400 -0.006000 0.013170 
#    y -0.006000 1.694730 0.022590 
#    z 0.013170 0.022590 1.702780 
# 
# From -- ./inp_files/508440.got.cif
#   From: 2010.05.17/outbox.cif.g08.bks.cpg/sg2_255_cif.got.tgz:508440.got - 2010.06.03 11:33:40.
