data_PCOD9076535
_publ_section_title
;
Structure prediction by ZEFSAII (Michael W. Deem and Ramdas Pophale) SiO2 
 PCOD9076535
Probable space group: P -1
;
_chemical_formula_sum "Si O2"
_cell_formula_units_Z 14
_cell_length_a 24.419112
_cell_length_b 30.070027
_cell_length_c 12.615847
_cell_angle_alpha 151.376688
_cell_angle_beta 28.264019
_cell_angle_gamma 169.906992
_cell_volume 762.395050
_symmetry_space_group_name_H-M "P -1"
_symmetry_group_IT_number 2
_symmetry_cell_setting 'triclinic'
loop_
_space_group_symop_operation_xyz
x,y,z
-x,-y,-z
loop_
_atom_site_type_symbol
_atom_site_label
_atom_site_fract_x
_atom_site_fract_y
_atom_site_fract_z
Si Si1 0.909054 0.755922 0.470163
Si Si2 0.194280 0.776667 0.298698
Si Si3 0.741181 0.158464 0.015392
Si Si4 0.713942 0.832339 0.701616
Si Si5 0.830728 0.681781 0.700204
Si Si6 0.229388 0.611412 0.992339
Si Si7 0.888667 0.887144 0.193554
O O1 0.562576 0.451492 0.401846
O O2 0.927879 0.762386 0.579798
O O3 0.160686 0.875453 0.234058
O O4 0.982443 0.914396 0.639528
O O5 0.056581 0.772535 0.556907
O O6 0.960043 0.570194 0.168015
O O7 0.205058 0.702777 0.210664
O O8 0.550801 0.044593 0.204942
O O9 0.051021 0.447787 0.061331
O O10 0.500000 0.000000 0.000000
O O11 0.561189 0.804827 0.841335
O O12 0.000000 0.000000 0.500000
O O13 0.867301 0.974751 0.849763
O O14 0.463810 0.375298 0.701501
O O15 0.864957 0.805095 0.958961
#
# Coordination Sequence:
#
# PCOD9076535 Si02
#       7
#     2   2   2   2   2   2   2
#     4  11  21  37  60  86 110 149 192 234 279 330
#     4  10  18  33  57  83 108 145 183 239 276 321
#     4   9  17  29  52  85 109 128 186 239 272 315
#     4  11  20  39  58  83 118 144 191 238 274 336
#     4  11  22  40  56  87 116 149 192 228 279 347
#     4   9  19  31  54  83 108 139 190 232 277 317
#     4  11  25  37  58  83 120 154 182 230 289 335
#
# _framework density 18.363184
#
# number of rings (size 3 to 8) (size 9 to 14) (size 15 to 20)
#    0.000    1.714    5.714    0.857    8.000    0.000 
#    0.000    0.714    0.000    3.429    0.000    0.000 
#    0.000    0.000    0.000    0.000    0.000    0.000 
#
# Total GULP energy -78023.650484 kJ/mol
# GULP energy per Si atom -5573.117892 kJ/mol
# Density = 1.832139 g / cm^3
# Si number density = 18.363184 Si / 1000 Ang^3
#
#
#
# Elastic Constant Matrix: (Units=GPa)
#
#
# Indices 1 2 3 4 5 6 
#
# 1 76.8162 21.9645 26.8926 -2.3419 -24.1878 3.1858
# 2 21.9645 66.4705 35.2389 -11.7977 -13.0507 12.7182
# 3 26.8926 35.2389 63.2770 -14.6403 -21.5168 2.6108
# 4 -2.3419 -11.7977 -14.6403 25.6799 5.7682 -7.4042
# 5 -24.1878 -13.0507 -21.5168 5.7682 29.1409 0.7956
# 6 3.1858 12.7182 2.6108 -7.4042 0.7956 18.0483
#
#
#
# Elastic Compliance Matrix: (Units=1/GPa)
#
#
# Indices 1 2 3 4 5 6 
#
# 1 0.019087 -0.001916 -0.003502 -0.005442 0.013595 -0.004344
# 2 -0.001916 0.025486 -0.012417 -0.000440 0.001181 -0.016058
# 3 -0.003502 -0.012417 0.030345 0.011336 0.011445 0.009124
# 4 -0.005442 -0.000440 0.011336 0.052556 -0.007334 0.021515
# 5 0.013595 0.001181 0.011445 -0.007334 0.056315 -0.010379
# 6 -0.004344 -0.016058 0.009124 0.021515 -0.010379 0.075453
#
#
# Mechanical properties :
#
#
# Convention : Reuss Voigt Hill
#
# Bulk Modulus (GPa) = 25.47863 41.63953 33.55908
# Shear Modulus (GPa) = 16.23404 22.73833 19.48618
#
# Velocity S-wave (km/s) = 2.97653 3.52270 3.26107
# Velocity P-wave (km/s) = 5.07129 6.26663 5.70038
#
# Compressibility (1/GPa) = 0.03924858
#
# Stress axis : x y z
#
# Youngs Moduli (GPa) = 52.39191 39.23699 32.95445
#
# Poissons Ratio (x) = 0.07518 0.11541
# Poissons Ratio (y) = 0.10039 0.40918
# Poissons Ratio (z) = 0.18348 0.48719
#
# Static dielectric constant tensor:
#      x y z
#    x 1.664630 -0.019310 0.024450 
#    y -0.019310 1.667620 -0.021490 
#    z 0.024450 -0.021490 1.667620 
# 
# From -- ./inp_files/270626.got.cif
#   From: 2010.05.17/outbox.cif.g08.bks.cpg/sg2_136_cif.got.tgz:270626.got - 2010.06.03 11:33:40.
