data_PCOD9076291
_publ_section_title
;
Structure prediction by ZEFSAII (Michael W. Deem and Ramdas Pophale) SiO2 
 PCOD9076291
Probable space group: P -1
;
_chemical_formula_sum "Si O2"
_cell_formula_units_Z 16
_cell_length_a 9.483787
_cell_length_b 12.955966
_cell_length_c 8.768985
_cell_angle_alpha 71.369245
_cell_angle_beta 86.556924
_cell_angle_gamma 131.598439
_cell_volume 704.963742
_symmetry_space_group_name_H-M "P -1"
_symmetry_group_IT_number 2
_symmetry_cell_setting 'triclinic'
loop_
_space_group_symop_operation_xyz
x,y,z
-x,-y,-z
loop_
_atom_site_type_symbol
_atom_site_label
_atom_site_fract_x
_atom_site_fract_y
_atom_site_fract_z
Si Si1 0.675714 0.323463 0.841645
Si Si2 0.245861 0.710477 0.639463
Si Si3 0.404078 0.922541 0.820305
Si Si4 0.842456 0.576929 0.173507
Si Si5 0.860863 0.262230 0.656617
Si Si6 0.614252 0.848585 0.319367
Si Si7 0.601143 0.627926 0.569623
Si Si8 0.288233 0.429483 0.118034
O O1 0.821175 0.362518 0.677359
O O2 0.475741 0.240617 0.794277
O O3 0.703992 0.439797 0.895181
O O4 0.660572 0.203359 0.994196
O O5 0.345277 0.837327 0.704157
O O6 0.133032 0.540577 0.790852
O O7 0.100620 0.700664 0.542907
O O8 0.434206 0.779748 0.484811
O O9 0.646334 0.077318 0.759662
O O10 0.301503 0.984809 0.803544
O O11 0.605444 0.453746 0.290609
O O12 0.971311 0.688051 0.259970
O O13 0.867200 0.654172 0.976068
O O14 0.711883 0.796421 0.413560
O O15 0.500000 0.500000 0.500000
O O16 0.736203 0.646279 0.683155
O O17 0.500000 0.500000 0.000000
#
# Coordination Sequence:
#
# PCOD9076291 Si02
#       8
#     2   2   2   2   2   2   2   2
#     4  10  18  33  54  80 106 138 176 212 267 319
#     4   9  17  32  51  79 107 137 168 209 270 326
#     4  10  18  33  54  82 105 140 175 213 266 322
#     4  10  20  34  52  80 111 135 174 222 271 308
#     4  10  20  32  51  81 116 135 165 220 279 320
#     4   9  17  29  51  78  99 128 177 217 258 300
#     4  10  19  34  55  76 101 144 184 220 247 310
#     4  10  20  34  52  76 106 142 185 216 250 309
#
# _framework density 22.696202
#
# number of rings (size 3 to 8) (size 9 to 14) (size 15 to 20)
#    0.000    2.500    2.500    3.375    0.000    0.500 
#    0.000    0.000    0.000    3.000    0.000    9.625 
#    0.000    0.000    0.000    0.000    0.000    0.000 
#
# Total GULP energy -89067.820310 kJ/mol
# GULP energy per Si atom -5566.738769 kJ/mol
# Density = 2.264454 g / cm^3
# Si number density = 22.696202 Si / 1000 Ang^3
#
#
#
# Elastic Constant Matrix: (Units=GPa)
#
#
# Indices 1 2 3 4 5 6 
#
# 1 70.5883 26.9301 46.8975 -0.3222 24.8411 -3.9005
# 2 26.9301 107.4038 50.1739 24.1182 20.1150 15.7189
# 3 46.8975 50.1739 140.2187 26.8713 55.6543 1.5686
# 4 -0.3222 24.1182 26.8713 50.5914 5.7042 8.5386
# 5 24.8411 20.1150 55.6543 5.7042 51.8823 0.9764
# 6 -3.9005 15.7189 1.5686 8.5386 0.9764 23.3211
#
#
#
# Elastic Compliance Matrix: (Units=1/GPa)
#
#
# Indices 1 2 3 4 5 6 
#
# 1 0.020427 -0.003817 -0.004873 0.004108 -0.003619 0.004964
# 2 -0.003817 0.013602 -0.002891 -0.003595 0.000206 -0.008304
# 3 -0.004873 -0.002891 0.016271 -0.006277 -0.013364 0.002897
# 4 0.004108 -0.003595 -0.006277 0.025450 0.003474 -0.005931
# 5 -0.003619 0.000206 -0.013364 0.003474 0.034930 -0.002580
# 6 0.004964 -0.008304 0.002897 -0.005931 -0.002580 0.051392
#
#
# Mechanical properties :
#
#
# Convention : Reuss Voigt Hill
#
# Bulk Modulus (GPa) = 36.84672 62.91265 49.87968
# Shear Modulus (GPa) = 25.73648 38.10625 31.92137
#
# Velocity S-wave (km/s) = 3.37108 4.10197 3.75435
# Velocity P-wave (km/s) = 5.60555 7.08622 6.38893
#
# Compressibility (1/GPa) = 0.02713946
#
# Stress axis : x y z
#
# Youngs Moduli (GPa) = 48.95591 73.51841 61.45983
#
# Poissons Ratio (x) = 0.28060 0.29947
# Poissons Ratio (y) = 0.18685 0.17766
# Poissons Ratio (z) = 0.23855 0.21251
#
# Static dielectric constant tensor:
#      x y z
#    x 1.933250 0.043050 0.020960 
#    y 0.043050 1.862850 -0.032690 
#    z 0.020960 -0.032690 1.951320 
# 
# From -- ./inp_files/270022.got.cif
#   From: 2010.05.17/outbox.cif.g08.bks.cpg/sg2_136_cif.got.tgz:270022.got - 2010.06.03 11:33:40.
