data_PCOD9076216
_publ_section_title
;
Structure prediction by ZEFSAII (Michael W. Deem and Ramdas Pophale) SiO2 
 PCOD9076216
Probable space group: P -1
;
_chemical_formula_sum "Si O2"
_cell_formula_units_Z 16
_cell_length_a 18.282713
_cell_length_b 7.488497
_cell_length_c 9.652835
_cell_angle_alpha 100.705867
_cell_angle_beta 132.898550
_cell_angle_gamma 48.791199
_cell_volume 640.280544
_symmetry_space_group_name_H-M "P -1"
_symmetry_group_IT_number 2
_symmetry_cell_setting 'triclinic'
loop_
_space_group_symop_operation_xyz
x,y,z
-x,-y,-z
loop_
_atom_site_type_symbol
_atom_site_label
_atom_site_fract_x
_atom_site_fract_y
_atom_site_fract_z
Si Si1 0.988556 0.480753 0.819024
Si Si2 0.208057 0.403431 0.915791
Si Si3 0.803998 0.376828 0.578561
Si Si4 0.377748 0.775032 0.465751
Si Si5 0.947888 0.898808 0.506027
Si Si6 0.551759 0.960708 0.257073
Si Si7 0.835318 0.218711 0.880746
Si Si8 0.724960 0.013312 0.365374
O O1 0.935792 0.344938 0.718954
O O2 0.137718 0.351955 0.922038
O O3 0.859428 0.759095 0.603295
O O4 0.000000 0.500000 0.000000
O O5 0.380169 0.151627 0.075927
O O6 0.188109 0.631658 0.992710
O O7 0.091592 0.579975 0.664458
O O8 0.756204 0.433429 0.684774
O O9 0.660805 0.643048 0.353366
O O10 0.877053 0.093066 0.578442
O O11 0.500000 0.500000 0.500000
O O12 0.407441 0.950689 0.549125
O O13 0.229842 0.895996 0.219385
O O14 0.366466 0.734151 0.608795
O O15 0.000000 0.000000 0.500000
O O16 0.800662 0.970604 0.312196
O O17 0.606296 0.009546 0.204596
O O18 0.000000 0.000000 0.000000
#
# Coordination Sequence:
#
# PCOD9076216 Si02
#       8
#     2   2   2   2   2   2   2   2
#     4  10  19  32  53  84 122 152 183 232 288 350
#     4  11  21  38  57  87 119 152 199 233 285 363
#     4  11  21  36  57  86 116 152 188 237 299 342
#     4  10  18  33  52  83 119 159 179 219 294 358
#     4  11  23  42  65  83 107 155 211 248 283 337
#     4   9  21  37  55  83 124 153 182 238 295 350
#     4  12  19  32  58  83 120 159 187 231 290 348
#     4   8  18  37  53  77 120 150 185 236 285 340
#
# _framework density 24.989045000000001
#
# number of rings (size 3 to 8) (size 9 to 14) (size 15 to 20)
#    0.750    1.000    5.000    0.750    0.000    0.500 
#    2.250    8.125    0.000    0.000    0.000    0.000 
#    0.000    0.000    0.000    0.000    0.000    0.000 
#
# Total GULP energy -89154.483378 kJ/mol
# GULP energy per Si atom -5572.155211 kJ/mol
# Density = 2.493217 g / cm^3
# Si number density = 24.989045 Si / 1000 Ang^3
#
#
#
# Elastic Constant Matrix: (Units=GPa)
#
#
# Indices 1 2 3 4 5 6 
#
# 1 157.5413 2.1967 53.1320 -15.5578 33.3743 -4.6048
# 2 2.1967 100.5346 26.7712 5.4108 6.0317 -5.5605
# 3 53.1320 26.7712 74.7070 -18.2697 42.9027 -15.1764
# 4 -15.5578 5.4108 -18.2697 26.6856 -9.4253 -2.4780
# 5 33.3743 6.0317 42.9027 -9.4253 50.2292 -3.8210
# 6 -4.6048 -5.5605 -15.1764 -2.4780 -3.8210 34.4944
#
#
#
# Elastic Compliance Matrix: (Units=1/GPa)
#
#
# Indices 1 2 3 4 5 6 
#
# 1 0.008667 0.001652 -0.007204 -0.000383 -0.000011 -0.001775
# 2 0.001652 0.012862 -0.011269 -0.007720 0.005335 -0.002628
# 3 -0.007204 -0.011269 0.048640 0.022390 -0.029918 0.016916
# 4 -0.000383 -0.007720 0.022390 0.052680 -0.007179 0.011544
# 5 -0.000011 0.005335 -0.029918 -0.007179 0.042868 -0.008071
# 6 -0.001775 -0.002628 0.016916 0.011544 -0.008071 0.035707
#
#
# Mechanical properties :
#
#
# Convention : Reuss Voigt Hill
#
# Bulk Modulus (GPa) = 27.37756 55.22031 41.29893
# Shear Modulus (GPa) = 20.22311 38.99402 29.60857
#
# Velocity S-wave (km/s) = 2.84787 3.95453 3.44592
# Velocity P-wave (km/s) = 4.66834 6.55720 5.69167
#
# Compressibility (1/GPa) = 0.03652627
#
# Stress axis : x y z
#
# Youngs Moduli (GPa) = 115.38542 77.75041 20.55913
#
# Poissons Ratio (x) = -0.12844 0.14810
# Poissons Ratio (y) = -0.19061 0.23169
# Poissons Ratio (z) = 0.83121 0.87620
#
# Static dielectric constant tensor:
#      x y z
#    x 2.102390 0.069950 0.059340 
#    y 0.069950 2.071640 0.120820 
#    z 0.059340 0.120820 2.133920 
# 
# From -- ./inp_files/469410.got.cif
#   From: 2010.05.17/outbox.cif.g08.bks.cpg/sg2_235_cif.got.tgz:469410.got - 2010.06.03 11:33:40.
