data_PCOD9076785
_publ_section_title
;
Structure prediction by ZEFSAII (Michael W. Deem and Ramdas Pophale) SiO2 
 PCOD9076785
Probable space group: P -1
;
_chemical_formula_sum "Si O2"
_cell_formula_units_Z 16
_cell_length_a 9.550156
_cell_length_b 14.851834
_cell_length_c 17.822570
_cell_angle_alpha 158.594434
_cell_angle_beta 83.564994
_cell_angle_gamma 97.183513
_cell_volume 915.295075
_symmetry_space_group_name_H-M "P -1"
_symmetry_group_IT_number 2
_symmetry_cell_setting 'triclinic'
loop_
_space_group_symop_operation_xyz
x,y,z
-x,-y,-z
loop_
_atom_site_type_symbol
_atom_site_label
_atom_site_fract_x
_atom_site_fract_y
_atom_site_fract_z
Si Si1 0.328406 0.950394 0.960404
Si Si2 0.668088 0.185428 0.563511
Si Si3 0.070487 0.123292 0.665862
Si Si4 0.432412 0.762097 0.219036
Si Si5 0.580332 0.551365 0.456862
Si Si6 0.588887 0.636287 0.821705
Si Si7 0.688438 0.087404 0.900957
Si Si8 0.828264 0.315014 0.932863
O O1 0.309283 0.663304 0.719078
O O2 0.265149 0.977206 0.067274
O O3 0.500000 0.000000 0.000000
O O4 0.304240 0.145853 0.048497
O O5 0.635160 0.225756 0.684663
O O6 0.657576 0.443813 0.722335
O O7 0.816121 0.059418 0.451956
O O8 0.548938 0.988774 0.385407
O O9 0.955989 0.187838 0.785318
O O10 0.146944 0.389036 0.846171
O O11 0.000000 0.000000 0.500000
O O12 0.312015 0.774157 0.173382
O O13 0.500000 0.500000 0.000000
O O14 0.500000 0.500000 0.500000
O O15 0.475390 0.507327 0.358893
O O16 0.646931 0.825423 0.663033
O O17 0.453607 0.758820 0.963165
O O18 0.801878 0.237266 0.959854
#
# Coordination Sequence:
#
# PCOD9076785 Si02
#       8
#     2   2   2   2   2   2   2   2
#     4   8  16  28  45  75 115 140 173 222 275 339
#     4  11  23  36  57  83 119 151 185 240 294 333
#     4  11  24  43  57  76 116 157 201 236 279 343
#     4  11  21  37  56  86 115 140 189 243 289 339
#     4  10  14  29  50  78 116 148 171 220 287 337
#     4  10  19  29  49  83 116 145 174 230 286 336
#     4  10  18  31  52  82 113 141 185 228 278 340
#     4  11  23  38  61  82 110 156 197 235 283 342
#
# _framework density 17.480702000000001
#
# number of rings (size 3 to 8) (size 9 to 14) (size 15 to 20)
#    0.000    2.000    6.250    1.500    1.750    2.000 
#    0.000    0.000    0.000    0.750    0.000    1.750 
#    0.000    0.000    0.000    0.000    0.000    0.000 
#
# Total GULP energy -89183.547438 kJ/mol
# GULP energy per Si atom -5573.971715 kJ/mol
# Density = 1.744091 g / cm^3
# Si number density = 17.480702 Si / 1000 Ang^3
#
#
#
# Elastic Constant Matrix: (Units=GPa)
#
#
# Indices 1 2 3 4 5 6 
#
# 1 45.8358 24.7808 21.1832 8.6117 -8.6212 -3.1430
# 2 24.7808 104.6680 27.1338 16.9485 -9.1541 7.5575
# 3 21.1832 27.1338 95.0776 3.8038 -11.2270 -2.4251
# 4 8.6117 16.9485 3.8038 29.4613 -10.0761 -4.0161
# 5 -8.6212 -9.1541 -11.2270 -10.0761 22.4662 -0.4254
# 6 -3.1430 7.5575 -2.4251 -4.0161 -0.4254 18.3823
#
#
#
# Elastic Compliance Matrix: (Units=1/GPa)
#
#
# Indices 1 2 3 4 5 6 
#
# 1 0.028410 -0.005363 -0.003844 -0.001769 0.006122 0.006311
# 2 -0.005363 0.013165 -0.002653 -0.007291 -0.001447 -0.008306
# 3 -0.003844 -0.002653 0.012702 0.003220 0.005291 0.002935
# 4 -0.001769 -0.007291 0.003220 0.046662 0.019148 0.013757
# 5 0.006122 -0.001447 0.005291 0.019148 0.057652 0.007857
# 6 0.006311 -0.008306 0.002935 0.013757 0.007857 0.062468
#
#
# Mechanical properties :
#
#
# Convention : Reuss Voigt Hill
#
# Bulk Modulus (GPa) = 32.72762 43.53079 38.12920
# Shear Modulus (GPa) = 19.61032 25.56088 22.58560
#
# Velocity S-wave (km/s) = 3.35300 3.82807 3.59838
# Velocity P-wave (km/s) = 5.80973 6.67046 6.25492
#
# Compressibility (1/GPa) = 0.03055523
#
# Stress axis : x y z
#
# Youngs Moduli (GPa) = 35.19900 75.95672 78.72593
#
# Poissons Ratio (x) = 0.40739 0.30266
# Poissons Ratio (y) = 0.18879 0.20888
# Poissons Ratio (z) = 0.13532 0.20153
#
# Static dielectric constant tensor:
#      x y z
#    x 1.581320 0.000170 -0.001110 
#    y 0.000170 1.645440 0.012500 
#    z -0.001110 0.012500 1.626480 
# 
# From -- ./inp_files/561240.got.cif
#   From: 2010.05.17/outbox.cif.g08.bks.cpg/sg2_281_cif.got.tgz:561240.got - 2010.06.03 11:33:40.
