data_PCOD9076806
_publ_section_title
;
Structure prediction by ZEFSAII (Michael W. Deem and Ramdas Pophale) SiO2 
 PCOD9076806
Probable space group: P -1
;
_chemical_formula_sum "Si O2"
_cell_formula_units_Z 16
_cell_length_a 9.530442
_cell_length_b 10.405599
_cell_length_c 9.031512
_cell_angle_alpha 94.903931
_cell_angle_beta 113.336888
_cell_angle_gamma 124.219681
_cell_volume 621.446842
_symmetry_space_group_name_H-M "P -1"
_symmetry_group_IT_number 2
_symmetry_cell_setting 'triclinic'
loop_
_space_group_symop_operation_xyz
x,y,z
-x,-y,-z
loop_
_atom_site_type_symbol
_atom_site_label
_atom_site_fract_x
_atom_site_fract_y
_atom_site_fract_z
Si Si1 0.290288 0.893979 0.488216
Si Si2 0.072173 0.942396 0.900492
Si Si3 0.116483 0.537946 0.322115
Si Si4 0.379776 0.444070 0.787961
Si Si5 0.708661 0.609359 0.743740
Si Si6 0.292746 0.813726 0.950439
Si Si7 0.052924 0.325245 0.851651
Si Si8 0.368916 0.152332 0.783262
O O1 0.216268 0.706918 0.479020
O O2 0.127095 0.862754 0.302052
O O3 0.500000 0.000000 0.500000
O O4 0.303912 0.996046 0.641934
O O5 0.186810 0.874837 0.996680
O O6 0.859774 0.778568 0.727976
O O7 0.227269 0.084283 0.861607
O O8 0.000000 0.000000 0.000000
O O9 0.281492 0.524085 0.341992
O O10 0.901540 0.345888 0.240445
O O11 0.056596 0.598813 0.166327
O O12 0.506987 0.565459 0.714627
O O13 0.184761 0.408313 0.762375
O O14 0.345922 0.277485 0.711131
O O15 0.500000 0.500000 0.000000
O O16 0.820593 0.647460 0.953102
O O17 0.399235 0.750514 0.066676
O O18 0.500000 0.000000 0.000000
#
# Coordination Sequence:
#
# PCOD9076806 Si02
#       8
#     2   2   2   2   2   2   2   2
#     4  10  23  36  57  87 123 161 192 243 300 356
#     4  10  21  36  57  87 117 148 190 251 295 346
#     4   9  19  34  55  84 111 150 193 245 292 339
#     4  10  19  33  57  88 114 150 192 251 292 339
#     4  10  18  33  60  87 110 150 198 248 290 346
#     4   9  19  35  60  85 108 154 200 247 287 347
#     4   9  20  33  56  87 116 152 196 243 301 343
#     4  11  22  39  57  87 124 152 200 241 299 357
#
# _framework density 25.746366999999999
#
# number of rings (size 3 to 8) (size 9 to 14) (size 15 to 20)
#    0.750    1.500    0.000    4.125    3.500    1.500 
#    0.000    5.625    0.000    0.750    0.000    0.000 
#    0.000    0.000    0.000    0.000    0.000    0.000 
#
# Total GULP energy -89097.400023 kJ/mol
# GULP energy per Si atom -5568.587501 kJ/mol
# Density = 2.568777 g / cm^3
# Si number density = 25.746367 Si / 1000 Ang^3
#
#
#
# Elastic Constant Matrix: (Units=GPa)
#
#
# Indices 1 2 3 4 5 6 
#
# 1 150.2128 28.9893 53.3518 8.0107 -25.9251 25.2965
# 2 28.9893 64.0606 24.9298 18.9604 -7.7239 10.6639
# 3 53.3518 24.9298 98.6855 15.1223 -17.4482 2.7409
# 4 8.0107 18.9604 15.1223 35.3558 -16.3935 -3.8558
# 5 -25.9251 -7.7239 -17.4482 -16.3935 32.1716 15.0210
# 6 25.2965 10.6639 2.7409 -3.8558 15.0210 43.4156
#
#
#
# Elastic Compliance Matrix: (Units=1/GPa)
#
#
# Indices 1 2 3 4 5 6 
#
# 1 0.013159 -0.002179 -0.004265 0.006427 0.016673 -0.012060
# 2 -0.002179 0.021432 -0.002735 -0.011125 -0.001809 -0.004184
# 3 -0.004265 -0.002735 0.013711 -0.002694 0.001206 0.001635
# 4 0.006427 -0.011125 -0.002694 0.045960 0.027377 -0.006232
# 5 0.016673 -0.001809 0.001206 0.027377 0.073848 -0.032465
# 6 -0.012060 -0.004184 0.001635 -0.006232 -0.032465 0.041664
#
#
# Mechanical properties :
#
#
# Convention : Reuss Voigt Hill
#
# Bulk Modulus (GPa) = 33.39763 58.61116 46.00440
# Shear Modulus (GPa) = 20.99856 35.90112 28.44984
#
# Velocity S-wave (km/s) = 2.85896 3.73824 3.32777
# Velocity P-wave (km/s) = 4.88857 6.43792 5.71598
#
# Compressibility (1/GPa) = 0.02994224
#
# Stress axis : x y z
#
# Youngs Moduli (GPa) = 75.99601 46.65993 72.93580
#
# Poissons Ratio (x) = 0.10167 0.31110
# Poissons Ratio (y) = 0.16560 0.19947
# Poissons Ratio (z) = 0.32415 0.12761
#
# Static dielectric constant tensor:
#      x y z
#    x 2.028530 0.050710 0.031840 
#    y 0.050710 2.226360 0.040310 
#    z 0.031840 0.040310 2.116530 
# 
# From -- ./inp_files/390753.got.cif
#   From: 2010.05.17/outbox.cif.g08.bks.cpg/sg2_196_cif.got.tgz:390753.got - 2010.06.03 11:33:40.
