data_PCOD9076955
_publ_section_title
;
Structure prediction by ZEFSAII (Michael W. Deem and Ramdas Pophale) SiO2 
 PCOD9076955
Probable space group: P -1
;
_chemical_formula_sum "Si O2"
_cell_formula_units_Z 16
_cell_length_a 8.662334
_cell_length_b 13.747517
_cell_length_c 7.624371
_cell_angle_alpha 69.066011
_cell_angle_beta 101.379719
_cell_angle_gamma 121.689179
_cell_volume 721.537091
_symmetry_space_group_name_H-M "P -1"
_symmetry_group_IT_number 2
_symmetry_cell_setting 'triclinic'
loop_
_space_group_symop_operation_xyz
x,y,z
-x,-y,-z
loop_
_atom_site_type_symbol
_atom_site_label
_atom_site_fract_x
_atom_site_fract_y
_atom_site_fract_z
Si Si1 0.043023 0.669822 0.307216
Si Si2 0.971222 0.438428 0.255415
Si Si3 0.680374 0.604597 0.145253
Si Si4 0.408862 0.640207 0.896935
Si Si5 0.358159 0.182646 0.446837
Si Si6 0.614371 0.121386 0.686900
Si Si7 0.730262 0.075283 0.361905
Si Si8 0.121337 0.289683 0.242162
O O1 0.089113 0.628669 0.527244
O O2 0.199044 0.804893 0.216046
O O3 0.033341 0.575530 0.222467
O O4 0.839692 0.648762 0.293392
O O5 0.794673 0.384945 0.126303
O O6 0.116763 0.405255 0.238050
O O7 0.511802 0.628074 0.097093
O O8 0.791691 0.677641 0.950837
O O9 0.606605 0.464916 0.172478
O O10 0.536627 0.764323 0.746815
O O11 0.513906 0.201084 0.608128
O O12 0.237235 0.244338 0.407894
O O13 0.242721 0.038272 0.511101
O O14 0.674762 0.112327 0.507154
O O15 0.553463 0.013040 0.234374
O O16 0.913761 0.183679 0.262252
#
# Coordination Sequence:
#
# PCOD9076955 Si02
#       8
#     2   2   2   2   2   2   2   2
#     4  10  18  34  52  81 103 140 176 220 259 307
#     4  10  19  31  60  73 107 138 184 213 253 314
#     4   9  21  31  56  75 113 135 169 220 272 307
#     4   9  16  35  51  74  99 147 178 195 250 335
#     4   9  17  29  54  78 102 132 182 223 241 297
#     4   9  17  32  55  77  98 138 183 215 250 307
#     4   9  17  31  55  82  95 142 184 222 239 317
#     4  11  19  33  50  87 104 136 173 222 264 314
#
# _framework density 22.174880999999999
#
# number of rings (size 3 to 8) (size 9 to 14) (size 15 to 20)
#    0.750    1.750    2.500    0.375    0.000    2.000 
#    0.000    1.250    2.750    3.000    0.000    0.000 
#    0.000    0.000    0.000    0.000    0.000    0.000 
#
# Total GULP energy -89114.305608 kJ/mol
# GULP energy per Si atom -5569.644101 kJ/mol
# Density = 2.212441 g / cm^3
# Si number density = 22.174881 Si / 1000 Ang^3
#
#
#
# Elastic Constant Matrix: (Units=GPa)
#
#
# Indices 1 2 3 4 5 6 
#
# 1 103.0037 35.2154 28.4094 13.1039 26.4843 -0.7952
# 2 35.2154 92.7496 15.0034 1.3482 7.0684 24.9368
# 3 28.4094 15.0034 36.9678 -0.2650 13.5762 2.1195
# 4 13.1039 1.3482 -0.2650 21.6874 9.3491 6.4199
# 5 26.4843 7.0684 13.5762 9.3491 39.0453 -6.3303
# 6 -0.7952 24.9368 2.1195 6.4199 -6.3303 44.5148
#
#
#
# Elastic Compliance Matrix: (Units=1/GPa)
#
#
# Indices 1 2 3 4 5 6 
#
# 1 0.016378 -0.005534 -0.009238 -0.009350 -0.003907 0.004625
# 2 -0.005534 0.015778 -0.000824 0.006159 -0.001922 -0.010060
# 3 -0.009238 -0.000824 0.038809 0.012189 -0.010783 -0.004843
# 4 -0.009350 0.006159 0.012189 0.063395 -0.016739 -0.015721
# 5 -0.003907 -0.001922 -0.010783 -0.016739 0.037877 0.009321
# 6 0.004625 -0.010060 -0.004843 -0.015721 0.009321 0.032006
#
#
# Mechanical properties :
#
#
# Convention : Reuss Voigt Hill
#
# Bulk Modulus (GPa) = 25.14256 43.33083 34.23669
# Shear Modulus (GPa) = 20.10518 31.32236 25.71377
#
# Velocity S-wave (km/s) = 3.01435 3.76242 3.40897
# Velocity P-wave (km/s) = 4.84541 6.20140 5.56486
#
# Compressibility (1/GPa) = 0.03977319
#
# Stress axis : x y z
#
# Youngs Moduli (GPa) = 61.05774 63.38022 25.76725
#
# Poissons Ratio (x) = 0.35075 0.23803
# Poissons Ratio (y) = 0.33790 0.02123
# Poissons Ratio (z) = 0.56404 0.05221
#
# Static dielectric constant tensor:
#      x y z
#    x 1.867730 0.026960 0.051820 
#    y 0.026960 1.823550 -0.001160 
#    z 0.051820 -0.001160 1.866360 
# 
# From -- ./inp_files/201530.got.cif
#   From: 2010.05.17/outbox.cif.g08.bks.cpg/sg2_101_cif.got.tgz:201530.got - 2010.06.03 11:33:40.
