data_PCOD9076393
_publ_section_title
;
Structure prediction by ZEFSAII (Michael W. Deem and Ramdas Pophale) SiO2 
 PCOD9076393
Probable space group: P -1
;
_chemical_formula_sum "Si O2"
_cell_formula_units_Z 14
_cell_length_a 8.925582
_cell_length_b 6.483377
_cell_length_c 13.521756
_cell_angle_alpha 119.369281
_cell_angle_beta 78.186322
_cell_angle_gamma 96.686750
_cell_volume 667.347806
_symmetry_space_group_name_H-M "P -1"
_symmetry_group_IT_number 2
_symmetry_cell_setting 'triclinic'
loop_
_space_group_symop_operation_xyz
x,y,z
-x,-y,-z
loop_
_atom_site_type_symbol
_atom_site_label
_atom_site_fract_x
_atom_site_fract_y
_atom_site_fract_z
Si Si1 0.500437 0.276002 0.375590
Si Si2 0.269337 0.868300 0.345812
Si Si3 0.327642 0.006427 0.574311
Si Si4 0.883494 0.828966 0.036674
Si Si5 0.894221 0.272027 0.854566
Si Si6 0.567330 0.551250 0.242254
Si Si7 0.662709 0.124366 0.019197
O O1 0.500000 0.500000 0.500000
O O2 0.647227 0.135812 0.362033
O O3 0.513145 0.356970 0.282131
O O4 0.345309 0.123617 0.372355
O O5 0.228806 0.887084 0.472704
O O6 0.137775 0.799602 0.270753
O O7 0.414566 0.693997 0.268677
O O8 0.500000 0.000000 0.500000
O O9 0.315251 0.275289 0.673741
O O10 0.947511 0.805610 0.133762
O O11 0.732704 0.969976 0.063237
O O12 0.881709 0.557761 0.933655
O O13 0.000000 0.000000 0.000000
O O14 0.766368 0.137080 0.909156
O O15 0.644613 0.402006 0.111936
O O16 0.500000 0.000000 0.000000
#
# Coordination Sequence:
#
# PCOD9076393 Si02
#       7
#     2   2   2   2   2   2   2
#     4  10  14  28  46  71 112 143 168 216 268 311
#     4  10  18  28  49  78 104 139 182 214 268 321
#     4   8  16  27  42  70 101 138 175 210 266 313
#     4   9  21  41  56  75 105 151 193 219 270 328
#     4  10  21  38  57  76 113 149 181 227 268 327
#     4  10  18  29  46  75 113 139 170 221 269 317
#     4  11  22  34  54  87 115 140 181 225 275 331
#
# _framework density 20.978566000000001
#
# number of rings (size 3 to 8) (size 9 to 14) (size 15 to 20)
#    0.000    2.571    4.286    1.714    0.000    5.714 
#    0.000    0.000    0.000    0.857    0.000   10.000 
#    0.000    0.000    0.000    0.000    0.000    0.000 
#
# Total GULP energy -77962.924696 kJ/mol
# GULP energy per Si atom -5568.780335 kJ/mol
# Density = 2.093082 g / cm^3
# Si number density = 20.978566 Si / 1000 Ang^3
#
#
#
# Elastic Constant Matrix: (Units=GPa)
#
#
# Indices 1 2 3 4 5 6 
#
# 1 77.1505 17.8434 39.7781 5.4120 24.9218 -19.1242
# 2 17.8434 71.1045 6.5135 15.5219 9.3154 -6.9047
# 3 39.7781 6.5135 96.7798 10.8765 31.7861 -15.1236
# 4 5.4120 15.5219 10.8765 29.1413 -5.0108 -2.0726
# 5 24.9218 9.3154 31.7861 -5.0108 36.1368 -5.7943
# 6 -19.1242 -6.9047 -15.1236 -2.0726 -5.7943 27.5535
#
#
#
# Elastic Compliance Matrix: (Units=1/GPa)
#
#
# Indices 1 2 3 4 5 6 
#
# 1 0.020996 -0.002229 -0.003545 -0.002323 -0.009523 0.009891
# 2 -0.002229 0.018160 0.004065 -0.011954 -0.007950 0.002664
# 3 -0.003545 0.004065 0.018636 -0.010839 -0.015751 0.004659
# 4 -0.002323 -0.011954 -0.010839 0.048505 0.020528 -0.002592
# 5 -0.009523 -0.007950 -0.015751 0.020528 0.052234 -0.004719
# 6 0.009891 0.002664 0.004659 -0.002592 -0.004719 0.045196
#
#
# Mechanical properties :
#
#
# Convention : Reuss Voigt Hill
#
# Bulk Modulus (GPa) = 18.39154 41.47829 29.93492
# Shear Modulus (GPa) = 22.19562 30.62632 26.41097
#
# Velocity S-wave (km/s) = 3.25624 3.82499 3.55202
# Velocity P-wave (km/s) = 4.78783 6.27073 5.57877
#
# Compressibility (1/GPa) = 0.05437283
#
# Stress axis : x y z
#
# Youngs Moduli (GPa) = 47.62797 55.06480 53.66060
#
# Poissons Ratio (x) = 0.12274 0.19024
# Poissons Ratio (y) = 0.10616 -0.21811
# Poissons Ratio (z) = 0.16886 -0.22382
#
# Static dielectric constant tensor:
#      x y z
#    x 1.829330 -0.016120 -0.023520 
#    y -0.016120 1.848300 -0.042170 
#    z -0.023520 -0.042170 1.854890 
# 
# From -- ./inp_files/553101.got.cif
#   From: 2010.05.17/outbox.cif.g08.bks.cpg/sg2_277_cif.got.tgz:553101.got - 2010.06.03 11:33:40.
