data_PCOD9076031
_publ_section_title
;
Structure prediction by ZEFSAII (Michael W. Deem and Ramdas Pophale) SiO2 
 PCOD9076031
Probable space group: P -1
;
_chemical_formula_sum "Si O2"
_cell_formula_units_Z 16
_cell_length_a 13.578050
_cell_length_b 12.456275
_cell_length_c 9.256444
_cell_angle_alpha 127.054780
_cell_angle_beta 59.101796
_cell_angle_gamma 87.899274
_cell_volume 925.103461
_symmetry_space_group_name_H-M "P -1"
_symmetry_group_IT_number 2
_symmetry_cell_setting 'triclinic'
loop_
_space_group_symop_operation_xyz
x,y,z
-x,-y,-z
loop_
_atom_site_type_symbol
_atom_site_label
_atom_site_fract_x
_atom_site_fract_y
_atom_site_fract_z
Si Si1 0.898476 0.235970 0.043211
Si Si2 0.376698 0.473401 0.557086
Si Si3 0.068167 0.283982 0.708366
Si Si4 0.825176 0.979983 0.820507
Si Si5 0.007557 0.274232 0.275721
Si Si6 0.306028 0.313043 0.698147
Si Si7 0.118505 0.476373 0.204762
Si Si8 0.513345 0.128436 0.182019
O O1 0.751821 0.384651 0.300217
O O2 0.967092 0.199035 0.117432
O O3 0.980685 0.278341 0.901777
O O4 0.882466 0.096118 0.879835
O O5 0.500000 0.500000 0.500000
O O6 0.325568 0.451957 0.734352
O O7 0.441425 0.161394 0.419807
O O8 0.132574 0.122598 0.439988
O O9 0.187204 0.306599 0.697296
O O10 0.976932 0.418952 0.771229
O O11 0.886029 0.856975 0.805767
O O12 0.666374 0.077978 0.034064
O O13 0.890339 0.399679 0.570140
O O14 0.062596 0.375058 0.237741
O O15 0.430088 0.300715 0.311892
O O16 0.259609 0.355157 0.930543
O O17 0.500000 0.000000 0.000000
#
# Coordination Sequence:
#
# PCOD9076031 Si02
#       8
#     2   2   2   2   2   2   2   2
#     4  12  20  37  59  86 115 150 191 239 292 339
#     4  10  20  34  60  85 108 150 191 244 284 327
#     4  11  19  33  60  88 110 143 193 251 285 327
#     4  11  22  37  52  86 123 150 187 229 296 351
#     4  10  23  33  57  81 120 155 182 232 291 351
#     4  10  18  32  59  80 111 141 189 245 277 326
#     4  10  19  36  53  85 110 145 195 237 281 333
#     4  10  20  35  57  82 114 151 189 237 284 341
#
# _framework density 17.295362000000001
#
# number of rings (size 3 to 8) (size 9 to 14) (size 15 to 20)
#    0.750    0.750    5.000    1.875    0.000    1.000 
#    0.000    0.625    0.000    3.000    0.000    0.000 
#    0.000    0.000    0.000    0.000    0.000    0.000 
#
# Total GULP energy -89094.982138 kJ/mol
# GULP energy per Si atom -5568.436384 kJ/mol
# Density = 1.725600 g / cm^3
# Si number density = 17.295362 Si / 1000 Ang^3
#
#
#
# Elastic Constant Matrix: (Units=GPa)
#
#
# Indices 1 2 3 4 5 6 
#
# 1 53.1425 24.1823 25.5639 -13.1391 -4.8470 14.7857
# 2 24.1823 56.4147 24.0057 0.3473 8.4998 11.7974
# 3 25.5639 24.0057 109.1770 -0.0248 -3.0857 3.0594
# 4 -13.1391 0.3473 -0.0248 30.5147 3.3819 -0.0431
# 5 -4.8470 8.4998 -3.0857 3.3819 21.2158 0.6829
# 6 14.7857 11.7974 3.0594 -0.0431 0.6829 29.0441
#
#
#
# Elastic Compliance Matrix: (Units=1/GPa)
#
#
# Indices 1 2 3 4 5 6 
#
# 1 0.034150 -0.011582 -0.004818 0.013711 0.009954 -0.012386
# 2 -0.011582 0.027137 -0.003506 -0.003834 -0.013273 -0.004451
# 3 -0.004818 -0.003506 0.011045 -0.002264 0.002186 0.002659
# 4 0.013711 -0.003834 -0.002264 0.038898 -0.001698 -0.005087
# 5 0.009954 -0.013273 0.002186 -0.001698 0.055354 -0.001210
# 6 -0.012386 -0.004451 0.002659 -0.005087 -0.001210 0.042285
#
#
# Mechanical properties :
#
#
# Convention : Reuss Voigt Hill
#
# Bulk Modulus (GPa) = 30.75107 40.69312 35.72209
# Shear Modulus (GPa) = 19.26634 25.82042 22.54338
#
# Velocity S-wave (km/s) = 3.34122 3.86801 3.61423
# Velocity P-wave (km/s) = 5.71871 6.59758 6.17380
#
# Compressibility (1/GPa) = 0.03251919
#
# Stress axis : x y z
#
# Youngs Moduli (GPa) = 29.28299 36.85050 90.53672
#
# Poissons Ratio (x) = 0.42680 0.43620
# Poissons Ratio (y) = 0.33916 0.31743
# Poissons Ratio (z) = 0.14108 0.12920
#
# Static dielectric constant tensor:
#      x y z
#    x 1.567470 -0.001080 0.009070 
#    y -0.001080 1.596070 0.007430 
#    z 0.009070 0.007430 1.623440 
# 
# From -- ./inp_files/237558.got.cif
#   From: 2010.05.17/outbox.cif.g08.bks.cpg/sg2_119_cif.got.tgz:237558.got - 2010.06.03 11:33:40.
