data_PCOD9076351
_publ_section_title
;
Structure prediction by ZEFSAII (Michael W. Deem and Ramdas Pophale) SiO2 
 PCOD9076351
Probable space group: P -1
;
_chemical_formula_sum "Si O2"
_cell_formula_units_Z 14
_cell_length_a 15.103659
_cell_length_b 11.932686
_cell_length_c 20.844523
_cell_angle_alpha 48.445571
_cell_angle_beta 148.972036
_cell_angle_gamma 155.177170
_cell_volume 690.020455
_symmetry_space_group_name_H-M "P -1"
_symmetry_group_IT_number 2
_symmetry_cell_setting 'triclinic'
loop_
_space_group_symop_operation_xyz
x,y,z
-x,-y,-z
loop_
_atom_site_type_symbol
_atom_site_label
_atom_site_fract_x
_atom_site_fract_y
_atom_site_fract_z
Si Si1 0.028195 0.664667 0.408208
Si Si2 0.619159 0.513867 0.311258
Si Si3 0.227046 0.621045 0.435418
Si Si4 0.065376 0.459874 0.157009
Si Si5 0.847303 0.573561 0.908915
Si Si6 0.789372 0.847372 0.495183
Si Si7 0.135722 0.824530 0.733255
O O1 0.031070 0.601211 0.362121
O O2 0.000000 0.500000 0.500000
O O3 0.707878 0.521608 0.292206
O O4 0.421504 0.046174 0.510051
O O5 0.629425 0.389942 0.418490
O O6 0.278894 0.362627 0.168140
O O7 0.965553 0.879702 0.405246
O O8 0.948577 0.333413 0.322496
O O9 0.961032 0.283183 0.095840
O O10 0.449442 0.688063 0.329269
O O11 0.838849 0.256799 0.157070
O O12 0.056015 0.626014 0.067616
O O13 0.484157 0.198167 0.810674
O O14 0.792387 0.674723 0.581133
O O15 0.000000 0.000000 0.500000
#
# Coordination Sequence:
#
# PCOD9076351 Si02
#       7
#     2   2   2   2   2   2   2
#     4   9  20  33  52  80 106 133 175 230 274 302
#     4  10  18  34  53  77 111 142 172 218 262 316
#     4  10  18  33  55  80 104 135 181 227 263 314
#     4  11  20  33  50  76 113 154 174 210 264 314
#     4  10  22  35  49  79 118 143 178 212 259 327
#     4  11  18  33  53  82 115 137 172 220 261 311
#     4  11  20  33  55  81 109 142 180 217 265 319
#
# _framework density 20.289252000000001
#
# number of rings (size 3 to 8) (size 9 to 14) (size 15 to 20)
#    0.000    1.714    4.286    1.714    0.000    4.571 
#    0.000    0.000    0.000    0.857    0.000   52.000 
#    0.000    0.000    0.000    0.000    0.000    0.000 
#
# Total GULP energy -78002.403013 kJ/mol
# GULP energy per Si atom -5571.600215 kJ/mol
# Density = 2.024307 g / cm^3
# Si number density = 20.289252 Si / 1000 Ang^3
#
#
#
# Elastic Constant Matrix: (Units=GPa)
#
#
# Indices 1 2 3 4 5 6 
#
# 1 122.6398 30.3600 39.3843 -9.9908 26.8524 4.0645
# 2 30.3600 62.6432 16.0611 -7.5827 -3.5195 3.4453
# 3 39.3843 16.0611 103.0222 -21.6630 13.6056 3.2950
# 4 -9.9908 -7.5827 -21.6630 26.6448 1.5130 -0.3176
# 5 26.8524 -3.5195 13.6056 1.5130 30.9508 -5.9390
# 6 4.0645 3.4453 3.2950 -0.3176 -5.9390 29.2826
#
#
#
# Elastic Compliance Matrix: (Units=1/GPa)
#
#
# Indices 1 2 3 4 5 6 
#
# 1 0.013234 -0.006140 -0.001914 0.002305 -0.012089 -0.003326
# 2 -0.006140 0.019975 -0.001513 0.001688 0.008251 0.000364
# 3 -0.001914 -0.001513 0.013592 0.010184 -0.005381 -0.002067
# 4 0.002305 0.001688 0.010184 0.047641 -0.009192 -0.003012
# 5 -0.012089 0.008251 -0.005381 -0.009192 0.048678 0.011086
# 6 -0.003326 0.000364 -0.002067 -0.003012 0.011086 0.037017
#
#
# Mechanical properties :
#
#
# Convention : Reuss Voigt Hill
#
# Bulk Modulus (GPa) = 36.14547 51.10177 43.62362
# Shear Modulus (GPa) = 23.98155 30.87562 27.42858
#
# Velocity S-wave (km/s) = 3.44173 3.90522 3.68078
# Velocity P-wave (km/s) = 5.80067 6.75097 6.29378
#
# Compressibility (1/GPa) = 0.02766599
#
# Stress axis : x y z
#
# Youngs Moduli (GPa) = 75.56515 50.06248 73.57057
#
# Poissons Ratio (x) = 0.30739 0.14083
# Poissons Ratio (y) = 0.46398 0.11133
# Poissons Ratio (z) = 0.14465 0.07576
#
# Static dielectric constant tensor:
#      x y z
#    x 1.801940 0.063790 0.043860 
#    y 0.063790 1.824000 0.013340 
#    z 0.043860 0.013340 1.770140 
# 
# From -- ./inp_files/597831.got.cif
#   From: 2010.05.17/outbox.cif.g08.bks.cpg/sg2_299_cif.got.tgz:597831.got - 2010.06.03 11:33:40.
