data_PCOD9076466
_publ_section_title
;
Structure prediction by ZEFSAII (Michael W. Deem and Ramdas Pophale) SiO2 
 PCOD9076466
Probable space group: P -1
;
_chemical_formula_sum "Si O2"
_cell_formula_units_Z 14
_cell_length_a 11.148038
_cell_length_b 10.738638
_cell_length_c 11.598894
_cell_angle_alpha 58.097204
_cell_angle_beta 37.622550
_cell_angle_gamma 61.630386
_cell_volume 715.312582
_symmetry_space_group_name_H-M "P -1"
_symmetry_group_IT_number 2
_symmetry_cell_setting 'triclinic'
loop_
_space_group_symop_operation_xyz
x,y,z
-x,-y,-z
loop_
_atom_site_type_symbol
_atom_site_label
_atom_site_fract_x
_atom_site_fract_y
_atom_site_fract_z
Si Si1 0.370265 0.732158 0.390545
Si Si2 0.688970 0.063860 0.224716
Si Si3 0.207731 0.209578 0.037039
Si Si4 0.064867 0.542322 0.799614
Si Si5 0.299596 0.003929 0.487449
Si Si6 0.895982 0.078353 0.653458
Si Si7 0.948839 0.776937 0.099376
O O1 0.598990 0.720089 0.186978
O O2 0.236533 0.776005 0.357982
O O3 0.277695 0.600299 0.590806
O O4 0.336890 0.874272 0.429581
O O5 0.673540 0.069802 0.371310
O O6 0.767927 0.892822 0.221859
O O7 0.482912 0.101823 0.298005
O O8 0.859765 0.165739 0.016968
O O9 0.062576 0.201507 0.041496
O O10 0.092777 0.313553 0.169856
O O11 0.242420 0.041379 0.134502
O O12 0.942893 0.602541 0.201047
O O13 0.000000 0.500000 0.000000
O O14 0.081928 0.087825 0.592242
O O15 0.000000 0.000000 0.500000
#
# Coordination Sequence:
#
# PCOD9076466 Si02
#       7
#     2   2   2   2   2   2   2
#     4  11  21  36  58  90 110 146 185 230 286 330
#     4  10  19  34  55  79 110 149 187 227 267 330
#     4  11  19  36  56  87 114 144 184 231 285 329
#     4  10  21  36  54  81 121 145 179 234 281 331
#     4  10  18  33  56  84 109 140 188 230 275 324
#     4  10  19  35  58  82 115 142 183 238 280 320
#     4  10  20  34  53  80 113 146 185 226 278 328
#
# _framework density 19.571863
#
# number of rings (size 3 to 8) (size 9 to 14) (size 15 to 20)
#    0.000    1.714    5.714    1.286    0.000    2.286 
#    5.143    0.000    0.000    1.714    0.000    0.000 
#    0.000    0.000    0.000    0.000    0.000    0.000 
#
# Total GULP energy -77946.390785 kJ/mol
# GULP energy per Si atom -5567.599342 kJ/mol
# Density = 1.952732 g / cm^3
# Si number density = 19.571863 Si / 1000 Ang^3
#
#
#
# Elastic Constant Matrix: (Units=GPa)
#
#
# Indices 1 2 3 4 5 6 
#
# 1 85.2212 24.7803 28.1004 -11.2461 -32.0255 1.7619
# 2 24.7803 63.1789 28.5882 3.0202 -16.0209 6.3981
# 3 28.1004 28.5882 106.2365 -14.4415 -31.2918 2.1532
# 4 -11.2461 3.0202 -14.4415 22.9605 1.3638 4.5966
# 5 -32.0255 -16.0209 -31.2918 1.3638 36.4942 -1.2208
# 6 1.7619 6.3981 2.1532 4.5966 -1.2208 14.0789
#
#
#
# Elastic Compliance Matrix: (Units=1/GPa)
#
#
# Indices 1 2 3 4 5 6 
#
# 1 0.020619 -0.005156 0.002873 0.012153 0.017736 -0.003106
# 2 -0.005156 0.021217 -0.005082 -0.007390 0.000516 -0.005762
# 3 0.002873 -0.005082 0.015517 0.011681 0.013054 -0.003105
# 4 0.012153 -0.007390 0.011681 0.060663 0.014551 -0.018493
# 5 0.017736 0.000516 0.013054 0.014551 0.053690 -0.004546
# 6 -0.003106 -0.005762 -0.003105 -0.018493 -0.004546 0.080155
#
#
# Mechanical properties :
#
#
# Convention : Reuss Voigt Hill
#
# Bulk Modulus (GPa) = 23.46138 46.39715 34.92927
# Shear Modulus (GPa) = 17.80639 26.25122 22.02881
#
# Velocity S-wave (km/s) = 3.01955 3.66631 3.35854
# Velocity P-wave (km/s) = 4.91633 6.45600 5.73804
#
# Compressibility (1/GPa) = 0.04262323
#
# Stress axis : x y z
#
# Youngs Moduli (GPa) = 48.49835 47.13111 64.44751
#
# Poissons Ratio (x) = 0.24301 -0.18513
# Poissons Ratio (y) = 0.25006 0.32749
# Poissons Ratio (z) = -0.13932 0.23950
#
# Static dielectric constant tensor:
#      x y z
#    x 1.748320 -0.026250 -0.007880 
#    y -0.026250 1.724650 -0.012190 
#    z -0.007880 -0.012190 1.774720 
# 
# From -- ./inp_files/420773.got.cif
#   From: 2010.05.17/outbox.cif.g08.bks.cpg/sg2_211_cif.got.tgz:420773.got - 2010.06.03 11:33:40.
