data_PCOD9076424
_publ_section_title
;
Structure prediction by ZEFSAII (Michael W. Deem and Ramdas Pophale) SiO2 
 PCOD9076424
Probable space group: P -1
;
_chemical_formula_sum "Si O2"
_cell_formula_units_Z 14
_cell_length_a 7.649201
_cell_length_b 9.301672
_cell_length_c 14.304251
_cell_angle_alpha 113.770917
_cell_angle_beta 39.085144
_cell_angle_gamma 114.625659
_cell_volume 577.647846
_symmetry_space_group_name_H-M "P -1"
_symmetry_group_IT_number 2
_symmetry_cell_setting 'triclinic'
loop_
_space_group_symop_operation_xyz
x,y,z
-x,-y,-z
loop_
_atom_site_type_symbol
_atom_site_label
_atom_site_fract_x
_atom_site_fract_y
_atom_site_fract_z
Si Si1 0.113679 0.791132 0.259734
Si Si2 0.794259 0.544350 0.457720
Si Si3 0.235505 0.488242 0.036450
Si Si4 0.875604 0.923103 0.802954
Si Si5 0.363249 0.425656 0.261864
Si Si6 0.249183 0.750023 0.727668
Si Si7 0.678274 0.994690 0.100044
O O1 0.113268 0.648531 0.148745
O O2 0.900549 0.713421 0.407330
O O3 0.049154 0.946731 0.274912
O O4 0.433913 0.842053 0.178423
O O5 0.630432 0.553949 0.624562
O O6 0.667175 0.396348 0.403545
O O7 0.095457 0.495669 0.351922
O O8 0.012775 0.339451 0.124906
O O9 0.500000 0.500000 0.000000
O O10 0.354892 0.487225 0.882942
O O11 0.694695 0.758332 0.796071
O O12 0.142894 0.864827 0.724889
O O13 0.718236 0.997217 0.972475
O O14 0.423071 0.865678 0.761695
O O15 0.000000 0.000000 0.000000
#
# Coordination Sequence:
#
# PCOD9076424 Si02
#       7
#     2   2   2   2   2   2   2
#     4  11  20  33  58  83 105 132 184 217 268 300
#     4   9  20  34  55  77 102 148 181 213 246 322
#     4  11  16  32  55  79  98 141 180 220 244 318
#     4  10  19  32  56  85 105 134 173 227 264 304
#     4  10  18  33  56  77 106 136 190 212 251 305
#     4   9  19  35  56  79 111 136 177 213 268 309
#     4  10  19  31  53  82 111 136 165 224 267 312
#
# _framework density 24.236218999999998
#
# number of rings (size 3 to 8) (size 9 to 14) (size 15 to 20)
#    0.000    2.000    5.714    1.286    0.000    0.571 
#    0.000    2.857    3.143    4.286    0.000    0.000 
#    0.000    0.000    0.000    0.000    0.000    0.000 
#
# Total GULP energy -78292.802828 kJ/mol
# GULP energy per Si atom -5592.343059 kJ/mol
# Density = 2.418106 g / cm^3
# Si number density = 24.236219 Si / 1000 Ang^3
#
#
#
# Elastic Constant Matrix: (Units=GPa)
#
#
# Indices 1 2 3 4 5 6 
#
# 1 98.5950 44.3349 36.0249 -8.2759 21.1011 7.2402
# 2 44.3349 155.2925 50.6094 -6.4694 13.7471 -13.5024
# 3 36.0249 50.6094 148.8870 -7.6767 36.3951 -2.5051
# 4 -8.2759 -6.4694 -7.6767 52.8082 2.1198 2.5614
# 5 21.1011 13.7471 36.3951 2.1198 44.8770 2.9416
# 6 7.2402 -13.5024 -2.5051 2.5614 2.9416 41.5825
#
#
#
# Elastic Compliance Matrix: (Units=1/GPa)
#
#
# Indices 1 2 3 4 5 6 
#
# 1 0.013310 -0.003296 -0.001006 0.001867 -0.004308 -0.003259
# 2 -0.003296 0.008288 -0.002088 0.000025 0.000500 0.003102
# 3 -0.001006 -0.002088 0.009339 0.001185 -0.006547 0.000450
# 4 0.001867 0.000025 0.001185 0.019573 -0.002688 -0.001261
# 5 -0.004308 0.000500 -0.006547 -0.002688 0.029684 -0.001416
# 6 -0.003259 0.003102 0.000450 -0.001261 -0.001416 0.025828
#
#
# Mechanical properties :
#
#
# Convention : Reuss Voigt Hill
#
# Bulk Modulus (GPa) = 55.07943 73.85698 64.46821
# Shear Modulus (GPa) = 40.04642 45.97392 43.01017
#
# Velocity S-wave (km/s) = 4.06931 4.36008 4.21720
# Velocity P-wave (km/s) = 6.69734 7.47576 7.09723
#
# Compressibility (1/GPa) = 0.01815560
#
# Stress axis : x y z
#
# Youngs Moduli (GPa) = 75.13059 120.66161 107.08200
#
# Poissons Ratio (x) = 0.39776 0.10768
# Poissons Ratio (y) = 0.24767 0.22363
# Poissons Ratio (z) = 0.07555 0.25199
#
# Static dielectric constant tensor:
#      x y z
#    x 2.055440 -0.111800 -0.106530 
#    y -0.111800 1.956440 0.109080 
#    z -0.106530 0.109080 1.987080 
# 
# From -- ./inp_files/203258.got.cif
#   From: 2010.05.17/outbox.cif.g08.bks.cpg/sg2_102_cif.got.tgz:203258.got - 2010.06.03 11:33:40.
