data_PCOD9076368
_publ_section_title
;
Structure prediction by ZEFSAII (Michael W. Deem and Ramdas Pophale) SiO2 
 PCOD9076368
Probable space group: P -1
;
_chemical_formula_sum "Si O2"
_cell_formula_units_Z 14
_cell_length_a 7.679136
_cell_length_b 12.757182
_cell_length_c 12.022379
_cell_angle_alpha 51.999236
_cell_angle_beta 116.810248
_cell_angle_gamma 91.699959
_cell_volume 775.097242
_symmetry_space_group_name_H-M "P -1"
_symmetry_group_IT_number 2
_symmetry_cell_setting 'triclinic'
loop_
_space_group_symop_operation_xyz
x,y,z
-x,-y,-z
loop_
_atom_site_type_symbol
_atom_site_label
_atom_site_fract_x
_atom_site_fract_y
_atom_site_fract_z
Si Si1 0.012497 0.193947 0.794355
Si Si2 0.693453 0.610269 0.771764
Si Si3 0.579565 0.730988 0.120607
Si Si4 0.941969 0.294294 0.149701
Si Si5 0.097830 0.884882 0.941869
Si Si6 0.462282 0.667392 0.886510
Si Si7 0.389849 0.549449 0.554155
O O1 0.835730 0.332649 0.605264
O O2 0.239597 0.206525 0.846977
O O3 0.951609 0.176539 0.916123
O O4 0.015947 0.053770 0.821643
O O5 0.561858 0.694389 0.784397
O O6 0.539519 0.609572 0.629424
O O7 0.868730 0.677421 0.754779
O O8 0.812768 0.444740 0.951487
O O9 0.626999 0.583847 0.296210
O O10 0.652811 0.171372 0.971964
O O11 0.568537 0.700341 0.005894
O O12 0.998444 0.176036 0.147511
O O13 0.784268 0.261732 0.210811
O O14 0.500000 0.500000 0.000000
O O15 0.500000 0.500000 0.500000
#
# Coordination Sequence:
#
# PCOD9076368 Si02
#       7
#     2   2   2   2   2   2   2
#     4  11  23  35  58  82 115 158 179 227 289 334
#     4  10  18  33  55  83 106 143 183 233 278 316
#     4  11  20  38  59  84 111 147 190 235 275 328
#     4   9  17  32  56  78 103 140 185 232 268 314
#     4  10  20  40  57  83 113 145 199 227 268 346
#     4   9  16  30  53  82 102 129 187 232 263 319
#     4  12  22  38  54  86 123 142 184 236 280 336
#
# _framework density 18.062249000000001
#
# number of rings (size 3 to 8) (size 9 to 14) (size 15 to 20)
#    0.000    1.714    5.714    1.714    0.000    2.286 
#    2.571    0.714    0.000    3.429    0.000    0.000 
#    0.000    0.000    0.000    0.000    0.000    0.000 
#
# Total GULP energy -78102.518895 kJ/mol
# GULP energy per Si atom -5578.751350 kJ/mol
# Density = 1.802114 g / cm^3
# Si number density = 18.062249 Si / 1000 Ang^3
#
#
#
# Elastic Constant Matrix: (Units=GPa)
#
#
# Indices 1 2 3 4 5 6 
#
# 1 56.4918 28.4078 17.5937 6.0854 -7.1817 3.3031
# 2 28.4078 77.3096 8.0820 7.0895 -13.6032 -4.0566
# 3 17.5937 8.0820 30.6958 3.2816 -7.5028 -6.0133
# 4 6.0854 7.0895 3.2816 16.4470 -8.2377 4.7780
# 5 -7.1817 -13.6032 -7.5028 -8.2377 16.0130 4.0500
# 6 3.3031 -4.0566 -6.0133 4.7780 4.0500 37.1745
#
#
#
# Elastic Compliance Matrix: (Units=1/GPa)
#
#
# Indices 1 2 3 4 5 6 
#
# 1 0.026912 -0.008799 -0.014360 -0.003066 -0.002443 -0.005014
# 2 -0.008799 0.018112 0.003763 0.000729 0.013111 0.001845
# 3 -0.014360 0.003763 0.045161 0.000955 0.016623 0.007058
# 4 -0.003066 0.000729 0.000955 0.092052 0.051325 -0.016917
# 5 -0.002443 0.013111 0.016623 0.051325 0.110294 -0.014276
# 6 -0.005014 0.001845 0.007058 -0.016917 -0.014276 0.032418
#
#
# Mechanical properties :
#
#
# Convention : Reuss Voigt Hill
#
# Bulk Modulus (GPa) = 19.45805 30.29602 24.87704
# Shear Modulus (GPa) = 13.12775 21.28782 17.20779
#
# Velocity S-wave (km/s) = 2.69886 3.43677 3.08992
# Velocity P-wave (km/s) = 4.52857 5.70597 5.15102
#
# Compressibility (1/GPa) = 0.05139261
#
# Stress axis : x y z
#
# Youngs Moduli (GPa) = 37.15864 55.21200 22.14306
#
# Poissons Ratio (x) = 0.48583 0.31796
# Poissons Ratio (y) = 0.32697 -0.08332
# Poissons Ratio (z) = 0.53358 -0.20776
#
# Static dielectric constant tensor:
#      x y z
#    x 1.640710 -0.004060 -0.005560 
#    y -0.004060 1.608010 -0.005870 
#    z -0.005560 -0.005870 1.609300 
# 
# From -- ./inp_files/389172.got.cif
#   From: 2010.05.17/outbox.cif.g08.bks.cpg/sg2_195_cif.got.tgz:389172.got - 2010.06.03 11:33:40.
