data_PCOD9076320
_publ_section_title
;
Structure prediction by ZEFSAII (Michael W. Deem and Ramdas Pophale) SiO2 
 PCOD9076320
Probable space group: P -1
;
_chemical_formula_sum "Si O2"
_cell_formula_units_Z 16
_cell_length_a 9.480087
_cell_length_b 16.134852
_cell_length_c 5.249218
_cell_angle_alpha 72.540065
_cell_angle_beta 62.830512
_cell_angle_gamma 67.616089
_cell_volume 652.690041
_symmetry_space_group_name_H-M "P -1"
_symmetry_group_IT_number 2
_symmetry_cell_setting 'triclinic'
loop_
_space_group_symop_operation_xyz
x,y,z
-x,-y,-z
loop_
_atom_site_type_symbol
_atom_site_label
_atom_site_fract_x
_atom_site_fract_y
_atom_site_fract_z
Si Si1 0.882524 0.718773 0.814781
Si Si2 0.094333 0.785775 0.942090
Si Si3 0.160840 0.609294 0.375932
Si Si4 0.546879 0.384357 0.516470
Si Si5 0.379966 0.259690 0.583950
Si Si6 0.117152 0.971833 0.683177
Si Si7 0.255479 0.124661 0.563985
Si Si8 0.643798 0.570893 0.861257
O O1 0.031770 0.756338 0.757224
O O2 0.978354 0.638975 0.621930
O O3 0.756567 0.809201 0.724435
O O4 0.785144 0.695168 0.154224
O O5 0.182858 0.863243 0.753282
O O6 0.176745 0.693744 0.110825
O O7 0.922657 0.833961 0.188715
O O8 0.289941 0.604464 0.502530
O O9 0.207896 0.515709 0.266200
O O10 0.532553 0.282465 0.578925
O O11 0.496814 0.428667 0.239719
O O12 0.407788 0.425300 0.807086
O O13 0.383176 0.157264 0.608404
O O14 0.349983 0.326717 0.302282
O O15 0.253270 0.026564 0.557177
O O16 0.000000 0.000000 0.500000
O O17 0.000000 0.000000 0.000000
#
# Coordination Sequence:
#
# PCOD9076320 Si02
#       8
#     2   2   2   2   2   2   2   2
#     4  10  19  35  54  89 118 153 187 242 302 341
#     4   9  20  31  53  86 119 149 187 240 300 339
#     4  11  23  36  61  85 120 153 192 258 291 340
#     4  10  23  41  61  83 113 156 211 237 287 345
#     4   9  21  36  60  83 119 155 203 231 288 356
#     4  10  18  33  54  85 115 153 189 234 283 350
#     4   9  17  34  54  81 120 151 193 232 288 346
#     4  10  23  40  61  83 114 156 210 237 286 344
#
# _framework density 24.513933000000002
#
# number of rings (size 3 to 8) (size 9 to 14) (size 15 to 20)
#    0.750    1.500    1.250    1.500    3.500    0.500 
#    0.000    6.250    0.000    0.750    0.000    2.625 
#    0.000    0.000    0.000    0.000    0.000    0.000 
#
# Total GULP energy -89174.897855 kJ/mol
# GULP energy per Si atom -5573.431116 kJ/mol
# Density = 2.445814 g / cm^3
# Si number density = 24.513933 Si / 1000 Ang^3
#
#
#
# Elastic Constant Matrix: (Units=GPa)
#
#
# Indices 1 2 3 4 5 6 
#
# 1 48.4505 24.6044 7.0366 1.5984 7.0772 30.6218
# 2 24.6044 126.1121 23.7180 -10.8550 -1.6646 24.4483
# 3 7.0366 23.7180 85.8909 8.2932 16.6629 -2.3273
# 4 1.5984 -10.8550 8.2932 38.1037 4.4143 -11.7529
# 5 7.0772 -1.6646 16.6629 4.4143 27.2595 4.4320
# 6 30.6218 24.4483 -2.3273 -11.7529 4.4320 45.2130
#
#
#
# Elastic Compliance Matrix: (Units=1/GPa)
#
#
# Indices 1 2 3 4 5 6 
#
# 1 0.041788 -0.003190 -0.001588 -0.010890 -0.003572 -0.029140
# 2 -0.003190 0.010107 -0.003578 0.002352 0.003780 -0.003248
# 3 -0.001588 -0.003578 0.014849 -0.001811 -0.009275 0.004213
# 4 -0.010890 0.002352 -0.001811 0.032781 -0.003651 0.014890
# 5 -0.003572 0.003780 -0.009275 -0.003651 0.044991 -0.005461
# 6 -0.029140 -0.003248 0.004213 0.014890 -0.005461 0.048233
#
#
# Mechanical properties :
#
#
# Convention : Reuss Voigt Hill
#
# Bulk Modulus (GPa) = 19.98671 41.24127 30.61399
# Shear Modulus (GPa) = 22.11052 35.78821 28.94936
#
# Velocity S-wave (km/s) = 3.00652 3.82503 3.44020
# Velocity P-wave (km/s) = 4.49701 6.03058 5.31935
#
# Compressibility (1/GPa) = 0.05003325
#
# Stress axis : x y z
#
# Youngs Moduli (GPa) = 23.93026 98.94471 67.34440
#
# Poissons Ratio (x) = 0.31560 0.10693
# Poissons Ratio (y) = 0.07633 0.24095
# Poissons Ratio (z) = 0.03800 0.35401
#
# Static dielectric constant tensor:
#      x y z
#    x 1.997660 0.090780 0.027820 
#    y 0.090780 1.965760 -0.086660 
#    z 0.027820 -0.086660 1.919290 
# 
# From -- ./inp_files/73909.got.cif
#   From: 2010.05.17/outbox.cif.g08.bks.cpg/sg2_37_cif.got.tgz:73909.got - 2010.06.03 11:33:40.
