data_PCOD9076852
_publ_section_title
;
Structure prediction by ZEFSAII (Michael W. Deem and Ramdas Pophale) SiO2 
 PCOD9076852
Probable space group: P -1
;
_chemical_formula_sum "Si O2"
_cell_formula_units_Z 14
_cell_length_a 9.881809
_cell_length_b 8.750622
_cell_length_c 12.679122
_cell_angle_alpha 128.159989
_cell_angle_beta 77.189397
_cell_angle_gamma 118.458855
_cell_volume 753.701230
_symmetry_space_group_name_H-M "P -1"
_symmetry_group_IT_number 2
_symmetry_cell_setting 'triclinic'
loop_
_space_group_symop_operation_xyz
x,y,z
-x,-y,-z
loop_
_atom_site_type_symbol
_atom_site_label
_atom_site_fract_x
_atom_site_fract_y
_atom_site_fract_z
Si Si1 0.184624 0.294546 0.676699
Si Si2 0.268884 0.929689 0.174475
Si Si3 0.395756 0.751747 0.378048
Si Si4 0.859827 0.158087 0.599424
Si Si5 0.374119 0.591637 0.081875
Si Si6 0.488900 0.432542 0.351202
Si Si7 0.943175 0.684618 0.065190
O O1 0.184981 0.069275 0.547192
O O2 0.343820 0.488215 0.697419
O O3 0.141788 0.288706 0.803968
O O4 0.041923 0.294149 0.636324
O O5 0.205491 0.893714 0.291477
O O6 0.349788 0.765309 0.082164
O O7 0.115903 0.880528 0.108727
O O8 0.389809 0.177154 0.246712
O O9 0.220922 0.718527 0.394289
O O10 0.427503 0.713569 0.235655
O O11 0.418163 0.576762 0.368542
O O12 0.500000 0.000000 0.500000
O O13 0.500000 0.500000 0.000000
O O14 0.195209 0.400438 0.032787
O O15 0.500000 0.500000 0.500000
O O16 0.000000 0.500000 0.000000
#
# Coordination Sequence:
#
# PCOD9076852 Si02
#       7
#     2   2   2   2   2   2   2
#     4  10  18  33  61  85 112 152 194 231 286 347
#     4   9  19  37  58  85 117 151 188 242 292 337
#     4  11  21  37  58  85 117 154 192 240 288 345
#     4   9  18  35  58  83 111 151 197 231 276 348
#     4  10  20  37  59  87 110 153 200 238 278 353
#     4  12  21  36  57  90 122 151 185 247 302 338
#     4   9  19  37  59  80 111 155 199 230 281 354
#
# _framework density 18.574998999999998
#
# number of rings (size 3 to 8) (size 9 to 14) (size 15 to 20)
#    0.000    2.000    2.857    2.571    0.000    0.000 
#    0.000    9.286    0.000    0.000    0.000    0.000 
#    0.000    0.000    0.000    0.000    0.000    0.000 
#
# Total GULP energy -77954.990269 kJ/mol
# GULP energy per Si atom -5568.213591 kJ/mol
# Density = 1.853272 g / cm^3
# Si number density = 18.574999 Si / 1000 Ang^3
#
#
#
# Elastic Constant Matrix: (Units=GPa)
#
#
# Indices 1 2 3 4 5 6 
#
# 1 157.7667 61.5610 37.8429 23.5956 0.2075 2.5438
# 2 61.5610 71.4898 12.6240 29.9064 16.9891 3.4565
# 3 37.8429 12.6240 92.2713 18.1277 4.7796 4.1149
# 4 23.5956 29.9064 18.1277 28.3119 6.2708 5.1883
# 5 0.2075 16.9891 4.7796 6.2708 29.4358 2.7851
# 6 2.5438 3.4565 4.1149 5.1883 2.7851 24.2489
#
#
#
# Elastic Compliance Matrix: (Units=1/GPa)
#
#
# Indices 1 2 3 4 5 6 
#
# 1 0.011818 -0.013504 -0.004486 0.005794 0.007264 -0.000628
# 2 -0.013504 0.043832 0.007494 -0.036333 -0.019044 0.003858
# 3 -0.004486 0.007494 0.014304 -0.012476 -0.003968 0.000100
# 4 0.005794 -0.036333 -0.012476 0.077149 0.007530 -0.010684
# 5 0.007264 -0.019044 -0.003968 0.007530 0.044339 -0.004078
# 6 -0.000628 0.003858 0.000100 -0.010684 -0.004078 0.043492
#
#
# Mechanical properties :
#
#
# Convention : Reuss Voigt Hill
#
# Bulk Modulus (GPa) = 20.42402 60.62040 40.52221
# Shear Modulus (GPa) = 18.36575 30.36597 24.36586
#
# Velocity S-wave (km/s) = 3.14783 4.04762 3.62575
# Velocity P-wave (km/s) = 4.92251 7.38584 6.27621
#
# Compressibility (1/GPa) = 0.04896197
#
# Stress axis : x y z
#
# Youngs Moduli (GPa) = 84.61797 22.81462 69.90994
#
# Poissons Ratio (x) = 0.30809 0.31360
# Poissons Ratio (y) = 1.14268 -0.52390
# Poissons Ratio (z) = 0.37958 -0.17097
#
# Static dielectric constant tensor:
#      x y z
#    x 1.661400 0.006270 0.030260 
#    y 0.006270 1.618850 0.019210 
#    z 0.030260 0.019210 1.712070 
# 
# From -- ./inp_files/317669.got.cif
#   From: 2010.05.17/outbox.cif.g08.bks.cpg/sg2_159_cif.got.tgz:317669.got - 2010.06.03 11:33:40.
