data_PCOD9076184
_publ_section_title
;
Structure prediction by ZEFSAII (Michael W. Deem and Ramdas Pophale) SiO2 
 PCOD9076184
Probable space group: P -1
;
_chemical_formula_sum "Si O2"
_cell_formula_units_Z 12
_cell_length_a 7.691761
_cell_length_b 8.171791
_cell_length_c 10.627618
_cell_angle_alpha 82.901148
_cell_angle_beta 118.808873
_cell_angle_gamma 90.964003
_cell_volume 580.137799
_symmetry_space_group_name_H-M "P -1"
_symmetry_group_IT_number 2
_symmetry_cell_setting 'triclinic'
loop_
_space_group_symop_operation_xyz
x,y,z
-x,-y,-z
loop_
_atom_site_type_symbol
_atom_site_label
_atom_site_fract_x
_atom_site_fract_y
_atom_site_fract_z
Si Si1 0.097644 0.419592 0.270220
Si Si2 0.592361 0.833958 0.482716
Si Si3 0.718767 0.378121 0.482976
Si Si4 0.426875 0.522974 0.180587
Si Si5 0.669325 0.293013 0.097766
Si Si6 0.789920 0.057804 0.362871
O O1 0.212798 0.248652 0.372379
O O2 0.114383 0.542425 0.383588
O O3 0.229547 0.481094 0.193756
O O4 0.869805 0.395658 0.163718
O O5 0.430793 0.699067 0.461451
O O6 0.500000 0.000000 0.500000
O O7 0.652059 0.908561 0.363934
O O8 0.605338 0.514931 0.344044
O O9 0.759085 0.227871 0.416091
O O10 0.496903 0.378967 0.118031
O O11 0.399034 0.686484 0.071676
O O12 0.742645 0.118141 0.199592
O O13 0.000000 0.000000 0.500000
#
# Coordination Sequence:
#
# PCOD9076184 Si02
#       6
#     2   2   2   2   2   2
#     4  11  19  35  57  83 106 138 181 230 269 304
#     4   9  17  31  51  76 107 137 174 218 262 316
#     4   9  20  34  56  82 102 139 180 226 272 305
#     4   9  19  34  51  82 110 137 177 223 265 316
#     4  10  20  33  55  83 106 141 180 218 266 324
#     4  10  18  33  51  81 106 139 179 219 259 325
#
# _framework density 20.684743000000001
#
# number of rings (size 3 to 8) (size 9 to 14) (size 15 to 20)
#    0.000    2.333    1.667    3.500    0.000    2.667 
#    3.000    0.000    0.000    5.000   13.000    0.000 
#    0.000    0.000    0.000    0.000    0.000    0.000 
#
# Total GULP energy -66802.268388 kJ/mol
# GULP energy per Si atom -5566.855699 kJ/mol
# Density = 2.063766 g / cm^3
# Si number density = 20.684743 Si / 1000 Ang^3
#
#
#
# Elastic Constant Matrix: (Units=GPa)
#
#
# Indices 1 2 3 4 5 6 
#
# 1 52.5809 7.6340 23.7452 -4.5011 -2.3054 2.9985
# 2 7.6340 49.3909 40.9204 -7.1616 3.0245 -5.1496
# 3 23.7452 40.9204 139.2930 -41.6604 -14.3096 10.9800
# 4 -4.5011 -7.1616 -41.6604 33.4178 4.4955 1.3961
# 5 -2.3054 3.0245 -14.3096 4.4955 31.9875 -4.9321
# 6 2.9985 -5.1496 10.9800 1.3961 -4.9321 27.3632
#
#
#
# Elastic Compliance Matrix: (Units=1/GPa)
#
#
# Indices 1 2 3 4 5 6 
#
# 1 0.020749 -0.000129 -0.004196 -0.002429 -0.000107 -0.000509
# 2 -0.000129 0.031759 -0.013805 -0.010059 -0.006086 0.010947
# 3 -0.004196 -0.013805 0.019354 0.020313 0.005265 -0.009991
# 4 -0.002429 -0.010059 0.020313 0.053219 0.000470 -0.012408
# 5 -0.000107 -0.006086 0.005265 0.000470 0.034576 0.002962
# 6 -0.000509 0.010947 -0.009991 -0.012408 0.002962 0.043838
#
#
# Mechanical properties :
#
#
# Convention : Reuss Voigt Hill
#
# Bulk Modulus (GPa) = 28.08889 42.87376 35.48132
# Shear Modulus (GPa) = 19.87115 29.81805 24.84460
#
# Velocity S-wave (km/s) = 3.10283 3.80089 3.46946
# Velocity P-wave (km/s) = 5.14254 6.32729 5.76543
#
# Compressibility (1/GPa) = 0.03560126
#
# Stress axis : x y z
#
# Youngs Moduli (GPa) = 48.19617 31.48691 51.67004
#
# Poissons Ratio (x) = 0.00406 0.21682
# Poissons Ratio (y) = 0.00622 0.71329
# Poissons Ratio (z) = 0.20224 0.43467
#
# Static dielectric constant tensor:
#      x y z
#    x 1.852970 -0.035650 0.012880 
#    y -0.035650 1.781170 -0.056400 
#    z 0.012880 -0.056400 1.809610 
# 
# From -- ./inp_files/329470.got.cif
#   From: 2010.05.17/outbox.cif.g08.bks.cpg/sg2_165_cif.got.tgz:329470.got - 2010.06.03 11:33:40.
