data_PCOD9076254
_publ_section_title
;
Structure prediction by ZEFSAII (Michael W. Deem and Ramdas Pophale) SiO2 
 PCOD9076254
Probable space group: P -1
;
_chemical_formula_sum "Si O2"
_cell_formula_units_Z 16
_cell_length_a 11.899348
_cell_length_b 4.962035
_cell_length_c 16.626637
_cell_angle_alpha 121.284768
_cell_angle_beta 58.269605
_cell_angle_gamma 100.724918
_cell_volume 708.443297
_symmetry_space_group_name_H-M "P -1"
_symmetry_group_IT_number 2
_symmetry_cell_setting 'triclinic'
loop_
_space_group_symop_operation_xyz
x,y,z
-x,-y,-z
loop_
_atom_site_type_symbol
_atom_site_label
_atom_site_fract_x
_atom_site_fract_y
_atom_site_fract_z
Si Si1 0.550719 0.239537 0.374147
Si Si2 0.834217 0.406521 0.315795
Si Si3 0.609128 0.838012 0.996504
Si Si4 0.867919 0.104125 0.696938
Si Si5 0.584060 0.233721 0.815038
Si Si6 0.422499 0.617050 0.337255
Si Si7 0.117800 0.171518 0.179381
Si Si8 0.150815 0.864025 0.556110
O O1 0.500000 0.500000 0.500000
O O2 0.706381 0.260207 0.309342
O O3 0.473624 0.339788 0.336453
O O4 0.510661 0.904618 0.366133
O O5 0.825627 0.784393 0.366620
O O6 0.972988 0.230330 0.203087
O O7 0.839814 0.355107 0.402488
O O8 0.547880 0.877527 0.114272
O O9 0.622914 0.469462 0.907483
O O10 0.754729 0.935757 0.940098
O O11 0.500000 0.000000 0.000000
O O12 0.722885 0.005629 0.716531
O O13 0.866960 0.476430 0.735214
O O14 0.001734 0.905547 0.582387
O O15 0.885450 0.059812 0.779622
O O16 0.559828 0.426068 0.771479
O O17 0.269473 0.743319 0.433407
#
# Coordination Sequence:
#
# PCOD9076254 Si02
#       8
#     2   2   2   2   2   2   2   2
#     4  12  22  38  58  80 113 156 191 228 274 324
#     4  10  19  34  56  79 110 144 193 224 268 326
#     4  10  19  38  63  79 112 147 186 229 286 336
#     4   9  18  32  52  79 115 144 180 214 274 335
#     4  10  23  36  55  88 114 147 185 233 278 334
#     4  12  24  35  57  86 117 148 190 231 274 325
#     4   9  18  32  56  84 102 141 189 227 267 334
#     4  10  18  33  53  81 112 151 180 221 267 332
#
# _framework density 22.584728999999999
#
# number of rings (size 3 to 8) (size 9 to 14) (size 15 to 20)
#    0.000    1.750    3.750    1.125    1.750    0.500 
#    0.000    0.000    0.000    9.000    0.000    0.000 
#    0.000    0.000    0.000    0.000    0.000    0.000 
#
# Total GULP energy -89401.562359 kJ/mol
# GULP energy per Si atom -5587.597647 kJ/mol
# Density = 2.253333 g / cm^3
# Si number density = 22.584729 Si / 1000 Ang^3
#
#
#
# Elastic Constant Matrix: (Units=GPa)
#
#
# Indices 1 2 3 4 5 6 
#
# 1 119.5981 -1.0554 62.9350 -4.1507 -44.2924 -1.7816
# 2 -1.0554 56.2415 6.9727 -6.6362 -9.4998 -1.1739
# 3 62.9350 6.9727 107.6452 -24.4987 -31.9197 -1.3338
# 4 -4.1507 -6.6362 -24.4987 34.8711 6.2991 1.2960
# 5 -44.2924 -9.4998 -31.9197 6.2991 46.4631 -4.2594
# 6 -1.7816 -1.1739 -1.3338 1.2960 -4.2594 32.3393
#
#
#
# Elastic Compliance Matrix: (Units=1/GPa)
#
#
# Indices 1 2 3 4 5 6 
#
# 1 0.016708 0.002775 -0.007402 -0.005003 0.012321 0.002539
# 2 0.002775 0.019241 -0.000488 0.002500 0.006045 0.001527
# 3 -0.007402 -0.000488 0.016924 0.010348 0.003092 0.000265
# 4 -0.005003 0.002500 0.010348 0.036281 -0.002206 -0.001503
# 5 0.012321 0.006045 0.003092 -0.002206 0.037482 0.006051
# 6 0.002539 0.001527 0.000265 -0.001503 0.006051 0.031986
#
#
# Mechanical properties :
#
#
# Convention : Reuss Voigt Hill
#
# Bulk Modulus (GPa) = 23.45065 46.79881 35.12473
# Shear Modulus (GPa) = 27.31245 37.04352 32.17798
#
# Velocity S-wave (km/s) = 3.48132 4.05433 3.77870
# Velocity P-wave (km/s) = 5.15416 6.53324 5.88424
#
# Compressibility (1/GPa) = 0.04264273
#
# Stress axis : x y z
#
# Youngs Moduli (GPa) = 59.85167 51.97226 59.08715
#
# Poissons Ratio (x) = -0.14422 0.43736
# Poissons Ratio (y) = -0.16609 0.02885
# Poissons Ratio (z) = 0.44301 0.02538
#
# Static dielectric constant tensor:
#      x y z
#    x 1.864090 0.033130 -0.056870 
#    y 0.033130 1.875690 0.026290 
#    z -0.056870 0.026290 1.869150 
# 
# From -- ./inp_files/76125.got.cif
#   From: 2010.05.17/outbox.cif.g08.bks.cpg/sg2_39_cif.got.tgz:76125.got - 2010.06.03 11:33:40.
