data_PCOD9076631
_publ_section_title
;
Structure prediction by ZEFSAII (Michael W. Deem and Ramdas Pophale) SiO2 
 PCOD9076631
Probable space group: P -1
;
_chemical_formula_sum "Si O2"
_cell_formula_units_Z 16
_cell_length_a 7.900927
_cell_length_b 17.910086
_cell_length_c 9.048207
_cell_angle_alpha 47.111081
_cell_angle_beta 89.515542
_cell_angle_gamma 117.818661
_cell_volume 716.993735
_symmetry_space_group_name_H-M "P -1"
_symmetry_group_IT_number 2
_symmetry_cell_setting 'triclinic'
loop_
_space_group_symop_operation_xyz
x,y,z
-x,-y,-z
loop_
_atom_site_type_symbol
_atom_site_label
_atom_site_fract_x
_atom_site_fract_y
_atom_site_fract_z
Si Si1 0.753257 0.674258 0.539119
Si Si2 0.087929 0.338066 0.124741
Si Si3 0.217079 0.941852 0.618161
Si Si4 0.501186 0.615170 0.096871
Si Si5 0.538639 0.101749 0.655673
Si Si6 0.343197 0.628034 0.760858
Si Si7 0.197276 0.110680 0.149320
Si Si8 0.827858 0.047496 0.899751
O O1 0.864956 0.680503 0.683786
O O2 0.666002 0.537957 0.644618
O O3 0.547360 0.662985 0.612865
O O4 0.937995 0.806821 0.269743
O O5 0.870207 0.199909 0.250962
O O6 0.287774 0.364994 0.993710
O O7 0.131262 0.475405 0.931275
O O8 0.013617 0.910578 0.757587
O O9 0.427537 0.018700 0.618439
O O10 0.243757 0.035842 0.363110
O O11 0.406573 0.632852 0.925748
O O12 0.592588 0.732061 0.055255
O O13 0.670183 0.257833 0.421607
O O14 0.686000 0.075569 0.770455
O O15 0.327557 0.041172 0.843949
O O16 0.143741 0.036699 0.095533
#
# Coordination Sequence:
#
# PCOD9076631 Si02
#       8
#     2   2   2   2   2   2   2   2
#     4   9  16  32  56  79 105 136 170 214 265 312
#     4   8  15  29  54  85 108 126 162 221 272 308
#     4  10  18  33  58  84 105 131 173 221 266 312
#     4   8  15  29  54  85 108 126 162 221 272 308
#     4  11  24  38  50  72 110 149 181 214 255 308
#     4   9  16  32  56  79 105 136 170 214 265 312
#     4  10  18  33  58  84 105 131 173 221 266 312
#     4  11  24  38  50  72 110 149 181 214 255 308
#
# _framework density 22.315397000000001
#
# number of rings (size 3 to 8) (size 9 to 14) (size 15 to 20)
#    0.000    2.500    2.500    2.250    0.000    2.500 
#    0.000    5.000    0.000    7.500    0.000    0.000 
#    0.000    0.000    0.000    0.000    0.000    0.000 
#
# Total GULP energy -89486.788471 kJ/mol
# GULP energy per Si atom -5592.924279 kJ/mol
# Density = 2.226461 g / cm^3
# Si number density = 22.315397 Si / 1000 Ang^3
#
#
#
# Elastic Constant Matrix: (Units=GPa)
#
#
# Indices 1 2 3 4 5 6 
#
# 1 71.0129 22.4195 33.9808 -15.9311 1.5871 -3.2121
# 2 22.4195 121.2728 62.5619 -52.6631 0.4970 -5.9004
# 3 33.9808 62.5619 108.0270 -45.3442 5.5552 -6.0982
# 4 -15.9311 -52.6631 -45.3442 42.0799 -2.3026 0.0627
# 5 1.5871 0.4970 5.5552 -2.3026 35.8649 1.1755
# 6 -3.2121 -5.9004 -6.0982 0.0627 1.1755 31.0153
#
#
#
# Elastic Compliance Matrix: (Units=1/GPa)
#
#
# Indices 1 2 3 4 5 6 
#
# 1 0.016632 -0.000176 -0.004632 0.001085 0.000028 0.000775
# 2 -0.000176 0.018614 -0.001526 0.021650 0.001274 0.003131
# 3 -0.004632 -0.001526 0.018758 0.016451 -0.001720 0.002950
# 4 0.001085 0.021650 0.016451 0.069058 0.001299 0.007277
# 5 0.000028 0.001274 -0.001720 0.001299 0.028252 -0.001166
# 6 0.000775 0.003131 0.002950 0.007277 -0.001166 0.033528
#
#
# Mechanical properties :
#
#
# Convention : Reuss Voigt Hill
#
# Bulk Modulus (GPa) = 24.19196 59.80411 41.99804
# Shear Modulus (GPa) = 23.66441 33.88205 28.77323
#
# Velocity S-wave (km/s) = 3.25999 3.90080 3.59470
# Velocity P-wave (km/s) = 5.00345 6.86629 6.00752
#
# Compressibility (1/GPa) = 0.04133605
#
# Stress axis : x y z
#
# Youngs Moduli (GPa) = 60.12549 53.72233 53.31049
#
# Poissons Ratio (x) = 0.00948 0.24692
# Poissons Ratio (y) = 0.01061 0.08135
# Poissons Ratio (z) = 0.27848 0.08198
#
# Static dielectric constant tensor:
#      x y z
#    x 1.858190 -0.003040 -0.019470 
#    y -0.003040 1.809260 -0.013100 
#    z -0.019470 -0.013100 1.811420 
# 
# From -- ./inp_files/205935.got.cif
#   From: 2010.05.17/outbox.cif.g08.bks.cpg/sg2_103_cif.got.tgz:205935.got - 2010.06.03 11:33:40.
