data_PCOD9076471
_publ_section_title
;
Structure prediction by ZEFSAII (Michael W. Deem and Ramdas Pophale) SiO2 
 PCOD9076471
Probable space group: P -1
;
_chemical_formula_sum "Si O2"
_cell_formula_units_Z 16
_cell_length_a 5.498617
_cell_length_b 16.140804
_cell_length_c 13.390841
_cell_angle_alpha 132.483736
_cell_angle_beta 93.995554
_cell_angle_gamma 60.881224
_cell_volume 701.099360
_symmetry_space_group_name_H-M "P -1"
_symmetry_group_IT_number 2
_symmetry_cell_setting 'triclinic'
loop_
_space_group_symop_operation_xyz
x,y,z
-x,-y,-z
loop_
_atom_site_type_symbol
_atom_site_label
_atom_site_fract_x
_atom_site_fract_y
_atom_site_fract_z
Si Si1 0.578615 0.050121 0.812411
Si Si2 0.725403 0.520232 0.791150
Si Si3 0.769406 0.477078 0.088606
Si Si4 0.695573 0.207116 0.097566
Si Si5 0.086466 0.951744 0.628081
Si Si6 0.677748 0.744319 0.348881
Si Si7 0.044272 0.202812 0.771210
Si Si8 0.318562 0.959793 0.859848
O O1 0.252463 0.145474 0.829647
O O2 0.596513 0.957829 0.828416
O O3 0.635941 0.152378 0.950061
O O4 0.799636 0.955099 0.651033
O O5 0.465359 0.523045 0.845759
O O6 0.532813 0.625893 0.780797
O O7 0.904500 0.573870 0.895791
O O8 0.022524 0.359088 0.656982
O O9 0.648894 0.636341 0.194916
O O10 0.831215 0.370455 0.916429
O O11 0.635091 0.147708 0.144149
O O12 0.060537 0.116767 0.022791
O O13 0.371539 0.837832 0.478656
O O14 0.211429 0.936500 0.732330
O O15 0.942442 0.101844 0.692755
O O16 0.760852 0.822039 0.340644
#
# Coordination Sequence:
#
# PCOD9076471 Si02
#       8
#     2   2   2   2   2   2   2   2
#     4  10  18  33  56  84 120 151 192 258 303 357
#     4  10  22  39  63  86 128 158 202 253 307 362
#     4  10  22  39  62  89 122 161 201 256 304 360
#     4  10  18  35  58  90 114 155 198 253 305 362
#     4  10  22  38  56  87 122 158 202 252 305 358
#     4  10  24  39  57  86 122 167 206 245 302 369
#     4  11  21  37  60  88 116 161 207 257 301 357
#     4   9  20  33  59  86 120 150 202 246 312 357
#
# _framework density 22.821303
#
# number of rings (size 3 to 8) (size 9 to 14) (size 15 to 20)
#    0.750    1.250    1.250    3.375    0.000    4.000 
#    0.000    0.625    0.000    1.500    0.000    0.000 
#    0.000    0.000    0.000    0.000    0.000    0.000 
#
# Total GULP energy -89102.994618 kJ/mol
# GULP energy per Si atom -5568.937164 kJ/mol
# Density = 2.276936 g / cm^3
# Si number density = 22.821303 Si / 1000 Ang^3
#
#
#
# Elastic Constant Matrix: (Units=GPa)
#
#
# Indices 1 2 3 4 5 6 
#
# 1 68.5407 29.9883 17.4514 -6.9516 -19.6662 21.5393
# 2 29.9883 153.3020 51.8914 -1.6323 -20.1716 13.8950
# 3 17.4514 51.8914 98.1605 -2.0085 -22.0115 16.7711
# 4 -6.9516 -1.6323 -2.0085 21.3035 3.8691 0.0507
# 5 -19.6662 -20.1716 -22.0115 3.8691 27.0054 -21.9260
# 6 21.5393 13.8950 16.7711 0.0507 -21.9260 30.9150
#
#
#
# Elastic Compliance Matrix: (Units=1/GPa)
#
#
# Indices 1 2 3 4 5 6 
#
# 1 0.020740 -0.002693 0.000591 0.005911 0.004030 -0.010712
# 2 -0.002693 0.008534 -0.003667 -0.001276 0.003850 0.002763
# 3 0.000591 -0.003667 0.014088 -0.000492 0.009534 0.000356
# 4 0.005911 -0.001276 -0.000492 0.051848 -0.016995 -0.015416
# 5 0.004030 0.003850 0.009534 -0.016995 0.106526 0.065870
# 6 -0.010712 0.002763 0.000356 -0.015416 0.065870 0.085117
#
#
# Mechanical properties :
#
#
# Convention : Reuss Voigt Hill
#
# Bulk Modulus (GPa) = 31.42395 57.62948 44.52671
# Shear Modulus (GPa) = 16.18131 30.55627 23.36879
#
# Velocity S-wave (km/s) = 2.66568 3.66312 3.20346
# Velocity P-wave (km/s) = 4.82430 6.57256 5.76509
#
# Compressibility (1/GPa) = 0.03182287
#
# Stress axis : x y z
#
# Youngs Moduli (GPa) = 48.21706 117.18089 70.98298
#
# Poissons Ratio (x) = 0.31557 -0.04196
# Poissons Ratio (y) = 0.12985 0.26032
# Poissons Ratio (z) = -0.02851 0.42974
#
# Static dielectric constant tensor:
#      x y z
#    x 2.086050 -0.014330 -0.003840 
#    y -0.014330 1.846430 0.042570 
#    z -0.003840 0.042570 1.897610 
# 
# From -- ./inp_files/366860.got.cif
#   From: 2010.05.17/outbox.cif.g08.bks.cpg/sg2_184_cif.got.tgz:366860.got - 2010.06.03 11:33:40.
