data_PCOD9076849
_publ_section_title
;
Structure prediction by ZEFSAII (Michael W. Deem and Ramdas Pophale) SiO2 
 PCOD9076849
Probable space group: P -1
;
_chemical_formula_sum "Si O2"
_cell_formula_units_Z 10
_cell_length_a 14.223005
_cell_length_b 9.159292
_cell_length_c 9.681618
_cell_angle_alpha 41.765021
_cell_angle_beta 152.930916
_cell_angle_gamma 130.047891
_cell_volume 381.398272
_symmetry_space_group_name_H-M "P -1"
_symmetry_group_IT_number 2
_symmetry_cell_setting 'triclinic'
loop_
_space_group_symop_operation_xyz
x,y,z
-x,-y,-z
loop_
_atom_site_type_symbol
_atom_site_label
_atom_site_fract_x
_atom_site_fract_y
_atom_site_fract_z
Si Si1 0.433542 0.226485 0.173325
Si Si2 0.591159 0.059829 0.223195
Si Si3 0.973744 0.911104 0.185811
Si Si4 0.830238 0.399835 0.696929
Si Si5 0.271164 0.418673 0.265251
O O1 0.624187 0.375785 0.352807
O O2 0.500000 0.000000 0.500000
O O3 0.438610 0.167556 0.059798
O O4 0.800327 0.738496 0.103767
O O5 0.679095 0.823166 0.558744
O O6 0.801180 0.183097 0.402263
O O7 0.500000 0.000000 0.000000
O O8 0.901661 0.141605 0.008817
O O9 0.000000 0.000000 0.000000
O O10 0.772631 0.541151 0.657284
O O11 0.043644 0.490487 0.855201
O O12 0.500000 0.500000 0.500000
#
# Coordination Sequence:
#
# PCOD9076849 Si02
#       5
#     2   2   2   2   2
#     4  10  18  34  60  82 106 151 201 227 269 347
#     4  11  23  37  56  90 121 144 184 245 296 329
#     4  10  18  33  61  84 108 150 200 235 266 341
#     4   9  19  31  54  87 101 144 201 232 268 329
#     4  10  20  34  56  83 119 146 187 238 282 337
#
# _framework density 26.219308000000002
#
# number of rings (size 3 to 8) (size 9 to 14) (size 15 to 20)
#    0.000    2.000    4.000    2.400    2.800    0.800 
#    0.000    1.000    0.000    2.400    0.000    0.000 
#    0.000    0.000    0.000    0.000    0.000    0.000 
#
# Total GULP energy -55758.167978 kJ/mol
# GULP energy per Si atom -5575.816798 kJ/mol
# Density = 2.615963 g / cm^3
# Si number density = 26.219308 Si / 1000 Ang^3
#
#
#
# Elastic Constant Matrix: (Units=GPa)
#
#
# Indices 1 2 3 4 5 6 
#
# 1 160.6446 56.0271 84.7741 33.2904 19.5875 -6.9359
# 2 56.0271 98.1497 28.9296 29.4408 14.6646 -7.5098
# 3 84.7741 28.9296 172.2718 81.2988 19.7373 31.5566
# 4 33.2904 29.4408 81.2988 67.5423 8.0067 15.6445
# 5 19.5875 14.6646 19.7373 8.0067 57.0426 23.4212
# 6 -6.9359 -7.5098 31.5566 15.6445 23.4212 35.7584
#
#
#
# Elastic Compliance Matrix: (Units=1/GPa)
#
#
# Indices 1 2 3 4 5 6 
#
# 1 0.012731 -0.004351 -0.009201 0.004764 -0.005273 0.011045
# 2 -0.004351 0.016085 0.003484 -0.010146 -0.005503 0.007502
# 3 -0.009201 0.003484 0.021085 -0.019703 0.003101 -0.013071
# 4 0.004764 -0.010146 -0.019703 0.041142 0.003778 -0.004294
# 5 -0.005273 -0.005503 0.003101 0.003778 0.029887 -0.026143
# 6 0.011045 0.007502 -0.013071 -0.004294 -0.026143 0.062220
#
#
# Mechanical properties :
#
#
# Convention : Reuss Voigt Hill
#
# Bulk Modulus (GPa) = 33.59747 85.61419 59.60583
# Shear Modulus (GPa) = 23.45132 49.49103 36.47117
#
# Velocity S-wave (km/s) = 2.99395 4.34934 3.73366
# Velocity P-wave (km/s) = 4.97930 7.61225 6.43194
#
# Compressibility (1/GPa) = 0.02976415
#
# Stress axis : x y z
#
# Youngs Moduli (GPa) = 78.55085 62.17027 47.42730
#
# Poissons Ratio (x) = 0.27051 0.43639
# Poissons Ratio (y) = 0.34178 -0.16525
# Poissons Ratio (z) = 0.72277 -0.21662
#
# Static dielectric constant tensor:
#      x y z
#    x 2.064300 0.160380 0.013690 
#    y 0.160380 2.269740 0.077570 
#    z 0.013690 0.077570 2.266080 
# 
# From -- ./inp_files/183565.got.cif
#   From: 2010.05.17/outbox.cif.g08.bks.cpg/sg2_92_cif.got.tgz:183565.got - 2010.06.03 11:33:40.
