data_PCOD9076782
_publ_section_title
;
Structure prediction by ZEFSAII (Michael W. Deem and Ramdas Pophale) SiO2 
 PCOD9076782
Probable space group: P -1
;
_chemical_formula_sum "Si O2"
_cell_formula_units_Z 14
_cell_length_a 34.447766
_cell_length_b 22.333701
_cell_length_c 6.956461
_cell_angle_alpha 32.232286
_cell_angle_beta 146.287878
_cell_angle_gamma 167.159901
_cell_volume 633.212649
_symmetry_space_group_name_H-M "P -1"
_symmetry_group_IT_number 2
_symmetry_cell_setting 'triclinic'
loop_
_space_group_symop_operation_xyz
x,y,z
-x,-y,-z
loop_
_atom_site_type_symbol
_atom_site_label
_atom_site_fract_x
_atom_site_fract_y
_atom_site_fract_z
Si Si1 0.977555 0.132850 0.218405
Si Si2 0.337235 0.167691 0.230282
Si Si3 0.058313 0.577213 0.812178
Si Si4 0.206856 0.667102 0.856587
Si Si5 0.439361 0.512946 0.348584
Si Si6 0.869256 0.867720 0.113441
Si Si7 0.498973 0.245452 0.372755
O O1 0.003237 0.046380 0.643463
O O2 0.955990 0.081535 0.038713
O O3 0.138493 0.449181 0.084169
O O4 0.802099 0.938591 0.084086
O O5 0.488394 0.406854 0.361569
O O6 0.412315 0.215844 0.223740
O O7 0.213817 0.893263 0.566248
O O8 0.134176 0.577532 0.018291
O O9 0.895641 0.385960 0.539032
O O10 0.000000 0.500000 0.000000
O O11 0.407545 0.997155 0.744176
O O12 0.500000 0.500000 0.500000
O O13 0.234341 0.227970 0.228259
O O14 0.523155 0.749765 0.954867
O O15 0.708188 0.568749 0.377964
#
# Coordination Sequence:
#
# PCOD9076782 Si02
#       7
#     2   2   2   2   2   2   2
#     4  10  19  35  57  82 110 155 175 233 279 335
#     4  10  18  33  60  79 109 140 192 229 276 320
#     4   9  17  30  52  85 113 139 176 236 272 332
#     4   9  18  32  55  81 111 142 186 222 282 322
#     4  10  19  34  57  81 106 148 185 231 270 331
#     4   9  21  36  56  78 118 145 188 225 283 325
#     4   9  20  35  56  86 106 143 189 236 266 335
#
# _framework density 22.109476000000001
#
# number of rings (size 3 to 8) (size 9 to 14) (size 15 to 20)
#    0.857    1.714    1.429    1.714    0.000    2.857 
#    0.000    0.000    9.429    4.286    0.000    0.000 
#    0.000    0.000    0.000    0.000    0.000    0.000 
#
# Total GULP energy -77996.588355 kJ/mol
# GULP energy per Si atom -5571.184882 kJ/mol
# Density = 2.205915 g / cm^3
# Si number density = 22.109476 Si / 1000 Ang^3
#
#
#
# Elastic Constant Matrix: (Units=GPa)
#
#
# Indices 1 2 3 4 5 6 
#
# 1 108.2779 33.7136 44.0299 -1.1603 2.3223 -8.1566
# 2 33.7136 61.7387 9.0679 -8.6839 7.3124 -14.3582
# 3 44.0299 9.0679 61.6325 20.2348 -12.1338 -5.7951
# 4 -1.1603 -8.6839 20.2348 44.5027 1.5563 1.4427
# 5 2.3223 7.3124 -12.1338 1.5563 40.4090 -4.4887
# 6 -8.1566 -14.3582 -5.7951 1.4427 -4.4887 30.9738
#
#
#
# Elastic Compliance Matrix: (Units=1/GPa)
#
#
# Indices 1 2 3 4 5 6 
#
# 1 0.016998 -0.006289 -0.014256 0.005924 -0.004575 -0.002045
# 2 -0.006289 0.022429 0.000060 0.004024 -0.002930 0.008140
# 3 -0.014256 0.000060 0.034909 -0.016846 0.012540 0.005407
# 4 0.005924 0.004024 -0.016846 0.031410 -0.007591 -0.002290
# 5 -0.004575 -0.002930 0.012540 -0.007591 0.030098 0.004499
# 6 -0.002045 0.008140 0.005407 -0.002290 0.004499 0.037291
#
#
# Mechanical properties :
#
#
# Convention : Reuss Voigt Hill
#
# Bulk Modulus (GPa) = 29.97018 45.03021 37.50020
# Shear Modulus (GPa) = 22.19996 32.83294 27.51645
#
# Velocity S-wave (km/s) = 3.17218 3.85777 3.53165
# Velocity P-wave (km/s) = 5.19632 6.34463 5.79897
#
# Compressibility (1/GPa) = 0.03336650
#
# Stress axis : x y z
#
# Youngs Moduli (GPa) = 58.82940 44.58584 28.64580
#
# Poissons Ratio (x) = 0.28039 0.40838
# Poissons Ratio (y) = 0.36997 -0.00173
# Poissons Ratio (z) = 0.83869 -0.00269
#
# Static dielectric constant tensor:
#      x y z
#    x 1.780730 -0.188170 -0.003590 
#    y -0.188170 1.229510 -0.021580 
#    z -0.003590 -0.021580 1.850730 
# 
# From -- ./inp_files/127484.got.cif
#   From: 2010.05.17/outbox.cif.g08.bks.cpg/sg2_64_cif.got.tgz:127484.got - 2010.06.03 11:33:40.
