data_PCOD9076083
_publ_section_title
;
Structure prediction by ZEFSAII (Michael W. Deem and Ramdas Pophale) SiO2 
 PCOD9076083
Probable space group: P -1
;
_chemical_formula_sum "Si O2"
_cell_formula_units_Z 13
_cell_length_a 13.892997
_cell_length_b 7.021108
_cell_length_c 15.625742
_cell_angle_alpha 57.330624
_cell_angle_beta 151.546553
_cell_angle_gamma 134.080880
_cell_volume 510.045876
_symmetry_space_group_name_H-M "P -1"
_symmetry_group_IT_number 2
_symmetry_cell_setting 'triclinic'
loop_
_space_group_symop_operation_xyz
x,y,z
-x,-y,-z
loop_
_atom_site_type_symbol
_atom_site_label
_atom_site_fract_x
_atom_site_fract_y
_atom_site_fract_z
Si Si1 0.299059 0.138693 0.132130
Si Si2 0.211023 0.599607 0.269712
Si Si3 0.730803 0.922276 0.373288
Si Si4 0.622414 0.597793 0.686436
Si Si5 0.500000 0.000000 0.000000
Si Si6 0.845992 0.534342 0.459967
Si Si7 0.104513 0.419145 0.823573
O O1 0.295368 0.268292 0.189211
O O2 0.574395 0.327007 0.267073
O O3 0.232334 0.844828 0.175382
O O4 0.128133 0.176623 0.927721
O O5 0.454031 0.688535 0.491686
O O6 0.188560 0.379749 0.239778
O O7 0.995199 0.497929 0.193178
O O8 0.546544 0.727886 0.349035
O O9 0.833708 0.740345 0.467899
O O10 0.597378 0.943493 0.181285
O O11 0.940693 0.229604 0.489140
O O12 0.366894 0.681934 0.946746
O O13 0.930545 0.375905 0.621189
#
# Coordination Sequence:
#
# PCOD9076083 Si02
#       7
#     2   2   2   2   1   2   2
#     4  11  21  39  59  86 119 156 185 241 289 332
#     4  11  23  37  59  89 121 149 198 230 283 356
#     4   9  16  34  56  85 114 144 196 240 278 338
#     4  10  21  39  60  85 118 157 188 237 286 343
#     4  10  18  32  60  88 108 150 198 236 286 340
#     4   9  18  32  59  85 111 149 195 236 285 340
#     4  11  20  34  60  90 112 152 198 233 286 347
#
# _framework density 25.487902999999999
#
# number of rings (size 3 to 8) (size 9 to 14) (size 15 to 20)
#    0.000    1.846    6.154    0.923    0.000    0.615 
#    0.000    0.769    0.000    3.692    0.000    0.000 
#    0.000    0.000    0.000    0.000    0.000    0.000 
#
# Total GULP energy -72483.444370 kJ/mol
# GULP energy per Si atom -5575.649567 kJ/mol
# Density = 2.542989 g / cm^3
# Si number density = 25.487903 Si / 1000 Ang^3
#
#
#
# Elastic Constant Matrix: (Units=GPa)
#
#
# Indices 1 2 3 4 5 6 
#
# 1 68.9521 -8.8107 42.5967 -4.1857 -11.6612 -9.0735
# 2 -8.8107 67.9393 50.1733 -20.0071 -27.8785 -3.9498
# 3 42.5967 50.1733 148.4730 -43.0576 -27.5546 -0.0588
# 4 -4.1857 -20.0071 -43.0576 42.2452 18.3717 -5.6469
# 5 -11.6612 -27.8785 -27.5546 18.3717 11.2436 -8.9316
# 6 -9.0735 -3.9498 -0.0588 -5.6469 -8.9316 18.0190
#
#
#
# Elastic Compliance Matrix: (Units=1/GPa)
#
#
# Indices 1 2 3 4 5 6 
#
# 1 0.011544 -0.005431 -0.005583 0.004309 -0.028841 -0.008341
# 2 -0.005431 0.003525 -0.003099 0.011988 -0.037372 -0.016740
# 3 -0.005583 -0.003099 0.013927 0.007052 0.013446 0.005430
# 4 0.004309 0.011988 0.007052 0.034326 0.012803 0.021924
# 5 -0.028841 -0.037372 0.013446 0.012803 -0.060086 -0.048443
# 6 -0.008341 -0.016740 0.005430 0.021924 -0.048443 0.030504
#
#
# Mechanical properties :
#
#
# Convention : Reuss Voigt Hill
#
# Bulk Modulus (GPa) = 1297.83514 50.36477 674.09995
# Shear Modulus (GPa) = 80.35682 27.72857 54.04269
#
# Velocity S-wave (km/s) = 5.62102 3.30193 4.60970
# Velocity P-wave (km/s) = 23.50382 5.86005 17.12848
#
# Compressibility (1/GPa) = 0.00077051
#
# Stress axis : x y z
#
# Youngs Moduli (GPa) = 86.62270 283.69862 71.80255
#
# Poissons Ratio (x) = 1.54065 0.40088
# Poissons Ratio (y) = 0.47041 0.22253
# Poissons Ratio (z) = 0.48363 0.87923
#
# Static dielectric constant tensor:
#      x y z
#    x 2.077520 0.087760 0.103250 
#    y 0.087760 2.037330 0.095910 
#    z 0.103250 0.095910 2.039070 
# 
# From -- ./inp_files/276920.got.cif
#   From: 2010.05.17/outbox.cif.g08.bks.cpg/sg2_139_cif.got.tgz:276920.got - 2010.06.03 11:33:40.
