data_PCOD9076439
_publ_section_title
;
Structure prediction by ZEFSAII (Michael W. Deem and Ramdas Pophale) SiO2 
 PCOD9076439
Probable space group: P -1
;
_chemical_formula_sum "Si O2"
_cell_formula_units_Z 14
_cell_length_a 13.979724
_cell_length_b 9.808030
_cell_length_c 10.384417
_cell_angle_alpha 105.373378
_cell_angle_beta 68.955161
_cell_angle_gamma 46.108006
_cell_volume 617.520293
_symmetry_space_group_name_H-M "P -1"
_symmetry_group_IT_number 2
_symmetry_cell_setting 'triclinic'
loop_
_space_group_symop_operation_xyz
x,y,z
-x,-y,-z
loop_
_atom_site_type_symbol
_atom_site_label
_atom_site_fract_x
_atom_site_fract_y
_atom_site_fract_z
Si Si1 0.183743 0.624238 0.281136
Si Si2 0.674715 0.969348 0.263076
Si Si3 0.099866 0.576366 0.853100
Si Si4 0.440149 0.362503 0.715839
Si Si5 0.732124 0.161585 0.686401
Si Si6 0.247481 0.416890 0.451455
Si Si7 0.393735 0.964372 0.197433
O O1 0.234640 0.723856 0.245330
O O2 0.179593 0.619842 0.437039
O O3 0.382115 0.296834 0.049215
O O4 0.942504 0.874457 0.426004
O O5 0.768165 0.717867 0.227741
O O6 0.552013 0.211853 0.487699
O O7 0.497144 0.136765 0.289754
O O8 0.861784 0.830568 0.072323
O O9 0.200987 0.596596 0.871595
O O10 0.132872 0.546268 0.676154
O O11 0.519974 0.405833 0.761803
O O12 0.548203 0.118247 0.699590
O O13 0.710846 0.063293 0.778007
O O14 0.237301 0.283800 0.341805
#
# Coordination Sequence:
#
# PCOD9076439 Si02
#       7
#     2   2   2   2   2   2   2
#     4  11  23  37  58  80 115 150 182 228 278 320
#     4  10  18  33  57  81 111 148 181 219 284 325
#     4  10  18  33  56  80 115 147 175 227 275 334
#     4   9  18  33  57  80 104 138 195 221 260 328
#     4   9  22  40  56  80 107 154 195 215 266 340
#     4  11  21  36  54  91 117 135 182 235 275 328
#     4  10  20  36  57  83 112 144 183 226 273 327
#
# _framework density 22.671322
#
# number of rings (size 3 to 8) (size 9 to 14) (size 15 to 20)
#    0.857    1.143    2.857    1.714    2.000    2.857 
#    0.000    2.857    0.000    1.714    0.000    0.000 
#    0.000    0.000    0.000    0.000    0.000    0.000 
#
# Total GULP energy -78039.050318 kJ/mol
# GULP energy per Si atom -5574.217880 kJ/mol
# Density = 2.261972 g / cm^3
# Si number density = 22.671322 Si / 1000 Ang^3
#
#
#
# Elastic Constant Matrix: (Units=GPa)
#
#
# Indices 1 2 3 4 5 6 
#
# 1 76.5940 20.5471 40.8088 -13.8031 -28.5665 -2.0730
# 2 20.5471 54.9691 11.3241 -11.5714 -6.3112 0.6383
# 3 40.8088 11.3241 92.5267 -20.9392 -35.5583 -1.0872
# 4 -13.8031 -11.5714 -20.9392 16.5635 10.5760 -4.9341
# 5 -28.5665 -6.3112 -35.5583 10.5760 28.2862 -2.0020
# 6 -2.0730 0.6383 -1.0872 -4.9341 -2.0020 9.8556
#
#
#
# Elastic Compliance Matrix: (Units=1/GPa)
#
#
# Indices 1 2 3 4 5 6 
#
# 1 0.024055 -0.005323 -0.000108 0.006290 0.021533 0.012916
# 2 -0.005323 0.023222 0.002480 0.019323 -0.003838 0.006544
# 3 -0.000108 0.002480 0.026140 0.024295 0.025642 0.020072
# 4 0.006290 0.019323 0.024295 0.132391 -0.003459 0.068329
# 5 0.021533 -0.003838 0.025642 -0.003459 0.091501 0.024462
# 6 0.012916 0.006544 0.020072 0.068329 0.024462 0.145149
#
#
# Mechanical properties :
#
#
# Convention : Reuss Voigt Hill
#
# Bulk Modulus (GPa) = 14.81132 41.04995 27.93064
# Shear Modulus (GPa) = 10.61880 21.03505 15.82693
#
# Velocity S-wave (km/s) = 2.16656 3.04933 2.64503
# Velocity P-wave (km/s) = 3.57853 5.52664 4.65562
#
# Compressibility (1/GPa) = 0.06751592
#
# Stress axis : x y z
#
# Youngs Moduli (GPa) = 41.57106 43.06315 38.25603
#
# Poissons Ratio (x) = 0.22923 0.00412
# Poissons Ratio (y) = 0.22129 -0.09489
# Poissons Ratio (z) = 0.00448 -0.10682
#
# Static dielectric constant tensor:
#      x y z
#    x 1.923590 0.055330 -0.000850 
#    y 0.055330 1.848630 0.038820 
#    z -0.000850 0.038820 1.871410 
# 
# From -- ./inp_files/446048.got.cif
#   From: 2010.05.17/outbox.cif.g08.bks.cpg/sg2_224_cif.got.tgz:446048.got - 2010.06.03 11:33:40.
