data_PCOD9076758
_publ_section_title
;
Structure prediction by ZEFSAII (Michael W. Deem and Ramdas Pophale) SiO2 
 PCOD9076758
Probable space group: P -1
;
_chemical_formula_sum "Si O2"
_cell_formula_units_Z 16
_cell_length_a 14.062586
_cell_length_b 7.881164
_cell_length_c 11.442829
_cell_angle_alpha 98.007909
_cell_angle_beta 54.610222
_cell_angle_gamma 130.171603
_cell_volume 732.003550
_symmetry_space_group_name_H-M "P -1"
_symmetry_group_IT_number 2
_symmetry_cell_setting 'triclinic'
loop_
_space_group_symop_operation_xyz
x,y,z
-x,-y,-z
loop_
_atom_site_type_symbol
_atom_site_label
_atom_site_fract_x
_atom_site_fract_y
_atom_site_fract_z
Si Si1 0.192029 0.737164 0.913118
Si Si2 0.200685 0.818736 0.517148
Si Si3 0.562980 0.285538 0.355560
Si Si4 0.216506 0.448730 0.548205
Si Si5 0.776657 0.717223 0.106758
Si Si6 0.818995 0.897756 0.616638
Si Si7 0.844136 0.020636 0.862803
Si Si8 0.931145 0.155366 0.171425
O O1 0.341218 0.769060 0.781738
O O2 0.202666 0.887745 0.815682
O O3 0.201459 0.839556 0.041032
O O4 0.000000 0.500000 0.000000
O O5 0.197706 0.608880 0.504456
O O6 0.068802 0.762735 0.694742
O O7 0.374158 0.053118 0.469971
O O8 0.181224 0.913810 0.424242
O O9 0.651451 0.394343 0.427637
O O10 0.604922 0.488316 0.260209
O O11 0.265790 0.336416 0.423228
O O12 0.038093 0.232681 0.714155
O O13 0.870334 0.900165 0.167450
O O14 0.886353 0.663185 0.991973
O O15 0.793205 0.843667 0.989007
O O16 0.764425 0.871252 0.785953
O O17 0.000000 0.000000 0.500000
#
# Coordination Sequence:
#
# PCOD9076758 Si02
#       8
#     2   2   2   2   2   2   2   2
#     4  11  18  35  62  92 128 161 211 268 317 379
#     4  12  25  41  66  99 136 173 209 267 341 384
#     4  12  23  39  61 106 133 165 207 272 340 393
#     4  11  22  41  68  99 133 164 217 271 325 390
#     4  10  20  35  63  92 124 167 217 264 315 381
#     4  10  24  45  65  93 129 174 227 266 311 388
#     4  10  21  41  64  93 123 171 223 272 312 368
#     4  10  18  33  59  90 124 162 210 262 318 373
#
# _framework density 21.857818999999999
#
# number of rings (size 3 to 8) (size 9 to 14) (size 15 to 20)
#    0.000    1.250    3.750    4.125    0.000    4.000 
#    4.500    1.250    0.000    0.000    0.000    0.000 
#    0.000    0.000    0.000    0.000    0.000    0.000 
#
# Total GULP energy -89123.925876 kJ/mol
# GULP energy per Si atom -5570.245367 kJ/mol
# Density = 2.180807 g / cm^3
# Si number density = 21.857819 Si / 1000 Ang^3
#
#
#
# Elastic Constant Matrix: (Units=GPa)
#
#
# Indices 1 2 3 4 5 6 
#
# 1 97.7182 27.2045 23.8383 1.5097 19.6487 -19.5316
# 2 27.2045 62.9477 36.2963 11.3079 8.8343 -6.5083
# 3 23.8383 36.2963 50.0758 16.2841 11.7326 -3.5485
# 4 1.5097 11.3079 16.2841 41.0593 4.3574 8.8502
# 5 19.6487 8.8343 11.7326 4.3574 35.2255 -9.7099
# 6 -19.5316 -6.5083 -3.5485 8.8502 -9.7099 21.1174
#
#
#
# Elastic Compliance Matrix: (Units=1/GPa)
#
#
# Indices 1 2 3 4 5 6 
#
# 1 0.014639 -0.002784 -0.003255 -0.000448 -0.003357 0.010779
# 2 -0.002784 0.028504 -0.019064 -0.001414 0.002200 0.004611
# 3 -0.003255 -0.019064 0.039738 -0.009620 -0.005664 -0.000781
# 4 -0.000448 -0.001414 -0.009620 0.033245 -0.005524 -0.018940
# 5 -0.003357 0.002200 -0.005664 -0.005524 0.036628 0.015779
# 6 0.010779 0.004611 -0.000781 -0.018940 0.015779 0.073806
#
#
# Mechanical properties :
#
#
# Convention : Reuss Voigt Hill
#
# Bulk Modulus (GPa) = 30.60476 42.82443 36.71460
# Shear Modulus (GPa) = 17.38181 27.70727 22.54454
#
# Velocity S-wave (km/s) = 2.82303 3.56422 3.21505
# Velocity P-wave (km/s) = 4.96569 6.04756 5.53313
#
# Compressibility (1/GPa) = 0.03267465
#
# Stress axis : x y z
#
# Youngs Moduli (GPa) = 68.31130 35.08310 25.16509
#
# Poissons Ratio (x) = 0.09766 0.08192
# Poissons Ratio (y) = 0.19015 0.47975
# Poissons Ratio (z) = 0.22237 0.66882
#
# Static dielectric constant tensor:
#      x y z
#    x 1.782300 -0.004890 -0.019480 
#    y -0.004890 1.853860 0.030410 
#    z -0.019480 0.030410 1.763130 
# 
# From -- ./inp_files/274276.got.cif
#   From: 2010.05.17/outbox.cif.g08.bks.cpg/sg2_138_cif.got.tgz:274276.got - 2010.06.03 11:33:40.
