data_PCOD9076680
_publ_section_title
;
Structure prediction by ZEFSAII (Michael W. Deem and Ramdas Pophale) SiO2 
 PCOD9076680
Probable space group: P -1
;
_chemical_formula_sum "Si O2"
_cell_formula_units_Z 16
_cell_length_a 9.003485
_cell_length_b 20.507566
_cell_length_c 13.626421
_cell_angle_alpha 139.942933
_cell_angle_beta 140.698478
_cell_angle_gamma 27.975373
_cell_volume 718.521777
_symmetry_space_group_name_H-M "P -1"
_symmetry_group_IT_number 2
_symmetry_cell_setting 'triclinic'
loop_
_space_group_symop_operation_xyz
x,y,z
-x,-y,-z
loop_
_atom_site_type_symbol
_atom_site_label
_atom_site_fract_x
_atom_site_fract_y
_atom_site_fract_z
Si Si1 0.676328 0.896253 0.590157
Si Si2 0.152439 0.220967 0.650234
Si Si3 0.364005 0.902410 0.624961
Si Si4 0.773190 0.130912 0.110990
Si Si5 0.378086 0.350478 0.006897
Si Si6 0.289089 0.594122 0.903709
Si Si7 0.616162 0.334210 0.649133
Si Si8 0.198005 0.157227 0.915383
O O1 0.783078 0.779166 0.431477
O O2 0.623522 0.870870 0.642936
O O3 0.959268 0.893935 0.714812
O O4 0.324420 0.059585 0.574715
O O5 0.362583 0.239996 0.836176
O O6 0.784044 0.333877 0.638708
O O7 0.468456 0.754566 0.526244
O O8 0.307002 0.005593 0.797555
O O9 0.000000 0.000000 0.500000
O O10 0.577360 0.282321 0.131086
O O11 0.507280 0.134119 0.020357
O O12 0.000000 0.000000 0.000000
O O13 0.539363 0.371628 0.033052
O O14 0.000000 0.500000 0.000000
O O15 0.314698 0.488896 0.723874
O O16 0.500000 0.500000 0.000000
O O17 0.960199 0.745927 0.956361
O O18 0.918420 0.246291 0.785641
#
# Coordination Sequence:
#
# PCOD9076680 Si02
#       8
#     2   2   2   2   2   2   2   2
#     4  11  23  37  64  96 130 166 213 274 328 382
#     4  11  21  37  62 100 121 164 222 264 321 383
#     4  10  18  33  58  90 122 164 206 264 320 374
#     4  12  21  44  65  95 135 170 217 278 327 381
#     4  12  22  40  71  93 128 174 223 266 321 398
#     4  10  22  36  60  96 124 167 215 269 319 386
#     4  10  18  37  58  90 126 161 207 270 313 384
#     4  10  19  36  61  92 123 163 214 265 325 372
#
# _framework density 22.267942000000001
#
# number of rings (size 3 to 8) (size 9 to 14) (size 15 to 20)
#    0.000    1.250    7.500    0.750    5.250    0.000 
#    0.000    2.500    0.000    1.500    0.000    0.000 
#    0.000    0.000    0.000    0.000    0.000    0.000 
#
# Total GULP energy -89277.678744 kJ/mol
# GULP energy per Si atom -5579.854922 kJ/mol
# Density = 2.221726 g / cm^3
# Si number density = 22.267942 Si / 1000 Ang^3
#
#
#
# Elastic Constant Matrix: (Units=GPa)
#
#
# Indices 1 2 3 4 5 6 
#
# 1 101.2154 49.0918 40.4398 29.0150 14.3440 -31.1763
# 2 49.0918 88.2005 39.0657 14.3189 -7.3225 -21.7169
# 3 40.4398 39.0657 88.1813 25.6580 6.2933 -19.3473
# 4 29.0150 14.3189 25.6580 37.2814 -8.9473 -6.2069
# 5 14.3440 -7.3225 6.2933 -8.9473 36.1391 9.6618
# 6 -31.1763 -21.7169 -19.3473 -6.2069 9.6618 36.8351
#
#
#
# Elastic Compliance Matrix: (Units=1/GPa)
#
#
# Indices 1 2 3 4 5 6 
#
# 1 0.038197 -0.014673 0.008229 -0.033153 -0.036314 0.031939
# 2 -0.014673 0.021126 -0.008885 0.012238 0.016527 -0.006904
# 3 0.008229 -0.008885 0.021646 -0.019709 -0.017560 0.014381
# 4 -0.033153 0.012238 -0.019709 0.066814 0.044030 -0.031487
# 5 -0.036314 0.016527 -0.017560 0.044030 0.070425 -0.041267
# 6 0.031939 -0.006904 0.014381 -0.031487 -0.041267 0.063182
#
#
# Mechanical properties :
#
#
# Convention : Reuss Voigt Hill
#
# Bulk Modulus (GPa) = 19.87687 59.42131 39.64909
# Shear Modulus (GPa) = 15.20603 31.98445 23.59524
#
# Velocity S-wave (km/s) = 2.61601 3.79403 3.25869
# Velocity P-wave (km/s) = 4.25091 6.77757 5.65711
#
# Compressibility (1/GPa) = 0.05030972
#
# Stress axis : x y z
#
# Youngs Moduli (GPa) = 26.18024 47.33560 46.19835
#
# Poissons Ratio (x) = 0.69458 -0.38017
# Poissons Ratio (y) = 0.38416 0.41047
# Poissons Ratio (z) = -0.21544 0.42057
#
# Static dielectric constant tensor:
#      x y z
#    x 1.818350 0.006590 -0.038920 
#    y 0.006590 1.849890 0.008800 
#    z -0.038920 0.008800 1.845150 
# 
# From -- ./inp_files/307838.got.cif
#   From: 2010.05.17/outbox.cif.g08.bks.cpg/sg2_154_cif.got.tgz:307838.got - 2010.06.03 11:33:40.
