data_PCOD9076104
_publ_section_title
;
Structure prediction by ZEFSAII (Michael W. Deem and Ramdas Pophale) SiO2 
 PCOD9076104
Probable space group: P -1
;
_chemical_formula_sum "Si O2"
_cell_formula_units_Z 16
_cell_length_a 11.567823
_cell_length_b 8.276606
_cell_length_c 8.452123
_cell_angle_alpha 72.502900
_cell_angle_beta 91.162697
_cell_angle_gamma 82.438930
_cell_volume 763.539493
_symmetry_space_group_name_H-M "P -1"
_symmetry_group_IT_number 2
_symmetry_cell_setting 'triclinic'
loop_
_space_group_symop_operation_xyz
x,y,z
-x,-y,-z
loop_
_atom_site_type_symbol
_atom_site_label
_atom_site_fract_x
_atom_site_fract_y
_atom_site_fract_z
Si Si1 0.599105 0.840176 0.054038
Si Si2 0.813708 0.667841 0.227597
Si Si3 0.390381 0.804916 0.623409
Si Si4 0.375323 0.091312 0.319707
Si Si5 0.443055 0.552091 0.220827
Si Si6 0.740896 0.368139 0.088221
Si Si7 0.053214 0.604406 0.109077
Si Si8 0.241922 0.417098 0.399928
O O1 0.713793 0.830981 0.166032
O O2 0.526291 0.695064 0.161020
O O3 0.651262 0.839214 0.877513
O O4 0.500000 0.000000 0.000000
O O5 0.773453 0.527325 0.145567
O O6 0.804920 0.592843 0.423101
O O7 0.942351 0.699295 0.172004
O O8 0.484199 0.916527 0.665049
O O9 0.469049 0.618098 0.679596
O O10 0.290709 0.774715 0.751197
O O11 0.350049 0.906019 0.432194
O O12 0.309436 0.235128 0.393020
O O13 0.337180 0.548200 0.343237
O O14 0.370029 0.562913 0.048777
O O15 0.851071 0.298477 0.002297
O O16 0.133099 0.476274 0.265532
O O17 0.000000 0.500000 0.000000
#
# Coordination Sequence:
#
# PCOD9076104 Si02
#       8
#     2   2   2   2   2   2   2   2
#     4  12  25  37  58  87 125 158 195 248 300 357
#     4  11  22  36  57  91 118 156 204 246 291 346
#     4  10  18  32  61  81 117 156 196 234 290 353
#     4  10  22  36  54  86 122 155 191 239 302 352
#     4  10  20  37  59  83 118 160 201 236 301 361
#     4  10  18  35  63  85 112 159 203 244 285 355
#     4   9  19  37  63  85 113 157 207 241 290 352
#     4  10  22  36  62  88 120 155 197 252 292 349
#
# _framework density 20.95504
#
# number of rings (size 3 to 8) (size 9 to 14) (size 15 to 20)
#    0.000    1.750    2.500    3.750    5.250    1.500 
#    0.000    0.000    0.000   15.000    0.000    0.000 
#    0.000    0.000    0.000    0.000    0.000    0.000 
#
# Total GULP energy -89187.465581 kJ/mol
# GULP energy per Si atom -5574.216599 kJ/mol
# Density = 2.090735 g / cm^3
# Si number density = 20.955040 Si / 1000 Ang^3
#
#
#
# Elastic Constant Matrix: (Units=GPa)
#
#
# Indices 1 2 3 4 5 6 
#
# 1 150.5479 32.5146 63.7023 -10.8229 -17.9077 -27.9800
# 2 32.5146 52.6443 25.9497 -18.4236 -9.9556 -12.8318
# 3 63.7023 25.9497 133.7487 -21.0281 -16.7501 -5.9623
# 4 -10.8229 -18.4236 -21.0281 36.3567 3.6700 -5.2397
# 5 -17.9077 -9.9556 -16.7501 3.6700 32.3372 2.9218
# 6 -27.9800 -12.8318 -5.9623 -5.2397 2.9218 18.2968
#
#
#
# Elastic Compliance Matrix: (Units=1/GPa)
#
#
# Indices 1 2 3 4 5 6 
#
# 1 0.012392 0.001132 -0.004245 0.004284 0.002797 0.019142
# 2 0.001132 0.035104 -0.002042 0.020860 0.005224 0.030825
# 3 -0.004245 -0.002042 0.010485 0.002929 0.002487 -0.004065
# 4 0.004284 0.020860 0.002929 0.045888 0.001945 0.034966
# 5 0.002797 0.005224 0.002487 0.001945 0.034810 0.003749
# 6 0.019142 0.030825 -0.004065 0.034966 0.003749 0.113634
#
#
# Mechanical properties :
#
#
# Convention : Reuss Voigt Hill
#
# Bulk Modulus (GPa) = 20.97644 64.58603 42.78123
# Shear Modulus (GPa) = 17.95242 31.71643 24.83442
#
# Velocity S-wave (km/s) = 2.93014 3.89465 3.44630
# Velocity P-wave (km/s) = 4.63460 7.14931 6.02462
#
# Compressibility (1/GPa) = 0.04767253
#
# Stress axis : x y z
#
# Youngs Moduli (GPa) = 80.69607 28.48666 95.37051
#
# Poissons Ratio (x) = -0.03226 0.40483
# Poissons Ratio (y) = -0.09138 0.19477
# Poissons Ratio (z) = 0.34254 0.05818
#
# Static dielectric constant tensor:
#      x y z
#    x 1.764090 -0.009870 -0.012500 
#    y -0.009870 1.842090 0.040420 
#    z -0.012500 0.040420 1.813230 
# 
# From -- ./inp_files/177410.got.cif
#   From: 2010.05.17/outbox.cif.g08.bks.cpg/sg2_89_cif.got.tgz:177410.got - 2010.06.03 11:33:40.
