data_PCOD9076327
_publ_section_title
;
Structure prediction by ZEFSAII (Michael W. Deem and Ramdas Pophale) SiO2 
 PCOD9076327
Probable space group: P -1
;
_chemical_formula_sum "Si O2"
_cell_formula_units_Z 16
_cell_length_a 18.934031
_cell_length_b 11.667714
_cell_length_c 8.020927
_cell_angle_alpha 49.047137
_cell_angle_beta 49.841284
_cell_angle_gamma 24.164135
_cell_volume 541.482878
_symmetry_space_group_name_H-M "P -1"
_symmetry_group_IT_number 2
_symmetry_cell_setting 'triclinic'
loop_
_space_group_symop_operation_xyz
x,y,z
-x,-y,-z
loop_
_atom_site_type_symbol
_atom_site_label
_atom_site_fract_x
_atom_site_fract_y
_atom_site_fract_z
Si Si1 0.176276 0.199429 0.394814
Si Si2 0.449021 0.632695 0.703437
Si Si3 0.361743 0.477156 0.792447
Si Si4 0.065999 0.154740 0.188083
Si Si5 0.981023 0.063594 0.722792
Si Si6 0.397751 0.901868 0.831766
Si Si7 0.831968 0.563880 0.545720
Si Si8 0.323654 0.205657 0.930999
O O1 0.129373 0.422034 0.344831
O O2 0.016622 0.360838 0.378292
O O3 0.261702 0.960316 0.615419
O O4 0.322300 0.056283 0.187275
O O5 0.441287 0.461175 0.848454
O O6 0.576790 0.515754 0.474491
O O7 0.492909 0.653258 0.792509
O O8 0.153818 0.801346 0.818001
O O9 0.361789 0.301675 0.890416
O O10 0.091229 0.000255 0.145728
O O11 0.870989 0.495554 0.132369
O O12 0.050392 0.057265 0.457959
O O13 0.228975 0.042125 0.028912
O O14 0.832553 0.384870 0.705955
O O15 0.316142 0.131771 0.597895
O O16 0.448792 0.968274 0.821052
#
# Coordination Sequence:
#
# PCOD9076327 Si02
#       8
#     2   2   2   2   2   2   2   2
#     4  10  20  33  58  84 113 146 182 231 279 330
#     4  10  23  42  58  77 112 156 191 225 271 328
#     4  10  23  40  59  76 113 156 193 220 272 331
#     4  10  20  32  55  90 118 139 176 232 293 330
#     4  10  19  34  56  83 116 149 179 227 280 335
#     4  11  21  36  60  87 114 141 184 236 279 331
#     4  10  18  33  54  87 116 142 180 227 288 331
#     4  11  21  35  60  89 112 141 185 235 280 331
#
# _framework density 29.548487000000002
#
# number of rings (size 3 to 8) (size 9 to 14) (size 15 to 20)
#    0.000    1.750    3.750    1.125    0.000    2.000 
#    0.000    3.125    0.000    0.000    0.000    0.000 
#    0.000    0.000    0.000    0.000    0.000    0.000 
#
# Total GULP energy -89411.463619 kJ/mol
# GULP energy per Si atom -5588.216476 kJ/mol
# Density = 2.948123 g / cm^3
# Si number density = 29.548487 Si / 1000 Ang^3
#
#
#
# Elastic Constant Matrix: (Units=GPa)
#
#
# Indices 1 2 3 4 5 6 
#
# 1 200.8305 35.8267 12.5389 5.9654 -16.9083 57.5699
# 2 35.8267 114.2480 -20.5557 -7.1584 -22.9029 46.2673
# 3 12.5389 -20.5557 89.6939 13.5302 -29.7453 12.3856
# 4 5.9654 -7.1584 13.5302 42.7750 9.4887 -17.7612
# 5 -16.9083 -22.9029 -29.7453 9.4887 38.2276 -7.7312
# 6 57.5699 46.2673 12.3856 -17.7612 -7.7312 64.7055
#
#
#
# Elastic Compliance Matrix: (Units=1/GPa)
#
#
# Indices 1 2 3 4 5 6 
#
# 1 0.013074 0.017403 0.021321 -0.025973 0.032905 -0.031355
# 2 0.017403 0.061138 0.063519 -0.065627 0.094243 -0.078113
# 3 0.021321 0.063519 0.086515 -0.082971 0.117255 -0.089714
# 4 -0.025973 -0.065627 -0.082971 0.111771 -0.122490 0.101962
# 5 0.032905 0.094243 0.117255 -0.122490 0.192583 -0.129721
# 6 -0.031355 -0.078113 -0.089714 0.101962 -0.129721 0.128867
#
#
# Mechanical properties :
#
#
# Convention : Reuss Voigt Hill
#
# Bulk Modulus (GPa) = 2.73813 51.15470 26.94641
# Shear Modulus (GPa) = 9.78091 54.27245 32.02668
#
# Velocity S-wave (km/s) = 1.82135 4.29035 3.29579
# Velocity P-wave (km/s) = 2.31338 6.47244 4.86026
#
# Compressibility (1/GPa) = 0.36521233
#
# Stress axis : x y z
#
# Youngs Moduli (GPa) = 76.49057 16.35643 11.55863
#
# Poissons Ratio (x) = -0.28465 -0.24644
# Poissons Ratio (y) = -1.33118 -0.73419
# Poissons Ratio (z) = -1.63084 -1.03894
#
# Static dielectric constant tensor:
#      x y z
#    x 2.333170 -0.055600 0.067960 
#    y -0.055600 2.569890 0.093630 
#    z 0.067960 0.093630 2.349670 
# 
# From -- ./inp_files/189210.got.cif
#   From: 2010.05.17/outbox.cif.g08.bks.cpg/sg2_95_cif.got.tgz:189210.got - 2010.06.03 11:33:40.
