data_PCOD9076829
_publ_section_title
;
Structure prediction by ZEFSAII (Michael W. Deem and Ramdas Pophale) SiO2 
 PCOD9076829
Probable space group: P -1
;
_chemical_formula_sum "Si O2"
_cell_formula_units_Z 16
_cell_length_a 8.771256
_cell_length_b 17.107873
_cell_length_c 9.049339
_cell_angle_alpha 136.805096
_cell_angle_beta 64.373083
_cell_angle_gamma 97.011131
_cell_volume 795.894686
_symmetry_space_group_name_H-M "P -1"
_symmetry_group_IT_number 2
_symmetry_cell_setting 'triclinic'
loop_
_space_group_symop_operation_xyz
x,y,z
-x,-y,-z
loop_
_atom_site_type_symbol
_atom_site_label
_atom_site_fract_x
_atom_site_fract_y
_atom_site_fract_z
Si Si1 0.329393 0.190040 0.546586
Si Si2 0.425856 0.950266 0.320135
Si Si3 0.657955 0.538347 0.415896
Si Si4 0.598512 0.251213 0.747602
Si Si5 0.449988 0.514081 0.211996
Si Si6 0.961487 0.558978 0.935602
Si Si7 0.874552 0.329038 0.545800
Si Si8 0.713128 0.789446 0.759649
O O1 0.497875 0.209186 0.593758
O O2 0.332628 0.182419 0.356124
O O3 0.302400 0.067962 0.451901
O O4 0.170469 0.308654 0.817772
O O5 0.353174 0.848894 0.282664
O O6 0.500000 0.000000 0.500000
O O7 0.586055 0.888535 0.055090
O O8 0.500000 0.500000 0.500000
O O9 0.605528 0.545693 0.275879
O O10 0.672378 0.664919 0.633172
O O11 0.852259 0.444050 0.219531
O O12 0.770266 0.280554 0.649899
O O13 0.466803 0.375186 0.045319
O O14 0.272090 0.627414 0.463842
O O15 0.500000 0.500000 0.000000
O O16 0.891603 0.461123 0.749524
O O17 0.000000 0.500000 0.000000
O O18 0.075999 0.240119 0.332521
#
# Coordination Sequence:
#
# PCOD9076829 Si02
#       8
#     2   2   2   2   2   2   2   2
#     4  11  21  39  67  86 118 168 207 237 291 367
#     4  10  24  44  61  82 120 169 203 247 303 348
#     4  11  23  37  59  95 132 154 188 252 312 352
#     4  10  20  37  63  89 125 158 201 240 301 356
#     4  10  18  33  60  91 124 159 191 231 308 366
#     4  11  19  36  62  92 125 154 198 244 302 360
#     4  10  20  33  64  97 119 153 199 249 298 359
#     4  11  22  40  63  90 120 156 208 251 289 361
#
# _framework density 20.103162000000001
#
# number of rings (size 3 to 8) (size 9 to 14) (size 15 to 20)
#    0.000    1.500    3.750    4.125    0.000    0.000 
#    4.500    5.000    2.750    0.000    0.000    0.000 
#    0.000    0.000    0.000    0.000    0.000    0.000 
#
# Total GULP energy -89131.599475 kJ/mol
# GULP energy per Si atom -5570.724967 kJ/mol
# Density = 2.005741 g / cm^3
# Si number density = 20.103162 Si / 1000 Ang^3
#
#
#
# Elastic Constant Matrix: (Units=GPa)
#
#
# Indices 1 2 3 4 5 6 
#
# 1 82.4867 36.2077 33.4296 -3.1906 -18.2470 7.6134
# 2 36.2077 132.5414 50.5284 12.3920 -31.3727 8.0940
# 3 33.4296 50.5284 97.7069 7.0892 -11.8919 -8.9288
# 4 -3.1906 12.3920 7.0892 29.7477 -4.0494 -5.1355
# 5 -18.2470 -31.3727 -11.8919 -4.0494 26.1037 -4.9186
# 6 7.6134 8.0940 -8.9288 -5.1355 -4.9186 22.6711
#
#
#
# Elastic Compliance Matrix: (Units=1/GPa)
#
#
# Indices 1 2 3 4 5 6 
#
# 1 0.016937 -0.000784 -0.005090 0.003650 0.008240 -0.004798
# 2 -0.000784 0.013087 -0.005310 -0.003572 0.011291 -0.004860
# 3 -0.005090 -0.005310 0.015464 -0.000582 -0.001234 0.009296
# 4 0.003650 -0.003572 -0.000582 0.038087 0.005727 0.009690
# 5 0.008240 0.011291 -0.001234 0.005727 0.059260 0.006870
# 6 -0.004798 -0.004860 0.009296 0.009690 0.006870 0.054802
#
#
# Mechanical properties :
#
#
# Convention : Reuss Voigt Hill
#
# Bulk Modulus (GPa) = 43.25354 61.45184 52.35269
# Shear Modulus (GPa) = 21.95776 28.54245 25.25011
#
# Velocity S-wave (km/s) = 3.30851 3.77211 3.54789
# Velocity P-wave (km/s) = 6.01311 7.04318 6.54843
#
# Compressibility (1/GPa) = 0.02311950
#
# Stress axis : x y z
#
# Youngs Moduli (GPa) = 59.04270 76.41283 64.66785
#
# Poissons Ratio (x) = 0.05994 0.32913
# Poissons Ratio (y) = 0.04631 0.34339
# Poissons Ratio (z) = 0.30050 0.40575
#
# Static dielectric constant tensor:
#      x y z
#    x 2.121250 -0.066090 0.026350 
#    y -0.066090 1.823220 -0.033860 
#    z 0.026350 -0.033860 1.751920 
# 
# From -- ./inp_files/218793.got.cif
#   From: 2010.05.17/outbox.cif.g08.bks.cpg/sg2_110_cif.got.tgz:218793.got - 2010.06.03 11:33:40.
