data_PCOD9076686
_publ_section_title
;
Structure prediction by ZEFSAII (Michael W. Deem and Ramdas Pophale) SiO2 
 PCOD9076686
Probable space group: P -1
;
_chemical_formula_sum "Si O2"
_cell_formula_units_Z 12
_cell_length_a 7.945327
_cell_length_b 8.646466
_cell_length_c 11.898700
_cell_angle_alpha 47.116543
_cell_angle_beta 114.176479
_cell_angle_gamma 93.593856
_cell_volume 517.108701
_symmetry_space_group_name_H-M "P -1"
_symmetry_group_IT_number 2
_symmetry_cell_setting 'triclinic'
loop_
_space_group_symop_operation_xyz
x,y,z
-x,-y,-z
loop_
_atom_site_type_symbol
_atom_site_label
_atom_site_fract_x
_atom_site_fract_y
_atom_site_fract_z
Si Si1 0.280083 0.554635 0.087048
Si Si2 0.324087 0.710561 0.376805
Si Si3 0.780081 0.033660 0.969559
Si Si4 0.953776 0.576467 0.322931
Si Si5 0.363244 0.851282 0.566347
Si Si6 0.018127 0.289100 0.271761
O O1 0.288950 0.755861 0.070717
O O2 0.492039 0.365111 0.222334
O O3 0.149292 0.426582 0.180808
O O4 0.159023 0.669894 0.886018
O O5 0.500000 0.500000 0.500000
O O6 0.338425 0.916024 0.204164
O O7 0.148284 0.634993 0.321478
O O8 0.309006 0.762901 0.476968
O O9 0.000000 0.000000 0.000000
O O10 0.782745 0.809405 0.143495
O O11 0.937751 0.401254 0.313222
O O12 0.000000 0.500000 0.500000
O O13 0.500000 0.000000 0.500000
O O14 0.164072 0.039102 0.458124
#
# Coordination Sequence:
#
# PCOD9076686 Si02
#       6
#     2   2   2   2   2   2
#     4  10  18  33  58  92 114 150 203 257 295 348
#     4  11  19  37  64  90 120 153 208 253 293 358
#     4  10  18  34  58  86 114 155 205 244 288 360
#     4  11  24  40  59  88 124 164 200 247 314 366
#     4  10  20  32  57  95 120 145 198 263 303 341
#     4  10  19  34  57  85 121 155 197 250 303 357
#
# _framework density 23.205952
#
# number of rings (size 3 to 8) (size 9 to 14) (size 15 to 20)
#    0.000    1.667    5.000    3.000    4.667    0.000 
#    0.000    4.167    0.000    2.000    0.000    0.000 
#    0.000    0.000    0.000    0.000    0.000    0.000 
#
# Total GULP energy -66930.386361 kJ/mol
# GULP energy per Si atom -5577.532197 kJ/mol
# Density = 2.315313 g / cm^3
# Si number density = 23.205952 Si / 1000 Ang^3
#
#
#
# Elastic Constant Matrix: (Units=GPa)
#
#
# Indices 1 2 3 4 5 6 
#
# 1 36.7978 21.9695 36.7525 -5.2544 6.6204 -7.7250
# 2 21.9695 112.5975 48.3013 -9.7282 12.5912 -16.4130
# 3 36.7525 48.3013 192.4035 -15.1378 20.2104 -28.9289
# 4 -5.2544 -9.7282 -15.1378 49.9255 -6.8580 3.9932
# 5 6.6204 12.5912 20.2104 -6.8580 25.2036 3.8527
# 6 -7.7250 -16.4130 -28.9289 3.9932 3.8527 23.5771
#
#
#
# Elastic Compliance Matrix: (Units=1/GPa)
#
#
# Indices 1 2 3 4 5 6 
#
# 1 0.035937 -0.003892 -0.004875 0.000716 -0.003943 0.003607
# 2 -0.003892 0.011487 -0.000527 0.000401 -0.005233 0.006861
# 3 -0.004875 -0.000527 0.008369 0.000281 -0.006515 0.009321
# 4 0.000716 0.000401 0.000281 0.021356 0.005763 -0.003700
# 5 -0.003943 -0.005233 -0.006515 0.005763 0.053584 -0.022661
# 6 0.003607 0.006861 0.009321 -0.003700 -0.022661 0.064139
#
#
# Mechanical properties :
#
#
# Convention : Reuss Voigt Hill
#
# Bulk Modulus (GPa) = 26.87854 61.76060 44.31957
# Shear Modulus (GPa) = 22.13745 35.39295 28.76520
#
# Velocity S-wave (km/s) = 3.09197 3.90958 3.52456
# Velocity P-wave (km/s) = 4.93506 6.85942 5.97521
#
# Compressibility (1/GPa) = 0.03720440
#
# Stress axis : x y z
#
# Youngs Moduli (GPa) = 27.82666 87.05633 119.48892
#
# Poissons Ratio (x) = 0.33884 0.58246
# Poissons Ratio (y) = 0.10831 0.06301
# Poissons Ratio (z) = 0.13564 0.04590
#
# Static dielectric constant tensor:
#      x y z
#    x 1.959890 0.053550 -0.144810 
#    y 0.053550 1.873810 -0.194220 
#    z -0.144810 -0.194220 2.740410 
# 
# From -- ./inp_files/144675.got.cif
#   From: 2010.05.17/outbox.cif.g08.bks.cpg/sg2_73_cif.got.tgz:144675.got - 2010.06.03 11:33:40.
