data_PCOD9076491
_publ_section_title
;
Structure prediction by ZEFSAII (Michael W. Deem and Ramdas Pophale) SiO2 
 PCOD9076491
Probable space group: P -1
;
_chemical_formula_sum "Si O2"
_cell_formula_units_Z 14
_cell_length_a 9.690408
_cell_length_b 7.900832
_cell_length_c 15.401135
_cell_angle_alpha 64.956056
_cell_angle_beta 144.126362
_cell_angle_gamma 127.291593
_cell_volume 543.901782
_symmetry_space_group_name_H-M "P -1"
_symmetry_group_IT_number 2
_symmetry_cell_setting 'triclinic'
loop_
_space_group_symop_operation_xyz
x,y,z
-x,-y,-z
loop_
_atom_site_type_symbol
_atom_site_label
_atom_site_fract_x
_atom_site_fract_y
_atom_site_fract_z
Si Si1 0.272650 0.680201 0.977513
Si Si2 0.583475 0.992191 0.444583
Si Si3 0.655970 0.948632 0.964692
Si Si4 0.990932 0.744889 0.141843
Si Si5 0.666834 0.444027 0.386850
Si Si6 0.195111 0.557816 0.718674
Si Si7 0.260043 0.325224 0.355725
O O1 0.537734 0.822445 0.023263
O O2 0.170009 0.426370 0.978866
O O3 0.020740 0.679956 0.797412
O O4 0.304134 0.815569 0.051097
O O5 0.782006 0.896570 0.576409
O O6 0.311943 0.838754 0.286083
O O7 0.500000 0.000000 0.500000
O O8 0.685946 0.232096 0.416806
O O9 0.428616 0.790922 0.816352
O O10 0.919231 0.934484 0.073860
O O11 0.874832 0.601871 0.200899
O O12 0.716638 0.541385 0.295472
O O13 0.398393 0.373907 0.319811
O O14 0.920080 0.561922 0.554924
O O15 0.500000 0.500000 0.500000
#
# Coordination Sequence:
#
# PCOD9076491 Si02
#       7
#     2   2   2   2   2   2   2
#     4  10  20  33  57  89 109 146 197 235 280 324
#     4  10  18  33  56  87 104 144 195 230 277 337
#     4  10  21  36  60  84 114 154 196 229 279 343
#     4  11  19  38  63  85 111 152 195 237 275 339
#     4  10  21  34  59  85 112 151 186 237 297 334
#     4  10  19  36  56  83 119 145 190 234 288 342
#     4  11  18  34  58  82 117 141 192 241 278 333
#
# _framework density 25.739941999999999
#
# number of rings (size 3 to 8) (size 9 to 14) (size 15 to 20)
#    0.000    1.714    4.286    4.286    0.000    0.000 
#    0.000    2.857   12.571    9.429    0.000    0.000 
#    0.000    0.000    0.000    0.000    0.000    0.000 
#
# Total GULP energy -78259.380580 kJ/mol
# GULP energy per Si atom -5589.955756 kJ/mol
# Density = 2.568136 g / cm^3
# Si number density = 25.739942 Si / 1000 Ang^3
#
#
#
# Elastic Constant Matrix: (Units=GPa)
#
#
# Indices 1 2 3 4 5 6 
#
# 1 92.3174 18.1801 10.6124 -12.0317 0.6392 -4.4351
# 2 18.1801 71.3087 9.2632 19.2322 -8.2285 -19.3244
# 3 10.6124 9.2632 92.7759 21.1734 7.6843 -6.7779
# 4 -12.0317 19.2322 21.1734 34.2759 -13.2661 -1.2276
# 5 0.6392 -8.2285 7.6843 -13.2661 40.9027 -0.0377
# 6 -4.4351 -19.3244 -6.7779 -1.2276 -0.0377 36.0629
#
#
#
# Elastic Compliance Matrix: (Units=1/GPa)
#
#
# Indices 1 2 3 4 5 6 
#
# 1 0.014126 -0.006633 -0.004237 0.012493 0.003291 -0.002184
# 2 -0.006633 0.022933 0.003445 -0.017533 -0.001606 0.011522
# 3 -0.004237 0.003445 0.015322 -0.015521 -0.007150 0.003669
# 4 0.012493 -0.017533 -0.015521 0.059874 0.018605 -0.008718
# 5 0.003291 -0.001606 -0.007150 0.018605 0.031450 -0.001133
# 6 -0.002184 0.011522 0.003669 -0.008718 -0.001133 0.034026
#
#
# Mechanical properties :
#
#
# Convention : Reuss Voigt Hill
#
# Bulk Modulus (GPa) = 26.64418 36.94593 31.79505
# Shear Modulus (GPa) = 24.37957 36.80472 30.59214
#
# Velocity S-wave (km/s) = 3.08092 3.78546 3.45122
# Velocity P-wave (km/s) = 4.79894 5.78714 5.31605
#
# Compressibility (1/GPa) = 0.03753165
#
# Stress axis : x y z
#
# Youngs Moduli (GPa) = 70.79231 43.60586 65.26676
#
# Poissons Ratio (x) = 0.28922 0.27652
# Poissons Ratio (y) = 0.46954 -0.22485
# Poissons Ratio (z) = 0.29993 -0.15023
#
# Static dielectric constant tensor:
#      x y z
#    x 2.106280 0.015870 -0.064630 
#    y 0.015870 2.134340 -0.048550 
#    z -0.064630 -0.048550 2.069550 
# 
# From -- ./inp_files/257606.got.cif
#   From: 2010.05.17/outbox.cif.g08.bks.cpg/sg2_129_cif.got.tgz:257606.got - 2010.06.03 11:33:40.
