data_PCOD9076317
_publ_section_title
;
Structure prediction by ZEFSAII (Michael W. Deem and Ramdas Pophale) SiO2 
 PCOD9076317
Probable space group: P -1
;
_chemical_formula_sum "Si O2"
_cell_formula_units_Z 16
_cell_length_a 14.759634
_cell_length_b 8.559033
_cell_length_c 11.504925
_cell_angle_alpha 126.281893
_cell_angle_beta 45.430194
_cell_angle_gamma 90.499474
_cell_volume 589.467008
_symmetry_space_group_name_H-M "P -1"
_symmetry_group_IT_number 2
_symmetry_cell_setting 'triclinic'
loop_
_space_group_symop_operation_xyz
x,y,z
-x,-y,-z
loop_
_atom_site_type_symbol
_atom_site_label
_atom_site_fract_x
_atom_site_fract_y
_atom_site_fract_z
Si Si1 0.031105 0.143569 0.875027
Si Si2 0.708056 0.281831 0.732539
Si Si3 0.139552 0.085539 0.011029
Si Si4 0.703933 0.711776 0.989924
Si Si5 0.132508 0.171375 0.443566
Si Si6 0.632094 0.243551 0.143406
Si Si7 0.404240 0.166777 0.278211
Si Si8 0.778936 0.497518 0.060111
O O1 0.195202 0.944686 0.552447
O O2 0.970129 0.984516 0.879362
O O3 0.874800 0.430723 0.071031
O O4 0.105745 0.135381 0.926505
O O5 0.766078 0.442305 0.758710
O O6 0.736962 0.138941 0.761813
O O7 0.500000 0.500000 0.000000
O O8 0.125014 0.323685 0.175102
O O9 0.332773 0.827086 0.781434
O O10 0.658422 0.742296 0.181824
O O11 0.526252 0.959048 0.184198
O O12 0.953057 0.293454 0.726978
O O13 0.204493 0.064496 0.199220
O O14 0.209429 0.285166 0.484736
O O15 0.673604 0.415536 0.146858
O O16 0.439337 0.359070 0.335520
O O17 0.500000 0.000000 0.000000
#
# Coordination Sequence:
#
# PCOD9076317 Si02
#       8
#     2   2   2   2   2   2   2   2
#     4   9  21  40  60  80 124 163 188 238 312 358
#     4  11  21  35  60  91 118 150 199 251 298 342
#     4   9  20  39  57  86 117 163 194 235 300 365
#     4  11  21  34  60  94 114 144 208 253 283 347
#     4  10  18  33  54  84 123 154 184 245 312 347
#     4   9  17  32  55  79 111 157 193 231 288 360
#     4   9  19  35  50  78 119 161 180 231 305 356
#     4  10  20  32  58  87 116 148 201 249 296 339
#
# _framework density 27.143166000000001
#
# number of rings (size 3 to 8) (size 9 to 14) (size 15 to 20)
#    0.000    2.250    2.500    0.375    3.500    1.000 
#    4.500    0.625    0.000    0.750    0.000    0.000 
#    0.000    0.000    0.000    0.000    0.000    0.000 
#
# Total GULP energy -89187.356408 kJ/mol
# GULP energy per Si atom -5574.209776 kJ/mol
# Density = 2.708139 g / cm^3
# Si number density = 27.143166 Si / 1000 Ang^3
#
#
#
# Elastic Constant Matrix: (Units=GPa)
#
#
# Indices 1 2 3 4 5 6 
#
# 1 177.3030 66.1010 49.1104 -17.7460 -5.2969 -2.2892
# 2 66.1010 73.4583 0.7251 -38.1082 16.3075 -21.8917
# 3 49.1104 0.7251 79.9243 -14.7513 4.7079 -4.7728
# 4 -17.7460 -38.1082 -14.7513 9.5890 5.9261 4.4051
# 5 -5.2969 16.3075 4.7079 5.9261 33.7311 -12.2853
# 6 -2.2892 -21.8917 -4.7728 4.4051 -12.2853 70.9348
#
#
#
# Elastic Compliance Matrix: (Units=1/GPa)
#
#
# Indices 1 2 3 4 5 6 
#
# 1 0.007328 0.000404 -0.002013 0.013333 -0.001414 -0.000847
# 2 0.000404 -0.003840 -0.006223 -0.030346 0.008781 0.001815
# 3 -0.002013 -0.006223 0.011048 -0.013850 0.003676 0.000255
# 4 0.013333 -0.030346 -0.013850 -0.023862 0.021172 -0.004718
# 5 -0.001414 0.008781 0.003676 0.021172 0.022977 0.005576
# 6 -0.000847 0.001815 0.000255 -0.004718 0.005576 0.015906
#
#
# Mechanical properties :
#
#
# Convention : Reuss Voigt Hill
#
# Bulk Modulus (GPa) = -886.19296 62.50651 -411.84322
# Shear Modulus (GPa) = 111.49097 37.16759 74.32928
#
# Velocity S-wave (km/s) = 6.41594 3.70444 5.23866
# Velocity P-wave (km/s) = 16.50186 6.43239 10.74560
#
# Compressibility (1/GPa) = -0.00112842
#
# Stress axis : x y z
#
# Youngs Moduli (GPa) = 136.45359 -260.43245 90.51644
#
# Poissons Ratio (x) = 0.10512 0.18223
# Poissons Ratio (y) = -0.05508 0.56327
# Poissons Ratio (z) = 0.27471 -1.62063
#
# Static dielectric constant tensor:
#      x y z
#    x 2.330140 -0.131890 0.334120 
#    y -0.131890 2.406140 -0.076830 
#    z 0.334120 -0.076830 3.002010 
# 
# From -- ./inp_files/444995.got.cif
#   From: 2010.05.17/outbox.cif.g08.bks.cpg/sg2_223_cif.got.tgz:444995.got - 2010.06.03 11:33:40.
