data_PCOD9076824
_publ_section_title
;
Structure prediction by ZEFSAII (Michael W. Deem and Ramdas Pophale) SiO2 
 PCOD9076824
Probable space group: P -1
;
_chemical_formula_sum "Si O2"
_cell_formula_units_Z 16
_cell_length_a 13.468024
_cell_length_b 8.596055
_cell_length_c 9.711411
_cell_angle_alpha 56.035063
_cell_angle_beta 132.660371
_cell_angle_gamma 121.697395
_cell_volume 665.559163
_symmetry_space_group_name_H-M "P -1"
_symmetry_group_IT_number 2
_symmetry_cell_setting 'triclinic'
loop_
_space_group_symop_operation_xyz
x,y,z
-x,-y,-z
loop_
_atom_site_type_symbol
_atom_site_label
_atom_site_fract_x
_atom_site_fract_y
_atom_site_fract_z
Si Si1 0.338975 0.920183 0.254459
Si Si2 0.831308 0.617260 0.787220
Si Si3 0.955005 0.353685 0.241025
Si Si4 0.016144 0.965302 0.194501
Si Si5 0.585761 0.743470 0.634019
Si Si6 0.782861 0.961688 0.179514
Si Si7 0.605668 0.547207 0.205994
Si Si8 0.846996 0.352783 0.566221
O O1 0.491155 0.878108 0.417573
O O2 0.231557 0.753081 0.317524
O O3 0.337914 0.118876 0.236925
O O4 0.294440 0.927194 0.053600
O O5 0.684468 0.660513 0.666030
O O6 0.886230 0.616206 0.683754
O O7 0.937039 0.815275 0.827698
O O8 0.871075 0.455491 0.002218
O O9 0.001353 0.501173 0.338111
O O10 0.872771 0.127700 0.283380
O O11 0.123505 0.835009 0.387104
O O12 0.886988 0.886049 0.211941
O O13 0.000000 0.000000 0.000000
O O14 0.481253 0.564596 0.694279
O O15 0.668683 0.767719 0.204472
O O16 0.734462 0.450669 0.344229
O O17 0.500000 0.500000 0.000000
#
# Coordination Sequence:
#
# PCOD9076824 Si02
#       8
#     2   2   2   2   2   2   2   2
#     4  10  18  33  60  90 119 150 199 255 295 350
#     4  10  18  35  61  96 119 152 201 257 308 351
#     4  10  22  36  60  91 126 155 196 254 308 363
#     4  11  18  32  64  94 118 150 199 263 305 341
#     4  10  20  35  61  90 120 158 200 254 300 350
#     4  11  22  39  59  88 126 164 197 247 306 360
#     4  11  25  40  59  86 126 166 203 248 299 354
#     4  11  21  38  62  96 120 153 204 253 310 360
#
# _framework density 24.039937999999999
#
# number of rings (size 3 to 8) (size 9 to 14) (size 15 to 20)
#    0.000    1.500    5.000    1.500    0.000    1.000 
#    0.000    6.250    0.000    0.000    0.000    0.000 
#    0.000    0.000    0.000    0.000    0.000    0.000 
#
# Total GULP energy -89246.929795 kJ/mol
# GULP energy per Si atom -5577.933112 kJ/mol
# Density = 2.398522 g / cm^3
# Si number density = 24.039938 Si / 1000 Ang^3
#
#
#
# Elastic Constant Matrix: (Units=GPa)
#
#
# Indices 1 2 3 4 5 6 
#
# 1 56.3179 14.8977 1.4557 -0.1254 15.8231 4.9927
# 2 14.8977 182.7567 14.1159 -6.2021 -5.5898 19.1605
# 3 1.4557 14.1159 86.7494 -3.0407 16.6489 -1.5881
# 4 -0.1254 -6.2021 -3.0407 26.9875 -2.8630 2.8956
# 5 15.8231 -5.5898 16.6489 -2.8630 29.3968 -0.7903
# 6 4.9927 19.1605 -1.5881 2.8956 -0.7903 28.1324
#
#
#
# Elastic Compliance Matrix: (Units=1/GPa)
#
#
# Indices 1 2 3 4 5 6 
#
# 1 0.022506 -0.002248 0.002625 -0.001350 -0.014229 -0.002576
# 2 -0.002248 0.006398 -0.001672 0.002087 0.003465 -0.004170
# 3 0.002625 -0.001672 0.013580 0.000037 -0.009386 0.001172
# 4 -0.001350 0.002087 0.000037 0.038571 0.004724 -0.005017
# 5 -0.014229 0.003465 -0.009386 0.004724 0.048124 0.000501
# 6 -0.002576 -0.004170 0.001172 -0.005017 0.000501 0.039440
#
#
# Mechanical properties :
#
#
# Convention : Reuss Voigt Hill
#
# Bulk Modulus (GPa) = 25.06684 42.97362 34.02023
# Shear Modulus (GPa) = 27.09909 36.59366 31.84638
#
# Velocity S-wave (km/s) = 3.36110 3.90577 3.64363
# Velocity P-wave (km/s) = 5.05099 6.18505 5.64656
#
# Compressibility (1/GPa) = 0.03989333
#
# Stress axis : x y z
#
# Youngs Moduli (GPa) = 44.43202 156.29521 73.64021
#
# Poissons Ratio (x) = 0.35140 -0.19327
# Poissons Ratio (y) = 0.09990 0.12309
# Poissons Ratio (z) = -0.11661 0.26125
#
# Static dielectric constant tensor:
#      x y z
#    x 2.801640 -0.274170 -0.084100 
#    y -0.274170 2.083700 0.101190 
#    z -0.084100 0.101190 2.033790 
# 
# From -- ./inp_files/446852.got.cif
#   From: 2010.05.17/outbox.cif.g08.bks.cpg/sg2_224_cif.got.tgz:446852.got - 2010.06.03 11:33:40.
