data_PCOD9076731
_publ_section_title
;
Structure prediction by ZEFSAII (Michael W. Deem and Ramdas Pophale) SiO2 
 PCOD9076731
Probable space group: P -1
;
_chemical_formula_sum "Si O2"
_cell_formula_units_Z 16
_cell_length_a 11.918227
_cell_length_b 8.516657
_cell_length_c 15.041232
_cell_angle_alpha 123.964662
_cell_angle_beta 147.183490
_cell_angle_gamma 62.703745
_cell_volume 686.041016
_symmetry_space_group_name_H-M "P -1"
_symmetry_group_IT_number 2
_symmetry_cell_setting 'triclinic'
loop_
_space_group_symop_operation_xyz
x,y,z
-x,-y,-z
loop_
_atom_site_type_symbol
_atom_site_label
_atom_site_fract_x
_atom_site_fract_y
_atom_site_fract_z
Si Si1 0.833906 0.454227 0.460388
Si Si2 0.879696 0.101452 0.584096
Si Si3 0.288436 0.894349 0.847428
Si Si4 0.830085 0.584104 0.150114
Si Si5 0.036617 0.795489 0.803498
Si Si6 0.573689 0.451608 0.794347
Si Si7 0.295003 0.274120 0.714429
Si Si8 0.276064 0.898755 0.319264
O O1 0.731669 0.316576 0.271741
O O2 0.905911 0.671776 0.603389
O O3 0.606400 0.465431 0.361200
O O4 0.067266 0.368796 0.581792
O O5 0.790015 0.127138 0.630317
O O6 0.951875 0.301062 0.653411
O O7 0.740990 0.951817 0.389192
O O8 0.102499 0.006038 0.712869
O O9 0.232265 0.885523 0.910902
O O10 0.500000 0.000000 0.000000
O O11 0.666812 0.656158 0.137529
O O12 0.884119 0.365064 0.129494
O O13 0.731330 0.600103 0.992654
O O14 0.889184 0.959685 0.788918
O O15 0.446345 0.345755 0.758891
O O16 0.701364 0.297152 0.778291
O O17 0.500000 0.000000 0.500000
#
# Coordination Sequence:
#
# PCOD9076731 Si02
#       8
#     2   2   2   2   2   2   2   2
#     4  10  18  33  59  86 112 154 205 241 279 345
#     4  10  21  39  61  89 118 160 199 241 289 357
#     4  10  19  33  58  88 120 151 197 245 291 345
#     4  11  24  37  58  92 130 146 187 253 318 345
#     4  10  21  40  59  84 117 159 198 243 292 353
#     4  12  21  35  63  90 116 159 202 245 293 352
#     4  10  20  37  60  87 122 158 192 243 301 357
#     4  11  21  40  68  84 109 162 219 239 275 354
#
# _framework density 23.322222
#
# number of rings (size 3 to 8) (size 9 to 14) (size 15 to 20)
#    0.000    1.500    2.500    5.250    0.000    2.000 
#    0.000    0.625    0.000    0.000    0.000    0.000 
#    0.000    0.000    0.000    0.000    0.000    0.000 
#
# Total GULP energy -89118.529317 kJ/mol
# GULP energy per Si atom -5569.908082 kJ/mol
# Density = 2.326914 g / cm^3
# Si number density = 23.322222 Si / 1000 Ang^3
#
#
#
# Elastic Constant Matrix: (Units=GPa)
#
#
# Indices 1 2 3 4 5 6 
#
# 1 80.0681 20.8276 22.6616 2.8130 6.3259 -26.5906
# 2 20.8276 82.1203 13.7458 -7.2711 4.5459 -28.1611
# 3 22.6616 13.7458 94.5432 12.3305 6.0308 -15.1904
# 4 2.8130 -7.2711 12.3305 28.4323 -3.5595 3.6839
# 5 6.3259 4.5459 6.0308 -3.5595 38.4239 8.8664
# 6 -26.5906 -28.1611 -15.1904 3.6839 8.8664 40.6175
#
#
#
# Elastic Compliance Matrix: (Units=1/GPa)
#
#
# Indices 1 2 3 4 5 6 
#
# 1 0.017685 0.000153 -0.001361 -0.003530 -0.005998 0.012804
# 2 0.000153 0.016961 -0.000514 0.002354 -0.004608 0.012459
# 3 -0.001361 -0.000514 0.012859 -0.006648 -0.003486 0.004926
# 4 -0.003530 0.002354 -0.006648 0.040985 0.007088 -0.008430
# 5 -0.005998 -0.004608 -0.003486 0.007088 0.032491 -0.016160
# 6 0.012804 0.012459 0.004926 -0.008430 -0.016160 0.047775
#
#
# Mechanical properties :
#
#
# Convention : Reuss Voigt Hill
#
# Bulk Modulus (GPa) = 22.69608 41.24461 31.97034
# Shear Modulus (GPa) = 26.75425 34.79451 30.77438
#
# Velocity S-wave (km/s) = 3.39064 3.86671 3.63647
# Velocity P-wave (km/s) = 5.00812 6.13664 5.60087
#
# Compressibility (1/GPa) = 0.04406047
#
# Stress axis : x y z
#
# Youngs Moduli (GPa) = 56.54555 58.95988 77.76696
#
# Poissons Ratio (x) = -0.00900 0.10584
# Poissons Ratio (y) = -0.00863 0.03995
# Poissons Ratio (z) = 0.07696 0.03029
#
# Static dielectric constant tensor:
#      x y z
#    x 2.081260 0.314740 -0.150120 
#    y 0.314740 2.295590 -0.212860 
#    z -0.150120 -0.212860 2.009050 
# 
# From -- ./inp_files/567007.got.cif
#   From: 2010.05.17/outbox.cif.g08.bks.cpg/sg2_284_cif.got.tgz:567007.got - 2010.06.03 11:33:40.
