data_PCOD9076024
_publ_section_title
;
Structure prediction by ZEFSAII (Michael W. Deem and Ramdas Pophale) SiO2 
 PCOD9076024
Probable space group: P -1
;
_chemical_formula_sum "Si O2"
_cell_formula_units_Z 12
_cell_length_a 15.336930
_cell_length_b 7.728174
_cell_length_c 9.411112
_cell_angle_alpha 73.419056
_cell_angle_beta 138.118438
_cell_angle_gamma 131.321516
_cell_volume 509.762558
_symmetry_space_group_name_H-M "P -1"
_symmetry_group_IT_number 2
_symmetry_cell_setting 'triclinic'
loop_
_space_group_symop_operation_xyz
x,y,z
-x,-y,-z
loop_
_atom_site_type_symbol
_atom_site_label
_atom_site_fract_x
_atom_site_fract_y
_atom_site_fract_z
Si Si1 0.586252 0.430833 0.522254
Si Si2 0.081698 0.715695 0.668525
Si Si3 0.069127 0.440599 0.969131
Si Si4 0.707598 0.482092 0.362021
Si Si5 0.549079 0.835801 0.117902
Si Si6 0.328966 0.972436 0.480152
O O1 0.500000 0.500000 0.500000
O O2 0.629185 0.518048 0.390223
O O3 0.434190 0.125933 0.428821
O O4 0.776385 0.542986 0.792025
O O5 0.142869 0.643192 0.887577
O O6 0.000000 0.500000 0.500000
O O7 0.921937 0.689772 0.539139
O O8 0.249825 0.988078 0.746038
O O9 0.881990 0.168981 0.749333
O O10 0.000000 0.500000 0.000000
O O11 0.679474 0.247778 0.440211
O O12 0.598768 0.406051 0.101990
O O13 0.564420 0.834145 0.304948
O O14 0.500000 0.000000 0.000000
#
# Coordination Sequence:
#
# PCOD9076024 Si02
#       6
#     2   2   2   2   2   2
#     4  12  26  41  58  87 127 165 198 245 297 353
#     4  11  18  33  59  96 119 142 194 256 298 343
#     4  11  21  37  62  93 119 155 200 249 293 353
#     4  10  21  36  60  91 116 154 198 243 299 351
#     4  10  18  32  58  92 118 145 193 255 297 343
#     4  10  21  37  63  89 116 154 205 245 297 346
#
# _framework density 23.540371
#
# number of rings (size 3 to 8) (size 9 to 14) (size 15 to 20)
#    0.000    1.333    8.333    2.500    2.333    0.667 
#    0.000    0.833    0.000    2.000    0.000    0.000 
#    0.000    0.000    0.000    0.000    0.000    0.000 
#
# Total GULP energy -67098.954987 kJ/mol
# GULP energy per Si atom -5591.579582 kJ/mol
# Density = 2.348679 g / cm^3
# Si number density = 23.540371 Si / 1000 Ang^3
#
#
#
# Elastic Constant Matrix: (Units=GPa)
#
#
# Indices 1 2 3 4 5 6 
#
# 1 139.8468 4.9680 31.9311 -2.3475 14.0394 10.5751
# 2 4.9680 33.1676 -2.0506 -1.4291 10.7709 18.1543
# 3 31.9311 -2.0506 116.9196 11.4658 -3.2357 4.5347
# 4 -2.3475 -1.4291 11.4658 21.1508 13.2800 4.2889
# 5 14.0394 10.7709 -3.2357 13.2800 44.3412 -4.0022
# 6 10.5751 18.1543 4.5347 4.2889 -4.0022 44.4654
#
#
#
# Elastic Compliance Matrix: (Units=1/GPa)
#
#
# Indices 1 2 3 4 5 6 
#
# 1 0.008921 0.003570 -0.003181 0.008161 -0.006788 -0.004653
# 2 0.003570 0.053459 -0.002227 0.026150 -0.024564 -0.027181
# 3 -0.003181 -0.002227 0.010439 -0.010036 0.005502 0.002065
# 4 0.008161 0.026150 -0.010036 0.083013 -0.036597 -0.022895
# 5 -0.006788 -0.024564 0.005502 -0.036597 0.043704 0.018546
# 6 -0.004653 -0.027181 0.002065 -0.022895 0.018546 0.038360
#
#
# Mechanical properties :
#
#
# Convention : Reuss Voigt Hill
#
# Bulk Modulus (GPa) = 14.46334 39.95899 27.21117
# Shear Modulus (GPa) = 18.89497 38.99719 28.94608
#
# Velocity S-wave (km/s) = 2.83620 4.07456 3.51042
# Velocity P-wave (km/s) = 4.10887 6.25680 5.29294
#
# Compressibility (1/GPa) = 0.06914032
#
# Stress axis : x y z
#
# Youngs Moduli (GPa) = 112.10057 18.70609 95.79424
#
# Poissons Ratio (x) = -0.06678 0.30476
# Poissons Ratio (y) = -0.40018 0.21337
# Poissons Ratio (z) = 0.35663 0.04167
#
# Static dielectric constant tensor:
#      x y z
#    x 1.983370 -0.075070 -0.011240 
#    y -0.075070 1.980040 -0.015700 
#    z -0.011240 -0.015700 1.902790 
# 
# From -- ./inp_files/160503.got.cif
#   From: 2010.05.17/outbox.cif.g08.bks.cpg/sg2_81_cif.got.tgz:160503.got - 2010.06.03 11:33:40.
