data_PCOD9076406
_publ_section_title
;
Structure prediction by ZEFSAII (Michael W. Deem and Ramdas Pophale) SiO2 
 PCOD9076406
Probable space group: P -1
;
_chemical_formula_sum "Si O2"
_cell_formula_units_Z 16
_cell_length_a 12.017317
_cell_length_b 17.180517
_cell_length_c 11.595471
_cell_angle_alpha 21.354061
_cell_angle_beta 124.910071
_cell_angle_gamma 128.687053
_cell_volume 680.048482
_symmetry_space_group_name_H-M "P -1"
_symmetry_group_IT_number 2
_symmetry_cell_setting 'triclinic'
loop_
_space_group_symop_operation_xyz
x,y,z
-x,-y,-z
loop_
_atom_site_type_symbol
_atom_site_label
_atom_site_fract_x
_atom_site_fract_y
_atom_site_fract_z
Si Si1 0.250960 0.638269 0.699254
Si Si2 0.690095 0.543612 0.583657
Si Si3 0.962109 0.408751 0.975114
Si Si4 0.146896 0.932136 0.802329
Si Si5 0.827762 0.914377 0.995415
Si Si6 0.898755 0.648611 0.196923
Si Si7 0.605038 0.249213 0.725611
Si Si8 0.616515 0.578817 0.745070
O O1 0.219389 0.517953 0.723749
O O2 0.109150 0.500605 0.871759
O O3 0.237713 0.887487 0.347768
O O4 0.373835 0.583919 0.920737
O O5 0.848036 0.521035 0.707207
O O6 0.595414 0.374626 0.667250
O O7 0.635117 0.480604 0.766256
O O8 0.731552 0.795394 0.211545
O O9 0.894615 0.158243 0.228610
O O10 0.000000 0.500000 0.000000
O O11 0.249310 0.187587 0.499676
O O12 0.242198 0.792863 0.113530
O O13 0.003664 0.862175 0.892785
O O14 0.823081 0.736765 0.135245
O O15 0.000000 0.000000 0.000000
O O16 0.000000 0.500000 0.500000
O O17 0.531428 0.366207 0.426184
O O18 0.500000 0.000000 0.000000
#
# Coordination Sequence:
#
# PCOD9076406 Si02
#       8
#     2   2   2   2   2   2   2   2
#     4  11  24  37  56  95 130 159 203 257 312 377
#     4  11  21  38  64  91 120 164 208 251 307 382
#     4  10  18  33  55  89 127 152 196 255 313 365
#     4   9  21  36  59  92 117 164 210 253 310 372
#     4  12  22  39  62  93 131 166 203 246 312 387
#     4  11  21  38  63  89 128 166 206 246 316 382
#     4   9  20  41  63  88 119 162 215 265 302 362
#     4  11  22  39  61  91 126 157 211 266 313 356
#
# _framework density 23.527736999999998
#
# number of rings (size 3 to 8) (size 9 to 14) (size 15 to 20)
#    0.000    1.500    3.750    2.625    0.000    3.000 
#    2.250    0.625    0.000    3.000    0.000    0.000 
#    0.000    0.000    0.000    0.000    0.000    0.000 
#
# Total GULP energy -89261.006585 kJ/mol
# GULP energy per Si atom -5578.812912 kJ/mol
# Density = 2.347419 g / cm^3
# Si number density = 23.527737 Si / 1000 Ang^3
#
#
#
# Elastic Constant Matrix: (Units=GPa)
#
#
# Indices 1 2 3 4 5 6 
#
# 1 66.0309 17.0216 14.2107 5.9244 -5.3507 0.8712
# 2 17.0216 140.9872 55.2140 11.9594 -0.4471 -10.3629
# 3 14.2107 55.2140 142.7860 26.7292 23.9321 0.6322
# 4 5.9244 11.9594 26.7292 38.7911 7.1431 6.0767
# 5 -5.3507 -0.4471 23.9321 7.1431 23.8326 0.9253
# 6 0.8712 -10.3629 0.6322 6.0767 0.9253 27.8543
#
#
#
# Elastic Compliance Matrix: (Units=1/GPa)
#
#
# Indices 1 2 3 4 5 6 
#
# 1 0.016521 -0.001125 -0.001884 -0.001909 0.006179 -0.000681
# 2 -0.001125 0.009139 -0.003875 -0.001298 0.004057 0.003672
# 3 -0.001884 -0.003875 0.011252 -0.004282 -0.010498 -0.000355
# 4 -0.001909 -0.001298 -0.004282 0.031501 -0.005322 -0.007021
# 5 0.006179 0.004057 -0.010498 -0.005322 0.055526 0.000871
# 6 -0.000681 0.003672 -0.000355 -0.007021 0.000871 0.038799
#
#
# Mechanical properties :
#
#
# Convention : Reuss Voigt Hill
#
# Bulk Modulus (GPa) = 43.21041 58.07741 50.64391
# Shear Modulus (GPa) = 27.14104 35.65278 31.39691
#
# Velocity S-wave (km/s) = 3.40012 3.89697 3.65699
# Velocity P-wave (km/s) = 5.81550 6.70722 6.27721
#
# Compressibility (1/GPa) = 0.02314257
#
# Stress axis : x y z
#
# Youngs Moduli (GPa) = 60.52904 109.41909 88.87077
#
# Poissons Ratio (x) = 0.12312 0.16747
# Poissons Ratio (y) = 0.06811 0.34440
# Poissons Ratio (z) = 0.11406 0.42404
#
# Static dielectric constant tensor:
#      x y z
#    x 2.124220 -0.245480 -0.081990 
#    y -0.245480 2.225860 0.129840 
#    z -0.081990 0.129840 1.990350 
# 
# From -- ./inp_files/456887.got.cif
#   From: 2010.05.17/outbox.cif.g08.bks.cpg/sg2_229_cif.got.tgz:456887.got - 2010.06.03 11:33:40.
