data_PCOD9076267
_publ_section_title
;
Structure prediction by ZEFSAII (Michael W. Deem and Ramdas Pophale) SiO2 
 PCOD9076267
Probable space group: P -1
;
_chemical_formula_sum "Si O2"
_cell_formula_units_Z 14
_cell_length_a 8.643836
_cell_length_b 9.152599
_cell_length_c 21.034358
_cell_angle_alpha 109.667409
_cell_angle_beta 136.278927
_cell_angle_gamma 102.858805
_cell_volume 756.428416
_symmetry_space_group_name_H-M "P -1"
_symmetry_group_IT_number 2
_symmetry_cell_setting 'triclinic'
loop_
_space_group_symop_operation_xyz
x,y,z
-x,-y,-z
loop_
_atom_site_type_symbol
_atom_site_label
_atom_site_fract_x
_atom_site_fract_y
_atom_site_fract_z
Si Si1 0.091803 0.057546 0.744036
Si Si2 0.141039 0.371100 0.353571
Si Si3 0.504984 0.252915 0.576074
Si Si4 0.650341 0.291437 0.839749
Si Si5 0.746859 0.731554 0.380878
Si Si6 0.291912 0.916303 0.290043
Si Si7 0.089429 0.585405 0.468038
O O1 0.396861 0.175461 0.806235
O O2 0.039524 0.177299 0.793902
O O3 0.044769 0.880262 0.746894
O O4 0.790277 0.926476 0.585575
O O5 0.500000 0.500000 0.500000
O O6 0.192089 0.527923 0.338856
O O7 0.991129 0.388512 0.369922
O O8 0.397612 0.340604 0.602406
O O9 0.587207 0.148836 0.630643
O O10 0.516623 0.355146 0.761265
O O11 0.681365 0.157200 0.781412
O O12 0.000000 0.500000 0.000000
O O13 0.912115 0.653179 0.403690
O O14 0.000000 0.000000 0.500000
O O15 0.539559 0.183153 0.397771
O O16 0.000000 0.500000 0.500000
#
# Coordination Sequence:
#
# PCOD9076267 Si02
#       7
#     2   2   2   2   2   2   2
#     4  11  20  36  58  84 122 150 193 240 297 349
#     4  10  20  30  50  88 122 147 177 242 304 344
#     4  10  18  33  53  89 120 137 190 247 294 347
#     4  11  24  41  60  86 120 157 202 246 286 347
#     4  11  20  35  60  87 114 153 196 246 294 339
#     4  11  21  35  60  85 114 157 193 242 295 345
#     4  12  20  31  56  92 123 149 189 242 304 348
#
# _framework density 18.508032
#
# number of rings (size 3 to 8) (size 9 to 14) (size 15 to 20)
#    0.000    1.143    7.143    3.000    2.000    0.571 
#    0.000    0.000    0.000    6.857    0.000    0.000 
#    0.000    0.000    0.000    0.000    0.000    0.000 
#
# Total GULP energy -77953.428954 kJ/mol
# GULP energy per Si atom -5568.102068 kJ/mol
# Density = 1.846591 g / cm^3
# Si number density = 18.508032 Si / 1000 Ang^3
#
#
#
# Elastic Constant Matrix: (Units=GPa)
#
#
# Indices 1 2 3 4 5 6 
#
# 1 140.9575 23.1307 21.2928 4.7053 19.4953 -3.8147
# 2 23.1307 70.6164 18.4286 1.5146 7.2641 2.7501
# 3 21.2928 18.4286 64.4084 -3.9084 7.8820 -0.7014
# 4 4.7053 1.5146 -3.9084 10.3068 2.7333 4.3348
# 5 19.4953 7.2641 7.8820 2.7333 13.1359 2.7170
# 6 -3.8147 2.7501 -0.7014 4.3348 2.7170 42.8382
#
#
#
# Elastic Compliance Matrix: (Units=1/GPa)
#
#
# Indices 1 2 3 4 5 6 
#
# 1 0.009345 -0.001501 -0.001268 -0.002078 -0.012238 0.001894
# 2 -0.001501 0.016100 -0.003747 -0.001728 -0.003902 -0.000806
# 3 -0.001268 -0.003747 0.018850 0.010846 -0.009603 -0.000052
# 4 -0.002078 -0.001728 0.010846 0.112799 -0.023914 -0.009794
# 5 -0.012238 -0.003902 -0.009603 -0.023914 0.108313 -0.005446
# 6 0.001894 -0.000806 -0.000052 -0.009794 -0.005446 0.024900
#
#
# Mechanical properties :
#
#
# Convention : Reuss Voigt Hill
#
# Bulk Modulus (GPa) = 31.98451 44.63183 38.30817
# Shear Modulus (GPa) = 15.93584 27.46487 21.70035
#
# Velocity S-wave (km/s) = 2.93750 3.85638 3.42787
# Velocity P-wave (km/s) = 5.36881 6.63295 6.03408
#
# Compressibility (1/GPa) = 0.03126513
#
# Stress axis : x y z
#
# Youngs Moduli (GPa) = 107.00477 62.11134 53.05089
#
# Poissons Ratio (x) = 0.09320 0.06727
# Poissons Ratio (y) = 0.16056 0.19876
# Poissons Ratio (z) = 0.13568 0.23271
#
# Static dielectric constant tensor:
#      x y z
#    x 1.726590 0.017960 0.022680 
#    y 0.017960 1.655860 0.019750 
#    z 0.022680 0.019750 1.623340 
# 
# From -- ./inp_files/168752.got.cif
#   From: 2010.05.17/outbox.cif.g08.bks.cpg/sg2_85_cif.got.tgz:168752.got - 2010.06.03 11:33:40.
