data_PCOD9076390
_publ_section_title
;
Structure prediction by ZEFSAII (Michael W. Deem and Ramdas Pophale) SiO2 
 PCOD9076390
Probable space group: P -1
;
_chemical_formula_sum "Si O2"
_cell_formula_units_Z 16
_cell_length_a 16.777602
_cell_length_b 12.180585
_cell_length_c 7.989716
_cell_angle_alpha 146.379568
_cell_angle_beta 130.982424
_cell_angle_gamma 37.474056
_cell_volume 549.967344
_symmetry_space_group_name_H-M "P -1"
_symmetry_group_IT_number 2
_symmetry_cell_setting 'triclinic'
loop_
_space_group_symop_operation_xyz
x,y,z
-x,-y,-z
loop_
_atom_site_type_symbol
_atom_site_label
_atom_site_fract_x
_atom_site_fract_y
_atom_site_fract_z
Si Si1 0.000380 0.244775 0.495632
Si Si2 0.161407 0.155505 0.277475
Si Si3 0.995425 0.320147 0.937270
Si Si4 0.653144 0.351898 0.649065
Si Si5 0.228956 0.547921 0.781360
Si Si6 0.605823 0.224403 0.085060
Si Si7 0.684650 0.726234 0.997154
Si Si8 0.542930 0.861913 0.622001
O O1 0.107552 0.172016 0.408472
O O2 0.033129 0.146356 0.606130
O O3 0.883062 0.266881 0.268372
O O4 0.942056 0.531361 0.812959
O O5 0.193403 0.359005 0.553835
O O6 0.050205 0.213803 0.061973
O O7 0.286491 0.891517 0.056709
O O8 0.839072 0.524663 0.972983
O O9 0.672389 0.178409 0.303452
O O10 0.512681 0.487420 0.719336
O O11 0.630139 0.580616 0.805931
O O12 0.760734 0.303999 0.868030
O O13 0.371462 0.380772 0.679057
O O14 0.553101 0.060026 0.791595
O O15 0.631662 0.795109 0.824761
O O16 0.607806 0.980889 0.321349
#
# Coordination Sequence:
#
# PCOD9076390 Si02
#       8
#     2   2   2   2   2   2   2   2
#     4  10  19  31  52  85 118 146 190 236 284 334
#     4  10  20  35  57  85 114 149 197 234 275 345
#     4  10  19  32  55  85 118 151 181 240 293 327
#     4  10  20  36  63  78 114 150 184 232 299 339
#     4  10  18  34  54  85 109 144 192 241 272 337
#     4   9  21  38  56  85 112 151 186 229 291 354
#     4  10  18  33  55  86 106 146 187 232 281 334
#     4   9  19  33  58  81 115 137 190 241 275 332
#
# _framework density 29.092637
#
# number of rings (size 3 to 8) (size 9 to 14) (size 15 to 20)
#    0.000    2.250    1.250    3.000    1.750    5.500 
#    0.000    2.500    2.750    9.000    0.000    0.000 
#    0.000    0.000    0.000    0.000    0.000    0.000 
#
# Total GULP energy -89540.797744 kJ/mol
# GULP energy per Si atom -5596.299859 kJ/mol
# Density = 2.902642 g / cm^3
# Si number density = 29.092637 Si / 1000 Ang^3
#
#
#
# Elastic Constant Matrix: (Units=GPa)
#
#
# Indices 1 2 3 4 5 6 
#
# 1 105.5639 58.1201 55.2690 6.8306 -41.6056 -10.6033
# 2 58.1201 129.9913 59.9671 -13.7085 -15.7883 -12.6547
# 3 55.2690 59.9671 221.3697 -21.6056 -39.6367 -15.1662
# 4 6.8306 -13.7085 -21.6056 59.0625 -5.4984 -3.0828
# 5 -41.6056 -15.7883 -39.6367 -5.4984 52.7465 13.6301
# 6 -10.6033 -12.6547 -15.1662 -3.0828 13.6301 52.2345
#
#
#
# Elastic Compliance Matrix: (Units=1/GPa)
#
#
# Indices 1 2 3 4 5 6 
#
# 1 0.018478 -0.006808 -0.001057 -0.003082 0.011800 -0.001467
# 2 -0.006808 0.011556 -0.001641 0.002658 -0.003379 0.001980
# 3 -0.001057 -0.001641 0.006084 0.002303 0.003381 0.000408
# 4 -0.003082 0.002658 0.002303 0.018978 0.001723 0.001358
# 5 0.011800 -0.003379 0.003381 0.001723 0.031406 -0.005535
# 6 -0.001467 0.001980 0.000408 0.001358 -0.005535 0.020969
#
#
# Mechanical properties :
#
#
# Convention : Reuss Voigt Hill
#
# Bulk Modulus (GPa) = 58.46046 89.29304 73.87675
# Shear Modulus (GPa) = 37.82531 51.71328 44.76929
#
# Velocity S-wave (km/s) = 3.60970 4.22066 3.92708
# Velocity P-wave (km/s) = 6.12466 7.38317 6.78317
#
# Compressibility (1/GPa) = 0.01710558
#
# Stress axis : x y z
#
# Youngs Moduli (GPa) = 54.11843 86.53169 164.36778
#
# Poissons Ratio (x) = 0.58914 0.17381
# Poissons Ratio (y) = 0.36846 0.26965
# Poissons Ratio (z) = 0.05723 0.14196
#
# Static dielectric constant tensor:
#      x y z
#    x 2.313950 -0.017190 -0.029220 
#    y -0.017190 2.309510 0.005920 
#    z -0.029220 0.005920 2.285270 
# 
# From -- ./inp_files/348991.got.cif
#   From: 2010.05.17/outbox.cif.g08.bks.cpg/sg2_175_cif.got.tgz:348991.got - 2010.06.03 11:33:40.
