data_PCOD9076090
_publ_section_title
;
Structure prediction by ZEFSAII (Michael W. Deem and Ramdas Pophale) SiO2 
 PCOD9076090
Probable space group: P -1
;
_chemical_formula_sum "Si O2"
_cell_formula_units_Z 16
_cell_length_a 13.904695
_cell_length_b 13.397775
_cell_length_c 7.970881
_cell_angle_alpha 69.715979
_cell_angle_beta 108.882597
_cell_angle_gamma 148.018463
_cell_volume 736.396022
_symmetry_space_group_name_H-M "P -1"
_symmetry_group_IT_number 2
_symmetry_cell_setting 'triclinic'
loop_
_space_group_symop_operation_xyz
x,y,z
-x,-y,-z
loop_
_atom_site_type_symbol
_atom_site_label
_atom_site_fract_x
_atom_site_fract_y
_atom_site_fract_z
Si Si1 0.565897 0.654772 0.292728
Si Si2 0.696235 0.949936 0.970684
Si Si3 0.750550 0.485091 0.697106
Si Si4 0.379453 0.532825 0.695802
Si Si5 0.382706 0.809748 0.948999
Si Si6 0.979330 0.864068 0.146571
Si Si7 0.176682 0.826508 0.743805
Si Si8 0.739484 0.909990 0.569791
O O1 0.636851 0.782875 0.100317
O O2 0.356614 0.508440 0.284949
O O3 0.593936 0.557011 0.329946
O O4 0.679995 0.794313 0.437008
O O5 0.755844 0.063895 0.107612
O O6 0.515468 0.859266 0.871337
O O7 0.875678 0.091062 0.880150
O O8 0.690827 0.441794 0.494111
O O9 0.964890 0.668215 0.712736
O O10 0.684456 0.329110 0.863862
O O11 0.587332 0.749749 0.718117
O O12 0.220280 0.363388 0.834793
O O13 0.225210 0.743861 0.814373
O O14 0.500000 0.000000 0.000000
O O15 0.060717 0.944373 0.334482
O O16 0.000000 0.000000 0.000000
O O17 0.266478 0.972591 0.559750
#
# Coordination Sequence:
#
# PCOD9076090 Si02
#       8
#     2   2   2   2   2   2   2   2
#     4   9  19  37  57  84 113 151 192 238 278 332
#     4   9  20  37  54  83 117 149 189 234 284 336
#     4  10  18  32  60  91 111 138 194 241 278 335
#     4  11  21  38  57  83 120 153 192 232 284 337
#     4   9  18  35  60  84 113 144 187 245 286 323
#     4  12  24  39  56  82 122 156 188 228 283 354
#     4  10  19  37  63  85 108 149 194 243 282 327
#     4  10  22  38  59  83 114 152 191 239 283 327
#
# _framework density 21.727437999999999
#
# number of rings (size 3 to 8) (size 9 to 14) (size 15 to 20)
#    0.000    2.000    2.500    4.125    0.000    3.000 
#    4.500    0.625    0.000    3.750    0.000    0.000 
#    0.000    0.000    0.000    0.000    0.000    0.000 
#
# Total GULP energy -89191.268699 kJ/mol
# GULP energy per Si atom -5574.454294 kJ/mol
# Density = 2.167798 g / cm^3
# Si number density = 21.727438 Si / 1000 Ang^3
#
#
#
# Elastic Constant Matrix: (Units=GPa)
#
#
# Indices 1 2 3 4 5 6 
#
# 1 76.7850 23.4388 39.2412 -19.6481 11.6236 6.4531
# 2 23.4388 77.1338 13.5435 -23.6282 3.9673 23.5687
# 3 39.2412 13.5435 75.2492 -14.4140 16.8619 -1.2711
# 4 -19.6481 -23.6282 -14.4140 39.4435 6.1607 1.5070
# 5 11.6236 3.9673 16.8619 6.1607 32.0083 -8.8644
# 6 6.4531 23.5687 -1.2711 1.5070 -8.8644 25.8616
#
#
#
# Elastic Compliance Matrix: (Units=1/GPa)
#
#
# Indices 1 2 3 4 5 6 
#
# 1 0.021485 0.002376 -0.007509 0.011334 -0.009604 -0.011847
# 2 0.002376 0.033906 0.002372 0.027500 -0.022916 -0.040833
# 3 -0.007509 0.002372 0.020416 0.006919 -0.010571 -0.003311
# 4 0.011334 0.027500 0.006919 0.056917 -0.033889 -0.042483
# 5 -0.009604 -0.022916 -0.010571 -0.033889 0.062439 0.046137
# 6 -0.011847 -0.040833 -0.003311 -0.042483 0.046137 0.096963
#
#
# Mechanical properties :
#
#
# Convention : Reuss Voigt Hill
#
# Bulk Modulus (GPa) = 14.22795 42.40168 28.31482
# Shear Modulus (GPa) = 15.57257 29.65898 22.61577
#
# Velocity S-wave (km/s) = 2.68007 3.69866 3.22978
# Velocity P-wave (km/s) = 4.01742 6.14799 5.19314
#
# Compressibility (1/GPa) = 0.07028419
#
# Stress axis : x y z
#
# Youngs Moduli (GPa) = 46.54333 29.49354 48.98084
#
# Poissons Ratio (x) = -0.07007 0.36779
# Poissons Ratio (y) = -0.11057 -0.11617
# Poissons Ratio (z) = 0.34949 -0.06995
#
# Static dielectric constant tensor:
#      x y z
#    x 1.809300 0.027820 -0.035580 
#    y 0.027820 1.844030 0.006910 
#    z -0.035580 0.006910 1.890040 
# 
# From -- ./inp_files/314823.got.cif
#   From: 2010.05.17/outbox.cif.g08.bks.cpg/sg2_158_cif.got.tgz:314823.got - 2010.06.03 11:33:40.
