data_PCOD9076734
_publ_section_title
;
Structure prediction by ZEFSAII (Michael W. Deem and Ramdas Pophale) SiO2 
 PCOD9076734
Probable space group: P -1
;
_chemical_formula_sum "Si O2"
_cell_formula_units_Z 16
_cell_length_a 11.785203
_cell_length_b 9.461602
_cell_length_c 8.258433
_cell_angle_alpha 85.349333
_cell_angle_beta 114.953811
_cell_angle_gamma 80.386497
_cell_volume 811.268289
_symmetry_space_group_name_H-M "P -1"
_symmetry_group_IT_number 2
_symmetry_cell_setting 'triclinic'
loop_
_space_group_symop_operation_xyz
x,y,z
-x,-y,-z
loop_
_atom_site_type_symbol
_atom_site_label
_atom_site_fract_x
_atom_site_fract_y
_atom_site_fract_z
Si Si1 0.735353 0.135120 0.989846
Si Si2 0.642922 0.505387 0.516904
Si Si3 0.368190 0.127194 0.047271
Si Si4 0.980837 0.922003 0.824381
Si Si5 0.238988 0.826644 0.384723
Si Si6 0.238791 0.247327 0.297592
Si Si7 0.524121 0.637539 0.101023
Si Si8 0.411268 0.004623 0.604235
O O1 0.733926 0.134021 0.790594
O O2 0.615981 0.262132 0.953541
O O3 0.719154 0.978431 0.058662
O O4 0.874432 0.149499 0.132810
O O5 0.500000 0.500000 0.500000
O O6 0.734999 0.345568 0.575532
O O7 0.723636 0.599845 0.660235
O O8 0.604406 0.578512 0.314048
O O9 0.307078 0.191329 0.175124
O O10 0.500812 0.013901 0.185727
O O11 0.398499 0.259829 0.955559
O O12 0.899011 0.796730 0.795636
O O13 0.894950 0.061119 0.665212
O O14 0.000000 0.000000 0.000000
O O15 0.345040 0.869984 0.559633
O O16 0.304967 0.149241 0.498020
O O17 0.500000 0.500000 0.000000
O O18 0.500000 0.000000 0.500000
#
# Coordination Sequence:
#
# PCOD9076734 Si02
#       8
#     2   2   2   2   2   2   2   2
#     4  11  20  38  61  88 116 157 198 250 298 350
#     4  12  22  37  60  88 126 159 200 246 301 363
#     4  11  20  35  59  90 122 151 194 252 308 357
#     4   9  18  38  62  92 116 148 208 259 283 341
#     4  10  18  33  59  86 116 148 196 251 287 345
#     4  10  19  34  63  93 116 154 203 249 297 349
#     4  12  26  39  56  89 130 161 189 244 316 362
#     4   9  14  29  54  83 112 143 192 243 286 338
#
# _framework density 19.722206
#
# number of rings (size 3 to 8) (size 9 to 14) (size 15 to 20)
#    0.000    1.500    6.250    4.125    0.000    0.000 
#    0.000    3.750    0.000   13.500    0.000    0.000 
#    0.000    0.000    0.000    0.000    0.000    0.000 
#
# Total GULP energy -89171.047683 kJ/mol
# GULP energy per Si atom -5573.190480 kJ/mol
# Density = 1.967732 g / cm^3
# Si number density = 19.722206 Si / 1000 Ang^3
#
#
#
# Elastic Constant Matrix: (Units=GPa)
#
#
# Indices 1 2 3 4 5 6 
#
# 1 86.5940 47.3297 45.6828 -5.4413 17.4546 15.0956
# 2 47.3297 138.4364 26.2025 7.6641 13.0664 13.8789
# 3 45.6828 26.2025 62.3549 -1.7890 10.0926 16.7776
# 4 -5.4413 7.6641 -1.7890 36.0117 10.8676 1.7725
# 5 17.4546 13.0664 10.0926 10.8676 30.0439 2.1238
# 6 15.0956 13.8789 16.7776 1.7725 2.1238 32.6497
#
#
#
# Elastic Compliance Matrix: (Units=1/GPa)
#
#
# Indices 1 2 3 4 5 6 
#
# 1 0.023958 -0.004976 -0.013155 0.007065 -0.009753 -0.001951
# 2 -0.004976 0.009208 0.000132 -0.002596 -0.000111 -0.001533
# 3 -0.013155 0.000132 0.028080 0.000190 -0.001328 -0.008328
# 4 0.007065 -0.002596 0.000190 0.034128 -0.015163 -0.003127
# 5 -0.009753 -0.000111 -0.001328 -0.015163 0.044707 0.003154
# 6 -0.001951 -0.001533 -0.008328 -0.003127 0.003154 0.036426
#
#
# Mechanical properties :
#
#
# Convention : Reuss Voigt Hill
#
# Bulk Modulus (GPa) = 39.60616 58.42392 49.01504
# Shear Modulus (GPa) = 22.63274 30.95242 26.79258
#
# Velocity S-wave (km/s) = 3.39126 3.96589 3.68978
# Velocity P-wave (km/s) = 5.95482 7.11750 6.56196
#
# Compressibility (1/GPa) = 0.02524860
#
# Stress axis : x y z
#
# Youngs Moduli (GPa) = 41.74044 108.60630 35.61225
#
# Poissons Ratio (x) = 0.54041 0.46847
# Poissons Ratio (y) = 0.20770 -0.00471
# Poissons Ratio (z) = 0.54909 -0.01437
#
# Static dielectric constant tensor:
#      x y z
#    x 1.756310 -0.000290 -0.011860 
#    y -0.000290 1.738550 0.020050 
#    z -0.011860 0.020050 1.726510 
# 
# From -- ./inp_files/238378.got.cif
#   From: 2010.05.17/outbox.cif.g08.bks.cpg/sg2_120_cif.got.tgz:238378.got - 2010.06.03 11:33:40.
