data_PCOD9076880
_publ_section_title
;
Structure prediction by ZEFSAII (Michael W. Deem and Ramdas Pophale) SiO2 
 PCOD9076880
Probable space group: P -1
;
_chemical_formula_sum "Si O2"
_cell_formula_units_Z 16
_cell_length_a 8.768015
_cell_length_b 11.848480
_cell_length_c 15.972318
_cell_angle_alpha 151.683972
_cell_angle_beta 86.989354
_cell_angle_gamma 78.619957
_cell_volume 674.133046
_symmetry_space_group_name_H-M "P -1"
_symmetry_group_IT_number 2
_symmetry_cell_setting 'triclinic'
loop_
_space_group_symop_operation_xyz
x,y,z
-x,-y,-z
loop_
_atom_site_type_symbol
_atom_site_label
_atom_site_fract_x
_atom_site_fract_y
_atom_site_fract_z
Si Si1 0.950120 0.576584 0.916153
Si Si2 0.450066 0.226327 0.778708
Si Si3 0.908778 0.214889 0.806195
Si Si4 0.215654 0.171872 0.386002
Si Si5 0.202539 0.588879 0.777667
Si Si6 0.604283 0.204661 0.582546
Si Si7 0.682425 0.655548 0.847089
Si Si8 0.256201 0.070680 0.125756
O O1 0.962906 0.302819 0.776721
O O2 0.763877 0.725290 0.969814
O O3 0.092068 0.535001 0.815098
O O4 0.975411 0.749200 0.101362
O O5 0.573887 0.207015 0.684423
O O6 0.580960 0.049608 0.734601
O O7 0.345348 0.083087 0.649898
O O8 0.297213 0.534580 0.007656
O O9 0.901186 0.939221 0.638179
O O10 0.178101 0.465822 0.612391
O O11 0.195136 0.167240 0.284631
O O12 0.407090 0.400296 0.677660
O O13 0.169599 0.895933 0.980871
O O14 0.716105 0.347109 0.651317
O O15 0.764567 0.702740 0.792101
O O16 0.470152 0.859748 0.985980
#
# Coordination Sequence:
#
# PCOD9076880 Si02
#       8
#     2   2   2   2   2   2   2   2
#     4  11  22  38  56  88 123 154 188 239 304 347
#     4  10  18  33  62  88 118 154 193 239 286 347
#     4  11  21  36  57  89 124 152 193 239 289 362
#     4  11  21  37  64  88 115 159 200 237 289 346
#     4  10  21  40  59  87 120 155 192 243 294 344
#     4   9  18  36  57  90 119 149 198 237 285 351
#     4  10  21  39  63  85 116 159 192 247 297 334
#     4  10  21  43  64  84 114 151 209 246 279 345
#
# _framework density 23.734188
#
# number of rings (size 3 to 8) (size 9 to 14) (size 15 to 20)
#    0.000    1.750    2.500    2.625    0.000    1.000 
#    4.500   11.875    0.000    0.000    0.000    0.000 
#    0.000    0.000    0.000    0.000    0.000    0.000 
#
# Total GULP energy -89573.747949 kJ/mol
# GULP energy per Si atom -5598.359247 kJ/mol
# Density = 2.368017 g / cm^3
# Si number density = 23.734188 Si / 1000 Ang^3
#
#
#
# Elastic Constant Matrix: (Units=GPa)
#
#
# Indices 1 2 3 4 5 6 
#
# 1 118.5611 65.5936 53.7906 -11.7462 19.9918 8.1440
# 2 65.5936 110.0173 45.3011 -3.7629 29.1009 23.6333
# 3 53.7906 45.3011 106.7572 5.0303 35.6032 15.4775
# 4 -11.7462 -3.7629 5.0303 20.1684 -4.8174 -0.5088
# 5 19.9918 29.1009 35.6032 -4.8174 41.5260 1.4164
# 6 8.1440 23.6333 15.4775 -0.5088 1.4164 50.1987
#
#
#
# Elastic Compliance Matrix: (Units=1/GPa)
#
#
# Indices 1 2 3 4 5 6 
#
# 1 0.016668 -0.008726 -0.007772 0.011537 0.005964 0.003749
# 2 -0.008726 0.017640 0.001365 -0.004609 -0.009625 -0.007085
# 3 -0.007772 0.001365 0.018931 -0.012640 -0.014745 -0.004931
# 4 0.011537 -0.004609 -0.012640 0.062432 0.015606 0.004388
# 5 0.005964 -0.009625 -0.014745 0.015606 0.042165 0.007078
# 6 0.003749 -0.007085 -0.004931 0.004388 0.007078 0.024013
#
#
# Mechanical properties :
#
#
# Convention : Reuss Voigt Hill
#
# Bulk Modulus (GPa) = 43.52587 73.85625 58.69106
# Shear Modulus (GPa) = 22.75085 33.75532 28.25308
#
# Velocity S-wave (km/s) = 3.09943 3.77533 3.45395
# Velocity P-wave (km/s) = 5.58456 7.08448 6.37876
#
# Compressibility (1/GPa) = 0.02297484
#
# Stress axis : x y z
#
# Youngs Moduli (GPa) = 59.99622 56.69000 52.82281
#
# Poissons Ratio (x) = 0.49466 0.41052
# Poissons Ratio (y) = 0.52351 -0.07213
# Poissons Ratio (z) = 0.46627 -0.07741
#
# Static dielectric constant tensor:
#      x y z
#    x 1.919430 -0.010240 -0.022040 
#    y -0.010240 1.859570 0.027260 
#    z -0.022040 0.027260 1.919160 
# 
# From -- ./inp_files/501184.got.cif
#   From: 2010.05.17/outbox.cif.g08.bks.cpg/sg2_251_cif.got.tgz:501184.got - 2010.06.03 11:33:40.
