data_PCOD9076691
_publ_section_title
;
Structure prediction by ZEFSAII (Michael W. Deem and Ramdas Pophale) SiO2 
 PCOD9076691
Probable space group: P -1
;
_chemical_formula_sum "Si O2"
_cell_formula_units_Z 16
_cell_length_a 15.578675
_cell_length_b 14.476395
_cell_length_c 14.856525
_cell_angle_alpha 160.461700
_cell_angle_beta 143.513579
_cell_angle_gamma 35.806708
_cell_volume 641.930467
_symmetry_space_group_name_H-M "P -1"
_symmetry_group_IT_number 2
_symmetry_cell_setting 'triclinic'
loop_
_space_group_symop_operation_xyz
x,y,z
-x,-y,-z
loop_
_atom_site_type_symbol
_atom_site_label
_atom_site_fract_x
_atom_site_fract_y
_atom_site_fract_z
Si Si1 0.848277 0.727341 0.332416
Si Si2 0.870667 0.478294 0.718779
Si Si3 0.187298 0.827804 0.143738
Si Si4 0.532598 0.734067 0.353133
Si Si5 0.731031 0.088694 0.904387
Si Si6 0.355883 0.680139 0.488323
Si Si7 0.768402 0.110946 0.151948
Si Si8 0.412076 0.237970 0.980140
O O1 0.680102 0.787761 0.210253
O O2 0.953032 0.658795 0.270300
O O3 0.879439 0.970413 0.644053
O O4 0.874953 0.447245 0.159584
O O5 0.791237 0.360770 0.624849
O O6 0.804395 0.370176 0.473534
O O7 0.831373 0.820209 0.994435
O O8 0.365042 0.728455 0.228334
O O9 0.180624 0.964677 0.164728
O O10 0.500000 0.000000 0.500000
O O11 0.637110 0.851835 0.617484
O O12 0.624432 0.417140 0.108140
O O13 0.820573 0.081701 0.065587
O O14 0.500000 0.500000 0.500000
O O15 0.373414 0.999084 0.792484
O O16 0.363007 0.541794 0.268373
O O17 0.588460 0.170269 0.050718
#
# Coordination Sequence:
#
# PCOD9076691 Si02
#       8
#     2   2   2   2   2   2   2   2
#     4  12  27  44  64  99 137 179 216 270 331 392
#     4  12  27  45  67  94 141 173 213 275 340 392
#     4  11  21  41  61  89 139 182 216 265 332 384
#     4  10  18  33  58  93 126 164 216 279 330 364
#     4  11  22  36  64  98 129 177 230 275 317 381
#     4  12  23  45  73 104 127 167 215 274 339 396
#     4  12  23  43  67 100 130 172 229 277 320 384
#     4  12  24  42  74 102 128 166 222 272 326 406
#
# _framework density 24.924817999999998
#
# number of rings (size 3 to 8) (size 9 to 14) (size 15 to 20)
#    0.000    0.500    2.500    8.625    0.000    1.000 
#    0.000    3.750    0.000    0.000    0.000    0.000 
#    0.000    0.000    0.000    0.000    0.000    0.000 
#
# Total GULP energy -89615.111195 kJ/mol
# GULP energy per Si atom -5600.944450 kJ/mol
# Density = 2.486809 g / cm^3
# Si number density = 24.924818 Si / 1000 Ang^3
#
#
#
# Elastic Constant Matrix: (Units=GPa)
#
#
# Indices 1 2 3 4 5 6 
#
# 1 80.5960 -2.4057 -4.1955 9.2877 3.8694 -3.4259
# 2 -2.4057 48.3852 6.2478 -0.8076 3.6151 -3.9287
# 3 -4.1955 6.2478 100.8726 2.8606 1.1103 1.8462
# 4 9.2877 -0.8076 2.8606 31.7101 7.1708 -3.3375
# 5 3.8694 3.6151 1.1103 7.1708 45.5841 -1.7963
# 6 -3.4259 -3.9287 1.8462 -3.3375 -1.7963 36.6689
#
#
#
# Elastic Compliance Matrix: (Units=1/GPa)
#
#
# Indices 1 2 3 4 5 6 
#
# 1 0.012937 0.000621 0.000592 -0.003607 -0.000559 0.000890
# 2 0.000621 0.021221 -0.001345 0.001138 -0.001787 0.002415
# 3 0.000592 -0.001345 0.010068 -0.001183 -0.000030 -0.000705
# 4 -0.003607 0.001138 -0.001183 0.034148 -0.005020 0.002707
# 5 -0.000559 -0.001787 -0.000030 -0.005020 0.022934 0.000424
# 6 0.000890 0.002415 -0.000705 0.002707 0.000424 0.027916
#
#
# Mechanical properties :
#
#
# Convention : Reuss Voigt Hill
#
# Bulk Modulus (GPa) = 22.74780 25.46077 24.10428
# Shear Modulus (GPa) = 34.68784 38.13977 36.41381
#
# Velocity S-wave (km/s) = 3.73460 3.91601 3.82638
# Velocity P-wave (km/s) = 5.26713 5.53932 5.40494
#
# Compressibility (1/GPa) = 0.04396030
#
# Stress axis : x y z
#
# Youngs Moduli (GPa) = 77.29650 47.12386 99.32233
#
# Poissons Ratio (x) = -0.02925 -0.05878
# Poissons Ratio (y) = -0.04798 0.13362
# Poissons Ratio (z) = -0.04574 0.06340
#
# Static dielectric constant tensor:
#      x y z
#    x 2.006220 -0.021260 0.001140 
#    y -0.021260 2.017670 -0.023460 
#    z 0.001140 -0.023460 1.920710 
# 
# From -- ./inp_files/534685.got.cif
#   From: 2010.05.17/outbox.cif.g08.bks.cpg/sg2_268_cif.got.tgz:534685.got - 2010.06.03 11:33:40.
