data_PCOD9076881
_publ_section_title
;
Structure prediction by ZEFSAII (Michael W. Deem and Ramdas Pophale) SiO2 
 PCOD9076881
Probable space group: P -1
;
_chemical_formula_sum "Si O2"
_cell_formula_units_Z 16
_cell_length_a 14.469328
_cell_length_b 6.928439
_cell_length_c 9.677846
_cell_angle_alpha 134.946486
_cell_angle_beta 89.987873
_cell_angle_gamma 88.932596
_cell_volume 686.435602
_symmetry_space_group_name_H-M "P -1"
_symmetry_group_IT_number 2
_symmetry_cell_setting 'triclinic'
loop_
_space_group_symop_operation_xyz
x,y,z
-x,-y,-z
loop_
_atom_site_type_symbol
_atom_site_label
_atom_site_fract_x
_atom_site_fract_y
_atom_site_fract_z
Si Si1 0.181571 0.761856 0.585238
Si Si2 0.531049 0.213749 0.222045
Si Si3 0.242967 0.284401 0.970011
Si Si4 0.925408 0.588907 0.797189
Si Si5 0.589317 0.322557 0.858667
Si Si6 0.611784 0.293496 0.531323
Si Si7 0.118024 0.770497 0.907879
Si Si8 0.311539 0.849678 0.983725
O O1 0.102024 0.632771 0.428102
O O2 0.281616 0.645707 0.473791
O O3 0.147814 0.719351 0.721507
O O4 0.206623 0.080895 0.749884
O O5 0.569113 0.107723 0.315927
O O6 0.450305 0.434238 0.346365
O O7 0.622229 0.335988 0.209060
O O8 0.500000 0.000000 0.000000
O O9 0.281226 0.098133 0.007364
O O10 0.151945 0.443950 0.103413
O O11 0.329011 0.462069 0.027858
O O12 0.030912 0.587215 0.845599
O O13 0.910433 0.907070 0.907591
O O14 0.592604 0.207477 0.644867
O O15 0.500000 0.500000 0.000000
O O16 0.627512 0.099476 0.855330
O O17 0.214326 0.724245 0.962000
#
# Coordination Sequence:
#
# PCOD9076881 Si02
#       8
#     2   2   2   2   2   2   2   2
#     4  10  18  33  62  88 120 163 208 260 316 379
#     4  11  22  38  63  88 121 166 210 252 313 381
#     4  10  22  40  64  88 127 171 206 262 327 368
#     4   9  17  34  63  91 122 161 210 261 317 383
#     4  12  24  40  65  92 130 169 215 267 310 382
#     4  11  22  36  62  88 120 169 206 250 327 362
#     4   9  19  34  59  98 120 162 214 257 316 382
#     4  10  21  39  64  89 125 167 207 261 315 371
#
# _framework density 23.308814999999999
#
# number of rings (size 3 to 8) (size 9 to 14) (size 15 to 20)
#    0.000    2.000    5.000    1.125    1.750    0.000 
#    0.000    3.125   13.750    0.750    0.000    0.000 
#    0.000    0.000    0.000    0.000    0.000    0.000 
#
# Total GULP energy -89206.977951 kJ/mol
# GULP energy per Si atom -5575.436122 kJ/mol
# Density = 2.325576 g / cm^3
# Si number density = 23.308815 Si / 1000 Ang^3
#
#
#
# Elastic Constant Matrix: (Units=GPa)
#
#
# Indices 1 2 3 4 5 6 
#
# 1 145.0443 23.9909 31.3646 -8.5272 8.1254 15.9849
# 2 23.9909 47.3371 25.4034 -13.7493 5.7513 5.5186
# 3 31.3646 25.4034 136.2332 -10.6642 22.8401 -1.2587
# 4 -8.5272 -13.7493 -10.6642 27.8651 0.9154 4.8743
# 5 8.1254 5.7513 22.8401 0.9154 42.3852 -1.5201
# 6 15.9849 5.5186 -1.2587 4.8743 -1.5201 30.3643
#
#
#
# Elastic Compliance Matrix: (Units=1/GPa)
#
#
# Indices 1 2 3 4 5 6 
#
# 1 0.008158 -0.002443 -0.001209 0.001587 -0.000766 -0.004194
# 2 -0.002443 0.029184 -0.003528 0.013498 -0.002113 -0.006437
# 3 -0.001209 -0.003528 0.009088 0.001287 -0.004170 0.001239
# 4 0.001587 0.013498 0.001287 0.045545 -0.004199 -0.010757
# 5 -0.000766 -0.002113 -0.004170 -0.004199 0.026458 0.002613
# 6 -0.004194 -0.006437 0.001239 -0.010757 0.002613 0.038220
#
#
# Mechanical properties :
#
#
# Convention : Reuss Voigt Hill
#
# Bulk Modulus (GPa) = 31.18138 54.45916 42.82027
# Shear Modulus (GPa) = 27.51725 36.64664 32.08194
#
# Velocity S-wave (km/s) = 3.43964 3.96943 3.71399
# Velocity P-wave (km/s) = 5.40198 6.66509 6.06650
#
# Compressibility (1/GPa) = 0.03207042
#
# Stress axis : x y z
#
# Youngs Moduli (GPa) = 122.57364 34.26519 110.03611
#
# Poissons Ratio (x) = 0.08371 0.13302
# Poissons Ratio (y) = 0.29944 0.38823
# Poissons Ratio (z) = 0.14817 0.12089
#
# Static dielectric constant tensor:
#      x y z
#    x 1.943140 0.047440 0.000810 
#    y 0.047440 1.971400 -0.029330 
#    z 0.000810 -0.029330 1.953490 
# 
# From -- ./inp_files/293471.got.cif
#   From: 2010.05.17/outbox.cif.g08.bks.cpg/sg2_147_cif.got.tgz:293471.got - 2010.06.03 11:33:40.
