data_PCOD9076951
_publ_section_title
;
Structure prediction by ZEFSAII (Michael W. Deem and Ramdas Pophale) SiO2 
 PCOD9076951
Probable space group: P -1
;
_chemical_formula_sum "Si O2"
_cell_formula_units_Z 14
_cell_length_a 15.235503
_cell_length_b 5.149477
_cell_length_c 9.551441
_cell_angle_alpha 106.299608
_cell_angle_beta 70.097563
_cell_angle_gamma 75.255684
_cell_volume 623.336727
_symmetry_space_group_name_H-M "P -1"
_symmetry_group_IT_number 2
_symmetry_cell_setting 'triclinic'
loop_
_space_group_symop_operation_xyz
x,y,z
-x,-y,-z
loop_
_atom_site_type_symbol
_atom_site_label
_atom_site_fract_x
_atom_site_fract_y
_atom_site_fract_z
Si Si1 0.372201 0.806373 0.533473
Si Si2 0.973281 0.829744 0.115405
Si Si3 0.770573 0.057870 0.136946
Si Si4 0.349854 0.245899 0.382766
Si Si5 0.337987 0.771444 0.142376
Si Si6 0.488259 0.614606 0.789405
Si Si7 0.823350 0.405955 0.918306
O O1 0.319417 0.589488 0.472897
O O2 0.486963 0.625444 0.386705
O O3 0.338888 0.857874 0.719593
O O4 0.338311 0.108281 0.515049
O O5 0.852199 0.978699 0.209159
O O6 0.000000 0.500000 0.000000
O O7 0.055912 0.785650 0.185025
O O8 0.000000 0.000000 0.000000
O O9 0.799766 0.751079 0.991613
O O10 0.788606 0.300313 0.067928
O O11 0.468449 0.149711 0.257128
O O12 0.304245 0.099727 0.269738
O O13 0.424790 0.568302 0.169907
O O14 0.389371 0.736989 0.956250
O O15 0.245618 0.668795 0.167326
#
# Coordination Sequence:
#
# PCOD9076951 Si02
#       7
#     2   2   2   2   2   2   2
#     4   9  18  32  52  71  94 134 173 189 238 298
#     4   8  16  32  50  71  96 128 163 194 242 291
#     4  10  19  35  52  74 103 131 160 197 250 301
#     4   9  18  32  52  70  95 130 172 204 229 289
#     4  10  18  34  52  77  99 126 169 207 252 273
#     4   8  19  33  53  72  95 137 165 207 234 293
#     4  10  21  31  53  79 101 125 159 212 246 290
#
# _framework density 22.459772000000001
#
# number of rings (size 3 to 8) (size 9 to 14) (size 15 to 20)
#    0.857    2.000    0.000    1.286    2.000    0.000 
#    0.000    1.429    0.000    4.286    0.000    0.000 
#    0.000    0.000    0.000    0.000    0.000    0.000 
#
# Total GULP energy -77941.776797 kJ/mol
# GULP energy per Si atom -5567.269771 kJ/mol
# Density = 2.240865 g / cm^3
# Si number density = 22.459772 Si / 1000 Ang^3
#
#
#
# Elastic Constant Matrix: (Units=GPa)
#
#
# Indices 1 2 3 4 5 6 
#
# 1 82.5374 1.8873 -19.8223 16.8940 6.9812 1.6985
# 2 1.8873 99.1774 10.9336 -13.9998 -6.4569 17.9733
# 3 -19.8223 10.9336 53.0516 -8.2350 -1.2725 1.8011
# 4 16.8940 -13.9998 -8.2350 29.6546 6.0596 -1.0561
# 5 6.9812 -6.4569 -1.2725 6.0596 22.8230 3.3977
# 6 1.6985 17.9733 1.8011 -1.0561 3.3977 32.5860
#
#
#
# Elastic Compliance Matrix: (Units=1/GPa)
#
#
# Indices 1 2 3 4 5 6 
#
# 1 0.015142 -0.002129 0.004827 -0.007681 -0.002952 0.000177
# 2 -0.002129 0.012652 -0.002214 0.005575 0.003661 -0.006946
# 3 0.004827 -0.002214 0.021457 0.002485 -0.001571 0.000028
# 4 -0.007681 0.005575 0.002485 0.042871 -0.007217 -0.000670
# 5 -0.002952 0.003661 -0.001571 -0.007217 0.048637 -0.007084
# 6 0.000177 -0.006946 0.000028 -0.000670 -0.007084 0.035225
#
#
# Mechanical properties :
#
#
# Convention : Reuss Voigt Hill
#
# Bulk Modulus (GPa) = 19.91258 24.52930 22.22094
# Shear Modulus (GPa) = 26.07508 33.13057 29.60283
#
# Velocity S-wave (km/s) = 3.41099 3.84488 3.63442
# Velocity P-wave (km/s) = 4.93946 5.53678 5.24663
#
# Compressibility (1/GPa) = 0.05021952
#
# Stress axis : x y z
#
# Youngs Moduli (GPa) = 66.04151 79.04129 46.60565
#
# Poissons Ratio (x) = 0.16827 -0.22498
# Poissons Ratio (y) = 0.14059 0.10317
# Poissons Ratio (z) = -0.31880 0.17498
#
# Static dielectric constant tensor:
#      x y z
#    x 1.968290 -0.065300 0.058040 
#    y -0.065300 1.846610 -0.035740 
#    z 0.058040 -0.035740 1.876610 
# 
# From -- ./inp_files/321354.got.cif
#   From: 2010.05.17/outbox.cif.g08.bks.cpg/sg2_161_cif.got.tgz:321354.got - 2010.06.03 11:33:40.
