data_PCOD9076389
_publ_section_title
;
Structure prediction by ZEFSAII (Michael W. Deem and Ramdas Pophale) SiO2 
 PCOD9076389
Probable space group: P -1
;
_chemical_formula_sum "Si O2"
_cell_formula_units_Z 14
_cell_length_a 10.249529
_cell_length_b 12.484569
_cell_length_c 13.123119
_cell_angle_alpha 131.871161
_cell_angle_beta 130.411499
_cell_angle_gamma 38.140805
_cell_volume 743.988414
_symmetry_space_group_name_H-M "P -1"
_symmetry_group_IT_number 2
_symmetry_cell_setting 'triclinic'
loop_
_space_group_symop_operation_xyz
x,y,z
-x,-y,-z
loop_
_atom_site_type_symbol
_atom_site_label
_atom_site_fract_x
_atom_site_fract_y
_atom_site_fract_z
Si Si1 0.832934 0.509369 0.501528
Si Si2 0.495984 0.834739 0.415903
Si Si3 0.674507 0.270636 0.209682
Si Si4 0.919385 0.119952 0.806012
Si Si5 0.264079 0.690823 0.964731
Si Si6 0.175642 0.431514 0.765041
Si Si7 0.197044 0.486213 0.043874
O O1 0.623233 0.719548 0.508971
O O2 0.754434 0.388166 0.359896
O O3 0.000000 0.500000 0.500000
O O4 0.969334 0.444153 0.633715
O O5 0.255613 0.894910 0.342272
O O6 0.625428 0.702538 0.298470
O O7 0.500000 0.000000 0.500000
O O8 0.704969 0.255709 0.093804
O O9 0.416030 0.374385 0.152993
O O10 0.837569 0.065540 0.205914
O O11 0.873308 0.309562 0.874652
O O12 0.846888 0.151764 0.908096
O O13 0.111796 0.630478 0.837837
O O14 0.500000 0.500000 0.000000
O O15 0.234521 0.399633 0.894021
O O16 0.000000 0.500000 0.000000
#
# Coordination Sequence:
#
# PCOD9076389 Si02
#       7
#     2   2   2   2   2   2   2
#     4  10  18  33  55  85 123 148 174 231 298 362
#     4  11  19  32  57  91 127 150 177 228 308 370
#     4  12  20  36  60  85 119 149 190 243 295 355
#     4  11  21  34  59  88 113 153 195 237 299 348
#     4  11  16  33  55  85 123 149 177 237 305 360
#     4  10  19  35  55  86 120 150 193 233 290 352
#     4  11  24  44  62  77 115 163 207 251 275 320
#
# _framework density 18.817499000000002
#
# number of rings (size 3 to 8) (size 9 to 14) (size 15 to 20)
#    0.000    1.143    8.571    2.143    0.000    0.571 
#    2.571    0.714    0.000    1.714    0.000    0.000 
#    0.000    0.000    0.000    0.000    0.000    0.000 
#
# Total GULP energy -77959.467402 kJ/mol
# GULP energy per Si atom -5568.533386 kJ/mol
# Density = 1.877467 g / cm^3
# Si number density = 18.817499 Si / 1000 Ang^3
#
#
#
# Elastic Constant Matrix: (Units=GPa)
#
#
# Indices 1 2 3 4 5 6 
#
# 1 45.6071 9.9605 18.9851 -14.0753 21.1369 -14.5669
# 2 9.9605 121.5956 47.0907 -18.5549 21.5584 -8.4068
# 3 18.9851 47.0907 97.0703 -21.6472 30.1902 -7.3284
# 4 -14.0753 -18.5549 -21.6472 25.0720 -6.5831 9.3479
# 5 21.1369 21.5584 30.1902 -6.5831 25.6382 -6.5724
# 6 -14.5669 -8.4068 -7.3284 9.3479 -6.5724 15.7861
#
#
#
# Elastic Compliance Matrix: (Units=1/GPa)
#
#
# Indices 1 2 3 4 5 6 
#
# 1 0.052173 0.005464 0.007080 0.018441 -0.044867 0.024740
# 2 0.005464 0.011377 -0.002084 0.006294 -0.009356 0.002510
# 3 0.007080 -0.002084 0.021255 0.015726 -0.026356 -0.004995
# 4 0.018441 0.006294 0.015726 0.070860 -0.027408 -0.025702
# 5 -0.044867 -0.009356 -0.026356 -0.027408 0.108581 0.002817
# 6 0.024740 0.002510 -0.004995 -0.025702 0.002817 0.101586
#
#
# Mechanical properties :
#
#
# Convention : Reuss Voigt Hill
#
# Bulk Modulus (GPa) = 9.45871 46.26061 27.85966
# Shear Modulus (GPa) = 13.15254 25.84838 19.50046
#
# Velocity S-wave (km/s) = 2.64664 3.71028 3.22264
# Velocity P-wave (km/s) = 3.79171 6.55684 5.35580
#
# Compressibility (1/GPa) = 0.10572265
#
# Stress axis : x y z
#
# Youngs Moduli (GPa) = 19.16704 87.90025 47.04746
#
# Poissons Ratio (x) = -0.48025 -0.33309
# Poissons Ratio (y) = -0.10472 0.09807
# Poissons Ratio (z) = -0.13570 0.18322
#
# Static dielectric constant tensor:
#      x y z
#    x 1.660090 -0.029310 0.004750 
#    y -0.029310 1.760930 -0.043790 
#    z 0.004750 -0.043790 1.747850 
# 
# From -- ./inp_files/387489.got.cif
#   From: 2010.05.17/outbox.cif.g08.bks.cpg/sg2_194_cif.got.tgz:387489.got - 2010.06.03 11:33:40.
