data_PCOD9076524
_publ_section_title
;
Structure prediction by ZEFSAII (Michael W. Deem and Ramdas Pophale) SiO2 
 PCOD9076524
Probable space group: P -1
;
_chemical_formula_sum "Si O2"
_cell_formula_units_Z 14
_cell_length_a 12.583269
_cell_length_b 10.277199
_cell_length_c 14.747568
_cell_angle_alpha 51.173349
_cell_angle_beta 28.436676
_cell_angle_gamma 55.549856
_cell_volume 706.974304
_symmetry_space_group_name_H-M "P -1"
_symmetry_group_IT_number 2
_symmetry_cell_setting 'triclinic'
loop_
_space_group_symop_operation_xyz
x,y,z
-x,-y,-z
loop_
_atom_site_type_symbol
_atom_site_label
_atom_site_fract_x
_atom_site_fract_y
_atom_site_fract_z
Si Si1 0.509671 0.770256 0.157451
Si Si2 0.098119 0.262475 0.817355
Si Si3 0.199342 0.937066 0.004934
Si Si4 0.664604 0.042778 0.616017
Si Si5 0.554996 0.165148 0.444195
Si Si6 0.143278 0.938722 0.252088
Si Si7 0.846551 0.460413 0.046798
O O1 0.407024 0.829509 0.305690
O O2 0.646166 0.596369 0.132552
O O3 0.303541 0.789226 0.234748
O O4 0.699120 0.901519 0.930698
O O5 0.322736 0.268069 0.588466
O O6 0.158027 0.123169 0.911786
O O7 0.910365 0.186009 0.928748
O O8 0.013469 0.436566 0.847438
O O9 0.466191 0.911637 0.825368
O O10 0.093623 0.921839 0.189942
O O11 0.644366 0.121082 0.496782
O O12 0.915617 0.967824 0.465880
O O13 0.734213 0.281228 0.214866
O O14 0.500000 0.000000 0.500000
O O15 0.000000 0.500000 0.000000
#
# Coordination Sequence:
#
# PCOD9076524 Si02
#       7
#     2   2   2   2   2   2   2
#     4  10  23  35  52  83 113 148 190 230 277 335
#     4  10  20  35  56  84 115 143 179 231 284 330
#     4   9  18  34  58  84 105 142 193 228 270 336
#     4  10  18  33  57  81 108 145 188 232 278 329
#     4  11  22  36  60  87 112 148 187 227 285 340
#     4  10  19  37  57  77 111 151 190 231 277 329
#     4  12  23  37  56  86 120 144 181 236 282 331
#
# _framework density 19.802699
#
# number of rings (size 3 to 8) (size 9 to 14) (size 15 to 20)
#    0.000    1.714    0.000    8.143    0.000    3.429 
#    0.000    0.714    0.000    6.000    0.000    0.000 
#    0.000    0.000    0.000    0.000    0.000    0.000 
#
# Total GULP energy -78137.055735 kJ/mol
# GULP energy per Si atom -5581.218267 kJ/mol
# Density = 1.975763 g / cm^3
# Si number density = 19.802699 Si / 1000 Ang^3
#
#
#
# Elastic Constant Matrix: (Units=GPa)
#
#
# Indices 1 2 3 4 5 6 
#
# 1 76.5973 24.9352 24.0052 14.4077 -12.4497 6.9557
# 2 24.9352 66.7679 48.1379 27.7061 -21.3904 -2.1338
# 3 24.0052 48.1379 106.9352 39.5333 -13.2862 1.8146
# 4 14.4077 27.7061 39.5333 39.6144 -3.2532 -0.2076
# 5 -12.4497 -21.3904 -13.2862 -3.2532 18.4462 2.6056
# 6 6.9557 -2.1338 1.8146 -0.2076 2.6056 19.0651
#
#
#
# Elastic Compliance Matrix: (Units=1/GPa)
#
#
# Indices 1 2 3 4 5 6 
#
# 1 0.016636 -0.001543 -0.000245 -0.003976 0.009631 -0.007578
# 2 -0.001543 0.039059 -0.006196 -0.017561 0.036645 0.000325
# 3 -0.000245 -0.006196 0.017310 -0.012596 0.003297 -0.002840
# 4 -0.003976 -0.017561 -0.012596 0.049594 -0.024010 0.004506
# 5 0.009631 0.036645 0.003297 -0.024010 0.103340 -0.014111
# 6 -0.007578 0.000325 -0.002840 0.004506 -0.014111 0.057501
#
#
# Mechanical properties :
#
#
# Convention : Reuss Voigt Hill
#
# Bulk Modulus (GPa) = 17.53273 49.38409 33.45841
# Shear Modulus (GPa) = 15.70247 25.63993 20.67120
#
# Velocity S-wave (km/s) = 2.81898 3.60219 3.23438
# Velocity P-wave (km/s) = 4.41231 6.50333 5.55706
#
# Compressibility (1/GPa) = 0.05703618
#
# Stress axis : x y z
#
# Youngs Moduli (GPa) = 60.11140 25.60241 57.76871
#
# Poissons Ratio (x) = 0.03951 0.01414
# Poissons Ratio (y) = 0.09277 0.35796
# Poissons Ratio (z) = 0.01471 0.15864
#
# Static dielectric constant tensor:
#      x y z
#    x 1.709660 -0.017520 0.013490 
#    y -0.017520 1.696760 0.012860 
#    z 0.013490 0.012860 1.776820 
# 
# From -- ./inp_files/267726.got.cif
#   From: 2010.05.17/outbox.cif.g08.bks.cpg/sg2_134_cif.got.tgz:267726.got - 2010.06.03 11:33:40.
