data_PCOD9076914
_publ_section_title
;
Structure prediction by ZEFSAII (Michael W. Deem and Ramdas Pophale) SiO2 
 PCOD9076914
Probable space group: P -1
;
_chemical_formula_sum "Si O2"
_cell_formula_units_Z 16
_cell_length_a 13.264575
_cell_length_b 9.108007
_cell_length_c 17.429696
_cell_angle_alpha 55.508884
_cell_angle_beta 34.007347
_cell_angle_gamma 77.011601
_cell_volume 822.699448
_symmetry_space_group_name_H-M "P -1"
_symmetry_group_IT_number 2
_symmetry_cell_setting 'triclinic'
loop_
_space_group_symop_operation_xyz
x,y,z
-x,-y,-z
loop_
_atom_site_type_symbol
_atom_site_label
_atom_site_fract_x
_atom_site_fract_y
_atom_site_fract_z
Si Si1 0.541111 0.581789 0.864431
Si Si2 0.540797 0.091019 0.824428
Si Si3 0.326161 0.984809 0.385949
Si Si4 0.195122 0.977754 0.201204
Si Si5 0.070164 0.324238 0.204193
Si Si6 0.758117 0.557987 0.592345
Si Si7 0.385004 0.144618 0.474393
Si Si8 0.164132 0.698994 0.788011
O O1 0.700031 0.829341 0.684010
O O2 0.635631 0.491404 0.771352
O O3 0.500000 0.500000 0.000000
O O4 0.306794 0.521167 0.003699
O O5 0.652793 0.992319 0.832182
O O6 0.695177 0.342517 0.656297
O O7 0.517705 0.025273 0.769883
O O8 0.328145 0.026207 0.024598
O O9 0.398755 0.050491 0.409740
O O10 0.095917 0.770052 0.593399
O O11 0.004046 0.735044 0.394920
O O12 0.106698 0.132755 0.217831
O O13 0.941691 0.365722 0.209515
O O14 0.671088 0.683592 0.562981
O O15 0.603192 0.252784 0.351981
O O16 0.210224 0.937848 0.693160
O O17 0.000000 0.500000 0.000000
#
# Coordination Sequence:
#
# PCOD9076914 Si02
#       8
#     2   2   2   2   2   2   2   2
#     4  11  22  33  59  88 116 154 200 239 283 341
#     4  11  25  36  59  84 123 161 197 232 291 350
#     4  10  22  39  56  87 120 151 190 257 279 344
#     4  11  22  39  56  86 117 160 203 233 282 354
#     4  11  21  39  63  88 116 154 201 237 301 342
#     4  11  21  40  57  84 122 158 193 241 288 354
#     4   9  20  37  60  91 112 143 199 247 296 339
#     4  10  18  33  64  92 107 143 194 256 289 346
#
# _framework density 19.448170999999999
#
# number of rings (size 3 to 8) (size 9 to 14) (size 15 to 20)
#    0.000    1.500    5.000    2.625    3.500    2.000 
#    0.000    0.000    0.000    7.500    0.000    0.000 
#    0.000    0.000    0.000    0.000    0.000    0.000 
#
# Total GULP energy -89124.165972 kJ/mol
# GULP energy per Si atom -5570.260373 kJ/mol
# Density = 1.940391 g / cm^3
# Si number density = 19.448171 Si / 1000 Ang^3
#
#
#
# Elastic Constant Matrix: (Units=GPa)
#
#
# Indices 1 2 3 4 5 6 
#
# 1 71.3872 17.0115 28.0265 5.1785 5.7694 -9.0141
# 2 17.0115 60.6391 14.1988 1.5139 17.2676 4.3944
# 3 28.0265 14.1988 119.4009 -8.3140 12.8943 2.8200
# 4 5.1785 1.5139 -8.3140 30.9154 -5.8405 5.8770
# 5 5.7694 17.2676 12.8943 -5.8405 31.2014 -2.6923
# 6 -9.0141 4.3944 2.8200 5.8770 -2.6923 18.1744
#
#
#
# Elastic Compliance Matrix: (Units=1/GPa)
#
#
# Indices 1 2 3 4 5 6 
#
# 1 0.019383 -0.005576 -0.004843 -0.006677 0.001469 0.014090
# 2 -0.005576 0.022242 0.000186 -0.000565 -0.012307 -0.009813
# 3 -0.004843 0.000186 0.010255 0.004065 -0.003187 -0.005825
# 4 -0.006677 -0.000565 0.004065 0.038609 0.005762 -0.015437
# 5 0.001469 -0.012307 -0.003187 0.005762 0.041720 0.008516
# 6 0.014090 -0.009813 -0.005825 -0.015437 0.008516 0.071541
#
#
# Mechanical properties :
#
#
# Convention : Reuss Voigt Hill
#
# Bulk Modulus (GPa) = 31.83535 41.10008 36.46772
# Shear Modulus (GPa) = 21.30496 28.87093 25.08795
#
# Velocity S-wave (km/s) = 3.31339 3.85711 3.59554
# Velocity P-wave (km/s) = 5.57162 6.40433 6.00243
#
# Compressibility (1/GPa) = 0.03141162
#
# Stress axis : x y z
#
# Youngs Moduli (GPa) = 51.59127 44.96041 97.51716
#
# Poissons Ratio (x) = 0.25072 0.47227
# Poissons Ratio (y) = 0.28770 -0.01809
# Poissons Ratio (z) = 0.24986 -0.00834
#
# Static dielectric constant tensor:
#      x y z
#    x 1.729330 0.022660 0.011650 
#    y 0.022660 1.699040 -0.012660 
#    z 0.011650 -0.012660 1.729000 
# 
# From -- ./inp_files/297403.got.cif
#   From: 2010.05.17/outbox.cif.g08.bks.cpg/sg2_149_cif.got.tgz:297403.got - 2010.06.03 11:33:40.
