data_PCOD9076228
_publ_section_title
;
Structure prediction by ZEFSAII (Michael W. Deem and Ramdas Pophale) SiO2 
 PCOD9076228
Probable space group: P -1
;
_chemical_formula_sum "Si O2"
_cell_formula_units_Z 16
_cell_length_a 9.305842
_cell_length_b 11.751587
_cell_length_c 9.165864
_cell_angle_alpha 72.000469
_cell_angle_beta 99.402846
_cell_angle_gamma 108.668983
_cell_volume 900.833874
_symmetry_space_group_name_H-M "P -1"
_symmetry_group_IT_number 2
_symmetry_cell_setting 'triclinic'
loop_
_space_group_symop_operation_xyz
x,y,z
-x,-y,-z
loop_
_atom_site_type_symbol
_atom_site_label
_atom_site_fract_x
_atom_site_fract_y
_atom_site_fract_z
Si Si1 0.654078 0.039513 0.921570
Si Si2 0.951808 0.370450 0.848751
Si Si3 0.651985 0.298236 0.678170
Si Si4 0.560996 0.332864 0.322342
Si Si5 0.701003 0.800087 0.864177
Si Si6 0.023655 0.877843 0.976847
Si Si7 0.511744 0.596906 0.140615
Si Si8 0.223338 0.594452 0.910943
O O1 0.655479 0.159975 0.778258
O O2 0.671232 0.926210 0.869940
O O3 0.796766 0.078231 0.042173
O O4 0.500000 0.000000 0.000000
O O5 0.823285 0.384337 0.709934
O O6 0.100463 0.484830 0.850151
O O7 0.993304 0.242823 0.874856
O O8 0.867591 0.355058 0.999814
O O9 0.605514 0.308788 0.501195
O O10 0.535329 0.336584 0.753008
O O11 0.396386 0.249186 0.275990
O O12 0.561992 0.477212 0.244693
O O13 0.681402 0.311739 0.231297
O O14 0.882318 0.827949 0.864081
O O15 0.632278 0.695308 0.019647
O O16 0.000000 0.000000 0.000000
O O17 0.354613 0.553439 0.037497
#
# Coordination Sequence:
#
# PCOD9076228 Si02
#       8
#     2   2   2   2   2   2   2   2
#     4  10  19  36  58  77  98 136 182 216 254 307
#     4   9  17  33  52  72 106 133 179 212 253 304
#     4  10  21  33  50  78 104 143 171 213 264 318
#     4  11  21  31  50  79 113 134 171 212 269 310
#     4  10  19  34  57  78 103 135 176 219 252 303
#     4   9  18  30  53  82  96 125 174 222 253 290
#     4  10  18  33  53  75 104 138 178 206 259 312
#     4   9  18  31  52  77  97 140 177 214 249 305
#
# _framework density 17.761322
#
# number of rings (size 3 to 8) (size 9 to 14) (size 15 to 20)
#    0.000    2.250    1.250    3.375    1.750    1.000 
#    0.000    0.000    0.000    0.750    0.000    0.000 
#    0.000    0.000    0.000    0.000    0.000    0.000 
#
# Total GULP energy -89096.880223 kJ/mol
# GULP energy per Si atom -5568.555014 kJ/mol
# Density = 1.772090 g / cm^3
# Si number density = 17.761322 Si / 1000 Ang^3
#
#
#
# Elastic Constant Matrix: (Units=GPa)
#
#
# Indices 1 2 3 4 5 6 
#
# 1 96.4891 32.0692 47.2064 8.2882 18.6210 22.9182
# 2 32.0692 83.2925 32.0296 3.7895 18.0170 9.3168
# 3 47.2064 32.0296 117.9947 19.2269 14.0486 14.5086
# 4 8.2882 3.7895 19.2269 21.8865 3.2353 11.1345
# 5 18.6210 18.0170 14.0486 3.2353 15.5881 6.5851
# 6 22.9182 9.3168 14.5086 11.1345 6.5851 34.8165
#
#
#
# Elastic Compliance Matrix: (Units=1/GPa)
#
#
# Indices 1 2 3 4 5 6 
#
# 1 0.016913 -0.001489 -0.004584 0.003559 -0.011827 -0.007726
# 2 -0.001489 0.016878 -0.002429 0.002246 -0.015908 -0.000234
# 3 -0.004584 -0.002429 0.012503 -0.009495 -0.001788 0.001832
# 4 0.003559 0.002246 -0.009495 0.062056 -0.003493 -0.018172
# 5 -0.011827 -0.015908 -0.001788 -0.003493 0.101215 -0.005240
# 6 -0.007726 -0.000234 0.001832 -0.018172 -0.005240 0.039909
#
#
# Mechanical properties :
#
#
# Convention : Reuss Voigt Hill
#
# Bulk Modulus (GPa) = 34.14087 57.82077 45.98082
# Shear Modulus (GPa) = 18.10003 26.88961 22.49482
#
# Velocity S-wave (km/s) = 3.19575 3.89516 3.56266
# Velocity P-wave (km/s) = 5.73418 7.27012 6.54735
#
# Compressibility (1/GPa) = 0.02929041
#
# Stress axis : x y z
#
# Youngs Moduli (GPa) = 59.12571 59.24813 79.97983
#
# Poissons Ratio (x) = 0.08819 0.36665
# Poissons Ratio (y) = 0.08801 0.19429
# Poissons Ratio (z) = 0.27105 0.14393
#
# Static dielectric constant tensor:
#      x y z
#    x 1.664900 -0.005170 0.016890 
#    y -0.005170 1.646030 0.015570 
#    z 0.016890 0.015570 1.570710 
# 
# From -- ./inp_files/176502.got.cif
#   From: 2010.05.17/outbox.cif.g08.bks.cpg/sg2_89_cif.got.tgz:176502.got - 2010.06.03 11:33:40.
