data_PCOD9076278
_publ_section_title
;
Structure prediction by ZEFSAII (Michael W. Deem and Ramdas Pophale) SiO2 
 PCOD9076278
Probable space group: P -1
;
_chemical_formula_sum "Si O2"
_cell_formula_units_Z 16
_cell_length_a 5.154772
_cell_length_b 20.056056
_cell_length_c 11.777501
_cell_angle_alpha 58.454192
_cell_angle_beta 66.766089
_cell_angle_gamma 95.504400
_cell_volume 879.606802
_symmetry_space_group_name_H-M "P -1"
_symmetry_group_IT_number 2
_symmetry_cell_setting 'triclinic'
loop_
_space_group_symop_operation_xyz
x,y,z
-x,-y,-z
loop_
_atom_site_type_symbol
_atom_site_label
_atom_site_fract_x
_atom_site_fract_y
_atom_site_fract_z
Si Si1 0.836066 0.902495 0.646463
Si Si2 0.449606 0.541135 0.354246
Si Si3 0.394087 0.766750 0.440599
Si Si4 0.256661 0.797935 0.686133
Si Si5 0.962136 0.378641 0.525631
Si Si6 0.477546 0.188994 0.002393
Si Si7 0.052416 0.292112 0.962917
Si Si8 0.062810 0.798232 0.274013
O O1 0.550911 0.856361 0.654390
O O2 0.064919 0.854372 0.638493
O O3 0.713852 0.885807 0.812247
O O4 0.000000 0.000000 0.500000
O O5 0.500000 0.500000 0.500000
O O6 0.235513 0.591240 0.380601
O O7 0.751847 0.610934 0.187695
O O8 0.260307 0.462271 0.376518
O O9 0.350320 0.766150 0.582374
O O10 0.246880 0.671338 0.499045
O O11 0.202638 0.811824 0.364551
O O12 0.751296 0.812325 0.306499
O O13 0.049997 0.725010 0.873025
O O14 0.041623 0.303841 0.634482
O O15 0.256667 0.235207 0.955398
O O16 0.659184 0.162393 0.896599
O O17 0.745978 0.255396 0.973863
#
# Coordination Sequence:
#
# PCOD9076278 Si02
#       8
#     2   2   2   2   2   2   2   2
#     4  10  21  37  62  87 109 135 171 226 278 318
#     4  11  19  31  50  79 113 137 181 241 279 295
#     4  10  20  34  54  77 108 148 191 206 262 325
#     4  10  21  38  58  81 110 147 178 214 260 339
#     4   9  20  29  50  77 103 144 179 226 268 306
#     4  10  18  34  54  82 106 134 180 225 271 314
#     4  10  20  32  52  77 108 140 182 225 269 316
#     4  10  18  33  54  77 104 141 186 226 253 317
#
# _framework density 18.189945000000002
#
# number of rings (size 3 to 8) (size 9 to 14) (size 15 to 20)
#    0.750    1.250    1.250    4.125    1.750    0.000 
#    0.000    0.625    0.000    6.000    0.000    0.000 
#    0.000    0.000    0.000    0.000    0.000    0.000 
#
# Total GULP energy -89149.268618 kJ/mol
# GULP energy per Si atom -5571.829289 kJ/mol
# Density = 1.814854 g / cm^3
# Si number density = 18.189945 Si / 1000 Ang^3
#
#
#
# Elastic Constant Matrix: (Units=GPa)
#
#
# Indices 1 2 3 4 5 6 
#
# 1 91.3306 10.0131 2.6674 -8.2855 -3.7559 2.8681
# 2 10.0131 30.8633 33.2855 7.2794 2.5436 7.3075
# 3 2.6674 33.2855 126.9199 -8.0816 -10.7911 3.7840
# 4 -8.2855 7.2794 -8.0816 30.3300 -0.5124 1.0182
# 5 -3.7559 2.5436 -10.7911 -0.5124 27.0200 2.4411
# 6 2.8681 7.3075 3.7840 1.0182 2.4411 15.2114
#
#
#
# Elastic Compliance Matrix: (Units=1/GPa)
#
#
# Indices 1 2 3 4 5 6 
#
# 1 0.012587 -0.009007 0.002825 0.006411 0.003829 0.000207
# 2 -0.009007 0.068954 -0.019936 -0.023801 -0.014114 -0.022610
# 3 0.002825 -0.019936 0.014197 0.009349 0.007788 0.003637
# 4 0.006411 -0.023801 0.009349 0.042920 0.007331 0.003850
# 5 0.003829 -0.014114 0.007788 0.007331 0.042407 -0.003175
# 6 0.000207 -0.022610 0.003637 0.003850 -0.003175 0.075910
#
#
# Mechanical properties :
#
#
# Convention : Reuss Voigt Hill
#
# Bulk Modulus (GPa) = 22.98748 37.89398 30.44073
# Shear Modulus (GPa) = 15.44593 28.05546 21.75070
#
# Velocity S-wave (km/s) = 2.91717 3.93155 3.46172
# Velocity P-wave (km/s) = 4.90015 6.44105 5.72270
#
# Compressibility (1/GPa) = 0.04350195
#
# Stress axis : x y z
#
# Youngs Moduli (GPa) = 79.44858 14.50248 70.43814
#
# Poissons Ratio (x) = 0.13063 -0.19900
# Poissons Ratio (y) = 0.71561 1.40423
# Poissons Ratio (z) = -0.22446 0.28912
#
# Static dielectric constant tensor:
#      x y z
#    x 1.665280 0.000140 -0.002650 
#    y 0.000140 1.605930 0.011620 
#    z -0.002650 0.011620 1.642650 
# 
# From -- ./inp_files/369830.got.cif
#   From: 2010.05.17/outbox.cif.g08.bks.cpg/sg2_185_cif.got.tgz:369830.got - 2010.06.03 11:33:40.
