data_PCOD9076438
_publ_section_title
;
Structure prediction by ZEFSAII (Michael W. Deem and Ramdas Pophale) SiO2 
 PCOD9076438
Probable space group: P -1
;
_chemical_formula_sum "Si O2"
_cell_formula_units_Z 16
_cell_length_a 10.896160
_cell_length_b 7.348700
_cell_length_c 21.509699
_cell_angle_alpha 139.934030
_cell_angle_beta 120.176737
_cell_angle_gamma 64.843168
_cell_volume 955.845305
_symmetry_space_group_name_H-M "P -1"
_symmetry_group_IT_number 2
_symmetry_cell_setting 'triclinic'
loop_
_space_group_symop_operation_xyz
x,y,z
-x,-y,-z
loop_
_atom_site_type_symbol
_atom_site_label
_atom_site_fract_x
_atom_site_fract_y
_atom_site_fract_z
Si Si1 0.776298 0.527845 0.451971
Si Si2 0.217482 0.136085 0.586252
Si Si3 0.008763 0.075767 0.343859
Si Si4 0.948158 0.158287 0.966510
Si Si5 0.992936 0.808473 0.145343
Si Si6 0.538574 0.256157 0.395282
Si Si7 0.950681 0.344484 0.647518
Si Si8 0.764121 0.932565 0.769069
O O1 0.892756 0.265593 0.403350
O O2 0.633293 0.411429 0.410042
O O3 0.862143 0.138238 0.528513
O O4 0.851665 0.743393 0.573691
O O5 0.242605 0.313413 0.576999
O O6 0.108172 0.318101 0.650889
O O7 0.360675 0.004281 0.619712
O O8 0.042878 0.791467 0.317657
O O9 0.947750 0.007443 0.243310
O O10 0.042420 0.104683 0.912649
O O11 0.799166 0.044143 0.875997
O O12 0.946167 0.495295 0.062455
O O13 0.000000 0.000000 0.000000
O O14 0.165787 0.829039 0.193133
O O15 0.500000 0.500000 0.500000
O O16 0.394515 0.138469 0.302549
O O17 0.866652 0.648583 0.708469
#
# Coordination Sequence:
#
# PCOD9076438 Si02
#       8
#     2   2   2   2   2   2   2   2
#     4  10  22  35  52  82 117 155 188 226 263 342
#     4  10  21  35  52  75 115 153 194 219 261 328
#     4  10  18  34  58  82 111 148 197 231 271 317
#     4   9  19  37  56  86 107 137 189 243 279 322
#     4   9  19  34  56  85 106 140 184 240 276 324
#     4  12  22  37  51  80 124 155 175 224 285 339
#     4  10  18  33  56  80 106 154 192 227 264 319
#     4  10  20  34  56  84 113 142 181 231 286 329
#
# _framework density 16.739111000000001
#
# number of rings (size 3 to 8) (size 9 to 14) (size 15 to 20)
#    0.750    1.250    2.500    2.250    1.750    0.500 
#    4.500    0.000    0.000    0.750    0.000    3.500 
#    0.000    0.000    0.000    0.000    0.000    0.000 
#
# Total GULP energy -89071.674917 kJ/mol
# GULP energy per Si atom -5566.979682 kJ/mol
# Density = 1.670101 g / cm^3
# Si number density = 16.739111 Si / 1000 Ang^3
#
#
#
# Elastic Constant Matrix: (Units=GPa)
#
#
# Indices 1 2 3 4 5 6 
#
# 1 68.3400 34.6333 38.8609 -1.7739 19.5301 -3.0738
# 2 34.6333 95.1506 37.3103 -5.6847 10.9030 1.5286
# 3 38.8609 37.3103 97.8843 -7.9374 13.6684 1.7200
# 4 -1.7739 -5.6847 -7.9374 16.0709 2.2628 0.8288
# 5 19.5301 10.9030 13.6684 2.2628 29.1037 -5.4394
# 6 -3.0738 1.5286 1.7200 0.8288 -5.4394 24.4908
#
#
#
# Elastic Compliance Matrix: (Units=1/GPa)
#
#
# Indices 1 2 3 4 5 6 
#
# 1 0.023838 -0.005107 -0.006072 -0.000704 -0.010928 0.001334
# 2 -0.005107 0.013797 -0.002812 0.003148 -0.000969 -0.001626
# 3 -0.006072 -0.002812 0.014601 0.006043 -0.002648 -0.002405
# 4 -0.000704 0.003148 0.006043 0.067891 -0.009792 -0.005182
# 5 -0.010928 -0.000969 -0.002648 -0.009792 0.045815 0.009382
# 6 0.001334 -0.001626 -0.002405 -0.005182 0.009382 0.043528
#
#
# Mechanical properties :
#
#
# Convention : Reuss Voigt Hill
#
# Bulk Modulus (GPa) = 41.23138 53.66489 47.44813
# Shear Modulus (GPa) = 20.36360 23.97112 22.16736
#
# Velocity S-wave (km/s) = 3.49166 3.78834 3.64302
# Velocity P-wave (km/s) = 6.39850 7.15993 6.78990
#
# Compressibility (1/GPa) = 0.02425337
#
# Stress axis : x y z
#
# Youngs Moduli (GPa) = 41.94924 72.48213 68.48989
#
# Poissons Ratio (x) = 0.37018 0.41587
# Poissons Ratio (y) = 0.21424 0.19259
# Poissons Ratio (z) = 0.25471 0.20382
#
# Static dielectric constant tensor:
#      x y z
#    x 1.577100 0.031440 -0.009520 
#    y 0.031440 1.591520 -0.001060 
#    z -0.009520 -0.001060 1.587870 
# 
# From -- ./inp_files/609423.got.cif
#   From: 2010.05.17/outbox.cif.g08.bks.cpg/sg2_305_cif.got.tgz:609423.got - 2010.06.03 11:33:40.
