data_PCOD9076815
_publ_section_title
;
Structure prediction by ZEFSAII (Michael W. Deem and Ramdas Pophale) SiO2 
 PCOD9076815
Probable space group: P -1
;
_chemical_formula_sum "Si O2"
_cell_formula_units_Z 10
_cell_length_a 12.070044
_cell_length_b 10.022182
_cell_length_c 14.753288
_cell_angle_alpha 58.269201
_cell_angle_beta 21.433202
_cell_angle_gamma 60.710611
_cell_volume 554.672262
_symmetry_space_group_name_H-M "P -1"
_symmetry_group_IT_number 2
_symmetry_cell_setting 'triclinic'
loop_
_space_group_symop_operation_xyz
x,y,z
-x,-y,-z
loop_
_atom_site_type_symbol
_atom_site_label
_atom_site_fract_x
_atom_site_fract_y
_atom_site_fract_z
Si Si1 0.881357 0.967226 0.317928
Si Si2 0.083805 0.391253 0.391091
Si Si3 0.840015 0.056533 0.694960
Si Si4 0.222807 0.677112 0.067322
Si Si5 0.810667 0.138325 0.141668
O O1 0.540608 0.906191 0.586284
O O2 0.960226 0.994587 0.352087
O O3 0.086389 0.823999 0.174942
O O4 0.904786 0.120790 0.180997
O O5 0.094039 0.510021 0.256727
O O6 0.000000 0.500000 0.500000
O O7 0.859030 0.245462 0.607796
O O8 0.421112 0.327146 0.177838
O O9 0.000000 0.000000 0.500000
O O10 0.500000 0.000000 0.000000
O O11 0.153016 0.710285 0.003189
O O12 0.000000 0.000000 0.000000
#
# Coordination Sequence:
#
# PCOD9076815 Si02
#       5
#     2   2   2   2   2
#     4  10  19  36  55  92 117 157 205 251 305 355
#     4  11  21  35  61  86 123 158 208 256 294 361
#     4  12  26  40  60  90 133 167 196 246 314 379
#     4  10  18  33  60  89 118 149 205 265 302 337
#     4   9  18  31  60  86 117 149 204 271 290 346
#
# _framework density 18.028663999999999
#
# number of rings (size 3 to 8) (size 9 to 14) (size 15 to 20)
#    0.000    1.600    4.000    1.200    5.600    0.000 
#    0.000    0.000    0.000    2.400    0.000    0.000 
#    0.000    0.000    0.000    0.000    0.000    0.000 
#
# Total GULP energy -55716.760238 kJ/mol
# GULP energy per Si atom -5571.676024 kJ/mol
# Density = 1.798763 g / cm^3
# Si number density = 18.028664 Si / 1000 Ang^3
#
#
#
# Elastic Constant Matrix: (Units=GPa)
#
#
# Indices 1 2 3 4 5 6 
#
# 1 158.2062 54.5779 37.5893 -10.0076 29.8893 -30.9516
# 2 54.5779 98.7495 62.5204 -14.2569 10.0235 -18.3151
# 3 37.5893 62.5204 119.2115 4.3739 7.9646 -4.0738
# 4 -10.0076 -14.2569 4.3739 49.7078 -10.0003 11.0708
# 5 29.8893 10.0235 7.9646 -10.0003 27.5313 -6.0900
# 6 -30.9516 -18.3151 -4.0738 11.0708 -6.0900 44.2125
#
#
#
# Elastic Compliance Matrix: (Units=1/GPa)
#
#
# Indices 1 2 3 4 5 6 
#
# 1 0.010339 -0.003960 -0.000323 -0.001970 -0.009349 0.004773
# 2 -0.003960 0.019173 -0.009059 0.005271 0.002600 0.003374
# 3 -0.000323 -0.009059 0.013449 -0.003804 -0.002082 -0.002074
# 4 -0.001970 0.005271 -0.003804 0.024397 0.009211 -0.004386
# 5 -0.009349 0.002600 -0.002082 0.009211 0.049211 -0.001188
# 6 0.004773 0.003374 -0.002074 -0.004386 -0.001188 0.028101
#
#
# Mechanical properties :
#
#
# Convention : Reuss Voigt Hill
#
# Bulk Modulus (GPa) = 61.43263 76.17138 68.80201
# Shear Modulus (GPa) = 28.28366 39.05563 33.66964
#
# Velocity S-wave (km/s) = 3.96513 4.65941 4.32622
# Velocity P-wave (km/s) = 7.42374 8.44326 7.94986
#
# Compressibility (1/GPa) = 0.01627799
#
# Stress axis : x y z
#
# Youngs Moduli (GPa) = 96.71803 52.15634 74.35508
#
# Poissons Ratio (x) = 0.20652 0.02405
# Poissons Ratio (y) = 0.38297 0.67355
# Poissons Ratio (z) = 0.03129 0.47246
#
# Static dielectric constant tensor:
#      x y z
#    x 1.678550 -0.044600 0.058520 
#    y -0.044600 1.611530 -0.019260 
#    z 0.058520 -0.019260 1.659690 
# 
# From -- ./inp_files/18632.got.cif
#   From: 2010.05.17/outbox.cif.g08.bks.cpg/sg2_10_cif.got.tgz:18632.got - 2010.06.03 11:33:40.
