data_PCOD9076810
_publ_section_title
;
Structure prediction by ZEFSAII (Michael W. Deem and Ramdas Pophale) SiO2 
 PCOD9076810
Probable space group: P -1
;
_chemical_formula_sum "Si O2"
_cell_formula_units_Z 14
_cell_length_a 13.970440
_cell_length_b 10.738573
_cell_length_c 9.199099
_cell_angle_alpha 92.392767
_cell_angle_beta 30.136110
_cell_angle_gamma 110.514107
_cell_volume 539.494489
_symmetry_space_group_name_H-M "P -1"
_symmetry_group_IT_number 2
_symmetry_cell_setting 'triclinic'
loop_
_space_group_symop_operation_xyz
x,y,z
-x,-y,-z
loop_
_atom_site_type_symbol
_atom_site_label
_atom_site_fract_x
_atom_site_fract_y
_atom_site_fract_z
Si Si1 0.670350 0.290425 0.001308
Si Si2 0.522283 0.405627 0.613359
Si Si3 0.759291 0.883289 0.211843
Si Si4 0.287365 0.393944 0.390194
Si Si5 0.495817 0.787747 0.111172
Si Si6 0.986223 0.530766 0.809675
Si Si7 0.847041 0.089385 0.832020
O O1 0.459238 0.190690 0.392714
O O2 0.563838 0.263134 0.979877
O O3 0.857382 0.473850 0.818920
O O4 0.793451 0.206213 0.852598
O O5 0.292845 0.271965 0.808073
O O6 0.589876 0.564354 0.609093
O O7 0.464616 0.304821 0.829080
O O8 0.767731 0.462876 0.207634
O O9 0.732816 0.975929 0.121229
O O10 0.000000 0.000000 0.000000
O O11 0.104030 0.438741 0.656749
O O12 0.123132 0.215916 0.533473
O O13 0.500000 0.500000 0.000000
O O14 0.219124 0.718049 0.523906
O O15 0.731510 0.967503 0.842233
#
# Coordination Sequence:
#
# PCOD9076810 Si02
#       7
#     2   2   2   2   2   2   2
#     4  10  20  35  58  88 116 148 195 244 287 337
#     4   9  20  39  60  83 117 159 193 230 288 354
#     4  10  22  39  59  82 113 155 198 236 287 351
#     4  10  20  35  57  84 114 149 189 237 290 338
#     4  10  18  33  60  88 112 146 192 242 282 334
#     4   9  19  37  58  84 117 157 194 230 284 353
#     4  10  22  38  56  83 117 152 190 241 293 343
#
# _framework density 25.950219000000001
#
# number of rings (size 3 to 8) (size 9 to 14) (size 15 to 20)
#    0.000    2.286    0.000    3.000    0.000    6.857 
#    0.000    7.143    0.000    0.000    0.000    0.000 
#    0.000    0.000    0.000    0.000    0.000    0.000 
#
# Total GULP energy -77986.551701 kJ/mol
# GULP energy per Si atom -5570.467979 kJ/mol
# Density = 2.589115 g / cm^3
# Si number density = 25.950219 Si / 1000 Ang^3
#
#
#
# Elastic Constant Matrix: (Units=GPa)
#
#
# Indices 1 2 3 4 5 6 
#
# 1 174.8155 65.1058 21.1747 -7.1198 12.2323 33.0855
# 2 65.1058 133.1534 47.2780 -24.3399 -13.5363 66.9258
# 3 21.1747 47.2780 86.2295 -12.3677 13.6879 18.7187
# 4 -7.1198 -24.3399 -12.3677 41.3200 16.3107 -13.6959
# 5 12.2323 -13.5363 13.6879 16.3107 54.7354 -2.6761
# 6 33.0855 66.9258 18.7187 -13.6959 -2.6761 69.4658
#
#
#
# Elastic Compliance Matrix: (Units=1/GPa)
#
#
# Indices 1 2 3 4 5 6 
#
# 1 0.007407 -0.004490 0.001088 0.000337 -0.003116 0.000451
# 2 -0.004490 0.021620 -0.008247 0.001363 0.007228 -0.015922
# 3 0.001088 -0.008247 0.016991 0.004617 -0.007738 0.003461
# 4 0.000337 0.001363 0.004617 0.031464 -0.010117 0.003096
# 5 -0.003116 0.007228 -0.007738 -0.010117 0.025488 -0.004407
# 6 0.000451 -0.015922 0.003461 0.003096 -0.004407 0.029028
#
#
# Mechanical properties :
#
#
# Convention : Reuss Voigt Hill
#
# Bulk Modulus (GPa) = 44.01434 73.47950 58.74692
# Shear Modulus (GPa) = 30.69927 50.48021 40.58974
#
# Velocity S-wave (km/s) = 3.44322 4.41531 3.95921
# Velocity P-wave (km/s) = 5.72761 7.37362 6.60211
#
# Compressibility (1/GPa) = 0.02271987
#
# Stress axis : x y z
#
# Youngs Moduli (GPa) = 135.00566 46.25283 58.85572
#
# Poissons Ratio (x) = 0.20767 -0.06403
# Poissons Ratio (y) = 0.60617 0.48538
# Poissons Ratio (z) = -0.14686 0.38145
#
# Static dielectric constant tensor:
#      x y z
#    x 2.133170 -0.002110 -0.073060 
#    y -0.002110 2.261130 -0.049610 
#    z -0.073060 -0.049610 2.055080 
# 
# From -- ./inp_files/313253.got.cif
#   From: 2010.05.17/outbox.cif.g08.bks.cpg/sg2_157_cif.got.tgz:313253.got - 2010.06.03 11:33:40.
