data_PCOD9076897
_publ_section_title
;
Structure prediction by ZEFSAII (Michael W. Deem and Ramdas Pophale) SiO2 
 PCOD9076897
Probable space group: P -1
;
_chemical_formula_sum "Si O2"
_cell_formula_units_Z 16
_cell_length_a 14.592469
_cell_length_b 12.760144
_cell_length_c 9.019611
_cell_angle_alpha 102.818102
_cell_angle_beta 132.454546
_cell_angle_gamma 40.515923
_cell_volume 639.300521
_symmetry_space_group_name_H-M "P -1"
_symmetry_group_IT_number 2
_symmetry_cell_setting 'triclinic'
loop_
_space_group_symop_operation_xyz
x,y,z
-x,-y,-z
loop_
_atom_site_type_symbol
_atom_site_label
_atom_site_fract_x
_atom_site_fract_y
_atom_site_fract_z
Si Si1 0.441563 0.334311 0.863111
Si Si2 0.109505 0.402621 0.374556
Si Si3 0.066364 0.949365 0.377240
Si Si4 0.919080 0.843632 0.227366
Si Si5 0.614359 0.330770 0.807630
Si Si6 0.768677 0.800561 0.280263
Si Si7 0.229431 0.454141 0.283520
Si Si8 0.412730 0.405117 0.188555
O O1 0.260541 0.390438 0.605517
O O2 0.471244 0.422891 0.834108
O O3 0.368557 0.416663 0.972464
O O4 0.679693 0.088108 0.029430
O O5 0.190940 0.243118 0.513896
O O6 0.194019 0.361230 0.285248
O O7 0.863180 0.626572 0.239592
O O8 0.311015 0.825774 0.570094
O O9 0.109285 0.790407 0.366515
O O10 0.000000 0.000000 0.500000
O O11 0.875975 0.118064 0.095757
O O12 0.896727 0.811483 0.357086
O O13 0.997449 0.686523 0.162797
O O14 0.471902 0.341484 0.563566
O O15 0.620958 0.442279 0.775157
O O16 0.500000 0.000000 0.000000
O O17 0.247879 0.455198 0.128567
#
# Coordination Sequence:
#
# PCOD9076897 Si02
#       8
#     2   2   2   2   2   2   2   2
#     4  10  20  36  58  83 112 150 192 235 271 339
#     4   9  20  37  56  89 111 141 192 240 283 335
#     4  11  22  35  56  87 117 151 192 238 272 334
#     4  10  19  35  57  84 112 145 191 235 277 330
#     4  10  21  35  53  78 113 158 193 227 273 327
#     4  10  18  33  63  88 104 142 195 243 277 330
#     4  10  22  37  56  83 121 151 188 238 285 340
#     4  12  22  38  56  84 120 158 188 227 289 340
#
# _framework density 25.027350999999999
#
# number of rings (size 3 to 8) (size 9 to 14) (size 15 to 20)
#    0.000    1.750    5.000    0.750    0.000    0.500 
#    4.500    0.000    0.000    7.500    0.000    0.000 
#    0.000    0.000    0.000    0.000    0.000    0.000 
#
# Total GULP energy -89124.078357 kJ/mol
# GULP energy per Si atom -5570.254897 kJ/mol
# Density = 2.497039 g / cm^3
# Si number density = 25.027351 Si / 1000 Ang^3
#
#
#
# Elastic Constant Matrix: (Units=GPa)
#
#
# Indices 1 2 3 4 5 6 
#
# 1 143.8112 24.8042 -1.8397 -10.2570 -21.9733 -30.8404
# 2 24.8042 38.0759 18.5168 -3.5887 -17.3662 -4.9996
# 3 -1.8397 18.5168 70.2727 -24.9909 -19.0622 1.6219
# 4 -10.2570 -3.5887 -24.9909 38.6212 -1.8157 -3.3417
# 5 -21.9733 -17.3662 -19.0622 -1.8157 36.9582 13.3186
# 6 -30.8404 -4.9996 1.6219 -3.3417 13.3186 30.9822
#
#
#
# Elastic Compliance Matrix: (Units=1/GPa)
#
#
# Indices 1 2 3 4 5 6 
#
# 1 0.010965 -0.006291 0.004871 0.006405 0.003154 0.008980
# 2 -0.006291 0.038821 -0.008191 -0.003240 0.011937 -0.005049
# 3 0.004871 -0.008191 0.027218 0.018645 0.014814 -0.002255
# 4 0.006405 -0.003240 0.018645 0.040278 0.012494 0.003850
# 5 0.003154 0.011937 0.014814 0.012494 0.048237 -0.015098
# 6 0.008980 -0.005049 -0.002255 0.003850 -0.015098 0.047424
#
#
# Mechanical properties :
#
#
# Convention : Reuss Voigt Hill
#
# Bulk Modulus (GPa) = 17.30674 37.23582 27.27128
# Shear Modulus (GPa) = 19.88657 35.35757 27.62207
#
# Velocity S-wave (km/s) = 2.82191 3.76274 3.32577
# Velocity P-wave (km/s) = 4.18900 5.81274 5.06635
#
# Compressibility (1/GPa) = 0.05778095
#
# Stress axis : x y z
#
# Youngs Moduli (GPa) = 91.19669 25.75936 36.74106
#
# Poissons Ratio (x) = 0.16204 -0.17895
# Poissons Ratio (y) = 0.57367 0.30096
# Poissons Ratio (z) = -0.44418 0.21101
#
# Static dielectric constant tensor:
#      x y z
#    x 2.108130 -0.028400 0.015980 
#    y -0.028400 2.010650 -0.001670 
#    z 0.015980 -0.001670 2.192430 
# 
# From -- ./inp_files/208512.got.cif
#   From: 2010.05.17/outbox.cif.g08.bks.cpg/sg2_105_cif.got.tgz:208512.got - 2010.06.03 11:33:40.
