data_PCOD9076541
_publ_section_title
;
Structure prediction by ZEFSAII (Michael W. Deem and Ramdas Pophale) SiO2 
 PCOD9076541
Probable space group: P -1
;
_chemical_formula_sum "Si O2"
_cell_formula_units_Z 9
_cell_length_a 5.448135
_cell_length_b 7.370261
_cell_length_c 15.109067
_cell_angle_alpha 40.363411
_cell_angle_beta 131.224327
_cell_angle_gamma 120.063545
_cell_volume 295.523680
_symmetry_space_group_name_H-M "P -1"
_symmetry_group_IT_number 2
_symmetry_cell_setting 'triclinic'
loop_
_space_group_symop_operation_xyz
x,y,z
-x,-y,-z
loop_
_atom_site_type_symbol
_atom_site_label
_atom_site_fract_x
_atom_site_fract_y
_atom_site_fract_z
Si Si1 0.768355 0.115365 0.243008
Si Si2 0.273640 0.730664 0.552886
Si Si3 0.146790 0.199220 0.806160
Si Si4 0.964776 0.663955 0.022838
Si Si5 0.500000 0.500000 0.500000
O O1 0.400032 0.213836 0.118438
O O2 0.834510 0.969684 0.218924
O O3 0.960888 0.411000 0.186244
O O4 0.908607 0.873520 0.432167
O O5 0.339999 0.493058 0.730539
O O6 0.329334 0.594550 0.521445
O O7 0.500000 0.000000 0.500000
O O8 0.782559 0.318180 0.685612
O O9 0.188584 0.941949 0.980838
O O10 0.000000 0.500000 0.000000
#
# Coordination Sequence:
#
# PCOD9076541 Si02
#       5
#     2   2   2   2   1
#     4   9  18  34  56  85 116 152 194 240 295 347
#     4  11  23  37  58  89 121 154 194 238 290 352
#     4  10  18  33  57  83 112 152 198 239 286 345
#     4   9  17  31  58  85 111 152 199 242 290 346
#     4  10  20  38  60  82 116 156 194 242 292 338
#
# _framework density 30.454409999999999
#
# number of rings (size 3 to 8) (size 9 to 14) (size 15 to 20)
#    0.000    2.222    0.000    5.333    0.000    0.889 
#    0.000    1.111    0.000   18.667    0.000   18.667 
#    0.000    0.000    0.000    0.000    0.000    0.000 
#
# Total GULP energy -50194.955543 kJ/mol
# GULP energy per Si atom -5577.217283 kJ/mol
# Density = 3.038509 g / cm^3
# Si number density = 30.454410 Si / 1000 Ang^3
#
#
#
# Elastic Constant Matrix: (Units=GPa)
#
#
# Indices 1 2 3 4 5 6 
#
# 1 147.1364 44.6730 55.4182 -16.2003 46.5952 -28.5300
# 2 44.6730 128.2685 68.7577 -34.1270 -16.5546 17.3132
# 3 55.4182 68.7577 280.2135 -73.7303 -11.1446 8.9975
# 4 -16.2003 -34.1270 -73.7303 53.0327 22.0962 -31.7772
# 5 46.5952 -16.5546 -11.1446 22.0962 91.6872 -10.3089
# 6 -28.5300 17.3132 8.9975 -31.7772 -10.3089 55.0820
#
#
#
# Elastic Compliance Matrix: (Units=1/GPa)
#
#
# Indices 1 2 3 4 5 6 
#
# 1 0.020787 -0.007050 0.003970 0.029730 -0.015530 0.026579
# 2 -0.007050 0.012062 -0.002673 -0.006257 0.005873 -0.009516
# 3 0.003970 -0.002673 0.008226 0.020471 -0.005037 0.012420
# 4 0.029730 -0.006257 0.020471 0.107685 -0.031809 0.070192
# 5 -0.015530 0.005873 -0.005037 -0.031809 0.024343 -0.022863
# 6 0.026579 -0.009516 0.012420 0.070192 -0.022863 0.069099
#
#
# Mechanical properties :
#
#
# Convention : Reuss Voigt Hill
#
# Bulk Modulus (GPa) = 33.81699 99.25736 66.53718
# Shear Modulus (GPa) = 18.97084 65.74500 42.35792
#
# Velocity S-wave (km/s) = 2.49856 4.65133 3.73347
# Velocity P-wave (km/s) = 4.41044 7.84279 6.36244
#
# Compressibility (1/GPa) = 0.02957093
#
# Stress axis : x y z
#
# Youngs Moduli (GPa) = 48.10802 82.90550 121.55905
#
# Poissons Ratio (x) = 0.58446 -0.48262
# Poissons Ratio (y) = 0.33915 0.32487
# Poissons Ratio (z) = -0.19100 0.22157
#
# Static dielectric constant tensor:
#      x y z
#    x 2.182280 -0.004180 0.028260 
#    y -0.004180 2.924760 0.334960 
#    z 0.028260 0.334960 2.384420 
# 
# From -- ./inp_files/20025.got.cif
#   From: 2010.05.17/outbox.cif.g08.bks.cpg/sg2_11_cif.got.tgz:20025.got - 2010.06.03 11:33:40.
