data_PCOD9076947
_publ_section_title
;
Structure prediction by ZEFSAII (Michael W. Deem and Ramdas Pophale) SiO2 
 PCOD9076947
Probable space group: P -1
;
_chemical_formula_sum "Si O2"
_cell_formula_units_Z 16
_cell_length_a 8.804285
_cell_length_b 9.173163
_cell_length_c 12.663124
_cell_angle_alpha 73.044861
_cell_angle_beta 129.110701
_cell_angle_gamma 101.067426
_cell_volume 759.015616
_symmetry_space_group_name_H-M "P -1"
_symmetry_group_IT_number 2
_symmetry_cell_setting 'triclinic'
loop_
_space_group_symop_operation_xyz
x,y,z
-x,-y,-z
loop_
_atom_site_type_symbol
_atom_site_label
_atom_site_fract_x
_atom_site_fract_y
_atom_site_fract_z
Si Si1 0.747207 0.153371 0.603739
Si Si2 0.374920 0.785732 0.689517
Si Si3 0.089934 0.388944 0.652635
Si Si4 0.475338 0.442674 0.724702
Si Si5 0.888052 0.341733 0.007716
Si Si6 0.775462 0.854107 0.810759
Si Si7 0.378040 0.341441 0.419230
Si Si8 0.058872 0.660146 0.722030
O O1 0.677040 0.120386 0.459348
O O2 0.559131 0.237209 0.552849
O O3 0.931342 0.263546 0.641232
O O4 0.800081 0.013018 0.728982
O O5 0.413494 0.606245 0.715420
O O6 0.586729 0.848644 0.805744
O O7 0.187380 0.777980 0.684424
O O8 0.291173 0.337848 0.697864
O O9 0.121769 0.491827 0.748546
O O10 0.000000 0.500000 0.500000
O O11 0.527467 0.499736 0.617240
O O12 0.670103 0.365594 0.867619
O O13 0.888394 0.315002 0.138764
O O14 0.022276 0.211014 0.043156
O O15 0.000000 0.500000 0.000000
O O16 0.708354 0.738381 0.710687
O O17 0.177190 0.341877 0.396959
#
# Coordination Sequence:
#
# PCOD9076947 Si02
#       8
#     2   2   2   2   2   2   2   2
#     4  10  18  34  52  71 113 146 165 205 263 327
#     4   9  16  30  51  80 103 130 173 220 260 304
#     4  11  19  35  52  78 112 138 171 209 257 324
#     4   9  17  32  53  77 101 136 169 218 257 295
#     4  11  18  36  55  80 104 130 182 226 255 298
#     4   9  18  32  54  74 102 147 169 209 272 305
#     4   9  16  31  52  81 101 128 177 219 264 295
#     4  10  20  29  55  88  99 135 174 219 268 289
#
# _framework density 21.079936
#
# number of rings (size 3 to 8) (size 9 to 14) (size 15 to 20)
#    0.000    2.500    7.500    1.500    0.000    2.500 
#    0.000    6.250    0.000    0.750    0.000    0.000 
#    0.000    0.000    0.000    0.000    0.000    0.000 
#
# Total GULP energy -89118.302959 kJ/mol
# GULP energy per Si atom -5569.893935 kJ/mol
# Density = 2.103196 g / cm^3
# Si number density = 21.079936 Si / 1000 Ang^3
#
#
#
# Elastic Constant Matrix: (Units=GPa)
#
#
# Indices 1 2 3 4 5 6 
#
# 1 172.1629 36.1749 58.4635 -7.0038 25.8488 49.3001
# 2 36.1749 28.6735 13.6133 -13.0696 6.1837 25.3303
# 3 58.4635 13.6133 85.6915 -19.2596 36.6162 20.8233
# 4 -7.0038 -13.0696 -19.2596 24.7911 3.5123 -3.0863
# 5 25.8488 6.1837 36.6162 3.5123 36.4979 11.0200
# 6 49.3001 25.3303 20.8233 -3.0863 11.0200 31.2906
#
#
#
# Elastic Compliance Matrix: (Units=1/GPa)
#
#
# Indices 1 2 3 4 5 6 
#
# 1 0.010532 0.103965 0.032928 0.075365 -0.034204 -0.103188
# 2 0.103965 -7.301538 -2.792517 -5.604411 2.657542 6.116560
# 3 0.032928 -2.792517 -1.026320 -2.107081 0.975611 2.340285
# 4 0.075365 -5.604411 -2.107081 -4.227884 1.997933 4.699697
# 5 -0.034204 2.657542 0.975611 1.997933 -0.895031 -2.234408
# 6 -0.103188 6.116560 2.340285 4.699697 -2.234408 -5.063871
#
#
# Mechanical properties :
#
#
# Convention : Reuss Voigt Hill
#
# Bulk Modulus (GPa) = -0.07338 55.89236 27.90949
# Shear Modulus (GPa) = -0.28192 30.40099 15.05954
#
# Velocity S-wave (km/s) = -0.36610 3.80172 2.67573
# Velocity P-wave (km/s) = 0.46215 6.77073 4.77646
#
# Compressibility (1/GPa) = -13.62857455
#
# Stress axis : x y z
#
# Youngs Moduli (GPa) = 94.95178 -0.13696 -0.97436
#
# Poissons Ratio (x) = 0.01424 0.03208
# Poissons Ratio (y) = -9.87166 -2.72090
# Poissons Ratio (z) = -3.12654 -0.38246
#
# Static dielectric constant tensor:
#      x y z
#    x 1.874080 -0.027710 0.011020 
#    y -0.027710 1.849410 0.064930 
#    z 0.011020 0.064930 1.781310 
# 
# From -- ./inp_files/265906.got.cif
#   From: 2010.05.17/outbox.cif.g08.bks.cpg/sg2_133_cif.got.tgz:265906.got - 2010.06.03 11:33:40.
