data_PCOD9076315
_publ_section_title
;
Structure prediction by ZEFSAII (Michael W. Deem and Ramdas Pophale) SiO2 
 PCOD9076315
Probable space group: P -1
;
_chemical_formula_sum "Si O2"
_cell_formula_units_Z 16
_cell_length_a 16.061639
_cell_length_b 22.006243
_cell_length_c 12.468705
_cell_angle_alpha 30.933734
_cell_angle_beta 136.529672
_cell_angle_gamma 158.701988
_cell_volume 756.518671
_symmetry_space_group_name_H-M "P -1"
_symmetry_group_IT_number 2
_symmetry_cell_setting 'triclinic'
loop_
_space_group_symop_operation_xyz
x,y,z
-x,-y,-z
loop_
_atom_site_type_symbol
_atom_site_label
_atom_site_fract_x
_atom_site_fract_y
_atom_site_fract_z
Si Si1 0.102796 0.803888 0.785100
Si Si2 0.651041 0.806709 0.722884
Si Si3 0.673536 0.209955 0.711761
Si Si4 0.805590 0.681652 0.106692
Si Si5 0.754898 0.471173 0.568513
Si Si6 0.584926 0.170324 0.460796
Si Si7 0.804972 0.052700 0.114578
Si Si8 0.863921 0.352817 0.228827
O O1 0.046542 0.811542 0.838453
O O2 0.138849 0.940037 0.528108
O O3 0.378094 0.983019 0.786411
O O4 0.944208 0.555867 0.974319
O O5 0.439677 0.589531 0.766132
O O6 0.527824 0.795105 0.706531
O O7 0.747843 0.771155 0.921363
O O8 0.773311 0.378103 0.642952
O O9 0.744084 0.307590 0.509857
O O10 0.733424 0.126016 0.910584
O O11 0.847235 0.658954 0.296768
O O12 0.027397 0.851493 0.971010
O O13 0.921368 0.563028 0.682625
O O14 0.463528 0.239954 0.676510
O O15 0.735866 0.256166 0.371487
O O16 0.353441 0.882733 0.693038
#
# Coordination Sequence:
#
# PCOD9076315 Si02
#       8
#     2   2   2   2   2   2   2   2
#     4  10  18  34  55  84 116 141 183 236 284 336
#     4  10  22  39  51  82 118 155 191 228 279 333
#     4  10  18  33  54  83 117 138 181 233 293 328
#     4  11  22  36  58  81 117 157 190 232 273 332
#     4  11  20  37  57  90 112 146 188 238 284 337
#     4  10  22  37  55  87 114 151 185 230 295 340
#     4  11  19  33  57  87 116 144 190 236 284 334
#     4  11  21  35  60  88 114 143 186 238 296 339
#
# _framework density 21.149512000000001
#
# number of rings (size 3 to 8) (size 9 to 14) (size 15 to 20)
#    0.000    1.500    6.250    2.250    0.000    3.500 
#    2.250    0.625    0.000    0.750    0.000    0.000 
#    0.000    0.000    0.000    0.000    0.000    0.000 
#
# Total GULP energy -89349.371269 kJ/mol
# GULP energy per Si atom -5584.335704 kJ/mol
# Density = 2.110137 g / cm^3
# Si number density = 21.149512 Si / 1000 Ang^3
#
#
#
# Elastic Constant Matrix: (Units=GPa)
#
#
# Indices 1 2 3 4 5 6 
#
# 1 45.8402 13.8576 28.9013 -3.2571 -8.8850 6.5944
# 2 13.8576 45.8257 37.9457 -10.8308 3.1575 -6.3464
# 3 28.9013 37.9457 111.9183 -9.5046 -0.6412 7.9891
# 4 -3.2571 -10.8308 -9.5046 26.5917 -1.4950 -1.9676
# 5 -8.8850 3.1575 -0.6412 -1.4950 37.1911 -2.8528
# 6 6.5944 -6.3464 7.9891 -1.9676 -2.8528 13.9140
#
#
#
# Elastic Compliance Matrix: (Units=1/GPa)
#
#
# Indices 1 2 3 4 5 6 
#
# 1 0.030296 -0.009091 -0.003793 -0.002100 0.006690 -0.015253
# 2 -0.009091 0.044411 -0.013935 0.014340 -0.003000 0.033979
# 3 -0.003793 -0.013935 0.015480 -0.001661 -0.000581 -0.013801
# 4 -0.002100 0.014340 -0.001661 0.043764 0.001156 0.014916
# 5 0.006690 -0.003000 -0.000581 0.001156 0.028922 0.001888
# 6 -0.015253 0.033979 -0.013801 0.014916 0.001888 0.105018
#
#
# Mechanical properties :
#
#
# Convention : Reuss Voigt Hill
#
# Bulk Modulus (GPa) = 27.35924 40.55482 33.95703
# Shear Modulus (GPa) = 14.98303 23.73133 19.35718
#
# Velocity S-wave (km/s) = 2.66453 3.35337 3.02860
# Velocity P-wave (km/s) = 4.73608 5.84897 5.32170
#
# Compressibility (1/GPa) = 0.03655072
#
# Stress axis : x y z
#
# Youngs Moduli (GPa) = 33.00793 22.51685 64.60034
#
# Poissons Ratio (x) = 0.20469 0.24500
# Poissons Ratio (y) = 0.30006 0.90020
# Poissons Ratio (z) = 0.12518 0.31377
#
# Static dielectric constant tensor:
#      x y z
#    x 1.761630 -0.003290 -0.067960 
#    y -0.003290 1.803600 -0.032700 
#    z -0.067960 -0.032700 1.822860 
# 
# From -- ./inp_files/425949.got.cif
#   From: 2010.05.17/outbox.cif.g08.bks.cpg/sg2_213_cif.got.tgz:425949.got - 2010.06.03 11:33:40.
