data_PCOD9076799
_publ_section_title
;
Structure prediction by ZEFSAII (Michael W. Deem and Ramdas Pophale) SiO2 
 PCOD9076799
Probable space group: P -1
;
_chemical_formula_sum "Si O2"
_cell_formula_units_Z 14
_cell_length_a 18.118551
_cell_length_b 8.691812
_cell_length_c 5.263005
_cell_angle_alpha 69.854206
_cell_angle_beta 96.713459
_cell_angle_gamma 52.152587
_cell_volume 550.941401
_symmetry_space_group_name_H-M "P -1"
_symmetry_group_IT_number 2
_symmetry_cell_setting 'triclinic'
loop_
_space_group_symop_operation_xyz
x,y,z
-x,-y,-z
loop_
_atom_site_type_symbol
_atom_site_label
_atom_site_fract_x
_atom_site_fract_y
_atom_site_fract_z
Si Si1 0.455081 0.474190 0.243516
Si Si2 0.935923 0.766601 0.274870
Si Si3 0.238599 0.370255 0.131553
Si Si4 0.881142 0.751002 0.763929
Si Si5 0.916703 0.205827 0.539552
Si Si6 0.725218 0.381336 0.629185
Si Si7 0.571502 0.790726 0.950075
O O1 0.500000 0.500000 0.500000
O O2 0.332712 0.650904 0.179528
O O3 0.500000 0.500000 0.000000
O O4 0.472977 0.255027 0.273200
O O5 0.882730 0.872810 0.463974
O O6 0.000000 0.500000 0.500000
O O7 0.016543 0.787476 0.240590
O O8 0.855376 0.857664 0.969736
O O9 0.198636 0.270371 0.308311
O O10 0.253272 0.490412 0.269553
O O11 0.151288 0.560597 0.785490
O O12 0.347748 0.199650 0.129324
O O13 0.000000 0.500000 0.000000
O O14 0.836340 0.204792 0.632600
O O15 0.000000 0.000000 0.500000
O O16 0.640788 0.556887 0.279073
O O17 0.500000 0.000000 0.000000
#
# Coordination Sequence:
#
# PCOD9076799 Si02
#       7
#     2   2   2   2   2   2   2
#     4  11  22  44  73  98 135 184 220 283 355 412
#     4  10  19  35  59  83 121 165 208 257 313 368
#     4  10  21  37  65  92 130 176 217 273 337 397
#     4  10  18  33  60  85 118 163 209 251 315 370
#     4  11  23  39  61  94 132 177 224 270 323 400
#     4  10  22  42  69  93 137 175 225 272 351 401
#     4  10  23  43  71 104 131 172 230 285 343 414
#
# _framework density 25.411052000000002
#
# number of rings (size 3 to 8) (size 9 to 14) (size 15 to 20)
#    0.000    1.714    4.286    1.714    2.000    2.857 
#    0.000    2.857    0.000    0.000    0.000    0.000 
#    0.000    0.000    0.000    0.000    0.000    0.000 
#
# Total GULP energy -78120.879051 kJ/mol
# GULP energy per Si atom -5580.062789 kJ/mol
# Density = 2.535322 g / cm^3
# Si number density = 25.411052 Si / 1000 Ang^3
#
#
#
# Elastic Constant Matrix: (Units=GPa)
#
#
# Indices 1 2 3 4 5 6 
#
# 1 223.1463 64.0433 31.6575 22.8143 -9.8689 -22.3409
# 2 64.0433 131.7214 24.4365 30.3063 4.1548 -33.6591
# 3 31.6575 24.4365 115.3186 28.8756 11.7663 -10.7114
# 4 22.8143 30.3063 28.8756 49.9199 2.9111 -6.6955
# 5 -9.8689 4.1548 11.7663 2.9111 49.6470 22.5856
# 6 -22.3409 -33.6591 -10.7114 -6.6955 22.5856 40.5720
#
#
#
# Elastic Compliance Matrix: (Units=1/GPa)
#
#
# Indices 1 2 3 4 5 6 
#
# 1 0.005434 -0.002488 -0.001051 -0.000523 0.001756 -0.000413
# 2 -0.002488 0.013585 0.001263 -0.005551 -0.007826 0.013675
# 3 -0.001051 0.001263 0.011124 -0.005725 -0.005001 0.005245
# 4 -0.000523 -0.005551 -0.005725 0.026486 0.001459 -0.002846
# 5 0.001756 -0.007826 -0.005001 0.001459 0.033814 -0.025429
# 6 -0.000413 0.013675 0.005245 -0.002846 -0.025429 0.050836
#
#
# Mechanical properties :
#
#
# Convention : Reuss Voigt Hill
#
# Bulk Modulus (GPa) = 39.07639 78.94009 59.00824
# Shear Modulus (GPa) = 32.39138 51.36438 41.87788
#
# Velocity S-wave (km/s) = 3.57416 4.50081 4.06398
# Velocity P-wave (km/s) = 5.69596 7.62512 6.73002
#
# Compressibility (1/GPa) = 0.02559090
#
# Stress axis : x y z
#
# Youngs Moduli (GPa) = 184.01709 73.60874 89.89797
#
# Poissons Ratio (x) = 0.18312 0.09450
# Poissons Ratio (y) = 0.45778 -0.11352
# Poissons Ratio (z) = 0.19345 -0.09295
#
# Static dielectric constant tensor:
#      x y z
#    x 1.964530 0.081890 0.090400 
#    y 0.081890 2.007760 -0.098670 
#    z 0.090400 -0.098670 1.938040 
# 
# From -- ./inp_files/105168.got.cif
#   From: 2010.05.17/outbox.cif.g08.bks.cpg/sg2_53_cif.got.tgz:105168.got - 2010.06.03 11:33:40.
