data_PCOD9076821
_publ_section_title
;
Structure prediction by ZEFSAII (Michael W. Deem and Ramdas Pophale) SiO2 
 PCOD9076821
Probable space group: P -1
;
_chemical_formula_sum "Si O2"
_cell_formula_units_Z 14
_cell_length_a 16.258043
_cell_length_b 8.794354
_cell_length_c 11.575271
_cell_angle_alpha 93.319754
_cell_angle_beta 123.213684
_cell_angle_gamma 135.401533
_cell_volume 628.956413
_symmetry_space_group_name_H-M "P -1"
_symmetry_group_IT_number 2
_symmetry_cell_setting 'triclinic'
loop_
_space_group_symop_operation_xyz
x,y,z
-x,-y,-z
loop_
_atom_site_type_symbol
_atom_site_label
_atom_site_fract_x
_atom_site_fract_y
_atom_site_fract_z
Si Si1 0.716927 0.412490 0.103862
Si Si2 0.272663 0.828387 0.425121
Si Si3 0.224104 0.794084 0.009641
Si Si4 0.121429 0.194076 0.438258
Si Si5 0.499796 0.652606 0.934151
Si Si6 0.142761 0.561397 0.558486
Si Si7 0.425150 0.699547 0.499938
O O1 0.522338 0.255054 0.976836
O O2 0.745933 0.359133 0.241805
O O3 0.709598 0.279249 0.992223
O O4 0.921851 0.805730 0.263773
O O5 0.267195 0.808282 0.557733
O O6 0.316540 0.716868 0.409832
O O7 0.470045 0.196500 0.538132
O O8 0.033255 0.550914 0.191952
O O9 0.306033 0.030044 0.987472
O O10 0.364813 0.008505 0.241873
O O11 0.289575 0.374872 0.676104
O O12 0.057013 0.281529 0.421613
O O13 0.249393 0.363406 0.422437
O O14 0.500000 0.500000 0.000000
O O15 0.000000 0.500000 0.500000
#
# Coordination Sequence:
#
# PCOD9076821 Si02
#       7
#     2   2   2   2   2   2   2
#     4  11  22  37  57  92 129 155 191 253 314 364
#     4  10  20  37  66  87 116 161 204 251 302 353
#     4  11  22  38  61  92 120 158 203 256 298 363
#     4   9  21  38  58  85 124 160 191 252 302 358
#     4  10  22  35  55  89 123 158 203 246 304 365
#     4  10  18  33  60  90 111 149 202 236 299 358
#     4   9  21  41  61  89 115 158 217 246 287 363
#
# _framework density 22.259094000000001
#
# number of rings (size 3 to 8) (size 9 to 14) (size 15 to 20)
#    0.000    2.000    1.429    3.429    6.000    0.000 
#    2.571    0.714    0.000    7.714    0.000    0.000 
#    0.000    0.000    0.000    0.000    0.000    0.000 
#
# Total GULP energy -78129.205866 kJ/mol
# GULP energy per Si atom -5580.657562 kJ/mol
# Density = 2.220843 g / cm^3
# Si number density = 22.259094 Si / 1000 Ang^3
#
#
#
# Elastic Constant Matrix: (Units=GPa)
#
#
# Indices 1 2 3 4 5 6 
#
# 1 96.4028 69.1003 17.3811 -10.1144 21.3439 13.4380
# 2 69.1003 164.7866 23.0437 9.1007 -3.3923 16.8370
# 3 17.3811 23.0437 41.9408 0.1115 10.9036 -4.3389
# 4 -10.1144 9.1007 0.1115 30.5196 -4.4208 10.4067
# 5 21.3439 -3.3923 10.9036 -4.4208 34.9148 -4.4709
# 6 13.4380 16.8370 -4.3389 10.4067 -4.4709 44.4093
#
#
#
# Elastic Compliance Matrix: (Units=1/GPa)
#
#
# Indices 1 2 3 4 5 6 
#
# 1 0.022593 -0.009415 -0.001371 0.010789 -0.013870 -0.007325
# 2 -0.009415 0.011001 -0.004030 -0.005411 0.007437 0.000301
# 3 -0.001371 -0.004030 0.029273 -0.002091 -0.008391 0.004448
# 4 0.010789 -0.005411 -0.002091 0.041463 -0.002678 -0.011403
# 5 -0.013870 0.007437 -0.008391 -0.002678 0.040802 0.005293
# 6 -0.007325 0.000301 0.004448 -0.011403 0.005293 0.028260
#
#
# Mechanical properties :
#
#
# Convention : Reuss Voigt Hill
#
# Bulk Modulus (GPa) = 30.08925 58.02006 44.05466
# Shear Modulus (GPa) = 23.35342 34.87575 29.11458
#
# Velocity S-wave (km/s) = 3.24259 3.96259 3.62053
# Velocity P-wave (km/s) = 5.25036 6.85992 6.10839
#
# Compressibility (1/GPa) = 0.03323446
#
# Stress axis : x y z
#
# Youngs Moduli (GPa) = 44.26204 90.89821 34.16156
#
# Poissons Ratio (x) = 0.85581 0.04682
# Poissons Ratio (y) = 0.41673 0.13769
# Poissons Ratio (z) = 0.06066 0.36636
#
# Static dielectric constant tensor:
#      x y z
#    x 1.883220 0.005570 -0.013690 
#    y 0.005570 1.859540 0.044680 
#    z -0.013690 0.044680 1.920620 
# 
# From -- ./inp_files/335587.got.cif
#   From: 2010.05.17/outbox.cif.g08.bks.cpg/sg2_168_cif.got.tgz:335587.got - 2010.06.03 11:33:40.
