data_PCOD9076522
_publ_section_title
;
Structure prediction by ZEFSAII (Michael W. Deem and Ramdas Pophale) SiO2 
 PCOD9076522
Probable space group: P -1
;
_chemical_formula_sum "Si O2"
_cell_formula_units_Z 14
_cell_length_a 12.797572
_cell_length_b 5.252481
_cell_length_c 10.190752
_cell_angle_alpha 127.243461
_cell_angle_beta 79.771932
_cell_angle_gamma 104.231775
_cell_volume 528.214321
_symmetry_space_group_name_H-M "P -1"
_symmetry_group_IT_number 2
_symmetry_cell_setting 'triclinic'
loop_
_space_group_symop_operation_xyz
x,y,z
-x,-y,-z
loop_
_atom_site_type_symbol
_atom_site_label
_atom_site_fract_x
_atom_site_fract_y
_atom_site_fract_z
Si Si1 0.759281 0.451231 0.119102
Si Si2 0.342584 0.263273 0.124298
Si Si3 0.769342 0.475709 0.401935
Si Si4 0.582342 0.807509 0.631451
Si Si5 0.590496 0.815913 0.201258
Si Si6 0.083560 0.616335 0.133755
Si Si7 0.135433 0.390517 0.321080
O O1 0.819927 0.555555 0.272542
O O2 0.643710 0.558416 0.189466
O O3 0.816914 0.547375 0.998708
O O4 0.739683 0.068517 0.992290
O O5 0.412092 0.193637 0.212523
O O6 0.259308 0.481160 0.265762
O O7 0.406688 0.297150 0.985210
O O8 0.699948 0.756173 0.542298
O O9 0.852964 0.437142 0.485918
O O10 0.679720 0.146567 0.305001
O O11 0.500000 0.500000 0.500000
O O12 0.524662 0.111651 0.702960
O O13 0.066905 0.492783 0.247787
O O14 0.103570 0.008437 0.245464
O O15 0.000000 0.500000 0.000000
#
# Coordination Sequence:
#
# PCOD9076522 Si02
#       7
#     2   2   2   2   2   2   2
#     4  10  21  36  58  84 114 157 196 247 303 357
#     4   9  18  35  53  81 117 154 204 238 294 354
#     4   9  21  37  56  84 122 155 198 241 299 355
#     4   9  18  33  52  81 116 160 199 251 285 345
#     4  10  18  33  57  80 115 158 199 248 288 348
#     4  11  23  42  66  91 118 154 201 247 300 366
#     4  10  21  40  64  90 120 159 196 245 301 357
#
# _framework density 26.504393
#
# number of rings (size 3 to 8) (size 9 to 14) (size 15 to 20)
#    0.000    2.286    1.429    0.857    2.000    1.143 
#    0.000    1.429    0.000    0.000    0.000    0.000 
#    0.000    0.000    0.000    0.000    0.000    0.000 
#
# Total GULP energy -78219.438168 kJ/mol
# GULP energy per Si atom -5587.102726 kJ/mol
# Density = 2.644407 g / cm^3
# Si number density = 26.504393 Si / 1000 Ang^3
#
#
#
# Elastic Constant Matrix: (Units=GPa)
#
#
# Indices 1 2 3 4 5 6 
#
# 1 46.2469 14.8377 19.7181 -17.6724 13.2316 -20.4769
# 2 14.8377 100.3767 58.2433 -18.1774 13.6611 -33.4131
# 3 19.7181 58.2433 123.9994 -33.9160 36.9464 -11.5368
# 4 -17.6724 -18.1774 -33.9160 50.7904 -18.7438 19.0568
# 5 13.2316 13.6611 36.9464 -18.7438 40.3452 -6.2214
# 6 -20.4769 -33.4131 -11.5368 19.0568 -6.2214 31.1713
#
#
#
# Elastic Compliance Matrix: (Units=1/GPa)
#
#
# Indices 1 2 3 4 5 6 
#
# 1 0.035769 0.008719 -0.005794 -0.001869 -0.005505 0.030742
# 2 0.008719 0.026067 -0.013368 -0.008853 0.001761 0.034485
# 3 -0.005794 -0.013368 0.018887 0.009378 -0.009405 -0.018755
# 4 -0.001869 -0.008853 0.009378 0.034945 0.007063 -0.027201
# 5 -0.005505 0.001761 -0.009405 0.007063 0.037576 -0.002028
# 6 0.030742 0.034485 -0.018755 -0.027201 -0.002028 0.098524
#
#
# Mechanical properties :
#
#
# Convention : Reuss Voigt Hill
#
# Bulk Modulus (GPa) = 16.71217 50.69124 33.70171
# Shear Modulus (GPa) = 17.08824 36.31629 26.70227
#
# Velocity S-wave (km/s) = 2.54191 3.70564 3.17750
# Velocity P-wave (km/s) = 3.86448 6.12177 5.11910
#
# Compressibility (1/GPa) = 0.05983664
#
# Stress axis : x y z
#
# Youngs Moduli (GPa) = 27.95745 38.36319 52.94623
#
# Poissons Ratio (x) = -0.33447 0.30676
# Poissons Ratio (y) = -0.24375 0.70777
# Poissons Ratio (z) = 0.16198 0.51283
#
# Static dielectric constant tensor:
#      x y z
#    x 2.209940 0.005120 -0.023770 
#    y 0.005120 2.115780 0.016090 
#    z -0.023770 0.016090 2.067650 
# 
# From -- ./inp_files/411373.got.cif
#   From: 2010.05.17/outbox.cif.g08.bks.cpg/sg2_206_cif.got.tgz:411373.got - 2010.06.03 11:33:40.
