data_PCOD9076300
_publ_section_title
;
Structure prediction by ZEFSAII (Michael W. Deem and Ramdas Pophale) SiO2 
 PCOD9076300
Probable space group: P -1
;
_chemical_formula_sum "Si O2"
_cell_formula_units_Z 15
_cell_length_a 6.814493
_cell_length_b 16.114273
_cell_length_c 20.723267
_cell_angle_alpha 153.530718
_cell_angle_beta 133.736970
_cell_angle_gamma 42.463963
_cell_volume 681.136561
_symmetry_space_group_name_H-M "P -1"
_symmetry_group_IT_number 2
_symmetry_cell_setting 'triclinic'
loop_
_space_group_symop_operation_xyz
x,y,z
-x,-y,-z
loop_
_atom_site_type_symbol
_atom_site_label
_atom_site_fract_x
_atom_site_fract_y
_atom_site_fract_z
Si Si1 0.323552 0.989182 0.554535
Si Si2 0.761391 0.299874 0.441353
Si Si3 0.500000 0.000000 0.000000
Si Si4 0.730731 0.768408 0.595735
Si Si5 0.762925 0.688726 0.345169
Si Si6 0.755063 0.344664 0.283395
Si Si7 0.520541 0.999901 0.876804
Si Si8 0.144487 0.736003 0.897260
O O1 0.478217 0.950678 0.632738
O O2 0.509415 0.805878 0.421310
O O3 0.311470 0.184835 0.649117
O O4 0.000000 0.000000 0.500000
O O5 0.500000 0.500000 0.500000
O O6 0.631613 0.125100 0.284291
O O7 0.004425 0.272098 0.422709
O O8 0.939888 0.305994 0.550715
O O9 0.403428 0.798114 0.828372
O O10 0.312173 0.104384 0.961784
O O11 0.649223 0.570826 0.441786
O O12 0.902410 0.763434 0.696601
O O13 0.806918 0.457698 0.184550
O O14 0.761508 0.355057 0.215536
O O15 0.798180 0.884385 0.913291
O O16 0.652441 0.134840 0.959295
#
# Coordination Sequence:
#
# PCOD9076300 Si02
#       8
#     2   2   1   2   2   2   2   2
#     4  10  22  38  57  84 115 160 202 245 288 337
#     4  11  18  33  56  88 114 147 188 238 301 345
#     4  10  20  30  50  82 116 152 180 214 294 360
#     4  10  20  33  54  83 116 147 193 246 287 338
#     4  10  21  39  59  84 120 150 200 247 282 352
#     4  10  18  33  54  81 114 144 179 243 289 343
#     4  10  20  32  52  83 121 148 181 227 296 359
#     4  10  19  35  52  82 118 151 182 229 298 352
#
# _framework density 22.022015
#
# number of rings (size 3 to 8) (size 9 to 14) (size 15 to 20)
#    0.000    1.867    5.333    0.000    0.000    4.267 
#    0.000    0.000    0.000    8.800    0.000   17.733 
#    0.000    0.000    0.000    0.000    0.000    0.000 
#
# Total GULP energy -83524.419836 kJ/mol
# GULP energy per Si atom -5568.294656 kJ/mol
# Density = 2.197189 g / cm^3
# Si number density = 22.022015 Si / 1000 Ang^3
#
#
#
# Elastic Constant Matrix: (Units=GPa)
#
#
# Indices 1 2 3 4 5 6 
#
# 1 56.5148 19.2171 26.1389 6.2620 36.5754 -11.5339
# 2 19.2171 117.0684 48.9006 14.1500 20.8853 3.8370
# 3 26.1389 48.9006 177.8572 9.0137 33.4310 11.9369
# 4 6.2620 14.1500 9.0137 32.3717 1.6346 10.7506
# 5 36.5754 20.8853 33.4310 1.6346 29.9333 -1.8611
# 6 -11.5339 3.8370 11.9369 10.7506 -1.8611 34.3411
#
#
#
# Elastic Compliance Matrix: (Units=1/GPa)
#
#
# Indices 1 2 3 4 5 6 
#
# 1 0.162421 0.010115 0.012327 -0.045716 -0.213565 0.051874
# 2 0.010115 0.011324 -0.001012 -0.006898 -0.018527 0.003639
# 3 0.012327 -0.001012 0.008666 -0.003503 -0.023777 0.001049
# 4 -0.045716 -0.006898 -0.003503 0.049141 0.060317 -0.025481
# 5 -0.213565 -0.018527 -0.023777 0.060317 0.326660 -0.062572
# 6 0.051874 0.003639 0.001049 -0.025481 -0.062572 0.050357
#
#
# Mechanical properties :
#
#
# Convention : Reuss Voigt Hill
#
# Bulk Modulus (GPa) = 4.43912 59.99486 32.21699
# Shear Modulus (GPa) = 7.80274 36.47480 22.13877
#
# Velocity S-wave (km/s) = 1.88437 4.07417 3.17409
# Velocity P-wave (km/s) = 2.59896 7.03094 5.30041
#
# Compressibility (1/GPa) = 0.22526989
#
# Stress axis : x y z
#
# Youngs Moduli (GPa) = 6.15683 88.30666 115.39823
#
# Poissons Ratio (x) = -0.89321 -1.42249
# Poissons Ratio (y) = -0.06228 0.11681
# Poissons Ratio (z) = -0.07589 0.08939
#
# Static dielectric constant tensor:
#      x y z
#    x 0.484830 0.280470 0.219570 
#    y 0.280470 1.782790 -0.058400 
#    z 0.219570 -0.058400 1.806150 
# 
# From -- ./inp_files/622697.got.cif
#   From: 2010.05.17/outbox.cif.g08.bks.cpg/sg2_312_cif.got.tgz:622697.got - 2010.06.03 11:33:40.
