data_PCOD9076749
_publ_section_title
;
Structure prediction by ZEFSAII (Michael W. Deem and Ramdas Pophale) SiO2 
 PCOD9076749
Probable space group: P -1
;
_chemical_formula_sum "Si O2"
_cell_formula_units_Z 14
_cell_length_a 10.953110
_cell_length_b 16.400406
_cell_length_c 7.268157
_cell_angle_alpha 58.199795
_cell_angle_beta 124.236603
_cell_angle_gamma 149.715565
_cell_volume 541.670490
_symmetry_space_group_name_H-M "P -1"
_symmetry_group_IT_number 2
_symmetry_cell_setting 'triclinic'
loop_
_space_group_symop_operation_xyz
x,y,z
-x,-y,-z
loop_
_atom_site_type_symbol
_atom_site_label
_atom_site_fract_x
_atom_site_fract_y
_atom_site_fract_z
Si Si1 0.299505 0.212722 0.971472
Si Si2 0.089877 0.135845 0.291885
Si Si3 0.796291 0.540963 0.135844
Si Si4 0.956477 0.743338 0.348143
Si Si5 0.198667 0.677370 0.049948
Si Si6 0.373879 0.590490 0.480606
Si Si7 0.652252 0.978967 0.895695
O O1 0.122765 0.193043 0.732427
O O2 0.335812 0.123391 0.050088
O O3 0.183359 0.150422 0.151694
O O4 0.567362 0.405623 0.967538
O O5 0.352134 0.312431 0.387346
O O6 0.000000 0.000000 0.500000
O O7 0.852163 0.079453 0.115188
O O8 0.801922 0.639366 0.148391
O O9 0.733964 0.436724 0.376452
O O10 0.049843 0.651159 0.117051
O O11 0.839287 0.596875 0.544592
O O12 0.233505 0.893443 0.319412
O O13 0.393803 0.700661 0.263387
O O14 0.366824 0.839356 0.883475
O O15 0.000000 0.500000 0.000000
#
# Coordination Sequence:
#
# PCOD9076749 Si02
#       7
#     2   2   2   2   2   2   2
#     4  10  19  37  61  88 117 157 188 236 305 341
#     4  10  18  33  59  89 113 141 199 243 279 336
#     4   9  20  36  64  81 115 161 195 230 287 349
#     4   9  20  37  63  83 117 150 203 238 288 342
#     4  12  22  39  60  85 122 156 199 232 289 358
#     4   9  21  38  61  85 114 156 195 244 288 339
#     4  11  22  36  63  89 120 154 191 240 294 348
#
# _framework density 25.845973999999998
#
# number of rings (size 3 to 8) (size 9 to 14) (size 15 to 20)
#    0.857    1.143    2.857    2.571    2.000    0.571 
#    0.000    1.429   12.571    0.000    0.000    0.000 
#    0.000    0.000    0.000    0.000    0.000    0.000 
#
# Total GULP energy -78045.534866 kJ/mol
# GULP energy per Si atom -5574.681062 kJ/mol
# Density = 2.578715 g / cm^3
# Si number density = 25.845974 Si / 1000 Ang^3
#
#
#
# Elastic Constant Matrix: (Units=GPa)
#
#
# Indices 1 2 3 4 5 6 
#
# 1 82.1994 30.1026 8.9420 -7.2258 -16.7962 2.8475
# 2 30.1026 151.2776 21.0108 -22.3420 0.4805 33.1372
# 3 8.9420 21.0108 55.8621 -29.7664 -10.0027 11.4547
# 4 -7.2258 -22.3420 -29.7664 48.7645 14.1702 -2.7831
# 5 -16.7962 0.4805 -10.0027 14.1702 23.9264 -14.3487
# 6 2.8475 33.1372 11.4547 -2.7831 -14.3487 43.8624
#
#
#
# Elastic Compliance Matrix: (Units=1/GPa)
#
#
# Indices 1 2 3 4 5 6 
#
# 1 0.019460 -0.007875 -0.003360 -0.009626 0.026231 0.013534
# 2 -0.007875 0.013230 0.001798 0.011310 -0.021496 -0.016267
# 3 -0.003360 0.001798 0.028899 0.019725 -0.008030 -0.010062
# 4 -0.009626 0.011310 0.019725 0.046706 -0.040383 -0.023318
# 5 0.026231 -0.021496 -0.008030 -0.040383 0.111517 0.050552
# 6 0.013534 -0.016267 -0.010062 -0.023318 0.050552 0.051895
#
#
# Mechanical properties :
#
#
# Convention : Reuss Voigt Hill
#
# Bulk Modulus (GPa) = 23.41199 45.49443 34.45321
# Shear Modulus (GPa) = 16.40310 38.59623 27.49966
#
# Velocity S-wave (km/s) = 2.52196 3.86854 3.26541
# Velocity P-wave (km/s) = 4.19026 6.13143 5.25132
#
# Compressibility (1/GPa) = 0.04271315
#
# Stress axis : x y z
#
# Youngs Moduli (GPa) = 51.38717 75.58717 34.60323
#
# Poissons Ratio (x) = 0.59526 0.11628
# Poissons Ratio (y) = 0.40468 -0.06221
# Poissons Ratio (z) = 0.17268 -0.13588
#
# Static dielectric constant tensor:
#      x y z
#    x 1.969880 -0.014860 -0.023550 
#    y -0.014860 2.165510 0.033230 
#    z -0.023550 0.033230 2.120630 
# 
# From -- ./inp_files/277626.got.cif
#   From: 2010.05.17/outbox.cif.g08.bks.cpg/sg2_139_cif.got.tgz:277626.got - 2010.06.03 11:33:40.
