data_PCOD9076984
_publ_section_title
;
Structure prediction by ZEFSAII (Michael W. Deem and Ramdas Pophale) SiO2 
 PCOD9076984
Probable space group: P -1
;
_chemical_formula_sum "Si O2"
_cell_formula_units_Z 14
_cell_length_a 14.316380
_cell_length_b 11.912033
_cell_length_c 18.619907
_cell_angle_alpha 135.551070
_cell_angle_beta 159.451459
_cell_angle_gamma 43.266616
_cell_volume 757.113162
_symmetry_space_group_name_H-M "P -1"
_symmetry_group_IT_number 2
_symmetry_cell_setting 'triclinic'
loop_
_space_group_symop_operation_xyz
x,y,z
-x,-y,-z
loop_
_atom_site_type_symbol
_atom_site_label
_atom_site_fract_x
_atom_site_fract_y
_atom_site_fract_z
Si Si1 0.076703 0.261220 0.926946
Si Si2 0.538666 0.674365 0.136944
Si Si3 0.775813 0.649113 0.443262
Si Si4 0.813943 0.125105 0.137020
Si Si5 0.475592 0.192970 0.060633
Si Si6 0.160901 0.606802 0.509049
Si Si7 0.437451 0.474357 0.360409
O O1 0.762642 0.361885 0.743358
O O2 0.114048 0.069210 0.884512
O O3 0.196759 0.278594 0.940632
O O4 0.260743 0.340108 0.150797
O O5 0.543195 0.685601 0.231727
O O6 0.840214 0.672047 0.322778
O O7 0.500000 0.500000 0.000000
O O8 0.308991 0.820625 0.004446
O O9 0.724737 0.563516 0.441446
O O10 0.000000 0.500000 0.500000
O O11 0.925873 0.796976 0.628135
O O12 0.566043 0.212979 0.053299
O O13 0.702209 0.254849 0.296879
O O14 0.500000 0.000000 0.000000
O O15 0.273533 0.575285 0.495792
O O16 0.500000 0.500000 0.500000
#
# Coordination Sequence:
#
# PCOD9076984 Si02
#       7
#     2   2   2   2   2   2   2
#     4   9  22  39  55  80 113 149 188 235 274 321
#     4  11  19  31  56  88 116 144 179 222 283 342
#     4  10  18  34  53  83 116 146 177 223 289 330
#     4  11  19  34  57  87 118 141 179 236 285 333
#     4   9  17  33  54  81 115 144 174 229 289 326
#     4  10  19  36  56  84 112 147 189 223 279 335
#     4  10  22  42  59  76 107 155 197 226 268 329
#
# _framework density 18.491292999999999
#
# number of rings (size 3 to 8) (size 9 to 14) (size 15 to 20)
#    0.000    2.000    5.714    0.000    2.000    1.143 
#    2.571    2.857    0.000    1.714    0.000    0.000 
#    0.000    0.000    0.000    0.000    0.000    0.000 
#
# Total GULP energy -77935.981582 kJ/mol
# GULP energy per Si atom -5566.855827 kJ/mol
# Density = 1.844921 g / cm^3
# Si number density = 18.491293 Si / 1000 Ang^3
#
#
#
# Elastic Constant Matrix: (Units=GPa)
#
#
# Indices 1 2 3 4 5 6 
#
# 1 58.9560 8.3696 21.5617 16.0920 -19.6576 7.5889
# 2 8.3696 82.0408 41.0382 20.6222 -5.0971 11.0369
# 3 21.5617 41.0382 74.5926 13.3534 -10.6319 17.5734
# 4 16.0920 20.6222 13.3534 23.5347 4.7153 4.1360
# 5 -19.6576 -5.0971 -10.6319 4.7153 33.6545 -4.4672
# 6 7.5889 11.0369 17.5734 4.1360 -4.4672 21.7701
#
#
#
# Elastic Compliance Matrix: (Units=1/GPa)
#
#
# Indices 1 2 3 4 5 6 
#
# 1 0.035474 0.009437 -0.005490 -0.034245 0.025072 -0.001067
# 2 0.009437 0.022223 -0.009529 -0.022146 0.008859 -0.000838
# 3 -0.005490 -0.009529 0.022972 0.000961 0.000907 -0.011795
# 4 -0.034245 -0.022146 0.000961 0.092518 -0.036367 -0.002651
# 5 0.025072 0.008859 0.000907 -0.036367 0.051549 0.003524
# 6 -0.001067 -0.000838 -0.011795 -0.002651 0.003524 0.057480
#
#
# Mechanical properties :
#
#
# Convention : Reuss Voigt Hill
#
# Bulk Modulus (GPa) = 14.38787 39.72538 27.05662
# Shear Modulus (GPa) = 15.79528 25.43316 20.61422
#
# Velocity S-wave (km/s) = 2.92584 3.71268 3.34249
# Velocity P-wave (km/s) = 4.38313 6.31732 5.43693
#
# Compressibility (1/GPa) = 0.06950298
#
# Stress axis : x y z
#
# Youngs Moduli (GPa) = 28.18942 44.99843 43.53150
#
# Poissons Ratio (x) = -0.42464 0.23901
# Poissons Ratio (y) = -0.26601 0.41483
# Poissons Ratio (z) = 0.15477 0.42881
#
# Static dielectric constant tensor:
#      x y z
#    x 1.730080 -0.042630 0.053770 
#    y -0.042630 1.742530 -0.151910 
#    z 0.053770 -0.151910 1.836450 
# 
# From -- ./inp_files/128570.got.cif
#   From: 2010.05.17/outbox.cif.g08.bks.cpg/sg2_65_cif.got.tgz:128570.got - 2010.06.03 11:33:40.
