data_PCOD9076408
_publ_section_title
;
Structure prediction by ZEFSAII (Michael W. Deem and Ramdas Pophale) SiO2 
 PCOD9076408
Probable space group: P -1
;
_chemical_formula_sum "Si O2"
_cell_formula_units_Z 16
_cell_length_a 7.443748
_cell_length_b 14.912281
_cell_length_c 16.709536
_cell_angle_alpha 29.811734
_cell_angle_beta 63.288296
_cell_angle_gamma 83.105121
_cell_volume 654.036728
_symmetry_space_group_name_H-M "P -1"
_symmetry_group_IT_number 2
_symmetry_cell_setting 'triclinic'
loop_
_space_group_symop_operation_xyz
x,y,z
-x,-y,-z
loop_
_atom_site_type_symbol
_atom_site_label
_atom_site_fract_x
_atom_site_fract_y
_atom_site_fract_z
Si Si1 0.420942 0.845265 0.967183
Si Si2 0.483095 0.305190 0.390807
Si Si3 0.304564 0.456877 0.004507
Si Si4 0.774072 0.545922 0.563065
Si Si5 0.704955 0.314059 0.604100
Si Si6 0.967613 0.462019 0.267927
Si Si7 0.397910 0.882097 0.697686
Si Si8 0.165731 0.003165 0.356777
O O1 0.331417 0.674493 0.190219
O O2 0.226040 0.709823 0.037712
O O3 0.685458 0.927270 0.811303
O O4 0.458773 0.064893 0.824221
O O5 0.541713 0.427497 0.198488
O O6 0.339850 0.348117 0.450267
O O7 0.763670 0.410117 0.284565
O O8 0.319357 0.032396 0.631056
O O9 0.220055 0.610750 0.930818
O O10 0.500000 0.500000 0.000000
O O11 0.108727 0.183124 0.245166
O O12 0.680617 0.462467 0.556395
O O13 0.079231 0.696767 0.389339
O O14 0.824355 0.423311 0.410234
O O15 0.014990 0.271193 0.398064
O O16 0.634788 0.943099 0.655802
O O17 0.500000 0.000000 0.500000
#
# Coordination Sequence:
#
# PCOD9076408 Si02
#       8
#     2   2   2   2   2   2   2   2
#     4  10  18  35  56  81 112 158 196 231 282 347
#     4  10  18  33  55  90 120 153 184 246 296 343
#     4   9  16  30  58  88 116 149 193 240 290 351
#     4  10  19  34  58  87 117 149 200 241 282 342
#     4   9  20  36  56  84 116 160 191 240 284 335
#     4   9  20  34  55  82 124 153 188 236 292 343
#     4   8  16  29  52  82 116 146 175 238 299 337
#     4   9  16  31  56  81 106 153 194 228 279 341
#
# _framework density 24.463456999999998
#
# number of rings (size 3 to 8) (size 9 to 14) (size 15 to 20)
#    0.000    2.750    1.250    0.375    0.000    0.500 
#    0.000    4.375    0.000   24.000    3.250    0.000 
#    0.000    0.000    0.000    0.000    0.000    0.000 
#
# Total GULP energy -89368.792726 kJ/mol
# GULP energy per Si atom -5585.549545 kJ/mol
# Density = 2.440778 g / cm^3
# Si number density = 24.463457 Si / 1000 Ang^3
#
#
#
# Elastic Constant Matrix: (Units=GPa)
#
#
# Indices 1 2 3 4 5 6 
#
# 1 68.2547 47.5754 46.0336 -6.3048 -3.9177 18.3211
# 2 47.5754 184.8900 58.9403 -28.3007 8.7106 -3.5555
# 3 46.0336 58.9403 85.6333 -19.2522 9.2884 2.3555
# 4 -6.3048 -28.3007 -19.2522 35.8029 5.2009 -0.2702
# 5 -3.9177 8.7106 9.2884 5.2009 31.4723 -3.6157
# 6 18.3211 -3.5555 2.3555 -0.2702 -3.6157 42.2838
#
#
#
# Elastic Compliance Matrix: (Units=1/GPa)
#
#
# Indices 1 2 3 4 5 6 
#
# 1 0.032960 -0.005208 -0.016962 -0.009065 0.010563 -0.012929
# 2 -0.005208 0.008202 -0.001405 0.005275 -0.003054 0.002797
# 3 -0.016962 -0.001405 0.025233 0.011022 -0.010416 0.005005
# 4 -0.009065 0.005275 0.011022 0.038168 -0.011805 0.002992
# 5 0.010563 -0.003054 -0.010416 -0.011805 0.038843 -0.001007
# 6 -0.012929 0.002797 0.005005 0.002992 -0.001007 0.029141
#
#
# Mechanical properties :
#
#
# Convention : Reuss Voigt Hill
#
# Bulk Modulus (GPa) = 51.96212 71.54185 61.75198
# Shear Modulus (GPa) = 22.11288 34.32705 28.21997
#
# Velocity S-wave (km/s) = 3.00978 3.74999 3.40009
# Velocity P-wave (km/s) = 5.77626 6.93237 6.38055
#
# Compressibility (1/GPa) = 0.01924479
#
# Stress axis : x y z
#
# Youngs Moduli (GPa) = 30.33969 121.92399 39.63052
#
# Poissons Ratio (x) = 0.63497 0.67221
# Poissons Ratio (y) = 0.15801 0.05569
# Poissons Ratio (z) = 0.51462 0.17135
#
# Static dielectric constant tensor:
#      x y z
#    x 1.976550 0.007810 -0.007230 
#    y 0.007810 1.978810 -0.043700 
#    z -0.007230 -0.043700 2.001070 
# 
# From -- ./inp_files/561333.got.cif
#   From: 2010.05.17/outbox.cif.g08.bks.cpg/sg2_281_cif.got.tgz:561333.got - 2010.06.03 11:33:40.
