data_PCOD9076463
_publ_section_title
;
Structure prediction by ZEFSAII (Michael W. Deem and Ramdas Pophale) SiO2 
 PCOD9076463
Probable space group: P -1
;
_chemical_formula_sum "Si O2"
_cell_formula_units_Z 14
_cell_length_a 21.521775
_cell_length_b 10.989850
_cell_length_c 11.577808
_cell_angle_alpha 48.695255
_cell_angle_beta 146.097170
_cell_angle_gamma 153.753397
_cell_volume 634.769337
_symmetry_space_group_name_H-M "P -1"
_symmetry_group_IT_number 2
_symmetry_cell_setting 'triclinic'
loop_
_space_group_symop_operation_xyz
x,y,z
-x,-y,-z
loop_
_atom_site_type_symbol
_atom_site_label
_atom_site_fract_x
_atom_site_fract_y
_atom_site_fract_z
Si Si1 0.631298 0.246910 0.215039
Si Si2 0.092588 0.476182 0.319169
Si Si3 0.230837 0.154048 0.195798
Si Si4 0.938304 0.651824 0.907346
Si Si5 0.209254 0.869580 0.742200
Si Si6 0.560750 0.309572 0.691270
Si Si7 0.984738 0.699148 0.298432
O O1 0.717773 0.330237 0.426168
O O2 0.804197 0.507782 0.229792
O O3 0.553173 0.970936 0.241732
O O4 0.434899 0.115191 0.975640
O O5 0.107401 0.411197 0.258928
O O6 0.907880 0.195705 0.289993
O O7 0.038142 0.599595 0.131118
O O8 0.400978 0.220623 0.427610
O O9 0.338449 0.448110 0.213737
O O10 0.063457 0.909202 0.188164
O O11 0.106567 0.988089 0.990366
O O12 0.733642 0.440395 0.795084
O O13 0.086066 0.553293 0.716785
O O14 0.176059 0.924834 0.538368
#
# Coordination Sequence:
#
# PCOD9076463 Si02
#       7
#     2   2   2   2   2   2   2
#     4  11  20  36  59  89 114 147 193 240 288 333
#     4  10  21  34  57  85 119 148 190 243 284 334
#     4  11  22  39  55  87 122 148 186 236 288 351
#     4  11  21  37  55  84 120 154 187 237 291 335
#     4  10  18  33  56  83 115 146 186 241 284 330
#     4  11  22  35  59  85 118 150 188 235 292 343
#     4  10  20  35  57  84 118 150 188 237 286 343
#
# _framework density 22.055257000000001
#
# number of rings (size 3 to 8) (size 9 to 14) (size 15 to 20)
#    0.000    1.429    4.286    2.571    0.000    2.857 
#    0.000    0.000    0.000    3.429    0.000   33.000 
#    0.000    0.000    0.000    0.000    0.000    0.000 
#
# Total GULP energy -78241.811745 kJ/mol
# GULP energy per Si atom -5588.700839 kJ/mol
# Density = 2.200506 g / cm^3
# Si number density = 22.055257 Si / 1000 Ang^3
#
#
#
# Elastic Constant Matrix: (Units=GPa)
#
#
# Indices 1 2 3 4 5 6 
#
# 1 107.8517 35.6124 57.8673 7.0099 -12.3749 11.0754
# 2 35.6124 62.5685 29.4193 12.9405 -7.8577 -1.6316
# 3 57.8673 29.4193 169.8653 21.9972 -2.6788 15.1834
# 4 7.0099 12.9405 21.9972 31.1647 7.5493 -0.8117
# 5 -12.3749 -7.8577 -2.6788 7.5493 33.7842 -1.1262
# 6 11.0754 -1.6316 15.1834 -0.8117 -1.1262 17.7949
#
#
#
# Elastic Compliance Matrix: (Units=1/GPa)
#
#
# Indices 1 2 3 4 5 6 
#
# 1 0.014052 -0.006488 -0.003155 0.000872 0.002979 -0.006420
# 2 -0.006488 0.022727 -0.001237 -0.008096 0.004858 0.007115
# 3 -0.003155 -0.001237 0.008283 -0.004790 0.000103 -0.005429
# 4 0.000872 -0.008096 -0.004790 0.041418 -0.011066 0.003991
# 5 0.002979 0.004858 0.000103 -0.011066 0.034307 0.000170
# 6 -0.006420 0.007115 -0.005429 0.003991 0.000170 0.065669
#
#
# Mechanical properties :
#
#
# Convention : Reuss Voigt Hill
#
# Bulk Modulus (GPa) = 42.91535 65.12037 54.01786
# Shear Modulus (GPa) = 23.14988 31.04120 27.09554
#
# Velocity S-wave (km/s) = 3.24332 3.75564 3.50884
# Velocity P-wave (km/s) = 5.79015 6.95676 6.40009
#
# Compressibility (1/GPa) = 0.02330168
#
# Stress axis : x y z
#
# Youngs Moduli (GPa) = 71.16593 44.00100 120.72472
#
# Poissons Ratio (x) = 0.28547 0.38093
# Poissons Ratio (y) = 0.46171 0.14933
# Poissons Ratio (z) = 0.22455 0.05443
#
# Static dielectric constant tensor:
#      x y z
#    x 1.823910 -0.031170 0.056630 
#    y -0.031170 1.826360 -0.040710 
#    z 0.056630 -0.040710 1.930680 
# 
# From -- ./inp_files/470973.got.cif
#   From: 2010.05.17/outbox.cif.g08.bks.cpg/sg2_236_cif.got.tgz:470973.got - 2010.06.03 11:33:40.
