data_PCOD9076651
_publ_section_title
;
Structure prediction by ZEFSAII (Michael W. Deem and Ramdas Pophale) SiO2 
 PCOD9076651
Probable space group: P -1
;
_chemical_formula_sum "Si O2"
_cell_formula_units_Z 14
_cell_length_a 6.804342
_cell_length_b 18.946943
_cell_length_c 16.271677
_cell_angle_alpha 27.868725
_cell_angle_beta 123.323994
_cell_angle_gamma 139.246501
_cell_volume 588.299983
_symmetry_space_group_name_H-M "P -1"
_symmetry_group_IT_number 2
_symmetry_cell_setting 'triclinic'
loop_
_space_group_symop_operation_xyz
x,y,z
-x,-y,-z
loop_
_atom_site_type_symbol
_atom_site_label
_atom_site_fract_x
_atom_site_fract_y
_atom_site_fract_z
Si Si1 0.636774 0.950009 0.707541
Si Si2 0.763942 0.905025 0.202836
Si Si3 0.965993 0.987886 0.407037
Si Si4 0.739317 0.345257 0.372945
Si Si5 0.343184 0.989619 0.099238
Si Si6 0.852908 0.533182 0.506049
Si Si7 0.880589 0.298066 0.033370
O O1 0.018639 0.832174 0.804196
O O2 0.678031 0.144184 0.540808
O O3 0.909980 0.981032 0.790023
O O4 0.279948 0.738996 0.875959
O O5 0.570136 0.954910 0.152087
O O6 0.530081 0.653552 0.405891
O O7 0.787285 0.974696 0.043963
O O8 0.593882 0.758438 0.547810
O O9 0.245548 0.023748 0.385505
O O10 0.000000 0.000000 0.500000
O O11 0.032531 0.486993 0.360553
O O12 0.835231 0.480585 0.174017
O O13 0.037643 0.772914 0.294960
O O14 0.569526 0.171743 0.030344
O O15 0.000000 0.500000 0.500000
#
# Coordination Sequence:
#
# PCOD9076651 Si02
#       7
#     2   2   2   2   2   2   2
#     4  11  24  43  64  98 132 168 215 268 320 380
#     4  10  20  33  61  89 128 176 219 243 305 376
#     4  11  25  48  73  92 122 168 216 271 336 391
#     4  11  24  43  64  98 134 167 213 271 320 379
#     4  10  18  36  57  89 126 179 213 253 301 372
#     4  10  18  33  58  86 126 176 211 248 301 368
#     4  11  23  43  66  95 135 166 213 268 321 382
#
# _framework density 23.797383
#
# number of rings (size 3 to 8) (size 9 to 14) (size 15 to 20)
#    0.000    1.429    5.714    0.857    0.000    6.286 
#    0.000    1.429    0.000    0.000    0.000    0.000 
#    0.000    0.000    0.000    0.000    0.000    0.000 
#
# Total GULP energy -78292.215597 kJ/mol
# GULP energy per Si atom -5592.301114 kJ/mol
# Density = 2.374322 g / cm^3
# Si number density = 23.797383 Si / 1000 Ang^3
#
#
#
# Elastic Constant Matrix: (Units=GPa)
#
#
# Indices 1 2 3 4 5 6 
#
# 1 146.7647 3.3617 33.3591 -1.1319 -35.7922 3.0007
# 2 3.3617 41.6992 2.0990 12.3432 4.2502 -8.1300
# 3 33.3591 2.0990 133.0200 3.0362 -28.1637 7.4089
# 4 -1.1319 12.3432 3.0362 24.0628 0.2396 -10.8874
# 5 -35.7922 4.2502 -28.1637 0.2396 32.5122 4.6912
# 6 3.0007 -8.1300 7.4089 -10.8874 4.6912 33.3866
#
#
#
# Elastic Compliance Matrix: (Units=1/GPa)
#
#
# Indices 1 2 3 4 5 6 
#
# 1 0.009752 -0.002691 0.000257 0.000261 0.011765 -0.003157
# 2 -0.002691 0.030000 -0.001673 -0.012978 -0.008951 0.004944
# 3 0.000257 -0.001673 0.009884 -0.002679 0.009787 -0.004873
# 4 0.000261 -0.012978 -0.002679 0.055862 -0.003065 0.016058
# 5 0.011765 -0.008951 0.009787 -0.003065 0.055429 -0.014197
# 6 -0.003157 0.004944 -0.004873 0.016058 -0.014197 0.039752
#
#
# Mechanical properties :
#
#
# Convention : Reuss Voigt Hill
#
# Bulk Modulus (GPa) = 24.14050 44.34707 34.24378
# Shear Modulus (GPa) = 22.45163 36.83660 29.64411
#
# Velocity S-wave (km/s) = 3.07489 3.93864 3.53326
# Velocity P-wave (km/s) = 4.77209 6.27372 5.57371
#
# Compressibility (1/GPa) = 0.04142417
#
# Stress axis : x y z
#
# Youngs Moduli (GPa) = 102.53851 33.33288 101.17111
#
# Poissons Ratio (x) = 0.08970 -0.02605
# Poissons Ratio (y) = 0.27594 0.16924
# Poissons Ratio (z) = -0.02640 0.05576
#
# Static dielectric constant tensor:
#      x y z
#    x 2.025090 0.007970 -0.031390 
#    y 0.007970 1.944000 -0.003900 
#    z -0.031390 -0.003900 1.888240 
# 
# From -- ./inp_files/443728.got.cif
#   From: 2010.05.17/outbox.cif.g08.bks.cpg/sg2_222_cif.got.tgz:443728.got - 2010.06.03 11:33:40.
