data_PCOD9076639
_publ_section_title
;
Structure prediction by ZEFSAII (Michael W. Deem and Ramdas Pophale) SiO2 
 PCOD9076639
Probable space group: P -1
;
_chemical_formula_sum "Si O2"
_cell_formula_units_Z 16
_cell_length_a 9.075353
_cell_length_b 9.132147
_cell_length_c 20.994003
_cell_angle_alpha 57.904505
_cell_angle_beta 127.815647
_cell_angle_gamma 148.392075
_cell_volume 720.216058
_symmetry_space_group_name_H-M "P -1"
_symmetry_group_IT_number 2
_symmetry_cell_setting 'triclinic'
loop_
_space_group_symop_operation_xyz
x,y,z
-x,-y,-z
loop_
_atom_site_type_symbol
_atom_site_label
_atom_site_fract_x
_atom_site_fract_y
_atom_site_fract_z
Si Si1 0.571089 0.263774 0.843865
Si Si2 0.290088 0.761582 0.239942
Si Si3 0.268289 0.746035 0.946131
Si Si4 0.084423 0.719899 0.659310
Si Si5 0.552274 0.481514 0.900347
Si Si6 0.870750 0.930970 0.554690
Si Si7 0.830869 0.512891 0.498424
Si Si8 0.960725 0.070638 0.906546
O O1 0.626388 0.322448 0.770559
O O2 0.444299 0.322273 0.841560
O O3 0.906955 0.490686 0.912058
O O4 0.362246 0.941315 0.868915
O O5 0.228191 0.891919 0.154098
O O6 0.007563 0.499837 0.267293
O O7 0.564311 0.986995 0.308642
O O8 0.341329 0.597716 0.006522
O O9 0.500000 0.000000 0.000000
O O10 0.910012 0.764597 0.627297
O O11 0.988964 0.613455 0.586422
O O12 0.276782 0.356825 0.895006
O O13 0.807673 0.810208 0.883135
O O14 0.528359 0.746837 0.519933
O O15 0.000000 0.000000 0.500000
O O16 0.087324 0.239095 0.565895
O O17 0.000000 0.500000 0.500000
O O18 0.000000 0.000000 0.000000
#
# Coordination Sequence:
#
# PCOD9076639 Si02
#       8
#     2   2   2   2   2   2   2   2
#     4  11  22  38  58  84 113 153 202 255 318 390
#     4  12  25  42  61  89 128 173 216 269 330 388
#     4  10  18  33  58  85 107 138 194 267 324 369
#     4  11  23  43  65  92 131 176 216 260 317 388
#     4  11  21  38  59  81 108 146 201 267 319 376
#     4  10  20  40  69  99 132 172 214 256 308 386
#     4  11  22  41  71 108 138 171 213 263 319 387
#     4  12  25  41  60  86 121 165 214 269 333 388
#
# _framework density 22.215557
#
# number of rings (size 3 to 8) (size 9 to 14) (size 15 to 20)
#    0.000    1.000    0.000   11.250    0.000    0.000 
#    0.000    7.500    0.000    0.000    0.000    0.000 
#    0.000    0.000    0.000    0.000    0.000    0.000 
#
# Total GULP energy -89219.125349 kJ/mol
# GULP energy per Si atom -5576.195334 kJ/mol
# Density = 2.216499 g / cm^3
# Si number density = 22.215557 Si / 1000 Ang^3
#
#
#
# Elastic Constant Matrix: (Units=GPa)
#
#
# Indices 1 2 3 4 5 6 
#
# 1 100.2455 21.5985 19.6694 -5.8639 7.6095 1.2590
# 2 21.5985 105.4625 12.6013 -0.4927 1.7023 9.5717
# 3 19.6694 12.6013 54.1862 -10.1453 1.3157 -1.7538
# 4 -5.8639 -0.4927 -10.1453 30.6760 4.6588 13.7791
# 5 7.6095 1.7023 1.3157 4.6588 28.2238 1.1844
# 6 1.2590 9.5717 -1.7538 13.7791 1.1844 34.4520
#
#
#
# Elastic Compliance Matrix: (Units=1/GPa)
#
#
# Indices 1 2 3 4 5 6 
#
# 1 0.011364 -0.001809 -0.003309 0.001834 -0.003073 -0.000709
# 2 -0.001809 0.010350 -0.001725 0.000678 -0.000035 -0.003167
# 3 -0.003309 -0.001725 0.021373 0.007074 -0.001122 -0.001103
# 4 0.001834 0.000678 0.007074 0.044209 -0.007436 -0.017321
# 5 -0.003073 -0.000035 -0.001122 -0.007436 0.037468 0.001751
# 6 -0.000709 -0.003167 -0.001103 -0.017321 0.001751 0.036743
#
#
# Mechanical properties :
#
#
# Convention : Reuss Voigt Hill
#
# Bulk Modulus (GPa) = 34.01341 40.84806 37.43074
# Shear Modulus (GPa) = 27.02775 32.40534 29.71654
#
# Velocity S-wave (km/s) = 3.49178 3.82341 3.66135
# Velocity P-wave (km/s) = 5.62144 6.15779 5.89572
#
# Compressibility (1/GPa) = 0.02940017
#
# Stress axis : x y z
#
# Youngs Moduli (GPa) = 87.99580 96.61950 46.78737
#
# Poissons Ratio (x) = 0.17483 0.15483
# Poissons Ratio (y) = 0.15922 0.08070
# Poissons Ratio (z) = 0.29120 0.16665
#
# Static dielectric constant tensor:
#      x y z
#    x 1.904280 0.001600 -0.003570 
#    y 0.001600 1.836840 -0.028270 
#    z -0.003570 -0.028270 1.875120 
# 
# From -- ./inp_files/606717.got.cif
#   From: 2010.05.17/outbox.cif.g08.bks.cpg/sg2_304_cif.got.tgz:606717.got - 2010.06.03 11:33:40.
