data_PCOD9076226
_publ_section_title
;
Structure prediction by ZEFSAII (Michael W. Deem and Ramdas Pophale) SiO2 
 PCOD9076226
Probable space group: P -1
;
_chemical_formula_sum "Si O2"
_cell_formula_units_Z 12
_cell_length_a 13.889387
_cell_length_b 10.832980
_cell_length_c 9.281528
_cell_angle_alpha 109.047651
_cell_angle_beta 104.197192
_cell_angle_gamma 27.971607
_cell_volume 616.241443
_symmetry_space_group_name_H-M "P -1"
_symmetry_group_IT_number 2
_symmetry_cell_setting 'triclinic'
loop_
_space_group_symop_operation_xyz
x,y,z
-x,-y,-z
loop_
_atom_site_type_symbol
_atom_site_label
_atom_site_fract_x
_atom_site_fract_y
_atom_site_fract_z
Si Si1 0.113820 0.288774 0.748688
Si Si2 0.219782 0.318224 0.542411
Si Si3 0.956613 0.234626 0.472310
Si Si4 0.654506 0.871123 0.797487
Si Si5 0.674520 0.370322 0.610517
Si Si6 0.508259 0.190568 0.110764
O O1 0.260949 0.206857 0.668756
O O2 0.046621 0.234341 0.621176
O O3 0.899822 0.609941 0.816591
O O4 0.254768 0.089453 0.857318
O O5 0.166905 0.532233 0.596503
O O6 0.357297 0.123565 0.379180
O O7 0.000000 0.500000 0.500000
O O8 0.800224 0.318524 0.526875
O O9 0.156242 0.924913 0.376663
O O10 0.608785 0.788899 0.835002
O O11 0.515855 0.139748 0.927357
O O12 0.500000 0.500000 0.500000
O O13 0.581447 0.569363 0.776606
#
# Coordination Sequence:
#
# PCOD9076226 Si02
#       6
#     2   2   2   2   2   2
#     4  10  18  33  53  75 100 131 165 206 244 293
#     4   8  16  33  53  70  99 136 159 202 250 287
#     4   9  18  32  46  71 102 127 166 205 239 285
#     4   9  19  33  46  75 108 126 159 207 253 289
#     4  11  19  30  49  73 102 131 166 202 241 294
#     4  11  19  30  51  78 101 128 164 205 253 287
#
# _framework density 19.472885999999999
#
# number of rings (size 3 to 8) (size 9 to 14) (size 15 to 20)
#    0.000    2.667    5.000    0.500    0.000    0.667 
#    0.000    0.000    0.000    9.000    0.000   15.167 
#    0.000    0.000    0.000    0.000    0.000    0.000 
#
# Total GULP energy -66825.040353 kJ/mol
# GULP energy per Si atom -5568.753363 kJ/mol
# Density = 1.942856 g / cm^3
# Si number density = 19.472886 Si / 1000 Ang^3
#
#
#
# Elastic Constant Matrix: (Units=GPa)
#
#
# Indices 1 2 3 4 5 6 
#
# 1 88.5666 19.8924 31.8213 10.8501 3.0364 -7.8392
# 2 19.8924 60.3399 52.7989 19.1700 1.3499 5.4566
# 3 31.8213 52.7989 137.2814 40.4056 5.7759 12.2124
# 4 10.8501 19.1700 40.4056 33.9257 3.8298 2.0979
# 5 3.0364 1.3499 5.7759 3.8298 17.5594 7.2035
# 6 -7.8392 5.4566 12.2124 2.0979 7.2035 30.2161
#
#
#
# Elastic Compliance Matrix: (Units=1/GPa)
#
#
# Indices 1 2 3 4 5 6 
#
# 1 0.013424 -0.002789 -0.002496 0.000318 -0.003763 0.005870
# 2 -0.002789 0.026049 -0.007917 -0.004592 0.003179 -0.002667
# 3 -0.002496 -0.007917 0.014892 -0.012261 0.000682 -0.004548
# 4 0.000318 -0.004592 -0.012261 0.047175 -0.007783 0.004447
# 5 -0.003763 0.003179 0.000682 -0.007783 0.065791 -0.016970
# 6 0.005870 -0.002667 -0.004548 0.004447 -0.016970 0.040675
#
#
# Mechanical properties :
#
#
# Convention : Reuss Voigt Hill
#
# Bulk Modulus (GPa) = 35.76432 55.02370 45.39401
# Shear Modulus (GPa) = 20.51448 28.45193 24.48320
#
# Velocity S-wave (km/s) = 3.24927 3.82659 3.54969
# Velocity P-wave (km/s) = 5.69940 6.91676 6.33738
#
# Compressibility (1/GPa) = 0.02796083
#
# Stress axis : x y z
#
# Youngs Moduli (GPa) = 74.49379 38.38991 67.14809
#
# Poissons Ratio (x) = 0.10705 0.16764
# Poissons Ratio (y) = 0.20773 0.53161
# Poissons Ratio (z) = 0.18597 0.30393
#
# Static dielectric constant tensor:
#      x y z
#    x 1.694080 -0.020410 -0.003460 
#    y -0.020410 1.771500 -0.013820 
#    z -0.003460 -0.013820 1.731730 
# 
# From -- ./inp_files/247483.got.cif
#   From: 2010.05.17/outbox.cif.g08.bks.cpg/sg2_124_cif.got.tgz:247483.got - 2010.06.03 11:33:40.
