data_PCOD9076209
_publ_section_title
;
Structure prediction by ZEFSAII (Michael W. Deem and Ramdas Pophale) SiO2 
 PCOD9076209
Probable space group: P -1
;
_chemical_formula_sum "Si O2"
_cell_formula_units_Z 16
_cell_length_a 9.467517
_cell_length_b 8.187490
_cell_length_c 11.987604
_cell_angle_alpha 109.327666
_cell_angle_beta 64.389970
_cell_angle_gamma 134.059633
_cell_volume 601.489313
_symmetry_space_group_name_H-M "P -1"
_symmetry_group_IT_number 2
_symmetry_cell_setting 'triclinic'
loop_
_space_group_symop_operation_xyz
x,y,z
-x,-y,-z
loop_
_atom_site_type_symbol
_atom_site_label
_atom_site_fract_x
_atom_site_fract_y
_atom_site_fract_z
Si Si1 0.760652 0.463918 0.632994
Si Si2 0.332053 0.901352 0.286539
Si Si3 0.140298 0.812132 0.751727
Si Si4 0.150923 0.450423 0.634499
Si Si5 0.921498 0.630537 0.010636
Si Si6 0.702880 0.784638 0.752946
Si Si7 0.835075 0.831788 0.286750
Si Si8 0.504353 0.819791 0.021601
O O1 0.689368 0.212969 0.614485
O O2 0.842548 0.547089 0.499633
O O3 0.615661 0.528807 0.714708
O O4 0.936888 0.621504 0.702588
O O5 0.091059 0.722638 0.283611
O O6 0.384970 0.133751 0.282680
O O7 0.479469 0.868953 0.166054
O O8 0.248284 0.703173 0.694287
O O9 0.247513 0.047902 0.706459
O O10 0.066297 0.800745 0.899916
O O11 0.257266 0.358480 0.630279
O O12 0.885793 0.739111 0.146323
O O13 0.700816 0.434157 0.989040
O O14 0.000000 0.500000 0.000000
O O15 0.673776 0.831722 0.900665
O O16 0.945767 0.952555 0.685993
O O17 0.500000 0.000000 0.000000
#
# Coordination Sequence:
#
# PCOD9076209 Si02
#       8
#     2   2   2   2   2   2   2   2
#     4  10  19  31  54  80 111 144 180 227 270 317
#     4   9  16  31  47  75 109 137 171 221 268 312
#     4  10  19  33  51  82 111 141 180 225 274 318
#     4  10  18  33  52  80 113 142 180 228 275 308
#     4  12  19  35  58  78 117 146 177 226 277 325
#     4   9  20  34  51  81 115 139 179 222 275 326
#     4  10  21  34  54  84 115 142 178 222 276 334
#     4  10  19  34  56  81 113 144 180 221 278 327
#
# _framework density 26.600636999999999
#
# number of rings (size 3 to 8) (size 9 to 14) (size 15 to 20)
#    0.000    2.000    3.750    3.375    0.000    6.000 
#    0.000    0.000    2.750    0.750    0.000    4.375 
#    0.000    0.000    0.000    0.000    0.000    0.000 
#
# Total GULP energy -89356.743716 kJ/mol
# GULP energy per Si atom -5584.796482 kJ/mol
# Density = 2.654009 g / cm^3
# Si number density = 26.600637 Si / 1000 Ang^3
#
#
#
# Elastic Constant Matrix: (Units=GPa)
#
#
# Indices 1 2 3 4 5 6 
#
# 1 102.3792 33.0637 1.5898 -7.9394 12.6033 -24.9798
# 2 33.0637 114.7917 -1.0055 -4.6088 8.6664 -32.5479
# 3 1.5898 -1.0055 97.5350 -10.9181 13.6245 -6.8932
# 4 -7.9394 -4.6088 -10.9181 19.7223 -13.6723 5.8820
# 5 12.6033 8.6664 13.6245 -13.6723 34.2385 -5.0487
# 6 -24.9798 -32.5479 -6.8932 5.8820 -5.0487 56.4408
#
#
#
# Elastic Compliance Matrix: (Units=1/GPa)
#
#
# Indices 1 2 3 4 5 6 
#
# 1 0.011802 -0.002066 0.000623 0.001477 -0.002935 0.003691
# 2 -0.002066 0.010949 0.000695 -0.000737 -0.001785 0.005402
# 3 0.000623 0.000695 0.011230 0.004131 -0.003026 0.001347
# 4 0.001477 -0.000737 0.004131 0.073166 0.026550 -0.004517
# 5 -0.002935 -0.001785 -0.003026 0.026550 0.042297 -0.001681
# 6 0.003691 0.005402 0.001347 -0.004517 -0.001681 0.022951
#
#
# Mechanical properties :
#
#
# Convention : Reuss Voigt Hill
#
# Bulk Modulus (GPa) = 30.78439 42.44466 36.61453
# Shear Modulus (GPa) = 27.06786 40.81751 33.94269
#
# Velocity S-wave (km/s) = 3.19339 3.92146 3.57600
# Velocity P-wave (km/s) = 5.01945 6.04109 5.55381
#
# Compressibility (1/GPa) = 0.03248399
#
# Stress axis : x y z
#
# Youngs Moduli (GPa) = 84.73318 91.32840 89.04735
#
# Poissons Ratio (x) = 0.18872 -0.05543
# Poissons Ratio (y) = 0.17509 -0.06191
# Poissons Ratio (z) = -0.05275 -0.06349
#
# Static dielectric constant tensor:
#      x y z
#    x 2.176240 0.004460 -0.030720 
#    y 0.004460 1.989670 0.049380 
#    z -0.030720 0.049380 2.034290 
# 
# From -- ./inp_files/345462.got.cif
#   From: 2010.05.17/outbox.cif.g08.bks.cpg/sg2_173_cif.got.tgz:345462.got - 2010.06.03 11:33:40.
