data_PCOD9076861
_publ_section_title
;
Structure prediction by ZEFSAII (Michael W. Deem and Ramdas Pophale) SiO2 
 PCOD9076861
Probable space group: P -1
;
_chemical_formula_sum "Si O2"
_cell_formula_units_Z 13
_cell_length_a 9.630642
_cell_length_b 5.379253
_cell_length_c 15.922389
_cell_angle_alpha 56.792892
_cell_angle_beta 108.300548
_cell_angle_gamma 132.457035
_cell_volume 507.116335
_symmetry_space_group_name_H-M "P -1"
_symmetry_group_IT_number 2
_symmetry_cell_setting 'triclinic'
loop_
_space_group_symop_operation_xyz
x,y,z
-x,-y,-z
loop_
_atom_site_type_symbol
_atom_site_label
_atom_site_fract_x
_atom_site_fract_y
_atom_site_fract_z
Si Si1 0.500000 0.500000 0.000000
Si Si2 0.162084 0.354126 0.405695
Si Si3 0.025881 0.320729 0.206972
Si Si4 0.329053 0.569139 0.703473
Si Si5 0.769070 0.181689 0.520426
Si Si6 0.408442 0.590161 0.149659
Si Si7 0.273834 0.605683 0.870121
O O1 0.603021 0.579143 0.911441
O O2 0.294350 0.284394 0.949161
O O3 0.079468 0.412937 0.298618
O O4 0.274209 0.718495 0.418731
O O5 0.279917 0.225626 0.419705
O O6 0.000000 0.000000 0.500000
O O7 0.207954 0.446890 0.168844
O O8 0.915563 0.472042 0.129174
O O9 0.869673 0.862365 0.255873
O O10 0.319379 0.755705 0.584879
O O11 0.485904 0.515592 0.752771
O O12 0.326341 0.745481 0.757946
O O13 0.000000 0.500000 0.500000
O O14 0.543158 0.059973 0.099664
#
# Coordination Sequence:
#
# PCOD9076861 Si02
#       7
#     1   2   2   2   2   2   2
#     4  10  22  46  64  90 126 158 202 264 336 388
#     4  10  19  34  60  92 129 174 220 264 312 379
#     4  11  22  39  65  93 124 167 217 256 320 380
#     4  10  21  39  63  90 129 170 208 261 323 366
#     4  10  18  33  61  88 128 178 218 261 315 377
#     4  10  24  42  64  93 123 161 210 266 319 396
#     4  10  22  41  67  89 125 162 203 268 323 392
#
# _framework density 25.635142999999999
#
# number of rings (size 3 to 8) (size 9 to 14) (size 15 to 20)
#    0.000    1.846    3.077    2.308    2.154    3.077 
#    0.000    9.231    0.000    0.000    0.000    0.000 
#    0.000    0.000    0.000    0.000    0.000    0.000 
#
# Total GULP energy -72559.178101 kJ/mol
# GULP energy per Si atom -5581.475239 kJ/mol
# Density = 2.557680 g / cm^3
# Si number density = 25.635143 Si / 1000 Ang^3
#
#
#
# Elastic Constant Matrix: (Units=GPa)
#
#
# Indices 1 2 3 4 5 6 
#
# 1 195.8442 45.1057 56.1059 18.1685 3.8602 28.4755
# 2 45.1057 63.5757 35.2925 13.4972 -7.8349 2.3188
# 3 56.1059 35.2925 125.0851 39.3071 1.7558 17.4599
# 4 18.1685 13.4972 39.3071 35.1139 -8.8985 -10.3365
# 5 3.8602 -7.8349 1.7558 -8.8985 46.0154 16.5615
# 6 28.4755 2.3188 17.4599 -10.3365 16.5615 47.1568
#
#
#
# Elastic Compliance Matrix: (Units=1/GPa)
#
#
# Indices 1 2 3 4 5 6 
#
# 1 0.007098 -0.003995 -0.000504 -0.002944 -0.000216 -0.004473
# 2 -0.003995 0.021454 -0.004829 0.000736 0.003577 0.002051
# 3 -0.000504 -0.004829 0.017574 -0.020956 -0.001949 -0.009874
# 4 -0.002944 0.000736 -0.020956 0.060699 0.005382 0.020915
# 5 -0.000216 0.003577 -0.001949 0.005382 0.026106 -0.007312
# 6 -0.004473 0.002051 -0.009874 0.020915 -0.007312 0.034614
#
#
# Mechanical properties :
#
#
# Convention : Reuss Voigt Hill
#
# Bulk Modulus (GPa) = 36.40305 73.05703 54.73004
# Shear Modulus (GPa) = 25.59398 42.19062 33.89230
#
# Velocity S-wave (km/s) = 3.16317 4.06126 3.64002
# Velocity P-wave (km/s) = 5.25091 7.11002 6.24998
#
# Compressibility (1/GPa) = 0.02747023
#
# Stress axis : x y z
#
# Youngs Moduli (GPa) = 140.87918 46.61160 56.90131
#
# Poissons Ratio (x) = 0.18619 0.02869
# Poissons Ratio (y) = 0.56275 0.27479
# Poissons Ratio (z) = 0.07104 0.22510
#
# Static dielectric constant tensor:
#      x y z
#    x 0.000000 0.000000 0.000000 
#    y 0.000000 0.000000 0.000000 
#    z 0.000000 0.000000 0.000000 
# 
# From -- ./inp_files/42573.got.cif
#   From: 2010.05.17/outbox.cif.g08.bks.cpg/sg2_22_cif.got.tgz:42573.got - 2010.06.03 11:33:40.
