data_PCOD9076478
_publ_section_title
;
Structure prediction by ZEFSAII (Michael W. Deem and Ramdas Pophale) SiO2 
 PCOD9076478
Probable space group: P -1
;
_chemical_formula_sum "Si O2"
_cell_formula_units_Z 14
_cell_length_a 8.804696
_cell_length_b 21.870065
_cell_length_c 11.082313
_cell_angle_alpha 34.057033
_cell_angle_beta 137.662081
_cell_angle_gamma 150.461520
_cell_volume 587.875637
_symmetry_space_group_name_H-M "P -1"
_symmetry_group_IT_number 2
_symmetry_cell_setting 'triclinic'
loop_
_space_group_symop_operation_xyz
x,y,z
-x,-y,-z
loop_
_atom_site_type_symbol
_atom_site_label
_atom_site_fract_x
_atom_site_fract_y
_atom_site_fract_z
Si Si1 0.347408 0.419727 0.410513
Si Si2 0.443711 0.300814 0.066711
Si Si3 0.295135 0.021623 0.108486
Si Si4 0.750165 0.212356 0.258924
Si Si5 0.214818 0.481440 0.898917
Si Si6 0.318178 0.682971 0.318577
Si Si7 0.216102 0.841665 0.147870
O O1 0.500000 0.500000 0.500000
O O2 0.528992 0.382912 0.509165
O O3 0.993750 0.267549 0.419395
O O4 0.399734 0.551426 0.159924
O O5 0.501382 0.211563 0.172470
O O6 0.633188 0.365181 0.196368
O O7 0.090604 0.220602 0.001062
O O8 0.526598 0.065414 0.282690
O O9 0.186154 0.879674 0.201976
O O10 0.492119 0.167784 0.897787
O O11 0.000000 0.000000 0.000000
O O12 0.976756 0.345241 0.075523
O O13 0.020567 0.438878 0.736340
O O14 0.500000 0.500000 0.000000
O O15 0.286160 0.738163 0.334626
O O16 0.500000 0.000000 0.000000
#
# Coordination Sequence:
#
# PCOD9076478 Si02
#       7
#     2   2   2   2   2   2   2
#     4  11  22  37  60  88 124 148 186 252 301 345
#     4  11  20  37  62  86 116 154 196 236 293 351
#     4  10  19  37  65  81 108 156 205 239 271 342
#     4  10  21  37  59  89 111 154 204 235 284 352
#     4  10  18  33  56  85 114 146 191 240 285 349
#     4  10  21  37  57  88 121 147 191 244 300 340
#     4  10  21  36  59  86 112 152 199 237 284 345
#
# _framework density 23.814561000000001
#
# number of rings (size 3 to 8) (size 9 to 14) (size 15 to 20)
#    0.000    1.714    2.857    4.286    0.000    0.571 
#    0.000    1.429    0.000    0.000    0.000    0.000 
#    0.000    0.000    0.000    0.000    0.000    0.000 
#
# Total GULP energy -78115.476429 kJ/mol
# GULP energy per Si atom -5579.676888 kJ/mol
# Density = 2.376036 g / cm^3
# Si number density = 23.814561 Si / 1000 Ang^3
#
#
#
# Elastic Constant Matrix: (Units=GPa)
#
#
# Indices 1 2 3 4 5 6 
#
# 1 125.4320 46.8679 30.4166 4.2736 23.3357 -27.7732
# 2 46.8679 170.8239 25.5112 28.6886 -1.7214 -22.7094
# 3 30.4166 25.5112 55.3263 16.7197 1.7500 -18.3580
# 4 4.2736 28.6886 16.7197 34.3718 0.1459 1.6284
# 5 23.3357 -1.7214 1.7500 0.1459 37.9140 -4.4411
# 6 -27.7732 -22.7094 -18.3580 1.6284 -4.4411 60.6014
#
#
#
# Elastic Compliance Matrix: (Units=1/GPa)
#
#
# Indices 1 2 3 4 5 6 
#
# 1 0.012020 -0.002848 -0.005375 0.003422 -0.007034 0.002206
# 2 -0.002848 0.007996 0.000567 -0.006711 0.002375 0.002218
# 3 -0.005375 0.000567 0.026784 -0.013151 0.002902 0.006429
# 4 0.003422 -0.006711 -0.013151 0.040973 -0.002691 -0.006228
# 5 -0.007034 0.002375 0.002902 -0.002691 0.030792 0.000874
# 6 0.002206 0.002218 0.006429 -0.006228 0.000874 0.020522
#
#
# Mechanical properties :
#
#
# Convention : Reuss Voigt Hill
#
# Bulk Modulus (GPa) = 31.75665 61.90818 46.83241
# Shear Modulus (GPa) = 30.32231 43.16319 36.74275
#
# Velocity S-wave (km/s) = 3.57216 4.26193 3.93220
# Velocity P-wave (km/s) = 5.51159 7.09021 6.35015
#
# Compressibility (1/GPa) = 0.03148946
#
# Stress axis : x y z
#
# Youngs Moduli (GPa) = 83.19133 125.05587 37.33635
#
# Poissons Ratio (x) = 0.35611 0.20069
# Poissons Ratio (y) = 0.23690 -0.02118
# Poissons Ratio (z) = 0.44716 -0.07094
#
# Static dielectric constant tensor:
#      x y z
#    x 2.015030 -0.070930 -0.074100 
#    y -0.070930 1.954030 0.016920 
#    z -0.074100 0.016920 1.938690 
# 
# From -- ./inp_files/170376.got.cif
#   From: 2010.05.17/outbox.cif.g08.bks.cpg/sg2_86_cif.got.tgz:170376.got - 2010.06.03 11:33:40.
