data_PCOD9076253
_publ_section_title
;
Structure prediction by ZEFSAII (Michael W. Deem and Ramdas Pophale) SiO2 
 PCOD9076253
Probable space group: P -1
;
_chemical_formula_sum "Si O2"
_cell_formula_units_Z 16
_cell_length_a 16.721394
_cell_length_b 7.184185
_cell_length_c 8.304283
_cell_angle_alpha 125.119027
_cell_angle_beta 99.036115
_cell_angle_gamma 108.298595
_cell_volume 697.655704
_symmetry_space_group_name_H-M "P -1"
_symmetry_group_IT_number 2
_symmetry_cell_setting 'triclinic'
loop_
_space_group_symop_operation_xyz
x,y,z
-x,-y,-z
loop_
_atom_site_type_symbol
_atom_site_label
_atom_site_fract_x
_atom_site_fract_y
_atom_site_fract_z
Si Si1 0.892666 0.775888 0.367534
Si Si2 0.242263 0.705361 0.315988
Si Si3 0.620026 0.455578 0.313023
Si Si4 0.545761 0.436782 0.747923
Si Si5 0.287315 0.382980 0.925418
Si Si6 0.098227 0.681903 0.035011
Si Si7 0.576118 0.044527 0.329671
Si Si8 0.185706 0.250099 0.317657
O O1 0.821005 0.819395 0.252718
O O2 0.859027 0.737565 0.521406
O O3 0.885036 0.507910 0.168313
O O4 0.000000 0.000000 0.500000
O O5 0.172996 0.785309 0.256106
O O6 0.327858 0.922322 0.552269
O O7 0.188845 0.453340 0.288513
O O8 0.284434 0.617944 0.138770
O O9 0.665154 0.520745 0.184154
O O10 0.591877 0.163158 0.216924
O O11 0.704747 0.650316 0.557635
O O12 0.529225 0.488015 0.300409
O O13 0.555992 0.249160 0.526643
O O14 0.501569 0.246032 0.794718
O O15 0.646112 0.667541 0.958227
O O16 0.122041 0.951103 0.090328
O O17 0.000000 0.500000 0.000000
#
# Coordination Sequence:
#
# PCOD9076253 Si02
#       8
#     2   2   2   2   2   2   2   2
#     4  10  20  40  60  85 117 150 192 245 287 342
#     4   9  20  39  56  83 119 149 193 237 285 348
#     4  10  19  34  56  82 114 150 191 229 284 341
#     4  10  18  33  53  81 112 146 190 233 279 341
#     4   9  20  35  54  80 116 149 187 241 288 331
#     4  11  21  37  62  86 112 153 193 236 295 341
#     4   9  19  33  54  80 111 152 186 231 285 339
#     4  10  21  39  62  86 117 157 188 237 292 343
#
# _framework density 22.933948999999998
#
# number of rings (size 3 to 8) (size 9 to 14) (size 15 to 20)
#    0.000    2.250    1.250    1.500    0.000    2.000 
#    0.000    9.375    0.000    0.000    0.000    0.000 
#    0.000    0.000    0.000    0.000    0.000    0.000 
#
# Total GULP energy -89387.760434 kJ/mol
# GULP energy per Si atom -5586.735027 kJ/mol
# Density = 2.288175 g / cm^3
# Si number density = 22.933949 Si / 1000 Ang^3
#
#
#
# Elastic Constant Matrix: (Units=GPa)
#
#
# Indices 1 2 3 4 5 6 
#
# 1 84.0486 18.3742 12.7999 -0.2858 12.3287 12.7028
# 2 18.3742 79.6185 18.3901 9.2488 0.4670 2.5991
# 3 12.7999 18.3901 75.9485 12.1024 -4.4302 4.9357
# 4 -0.2858 9.2488 12.1024 26.9486 6.3794 4.1022
# 5 12.3287 0.4670 -4.4302 6.3794 35.1359 2.0912
# 6 12.7028 2.5991 4.9357 4.1022 2.0912 19.1718
#
#
#
# Elastic Compliance Matrix: (Units=1/GPa)
#
#
# Indices 1 2 3 4 5 6 
#
# 1 0.015309 -0.003247 -0.002353 0.005209 -0.006002 -0.009557
# 2 -0.003247 0.014285 -0.002215 -0.004516 0.001395 0.001599
# 3 -0.002353 -0.002215 0.015538 -0.007063 0.004161 -0.001084
# 4 0.005209 -0.004516 -0.007063 0.045822 -0.010401 -0.009691
# 5 -0.006002 0.001395 0.004161 -0.010401 0.032881 0.001356
# 6 -0.009557 0.001599 -0.001084 -0.009691 0.001356 0.060480
#
#
# Mechanical properties :
#
#
# Convention : Reuss Voigt Hill
#
# Bulk Modulus (GPa) = 33.89548 37.63822 35.76685
# Shear Modulus (GPa) = 23.83461 28.92135 26.37798
#
# Velocity S-wave (km/s) = 3.22727 3.55501 3.39510
# Velocity P-wave (km/s) = 5.35712 5.77044 5.56762
#
# Compressibility (1/GPa) = 0.02950246
#
# Stress axis : x y z
#
# Youngs Moduli (GPa) = 65.32247 70.00312 64.35740
#
# Poissons Ratio (x) = 0.22733 0.15142
# Poissons Ratio (y) = 0.21213 0.14252
# Poissons Ratio (z) = 0.15369 0.15503
#
# Static dielectric constant tensor:
#      x y z
#    x 1.915120 0.008000 0.015500 
#    y 0.008000 1.844150 0.020650 
#    z 0.015500 0.020650 1.921220 
# 
# From -- ./inp_files/342247.got.cif
#   From: 2010.05.17/outbox.cif.g08.bks.cpg/sg2_172_cif.got.tgz:342247.got - 2010.06.03 11:33:40.
