data_PCOD9076619
_publ_section_title
;
Structure prediction by ZEFSAII (Michael W. Deem and Ramdas Pophale) SiO2 
 PCOD9076619
Probable space group: P -1
;
_chemical_formula_sum "Si O2"
_cell_formula_units_Z 16
_cell_length_a 12.093896
_cell_length_b 8.401133
_cell_length_c 10.214164
_cell_angle_alpha 43.879161
_cell_angle_beta 71.079357
_cell_angle_gamma 76.106892
_cell_volume 680.430581
_symmetry_space_group_name_H-M "P -1"
_symmetry_group_IT_number 2
_symmetry_cell_setting 'triclinic'
loop_
_space_group_symop_operation_xyz
x,y,z
-x,-y,-z
loop_
_atom_site_type_symbol
_atom_site_label
_atom_site_fract_x
_atom_site_fract_y
_atom_site_fract_z
Si Si1 0.240694 0.979937 0.091018
Si Si2 0.505311 0.815857 0.421243
Si Si3 0.091686 0.587287 0.307192
Si Si4 0.629781 0.602687 0.242919
Si Si5 0.322290 0.309022 0.336709
Si Si6 0.001970 0.635682 0.783991
Si Si7 0.454343 0.736443 0.998663
Si Si8 0.188988 0.962721 0.411732
O O1 0.126985 0.851966 0.156392
O O2 0.352308 0.870750 0.038883
O O3 0.250482 0.915128 0.278031
O O4 0.251487 0.253774 0.903172
O O5 0.567219 0.699854 0.339929
O O6 0.387803 0.670759 0.578388
O O7 0.590114 0.777008 0.534432
O O8 0.500874 0.084064 0.231138
O O9 0.211999 0.442574 0.365213
O O10 0.044453 0.525551 0.219055
O O11 0.000000 0.500000 0.500000
O O12 0.553667 0.675867 0.101778
O O13 0.389397 0.507025 0.111884
O O14 0.266035 0.106942 0.396425
O O15 0.913726 0.853794 0.697956
O O16 0.124571 0.746938 0.628132
O O17 0.000000 0.500000 0.000000
#
# Coordination Sequence:
#
# PCOD9076619 Si02
#       8
#     2   2   2   2   2   2   2   2
#     4  10  18  33  58  82 106 145 187 229 270 327
#     4   9  16  32  54  81 108 142 183 222 271 334
#     4  10  19  37  58  81 112 145 186 236 283 324
#     4   9  18  32  55  83 112 142 180 230 282 322
#     4   9  20  33  56  79 108 150 179 223 284 335
#     4  10  22  41  58  77 109 155 186 227 290 339
#     4   9  18  35  57  81 112 145 180 228 281 326
#     4  10  21  38  56  76 114 145 184 235 283 326
#
# _framework density 23.514524999999999
#
# number of rings (size 3 to 8) (size 9 to 14) (size 15 to 20)
#    0.000    2.500    1.250    1.500    0.000    5.000 
#    4.500    5.625    0.000    3.750    0.000    0.000 
#    0.000    0.000    0.000    0.000    0.000    0.000 
#
# Total GULP energy -89532.269650 kJ/mol
# GULP energy per Si atom -5595.766853 kJ/mol
# Density = 2.346100 g / cm^3
# Si number density = 23.514525 Si / 1000 Ang^3
#
#
#
# Elastic Constant Matrix: (Units=GPa)
#
#
# Indices 1 2 3 4 5 6 
#
# 1 72.5947 37.0046 63.5305 -11.0566 -17.8756 11.6038
# 2 37.0046 107.9957 73.3844 -31.1574 0.7949 26.9571
# 3 63.5305 73.3844 220.9045 -34.2398 -13.5665 21.9064
# 4 -11.0566 -31.1574 -34.2398 44.8189 10.3987 -4.5620
# 5 -17.8756 0.7949 -13.5665 10.3987 42.8218 -1.5192
# 6 11.6038 26.9571 21.9064 -4.5620 -1.5192 34.3838
#
#
#
# Elastic Compliance Matrix: (Units=1/GPa)
#
#
# Indices 1 2 3 4 5 6 
#
# 1 0.022317 -0.005703 -0.004575 -0.004060 0.008948 -0.000289
# 2 -0.005703 0.018075 -0.002242 0.009883 -0.006173 -0.009779
# 3 -0.004575 -0.002242 0.007072 0.002701 -0.000314 -0.000860
# 4 -0.004060 0.009883 0.002701 0.031879 -0.008915 -0.004263
# 5 0.008948 -0.006173 -0.000314 -0.008915 0.029344 0.002134
# 6 -0.000289 -0.009779 -0.000860 -0.004263 0.002134 0.036924
#
#
# Mechanical properties :
#
#
# Convention : Reuss Voigt Hill
#
# Bulk Modulus (GPa) = 44.59491 83.25933 63.92712
# Shear Modulus (GPa) = 28.07017 39.57658 33.82338
#
# Velocity S-wave (km/s) = 3.45880 4.10697 3.79674
# Velocity P-wave (km/s) = 5.91245 7.61407 6.81657
#
# Compressibility (1/GPa) = 0.02242409
#
# Stress axis : x y z
#
# Youngs Moduli (GPa) = 44.80874 55.32520 141.40706
#
# Poissons Ratio (x) = 0.31555 0.64688
# Poissons Ratio (y) = 0.25557 0.31700
# Poissons Ratio (z) = 0.20498 0.12403
#
# Static dielectric constant tensor:
#      x y z
#    x 1.920910 -0.056090 -0.014570 
#    y -0.056090 1.924350 -0.042480 
#    z -0.014570 -0.042480 1.854820 
# 
# From -- ./inp_files/297417.got.cif
#   From: 2010.05.17/outbox.cif.g08.bks.cpg/sg2_149_cif.got.tgz:297417.got - 2010.06.03 11:33:40.
