data_PCOD9076183
_publ_section_title
;
Structure prediction by ZEFSAII (Michael W. Deem and Ramdas Pophale) SiO2 
 PCOD9076183
Probable space group: P -1
;
_chemical_formula_sum "Si O2"
_cell_formula_units_Z 16
_cell_length_a 10.550605
_cell_length_b 22.941650
_cell_length_c 12.435260
_cell_angle_alpha 142.350467
_cell_angle_beta 131.080886
_cell_angle_gamma 22.306438
_cell_volume 659.920566
_symmetry_space_group_name_H-M "P -1"
_symmetry_group_IT_number 2
_symmetry_cell_setting 'triclinic'
loop_
_space_group_symop_operation_xyz
x,y,z
-x,-y,-z
loop_
_atom_site_type_symbol
_atom_site_label
_atom_site_fract_x
_atom_site_fract_y
_atom_site_fract_z
Si Si1 0.900600 0.588392 0.189003
Si Si2 0.657272 0.024822 0.253511
Si Si3 0.475500 0.243982 0.136135
Si Si4 0.718202 0.979864 0.470107
Si Si5 0.393551 0.344300 0.476585
Si Si6 0.077229 0.692410 0.831680
Si Si7 0.019112 0.233753 0.491891
Si Si8 0.146849 0.797693 0.851721
O O1 0.073405 0.434766 0.151365
O O2 0.492616 0.819623 0.316235
O O3 0.070909 0.609583 0.327595
O O4 0.000000 0.500000 0.000000
O O5 0.781203 0.959211 0.349636
O O6 0.647410 0.139342 0.373298
O O7 0.252409 0.187860 0.247460
O O8 0.901091 0.834616 0.040240
O O9 0.465422 0.306618 0.333495
O O10 0.660253 0.201542 0.073301
O O11 0.735716 0.026557 0.984200
O O12 0.436874 0.032445 0.400043
O O13 0.997366 0.812929 0.472841
O O14 0.000000 0.500000 0.500000
O O15 0.342708 0.474282 0.687377
O O16 0.272031 0.673045 0.838616
O O17 0.839072 0.270805 0.348338
#
# Coordination Sequence:
#
# PCOD9076183 Si02
#       8
#     2   2   2   2   2   2   2   2
#     4  10  19  33  52  83 113 141 189 241 282 333
#     4  10  18  33  51  80 116 142 193 233 281 344
#     4  11  23  34  57  88 116 153 185 247 284 342
#     4   9  18  34  53  80 110 148 186 229 295 325
#     4  10  20  34  51  84 113 143 196 233 291 337
#     4  10  19  32  54  79 109 157 178 241 288 333
#     4   9  19  34  54  79 112 151 186 234 284 345
#     4  11  21  38  56  83 121 151 195 226 299 347
#
# _framework density 24.245342000000001
#
# number of rings (size 3 to 8) (size 9 to 14) (size 15 to 20)
#    0.750    1.250    2.500    3.000    0.000    2.000 
#    2.250    0.000    0.000    0.750    3.250    1.750 
#    0.000    0.000    0.000    0.000    0.000    0.000 
#
# Total GULP energy -89330.107559 kJ/mol
# GULP energy per Si atom -5583.131722 kJ/mol
# Density = 2.419016 g / cm^3
# Si number density = 24.245342 Si / 1000 Ang^3
#
#
#
# Elastic Constant Matrix: (Units=GPa)
#
#
# Indices 1 2 3 4 5 6 
#
# 1 71.8673 6.7524 24.2325 7.7310 -17.4071 18.8495
# 2 6.7524 54.6931 34.3315 11.6292 -9.2564 18.7040
# 3 24.2325 34.3315 134.7004 9.2279 -6.0168 24.3027
# 4 7.7310 11.6292 9.2279 41.6968 14.8624 1.6589
# 5 -17.4071 -9.2564 -6.0168 14.8624 31.2021 -1.6133
# 6 18.8495 18.7040 24.3027 1.6589 -1.6133 42.1098
#
#
#
# Elastic Compliance Matrix: (Units=1/GPa)
#
#
# Indices 1 2 3 4 5 6 
#
# 1 0.023604 0.009201 -0.002591 -0.013454 0.021195 -0.011815
# 2 0.009201 0.032235 -0.005310 -0.016361 0.020745 -0.013933
# 3 -0.002591 -0.005310 0.009512 0.000480 -0.001521 -0.002048
# 4 -0.013454 -0.016361 0.000480 0.041815 -0.031659 0.010152
# 5 0.021195 0.020745 -0.001521 -0.031659 0.064084 -0.014121
# 6 -0.011815 -0.013933 -0.002048 0.010152 -0.014121 0.035466
#
#
# Mechanical properties :
#
#
# Convention : Reuss Voigt Hill
#
# Bulk Modulus (GPa) = 14.71669 43.54375 29.13022
# Shear Modulus (GPa) = 22.04907 36.06470 29.05688
#
# Velocity S-wave (km/s) = 3.01892 3.86098 3.46562
# Velocity P-wave (km/s) = 4.27024 6.15426 5.29669
#
# Compressibility (1/GPa) = 0.06795005
#
# Stress axis : x y z
#
# Youngs Moduli (GPa) = 42.36654 31.02176 105.12850
#
# Poissons Ratio (x) = -0.28542 0.27241
# Poissons Ratio (y) = -0.38980 0.55822
# Poissons Ratio (z) = 0.10978 0.16472
#
# Static dielectric constant tensor:
#      x y z
#    x 2.018430 -0.069180 0.023060 
#    y -0.069180 2.003580 0.068940 
#    z 0.023060 0.068940 1.893450 
# 
# From -- ./inp_files/439150.got.cif
#   From: 2010.05.17/outbox.cif.g08.bks.cpg/sg2_220_cif.got.tgz:439150.got - 2010.06.03 11:33:40.
