data_PCOD9076273
_publ_section_title
;
Structure prediction by ZEFSAII (Michael W. Deem and Ramdas Pophale) SiO2 
 PCOD9076273
Probable space group: P -1
;
_chemical_formula_sum "Si O2"
_cell_formula_units_Z 16
_cell_length_a 7.044552
_cell_length_b 15.928035
_cell_length_c 15.129551
_cell_angle_alpha 44.079499
_cell_angle_beta 76.013745
_cell_angle_gamma 113.416873
_cell_volume 611.097493
_symmetry_space_group_name_H-M "P -1"
_symmetry_group_IT_number 2
_symmetry_cell_setting 'triclinic'
loop_
_space_group_symop_operation_xyz
x,y,z
-x,-y,-z
loop_
_atom_site_type_symbol
_atom_site_label
_atom_site_fract_x
_atom_site_fract_y
_atom_site_fract_z
Si Si1 0.557986 0.926756 0.126582
Si Si2 0.546464 0.546077 0.179760
Si Si3 0.505179 0.732351 0.943156
Si Si4 0.503038 0.356047 0.167730
Si Si5 0.670982 0.716535 0.285856
Si Si6 0.217797 0.195679 0.598578
Si Si7 0.430886 0.051567 0.690523
Si Si8 0.673595 0.197602 0.231403
O O1 0.430065 0.898057 0.262286
O O2 0.453942 0.727556 0.274588
O O3 0.996605 0.142054 0.921963
O O4 0.500000 0.000000 0.000000
O O5 0.401346 0.378294 0.247333
O O6 0.418462 0.421446 0.378256
O O7 0.364684 0.579517 0.154175
O O8 0.983856 0.795568 0.934917
O O9 0.641045 0.711929 0.864970
O O10 0.237791 0.682451 0.960861
O O11 0.849272 0.987181 0.743477
O O12 0.455191 0.186455 0.317515
O O13 0.936080 0.613548 0.911179
O O14 0.500000 0.500000 0.500000
O O15 0.868613 0.856648 0.249563
O O16 0.477032 0.215718 0.538508
O O17 0.543009 0.028583 0.611004
#
# Coordination Sequence:
#
# PCOD9076273 Si02
#       8
#     2   2   2   2   2   2   2   2
#     4  10  22  38  66  88 110 155 198 236 294 353
#     4  10  18  33  54  76 106 146 179 215 273 327
#     4   9  18  32  53  77 105 137 181 225 259 314
#     4   8  16  31  53  75 103 144 181 216 269 313
#     4  10  22  42  60  86 123 150 189 245 296 349
#     4  10  21  34  54  79 107 142 177 221 278 329
#     4   9  19  37  54  75 109 140 176 225 274 330
#     4   8  16  32  54  72 104 144 171 222 271 309
#
# _framework density 26.182400999999999
#
# number of rings (size 3 to 8) (size 9 to 14) (size 15 to 20)
#    0.750    2.000    0.000    1.125    1.750    2.000 
#    0.000    3.125    0.000    0.000    0.000    0.000 
#    0.000    0.000    0.000    0.000    0.000    0.000 
#
# Total GULP energy -89124.531665 kJ/mol
# GULP energy per Si atom -5570.283229 kJ/mol
# Density = 2.612281 g / cm^3
# Si number density = 26.182401 Si / 1000 Ang^3
#
#
#
# Elastic Constant Matrix: (Units=GPa)
#
#
# Indices 1 2 3 4 5 6 
#
# 1 87.5223 21.1969 31.0215 -13.3627 25.9937 -4.2794
# 2 21.1969 84.1959 5.0406 -6.2747 4.5383 13.6630
# 3 31.0215 5.0406 108.7472 -1.7013 31.3591 7.4902
# 4 -13.3627 -6.2747 -1.7013 21.1652 -4.8042 5.7721
# 5 25.9937 4.5383 31.3591 -4.8042 37.6044 2.3451
# 6 -4.2794 13.6630 7.4902 5.7721 2.3451 28.2285
#
#
#
# Elastic Compliance Matrix: (Units=1/GPa)
#
#
# Indices 1 2 3 4 5 6 
#
# 1 0.016990 -0.003951 -0.002340 0.006112 -0.008821 0.004592
# 2 -0.003951 0.014537 0.000692 0.004649 0.001548 -0.008898
# 3 -0.002340 0.000692 0.012603 -0.001483 -0.008979 -0.002985
# 4 0.006112 0.004649 -0.001483 0.056924 0.004531 -0.012946
# 5 -0.008821 0.001548 -0.008979 0.004531 0.040820 -0.004022
# 6 0.004592 -0.008898 -0.002985 -0.012946 -0.004022 0.044201
#
#
# Mechanical properties :
#
#
# Convention : Reuss Voigt Hill
#
# Bulk Modulus (GPa) = 30.36624 43.88706 37.12665
# Shear Modulus (GPa) = 24.00942 32.28004 28.14473
#
# Velocity S-wave (km/s) = 3.03150 3.51506 3.28220
# Velocity P-wave (km/s) = 4.88635 5.76825 5.34552
#
# Compressibility (1/GPa) = 0.03293131
#
# Stress axis : x y z
#
# Youngs Moduli (GPa) = 58.85923 68.78825 79.34776
#
# Poissons Ratio (x) = 0.27181 0.18570
# Poissons Ratio (y) = 0.23257 -0.05495
# Poissons Ratio (z) = 0.13775 -0.04764
#
# Static dielectric constant tensor:
#      x y z
#    x 2.165250 -0.066940 0.059840 
#    y -0.066940 2.066230 -0.015930 
#    z 0.059840 -0.015930 2.083870 
# 
# From -- ./inp_files/507007.got.cif
#   From: 2010.05.17/outbox.cif.g08.bks.cpg/sg2_254_cif.got.tgz:507007.got - 2010.06.03 11:33:40.
