data_PCOD9076227
_publ_section_title
;
Structure prediction by ZEFSAII (Michael W. Deem and Ramdas Pophale) SiO2 
 PCOD9076227
Probable space group: P -1
;
_chemical_formula_sum "Si O2"
_cell_formula_units_Z 14
_cell_length_a 10.452246
_cell_length_b 6.713063
_cell_length_c 12.629169
_cell_angle_alpha 86.113949
_cell_angle_beta 130.434965
_cell_angle_gamma 68.600679
_cell_volume 567.092968
_symmetry_space_group_name_H-M "P -1"
_symmetry_group_IT_number 2
_symmetry_cell_setting 'triclinic'
loop_
_space_group_symop_operation_xyz
x,y,z
-x,-y,-z
loop_
_atom_site_type_symbol
_atom_site_label
_atom_site_fract_x
_atom_site_fract_y
_atom_site_fract_z
Si Si1 0.351057 0.605900 0.818057
Si Si2 0.862647 0.008311 0.830920
Si Si3 0.288645 0.402070 0.590676
Si Si4 0.260884 0.506242 0.342753
Si Si5 0.120259 0.114347 0.606934
Si Si6 0.112893 0.535814 0.850076
Si Si7 0.245904 0.311375 0.132615
O O1 0.401828 0.467493 0.737599
O O2 0.180430 0.562355 0.771020
O O3 0.273837 0.883012 0.764812
O O4 0.500000 0.500000 0.000000
O O5 0.770406 0.243213 0.705422
O O6 0.720027 0.941556 0.816056
O O7 0.997202 0.795886 0.830047
O O8 0.000000 0.000000 0.000000
O O9 0.364709 0.383028 0.512245
O O10 0.250808 0.194349 0.609218
O O11 0.065813 0.642157 0.457699
O O12 0.342445 0.364994 0.280755
O O13 0.042557 0.544510 0.233606
O O14 0.000000 0.000000 0.500000
O O15 0.283308 0.365718 0.033115
O O16 0.000000 0.500000 0.000000
#
# Coordination Sequence:
#
# PCOD9076227 Si02
#       7
#     2   2   2   2   2   2   2
#     4  11  24  38  52  75 112 154 189 219 259 319
#     4  10  14  27  48  80 108 128 161 211 282 322
#     4  10  20  34  56  79 107 142 179 228 279 313
#     4  10  16  28  50  80 106 128 165 220 276 323
#     4   9  18  35  54  79 104 134 184 225 270 319
#     4  10  18  29  47  74 109 135 169 220 260 315
#     4   8  16  25  42  75 106 127 161 212 270 319
#
# _framework density 24.687311999999999
#
# number of rings (size 3 to 8) (size 9 to 14) (size 15 to 20)
#    0.000    2.571    4.286    3.429    0.000    4.000 
#    0.000    0.000    0.000    0.857    0.000    2.000 
#    0.000    0.000    0.000    0.000    0.000    0.000 
#
# Total GULP energy -78089.728125 kJ/mol
# GULP energy per Si atom -5577.837723 kJ/mol
# Density = 2.463112 g / cm^3
# Si number density = 24.687312 Si / 1000 Ang^3
#
#
#
# Elastic Constant Matrix: (Units=GPa)
#
#
# Indices 1 2 3 4 5 6 
#
# 1 78.8152 40.2154 41.7821 -3.3267 -19.3892 21.5806
# 2 40.2154 124.5895 65.4468 -13.3455 -27.7788 43.4648
# 3 41.7821 65.4468 154.6301 -2.6270 -32.0694 14.0882
# 4 -3.3267 -13.3455 -2.6270 49.5661 1.7329 -21.8765
# 5 -19.3892 -27.7788 -32.0694 1.7329 50.0897 -5.1806
# 6 21.5806 43.4648 14.0882 -21.8765 -5.1806 27.9781
#
#
#
# Elastic Compliance Matrix: (Units=1/GPa)
#
#
# Indices 1 2 3 4 5 6 
#
# 1 0.022047 0.008006 -0.004961 -0.012542 0.006556 -0.035537
# 2 0.008006 0.034899 -0.008647 -0.022564 0.010274 -0.071779
# 3 -0.004961 -0.008647 0.010372 0.004991 0.001428 0.016204
# 4 -0.012542 -0.022564 0.004991 0.048548 -0.007708 0.078748
# 5 0.006556 0.010274 0.001428 -0.007708 0.027027 -0.022759
# 6 -0.035537 -0.071779 0.016204 0.078748 -0.022759 0.223864
#
#
# Mechanical properties :
#
#
# Convention : Reuss Voigt Hill
#
# Bulk Modulus (GPa) = 17.82121 72.54707 45.18414
# Shear Modulus (GPa) = 12.60500 39.56614 26.08557
#
# Velocity S-wave (km/s) = 2.26207 4.00771 3.25412
# Velocity P-wave (km/s) = 3.74927 7.13203 5.69749
#
# Compressibility (1/GPa) = 0.05611292
#
# Stress axis : x y z
#
# Youngs Moduli (GPa) = 45.35748 28.65380 96.41250
#
# Poissons Ratio (x) = -0.22939 0.47833
# Poissons Ratio (y) = -0.36312 0.83370
# Poissons Ratio (z) = 0.22503 0.24777
#
# Static dielectric constant tensor:
#      x y z
#    x 2.080840 0.004990 0.022230 
#    y 0.004990 1.999890 0.000120 
#    z 0.022230 0.000120 2.056750 
# 
# From -- ./inp_files/309802.got.cif
#   From: 2010.05.17/outbox.cif.g08.bks.cpg/sg2_155_cif.got.tgz:309802.got - 2010.06.03 11:33:40.
