data_PCOD9076430
_publ_section_title
;
Structure prediction by ZEFSAII (Michael W. Deem and Ramdas Pophale) SiO2 
 PCOD9076430
Probable space group: P -1
;
_chemical_formula_sum "Si O2"
_cell_formula_units_Z 16
_cell_length_a 9.675663
_cell_length_b 11.906598
_cell_length_c 17.434752
_cell_angle_alpha 138.553857
_cell_angle_beta 91.448912
_cell_angle_gamma 122.165112
_cell_volume 734.991188
_symmetry_space_group_name_H-M "P -1"
_symmetry_group_IT_number 2
_symmetry_cell_setting 'triclinic'
loop_
_space_group_symop_operation_xyz
x,y,z
-x,-y,-z
loop_
_atom_site_type_symbol
_atom_site_label
_atom_site_fract_x
_atom_site_fract_y
_atom_site_fract_z
Si Si1 0.430669 0.164229 0.297780
Si Si2 0.361693 0.947212 0.719751
Si Si3 0.789665 0.845109 0.180538
Si Si4 0.950678 0.026158 0.596645
Si Si5 0.264139 0.654571 0.413538
Si Si6 0.608665 0.553899 0.645242
Si Si7 0.856285 0.304717 0.718534
Si Si8 0.903377 0.618365 0.010817
O O1 0.574813 0.422764 0.495417
O O2 0.356750 0.212836 0.253017
O O3 0.585227 0.154796 0.274751
O O4 0.166852 0.844850 0.171237
O O5 0.199200 0.946457 0.735405
O O6 0.641378 0.301132 0.884061
O O7 0.249933 0.741455 0.537586
O O8 0.904353 0.920940 0.304997
O O9 0.500000 0.500000 0.000000
O O10 0.904814 0.824925 0.114335
O O11 0.005572 0.284590 0.727308
O O12 0.658592 0.716003 0.454182
O O13 0.000000 0.000000 0.500000
O O14 0.213425 0.400257 0.286554
O O15 0.115865 0.604120 0.321264
O O16 0.560308 0.966904 0.555551
O O17 0.917069 0.524718 0.886112
#
# Coordination Sequence:
#
# PCOD9076430 Si02
#       8
#     2   2   2   2   2   2   2   2
#     4  10  18  33  56  78 108 142 179 222 264 326
#     4   9  18  30  52  79 109 138 173 224 271 316
#     4  10  21  32  50  84 116 135 173 230 279 314
#     4  11  21  35  56  81 112 143 182 223 271 328
#     4   8  15  32  50  75 105 131 181 220 262 317
#     4   9  19  33  55  79 104 145 182 218 268 321
#     4   9  18  29  54  79  99 139 177 225 264 314
#     4  10  19  31  55  81 107 134 182 226 269 317
#
# _framework density 21.768969999999999
#
# number of rings (size 3 to 8) (size 9 to 14) (size 15 to 20)
#    0.000    2.500    1.250    1.875    3.500    3.000 
#    0.000    1.250    2.750    0.750    0.000    0.000 
#    0.000    0.000    0.000    0.000    0.000    0.000 
#
# Total GULP energy -89146.171605 kJ/mol
# GULP energy per Si atom -5571.635725 kJ/mol
# Density = 2.171942 g / cm^3
# Si number density = 21.768970 Si / 1000 Ang^3
#
#
#
# Elastic Constant Matrix: (Units=GPa)
#
#
# Indices 1 2 3 4 5 6 
#
# 1 187.8604 49.8534 33.8728 -2.2174 -33.7681 -35.7304
# 2 49.8534 56.6452 18.1901 3.7044 -15.7441 -24.8260
# 3 33.8728 18.1901 45.4002 0.8331 -13.2978 -11.3736
# 4 -2.2174 3.7044 0.8331 12.5021 2.9104 -0.3968
# 5 -33.7681 -15.7441 -13.2978 2.9104 33.5285 6.7860
# 6 -35.7304 -24.8260 -11.3736 -0.3968 6.7860 29.7388
#
#
#
# Elastic Compliance Matrix: (Units=1/GPa)
#
#
# Indices 1 2 3 4 5 6 
#
# 1 0.008540 -0.002949 -0.002303 0.001564 0.004993 0.005799
# 2 -0.002949 0.033680 -0.003350 -0.011516 0.008212 0.021264
# 3 -0.002303 -0.003350 0.028003 -0.002735 0.006727 0.003574
# 4 0.001564 -0.011516 -0.002735 0.086352 -0.011395 -0.005028
# 5 0.004993 0.008212 0.006727 -0.011395 0.041178 0.005879
# 6 0.005799 0.021264 0.003574 -0.005028 0.005879 0.058303
#
#
# Mechanical properties :
#
#
# Convention : Reuss Voigt Hill
#
# Bulk Modulus (GPa) = 18.86161 54.85984 36.86073
# Shear Modulus (GPa) = 17.18599 27.68652 22.43625
#
# Velocity S-wave (km/s) = 2.81280 3.57015 3.21386
# Velocity P-wave (km/s) = 4.38548 6.50002 5.54449
#
# Compressibility (1/GPa) = 0.05301774
#
# Stress axis : x y z
#
# Youngs Moduli (GPa) = 117.09538 29.69092 35.71022
#
# Poissons Ratio (x) = 0.08757 0.08226
# Poissons Ratio (y) = 0.34534 0.11964
# Poissons Ratio (z) = 0.26972 0.09947
#
# Static dielectric constant tensor:
#      x y z
#    x 1.861070 -0.027970 0.006260 
#    y -0.027970 2.088640 0.192280 
#    z 0.006260 0.192280 1.911970 
# 
# From -- ./inp_files/280974.got.cif
#   From: 2010.05.17/outbox.cif.g08.bks.cpg/sg2_141_cif.got.tgz:280974.got - 2010.06.03 11:33:40.
