data_PCOD9076181
_publ_section_title
;
Structure prediction by ZEFSAII (Michael W. Deem and Ramdas Pophale) SiO2 
 PCOD9076181
Probable space group: P -1
;
_chemical_formula_sum "Si O2"
_cell_formula_units_Z 16
_cell_length_a 16.699115
_cell_length_b 5.313186
_cell_length_c 25.062126
_cell_angle_alpha 82.983006
_cell_angle_beta 19.301503
_cell_angle_gamma 83.413724
_cell_volume 729.496889
_symmetry_space_group_name_H-M "P -1"
_symmetry_group_IT_number 2
_symmetry_cell_setting 'triclinic'
loop_
_space_group_symop_operation_xyz
x,y,z
-x,-y,-z
loop_
_atom_site_type_symbol
_atom_site_label
_atom_site_fract_x
_atom_site_fract_y
_atom_site_fract_z
Si Si1 0.795558 0.676552 0.649990
Si Si2 0.357035 0.444675 0.806875
Si Si3 0.274884 0.472918 0.982175
Si Si4 0.608482 0.874413 0.570319
Si Si5 0.191882 0.253770 0.813603
Si Si6 0.008062 0.967593 0.152035
Si Si7 0.816512 0.071432 0.532901
Si Si8 0.579946 0.315902 0.407524
O O1 0.553455 0.526760 0.820387
O O2 0.000000 0.500000 0.500000
O O3 0.929028 0.813465 0.611453
O O4 0.738773 0.879090 0.633868
O O5 0.271912 0.498896 0.918481
O O6 0.436088 0.698762 0.719969
O O7 0.169642 0.303187 0.888851
O O8 0.603224 0.279301 0.660191
O O9 0.186147 0.186724 0.054288
O O10 0.111624 0.689558 0.107642
O O11 0.628113 0.742989 0.503897
O O12 0.457631 0.125920 0.645943
O O13 0.823717 0.942073 0.473480
O O14 0.227104 0.514764 0.752223
O O15 0.017628 0.066972 0.895411
O O16 0.738793 0.071734 0.332434
O O17 0.500000 0.500000 0.500000
#
# Coordination Sequence:
#
# PCOD9076181 Si02
#       8
#     2   2   2   2   2   2   2   2
#     4  11  21  32  53  79 109 165 202 231 274 326
#     4  10  19  33  53  77 120 159 189 231 272 332
#     4  12  23  36  54  80 122 160 191 233 276 335
#     4   9  18  33  56  83 114 145 194 241 278 340
#     4   9  20  38  53  85 111 149 195 228 281 354
#     4  11  24  39  53  84 117 150 199 229 287 345
#     4  10  18  33  51  79 117 148 207 237 268 328
#     4  10  21  42  64  83 111 145 191 247 294 348
#
# _framework density 21.932924
#
# number of rings (size 3 to 8) (size 9 to 14) (size 15 to 20)
#    0.000    1.750    3.750    0.750    3.500    3.000 
#    0.000    0.000    0.000    0.000    0.000    1.750 
#    0.000    0.125    0.000    0.000    0.000    0.000 
#
# Total GULP energy -89296.177045 kJ/mol
# GULP energy per Si atom -5581.011065 kJ/mol
# Density = 2.188300 g / cm^3
# Si number density = 21.932924 Si / 1000 Ang^3
#
#
#
# Elastic Constant Matrix: (Units=GPa)
#
#
# Indices 1 2 3 4 5 6 
#
# 1 107.5148 36.8277 32.7634 -2.4995 -14.7342 41.4775
# 2 36.8277 100.7247 23.3672 5.3280 -13.7892 23.0361
# 3 32.7634 23.3672 68.6337 4.7078 -17.4994 19.3463
# 4 -2.4995 5.3280 4.7078 36.9717 11.4489 -2.7121
# 5 -14.7342 -13.7892 -17.4994 11.4489 32.9350 -10.0547
# 6 41.4775 23.0361 19.3463 -2.7121 -10.0547 49.3280
#
#
#
# Elastic Compliance Matrix: (Units=1/GPa)
#
#
# Indices 1 2 3 4 5 6 
#
# 1 0.015189 -0.002403 -0.003513 0.000919 0.000515 -0.010117
# 2 -0.002403 0.012375 -0.001115 -0.003176 0.003786 -0.002724
# 3 -0.003513 -0.001115 0.020380 -0.005978 0.010012 -0.002807
# 4 0.000919 -0.003176 -0.005978 0.033124 -0.015058 0.001807
# 5 0.000515 0.003786 0.010012 -0.015058 0.043303 0.001871
# 6 -0.010117 -0.002724 -0.002807 0.001807 0.001871 0.031633
#
#
# Mechanical properties :
#
#
# Convention : Reuss Voigt Hill
#
# Bulk Modulus (GPa) = 29.51382 51.42110 40.46746
# Shear Modulus (GPa) = 27.56932 36.10794 31.83863
#
# Velocity S-wave (km/s) = 3.54924 4.06185 3.81417
# Velocity P-wave (km/s) = 5.50289 6.74491 6.15530
#
# Compressibility (1/GPa) = 0.03388243
#
# Stress axis : x y z
#
# Youngs Moduli (GPa) = 65.83519 80.81061 49.06655
#
# Poissons Ratio (x) = 0.19420 0.17237
# Poissons Ratio (y) = 0.15821 0.05471
# Poissons Ratio (z) = 0.23127 0.09010
#
# Static dielectric constant tensor:
#      x y z
#    x 1.837150 -0.007350 -0.039040 
#    y -0.007350 1.934180 0.021590 
#    z -0.039040 0.021590 1.857250 
# 
# From -- ./inp_files/108498.got.cif
#   From: 2010.05.17/outbox.cif.g08.bks.cpg/sg2_55_cif.got.tgz:108498.got - 2010.06.03 11:33:40.
