data_PCOD9076867
_publ_section_title
;
Structure prediction by ZEFSAII (Michael W. Deem and Ramdas Pophale) SiO2 
 PCOD9076867
Probable space group: P -1
;
_chemical_formula_sum "Si O2"
_cell_formula_units_Z 14
_cell_length_a 11.336331
_cell_length_b 10.740226
_cell_length_c 7.149864
_cell_angle_alpha 112.112991
_cell_angle_beta 65.696002
_cell_angle_gamma 137.839234
_cell_volume 528.892005
_symmetry_space_group_name_H-M "P -1"
_symmetry_group_IT_number 2
_symmetry_cell_setting 'triclinic'
loop_
_space_group_symop_operation_xyz
x,y,z
-x,-y,-z
loop_
_atom_site_type_symbol
_atom_site_label
_atom_site_fract_x
_atom_site_fract_y
_atom_site_fract_z
Si Si1 0.961331 0.771924 0.029435
Si Si2 0.453980 0.966187 0.230455
Si Si3 0.630411 0.373844 0.021096
Si Si4 0.404899 0.685168 0.534362
Si Si5 0.363491 0.371773 0.340833
Si Si6 0.864331 0.052030 0.610843
Si Si7 0.786496 0.922786 0.214457
O O1 0.837191 0.556681 0.949367
O O2 0.841750 0.812238 0.063931
O O3 0.270718 0.921027 0.319525
O O4 0.990707 0.802466 0.249225
O O5 0.596610 0.791983 0.367953
O O6 0.235908 0.155306 0.363248
O O7 0.422502 0.785409 0.170639
O O8 0.500000 0.000000 0.000000
O O9 0.616049 0.336433 0.234885
O O10 0.487339 0.392403 0.111993
O O11 0.294182 0.475130 0.412005
O O12 0.407046 0.851610 0.624314
O O13 0.500000 0.500000 0.500000
O O14 0.157943 0.935355 0.904975
O O15 0.925084 0.060201 0.368622
#
# Coordination Sequence:
#
# PCOD9076867 Si02
#       7
#     2   2   2   2   2   2   2
#     4  11  23  32  56  86 113 140 182 233 277 322
#     4   9  16  30  56  82 103 146 190 214 270 331
#     4  10  17  32  56  82 106 148 184 221 271 331
#     4   9  16  31  57  75 102 148 183 217 266 331
#     4  10  14  29  58  77  98 145 184 213 269 322
#     4  11  20  35  57  81 112 146 182 227 277 326
#     4  10  19  37  54  79 116 145 176 226 289 319
#
# _framework density 26.470431999999999
#
# number of rings (size 3 to 8) (size 9 to 14) (size 15 to 20)
#    0.000    2.000    8.571    1.286    0.000    0.571 
#    0.000    3.571    3.143    7.714    0.000    0.000 
#    0.000    0.000    0.000    0.000    0.000    0.000 
#
# Total GULP energy -78003.754555 kJ/mol
# GULP energy per Si atom -5571.696754 kJ/mol
# Density = 2.641018 g / cm^3
# Si number density = 26.470432 Si / 1000 Ang^3
#
#
#
# Elastic Constant Matrix: (Units=GPa)
#
#
# Indices 1 2 3 4 5 6 
#
# 1 78.0003 18.0644 38.9521 14.3358 -21.2585 -11.2595
# 2 18.0644 113.5296 58.4917 8.8789 -7.6362 -19.4155
# 3 38.9521 58.4917 121.3259 25.7941 -33.3229 -21.9100
# 4 14.3358 8.8789 25.7941 55.5904 -14.9928 -14.1239
# 5 -21.2585 -7.6362 -33.3229 -14.9928 58.9459 9.0900
# 6 -11.2595 -19.4155 -21.9100 -14.1239 9.0900 30.0341
#
#
#
# Elastic Compliance Matrix: (Units=1/GPa)
#
#
# Indices 1 2 3 4 5 6 
#
# 1 0.015988 -0.000031 -0.003703 -0.001101 0.003109 0.001814
# 2 -0.000031 0.012522 -0.006038 0.001499 -0.002200 0.005049
# 3 -0.003703 -0.006038 0.014843 -0.002922 0.005128 0.002611
# 4 -0.001101 0.001499 -0.002922 0.022119 0.002528 0.008062
# 5 0.003109 -0.002200 0.005128 0.002528 0.021632 -0.001874
# 6 0.001814 0.005049 0.002611 0.008062 -0.001874 0.043502
#
#
# Mechanical properties :
#
#
# Convention : Reuss Voigt Hill
#
# Bulk Modulus (GPa) = 41.99883 60.43024 51.21454
# Shear Modulus (GPa) = 31.62812 42.07060 36.84936
#
# Velocity S-wave (km/s) = 3.46041 3.99098 3.73513
# Velocity P-wave (km/s) = 5.64505 6.64200 6.16372
#
# Compressibility (1/GPa) = 0.02381019
#
# Stress axis : x y z
#
# Youngs Moduli (GPa) = 62.54618 79.85628 67.37165
#
# Poissons Ratio (x) = 0.00247 0.24945
# Poissons Ratio (y) = 0.00193 0.40681
# Poissons Ratio (z) = 0.23158 0.48219
#
# Static dielectric constant tensor:
#      x y z
#    x 2.350180 -0.121640 -0.049590 
#    y -0.121640 2.213110 0.091150 
#    z -0.049590 0.091150 2.140160 
# 
# From -- ./inp_files/274347.got.cif
#   From: 2010.05.17/outbox.cif.g08.bks.cpg/sg2_138_cif.got.tgz:274347.got - 2010.06.03 11:33:40.
