data_PCOD9076826
_publ_section_title
;
Structure prediction by ZEFSAII (Michael W. Deem and Ramdas Pophale) SiO2 
 PCOD9076826
Probable space group: P -1
;
_chemical_formula_sum "Si O2"
_cell_formula_units_Z 16
_cell_length_a 9.920982
_cell_length_b 8.141067
_cell_length_c 13.157518
_cell_angle_alpha 79.782098
_cell_angle_beta 61.178170
_cell_angle_gamma 47.807123
_cell_volume 672.035641
_symmetry_space_group_name_H-M "P -1"
_symmetry_group_IT_number 2
_symmetry_cell_setting 'triclinic'
loop_
_space_group_symop_operation_xyz
x,y,z
-x,-y,-z
loop_
_atom_site_type_symbol
_atom_site_label
_atom_site_fract_x
_atom_site_fract_y
_atom_site_fract_z
Si Si1 0.301327 0.924174 0.514483
Si Si2 0.166109 0.835688 0.046403
Si Si3 0.034605 0.647129 0.532565
Si Si4 0.971114 0.604405 0.796092
Si Si5 0.426132 0.364542 0.292903
Si Si6 0.391230 0.351966 0.078307
Si Si7 0.338438 0.131993 0.672647
Si Si8 0.826125 0.210592 0.255525
O O1 0.286562 0.078996 0.590861
O O2 0.129685 0.094848 0.474756
O O3 0.531421 0.793353 0.400969
O O4 0.256833 0.785327 0.604074
O O5 0.292384 0.569650 0.020746
O O6 0.356623 0.827237 0.993506
O O7 0.015012 0.946771 0.187004
O O8 0.000000 0.000000 0.000000
O O9 0.998293 0.633937 0.664350
O O10 0.265075 0.525347 0.423209
O O11 0.000000 0.500000 0.500000
O O12 0.126531 0.332931 0.785101
O O13 0.069611 0.687997 0.807607
O O14 0.734528 0.724004 0.890208
O O15 0.334136 0.443904 0.205701
O O16 0.630587 0.325366 0.240064
O O17 0.509711 0.112700 0.302002
#
# Coordination Sequence:
#
# PCOD9076826 Si02
#       8
#     2   2   2   2   2   2   2   2
#     4  10  19  35  59  88 124 176 212 257 297 379
#     4  11  24  46  75  95 117 163 221 271 316 380
#     4  12  19  34  62  93 126 166 224 250 299 382
#     4  12  24  38  60  98 133 167 203 265 320 379
#     4  11  20  38  67  93 124 170 216 261 299 386
#     4  11  23  43  76  96 117 165 224 258 315 383
#     4  10  18  33  60  90 125 171 216 244 307 371
#     4  11  25  40  60  93 135 163 208 268 332 362
#
# _framework density 23.808260000000001
#
# number of rings (size 3 to 8) (size 9 to 14) (size 15 to 20)
#    0.000    1.000    5.000    3.750    0.000    3.000 
#    0.000    4.375    0.000    0.000    0.000    0.000 
#    0.000    0.000    0.000    0.000    0.000    0.000 
#
# Total GULP energy -89457.261509 kJ/mol
# GULP energy per Si atom -5591.078844 kJ/mol
# Density = 2.375407 g / cm^3
# Si number density = 23.808260 Si / 1000 Ang^3
#
#
#
# Elastic Constant Matrix: (Units=GPa)
#
#
# Indices 1 2 3 4 5 6 
#
# 1 135.9934 30.6315 26.4790 6.3860 -56.5974 -0.4211
# 2 30.6315 89.1827 10.9733 -13.0849 -3.1464 -28.9585
# 3 26.4790 10.9733 64.4714 -1.2110 -34.0160 -11.6181
# 4 6.3860 -13.0849 -1.2110 31.3488 -8.5795 -4.9612
# 5 -56.5974 -3.1464 -34.0160 -8.5795 42.7794 4.5399
# 6 -0.4211 -28.9585 -11.6181 -4.9612 4.5399 30.8029
#
#
#
# Elastic Compliance Matrix: (Units=1/GPa)
#
#
# Indices 1 2 3 4 5 6 
#
# 1 0.028476 -0.014943 0.014008 -0.000497 0.049282 -0.015719
# 2 -0.014943 0.027563 -0.004569 0.013024 -0.021873 0.029306
# 3 0.014008 -0.004569 0.038090 0.011197 0.050235 0.004662
# 4 -0.000497 0.013024 0.011197 0.045665 0.016086 0.021444
# 5 0.049282 -0.021873 0.050235 0.016086 0.132028 -0.017810
# 6 -0.015719 0.029306 0.004662 0.021444 -0.017810 0.067638
#
#
# Mechanical properties :
#
#
# Convention : Reuss Voigt Hill
#
# Bulk Modulus (GPa) = 12.03052 47.31278 29.67165
# Shear Modulus (GPa) = 13.22137 35.75712 24.48925
#
# Velocity S-wave (km/s) = 2.35909 3.87961 3.21066
# Velocity P-wave (km/s) = 3.53334 6.32330 5.12194
#
# Compressibility (1/GPa) = 0.08312192
#
# Stress axis : x y z
#
# Youngs Moduli (GPa) = 35.11676 36.28118 26.25342
#
# Poissons Ratio (x) = 0.54213 -0.36775
# Poissons Ratio (y) = 0.52473 0.11995
# Poissons Ratio (z) = -0.49191 0.16577
#
# Static dielectric constant tensor:
#      x y z
#    x 1.937850 0.015500 -0.023400 
#    y 0.015500 1.916970 -0.004370 
#    z -0.023400 -0.004370 1.948570 
# 
# From -- ./inp_files/216050.got.cif
#   From: 2010.05.17/outbox.cif.g08.bks.cpg/sg2_109_cif.got.tgz:216050.got - 2010.06.03 11:33:40.
