data_PCOD9076294
_publ_section_title
;
Structure prediction by ZEFSAII (Michael W. Deem and Ramdas Pophale) SiO2 
 PCOD9076294
Probable space group: P -1
;
_chemical_formula_sum "Si O2"
_cell_formula_units_Z 16
_cell_length_a 12.882300
_cell_length_b 13.030059
_cell_length_c 10.685636
_cell_angle_alpha 146.360273
_cell_angle_beta 110.218530
_cell_angle_gamma 53.569278
_cell_volume 753.583944
_symmetry_space_group_name_H-M "P -1"
_symmetry_group_IT_number 2
_symmetry_cell_setting 'triclinic'
loop_
_space_group_symop_operation_xyz
x,y,z
-x,-y,-z
loop_
_atom_site_type_symbol
_atom_site_label
_atom_site_fract_x
_atom_site_fract_y
_atom_site_fract_z
Si Si1 0.850214 0.168612 0.175171
Si Si2 0.809577 0.322564 0.788392
Si Si3 0.862959 0.528917 0.431594
Si Si4 0.670779 0.064569 0.837981
Si Si5 0.593084 0.815019 0.242477
Si Si6 0.967573 0.805060 0.055523
Si Si7 0.938129 0.463840 0.812935
Si Si8 0.772738 0.975747 0.516866
O O1 0.820291 0.416149 0.400866
O O2 0.736921 0.158377 0.045704
O O3 0.873989 0.048273 0.196327
O O4 0.000000 0.000000 0.000000
O O5 0.830404 0.417937 0.766852
O O6 0.773852 0.143928 0.592798
O O7 0.692833 0.547105 0.045118
O O8 0.953895 0.194311 0.791156
O O9 0.909922 0.371857 0.168211
O O10 0.000000 0.500000 0.500000
O O11 0.752882 0.793498 0.623470
O O12 0.511955 0.164687 0.881503
O O13 0.695767 0.099285 0.739195
O O14 0.500000 0.000000 0.500000
O O15 0.698439 0.876393 0.319586
O O16 0.895802 0.679659 0.929938
O O17 0.074551 0.228522 0.580336
O O18 0.000000 0.500000 0.000000
#
# Coordination Sequence:
#
# PCOD9076294 Si02
#       8
#     2   2   2   2   2   2   2   2
#     4  10  20  32  52  84 110 140 179 226 282 327
#     4  11  22  36  57  84 114 146 190 228 275 331
#     4  11  19  32  52  80 112 141 176 224 281 325
#     4  11  21  34  56  81 115 147 178 222 282 336
#     4  10  22  37  54  80 114 154 183 223 277 334
#     4  10  18  33  54  80 112 137 178 230 279 326
#     4  10  19  35  57  81 110 149 185 233 278 318
#     4  11  20  35  57  82 116 147 185 227 277 330
#
# _framework density 21.231874000000001
#
# number of rings (size 3 to 8) (size 9 to 14) (size 15 to 20)
#    0.000    1.500    6.250    2.625    0.000    3.000 
#    0.000    0.000    0.000    0.750    0.000    1.750 
#    0.000    0.000    0.000    0.000    0.000    0.000 
#
# Total GULP energy -89274.472908 kJ/mol
# GULP energy per Si atom -5579.654557 kJ/mol
# Density = 2.118355 g / cm^3
# Si number density = 21.231874 Si / 1000 Ang^3
#
#
#
# Elastic Constant Matrix: (Units=GPa)
#
#
# Indices 1 2 3 4 5 6 
#
# 1 89.6887 50.7141 46.1131 23.2102 30.9305 -0.9572
# 2 50.7141 87.9461 22.8694 12.6006 26.7733 -2.7376
# 3 46.1131 22.8694 75.0179 12.2973 32.1336 0.1858
# 4 23.2102 12.6006 12.2973 26.1996 9.6107 16.9623
# 5 30.9305 26.7733 32.1336 9.6107 42.6553 3.6606
# 6 -0.9572 -2.7376 0.1858 16.9623 3.6606 41.8136
#
#
#
# Elastic Compliance Matrix: (Units=1/GPa)
#
#
# Indices 1 2 3 4 5 6 
#
# 1 0.027704 -0.009411 -0.009549 -0.019752 -0.003255 0.008358
# 2 -0.009411 0.018250 0.003405 -0.000572 -0.007224 0.001829
# 3 -0.009549 0.003405 0.023876 -0.000290 -0.013235 0.001175
# 4 -0.019752 -0.000572 -0.000290 0.076310 0.000409 -0.031480
# 5 -0.003255 -0.007224 -0.013235 0.000409 0.040577 -0.004207
# 6 0.008358 0.001829 0.001175 -0.031480 -0.004207 0.037360
#
#
# Mechanical properties :
#
#
# Convention : Reuss Voigt Hill
#
# Bulk Modulus (GPa) = 25.82694 54.67176 40.24935
# Shear Modulus (GPa) = 18.65016 30.99744 24.82380
#
# Velocity S-wave (km/s) = 2.96700 3.82507 3.42303
# Velocity P-wave (km/s) = 4.89164 6.73157 5.88397
#
# Compressibility (1/GPa) = 0.03871925
#
# Stress axis : x y z
#
# Youngs Moduli (GPa) = 36.09556 54.79374 41.88384
#
# Poissons Ratio (x) = 0.51568 0.39995
# Poissons Ratio (y) = 0.33971 -0.14262
# Poissons Ratio (z) = 0.34468 -0.18657
#
# Static dielectric constant tensor:
#      x y z
#    x 1.827130 0.034610 -0.020160 
#    y 0.034610 1.809320 -0.020560 
#    z -0.020160 -0.020560 1.843820 
# 
# From -- ./inp_files/521123.got.cif
#   From: 2010.05.17/outbox.cif.g08.bks.cpg/sg2_261_cif.got.tgz:521123.got - 2010.06.03 11:33:40.
