data_PCOD9076830
_publ_section_title
;
Structure prediction by ZEFSAII (Michael W. Deem and Ramdas Pophale) SiO2 
 PCOD9076830
Probable space group: P -1
;
_chemical_formula_sum "Si O2"
_cell_formula_units_Z 14
_cell_length_a 13.020240
_cell_length_b 18.847321
_cell_length_c 8.823021
_cell_angle_alpha 86.276990
_cell_angle_beta 75.083860
_cell_angle_gamma 153.793009
_cell_volume 665.788507
_symmetry_space_group_name_H-M "P -1"
_symmetry_group_IT_number 2
_symmetry_cell_setting 'triclinic'
loop_
_space_group_symop_operation_xyz
x,y,z
-x,-y,-z
loop_
_atom_site_type_symbol
_atom_site_label
_atom_site_fract_x
_atom_site_fract_y
_atom_site_fract_z
Si Si1 0.898293 0.600758 0.844169
Si Si2 0.293530 0.223859 0.662606
Si Si3 0.863585 0.991590 0.603642
Si Si4 0.847743 0.091853 0.337171
Si Si5 0.241046 0.237345 0.007943
Si Si6 0.809879 0.484522 0.198017
Si Si7 0.082560 0.571884 0.630446
O O1 0.125135 0.807478 0.663937
O O2 0.921956 0.543630 0.747919
O O3 0.522040 0.390927 0.997360
O O4 0.991731 0.645054 0.977812
O O5 0.601674 0.398074 0.413321
O O6 0.032789 0.107578 0.685574
O O7 0.381804 0.314390 0.776250
O O8 0.081673 0.018083 0.809912
O O9 0.952267 0.111452 0.440288
O O10 0.468757 0.732819 0.768804
O O11 0.000000 0.000000 0.500000
O O12 0.108943 0.232168 0.090596
O O13 0.478539 0.834777 0.465348
O O14 0.009159 0.551606 0.206026
O O15 0.000000 0.500000 0.500000
#
# Coordination Sequence:
#
# PCOD9076830 Si02
#       7
#     2   2   2   2   2   2   2
#     4  12  24  38  62  94 121 160 197 251 307 358
#     4  10  18  33  60  92 118 153 202 256 278 344
#     4   9  15  33  57  82 115 159 195 235 284 353
#     4  11  23  41  60  89 129 156 196 253 306 354
#     4  11  20  34  62  91 121 153 200 245 304 344
#     4  10  19  38  60  86 119 157 208 242 291 365
#     4  11  24  43  65  86 116 161 210 248 296 360
#
# _framework density 21.027698999999998
#
# number of rings (size 3 to 8) (size 9 to 14) (size 15 to 20)
#    0.000    1.429    5.714    3.000    2.000    0.000 
#    0.000    5.000    0.000    0.000    0.000    0.000 
#    0.000    0.000    0.000    0.000    0.000    0.000 
#
# Total GULP energy -78154.792136 kJ/mol
# GULP energy per Si atom -5582.485153 kJ/mol
# Density = 2.097984 g / cm^3
# Si number density = 21.027699 Si / 1000 Ang^3
#
#
#
# Elastic Constant Matrix: (Units=GPa)
#
#
# Indices 1 2 3 4 5 6 
#
# 1 87.4338 16.1335 27.1181 9.6647 18.0452 2.0595
# 2 16.1335 31.3424 10.6795 14.4771 13.5556 4.9174
# 3 27.1181 10.6795 62.6278 20.7467 8.4362 -10.1599
# 4 9.6647 14.4771 20.7467 26.5729 6.9474 -1.4550
# 5 18.0452 13.5556 8.4362 6.9474 39.4506 3.5319
# 6 2.0595 4.9174 -10.1599 -1.4550 3.5319 20.8391
#
#
#
# Elastic Compliance Matrix: (Units=1/GPa)
#
#
# Indices 1 2 3 4 5 6 
#
# 1 0.014910 -0.004723 -0.006597 0.003232 -0.004118 -0.002652
# 2 -0.004723 0.051944 0.001189 -0.025387 -0.010468 -0.011209
# 3 -0.006597 0.001189 0.026798 -0.018230 -0.001016 0.012336
# 4 0.003232 -0.025387 -0.018230 0.064692 -0.000372 0.001363
# 5 -0.004118 -0.010468 -0.001016 -0.000372 0.031377 -0.002962
# 6 -0.002652 -0.011209 0.012336 0.001363 -0.002962 0.057505
#
#
# Mechanical properties :
#
#
# Convention : Reuss Voigt Hill
#
# Bulk Modulus (GPa) = 13.62578 32.14069 22.88324
# Shear Modulus (GPa) = 17.12616 25.87070 21.49843
#
# Velocity S-wave (km/s) = 2.85697 3.51139 3.20095
# Velocity P-wave (km/s) = 4.16857 5.63542 4.95656
#
# Compressibility (1/GPa) = 0.07339028
#
# Stress axis : x y z
#
# Youngs Moduli (GPa) = 67.06953 19.25158 37.31607
#
# Poissons Ratio (x) = 0.09092 0.24617
# Poissons Ratio (y) = 0.31676 -0.04437
# Poissons Ratio (z) = 0.44245 -0.02289
#
# Static dielectric constant tensor:
#      x y z
#    x 1.787460 -0.003670 0.018680 
#    y -0.003670 1.759230 -0.004420 
#    z 0.018680 -0.004420 1.829840 
# 
# From -- ./inp_files/178103.got.cif
#   From: 2010.05.17/outbox.cif.g08.bks.cpg/sg2_90_cif.got.tgz:178103.got - 2010.06.03 11:33:40.
