data_PCOD9076373
_publ_section_title
;
Structure prediction by ZEFSAII (Michael W. Deem and Ramdas Pophale) SiO2 
 PCOD9076373
Probable space group: P -1
;
_chemical_formula_sum "Si O2"
_cell_formula_units_Z 16
_cell_length_a 17.525741
_cell_length_b 16.813590
_cell_length_c 17.869985
_cell_angle_alpha 42.032472
_cell_angle_beta 16.016599
_cell_angle_gamma 40.521905
_cell_volume 941.851228
_symmetry_space_group_name_H-M "P -1"
_symmetry_group_IT_number 2
_symmetry_cell_setting 'triclinic'
loop_
_space_group_symop_operation_xyz
x,y,z
-x,-y,-z
loop_
_atom_site_type_symbol
_atom_site_label
_atom_site_fract_x
_atom_site_fract_y
_atom_site_fract_z
Si Si1 0.902264 0.583498 0.106775
Si Si2 0.689884 0.773265 0.771086
Si Si3 0.438791 0.447505 0.015516
Si Si4 0.756321 0.211621 0.579345
Si Si5 0.877785 0.088798 0.707171
Si Si6 0.884668 0.467654 0.453103
Si Si7 0.794423 0.825251 0.947506
Si Si8 0.509369 0.495617 0.649270
O O1 0.632275 0.551921 0.422379
O O2 0.170886 0.547854 0.934377
O O3 0.000000 0.500000 0.000000
O O4 0.837218 0.722137 0.042688
O O5 0.600259 0.692111 0.846220
O O6 0.857625 0.876134 0.525431
O O7 0.926627 0.663478 0.664596
O O8 0.416100 0.828220 0.040455
O O9 0.137132 0.521685 0.211144
O O10 0.500000 0.500000 0.000000
O O11 0.690334 0.445692 0.720797
O O12 0.887716 0.126964 0.584403
O O13 0.588472 0.348246 0.667963
O O14 0.996327 0.223024 0.285824
O O15 0.526858 0.152230 0.795954
O O16 0.865934 0.949112 0.821086
O O17 0.673446 0.527219 0.545108
#
# Coordination Sequence:
#
# PCOD9076373 Si02
#       8
#     2   2   2   2   2   2   2   2
#     4  12  23  37  51  71  98 142 186 241 266 290
#     4  10  19  33  52  74 107 138 160 193 258 309
#     4  10  18  33  55  83 118 136 155 195 256 337
#     4  12  20  35  52  70  96 135 177 233 272 300
#     4  12  22  35  50  73 104 138 175 216 261 320
#     4  10  20  33  52  83 106 142 165 201 262 314
#     4  12  25  35  48  71 100 135 189 227 263 302
#     4  12  21  35  58  69 105 136 186 220 268 314
#
# _framework density 16.987821
#
# number of rings (size 3 to 8) (size 9 to 14) (size 15 to 20)
#    0.750    0.000    5.000    4.500    1.750    0.000 
#    0.000    0.000    0.000    0.000    0.000    0.000 
#    0.000   20.000    0.000    0.000    0.000    0.000 
#
# Total GULP energy -89274.458197 kJ/mol
# GULP energy per Si atom -5579.653637 kJ/mol
# Density = 1.694916 g / cm^3
# Si number density = 16.987821 Si / 1000 Ang^3
#
#
#
# Elastic Constant Matrix: (Units=GPa)
#
#
# Indices 1 2 3 4 5 6 
#
# 1 73.1908 20.7732 11.7574 -2.4413 -11.9387 11.0499
# 2 20.7732 56.5118 2.4133 -18.9410 1.5445 8.3414
# 3 11.7574 2.4133 83.6945 0.7726 -5.8214 7.8419
# 4 -2.4413 -18.9410 0.7726 29.1428 -1.4686 -4.1541
# 5 -11.9387 1.5445 -5.8214 -1.4686 23.5059 -1.2445
# 6 11.0499 8.3414 7.8419 -4.1541 -1.2445 12.0413
#
#
#
# Elastic Compliance Matrix: (Units=1/GPa)
#
#
# Indices 1 2 3 4 5 6 
#
# 1 0.018910 -0.006649 -0.000600 -0.004101 0.008956 -0.012845
# 2 -0.006649 0.026527 0.000441 0.015346 -0.004461 -0.007729
# 3 -0.000600 0.000441 0.012979 -0.001182 0.002363 -0.008371
# 4 -0.004101 0.015346 -0.001182 0.045332 -0.000047 0.009537
# 5 0.008956 -0.004461 0.002363 -0.000047 0.047875 -0.001736
# 6 -0.012845 -0.007729 -0.008371 0.009537 -0.001736 0.108752
#
#
# Mechanical properties :
#
#
# Convention : Reuss Voigt Hill
#
# Bulk Modulus (GPa) = 22.32116 31.47611 26.89864
# Shear Modulus (GPa) = 17.30556 24.83486 21.07021
#
# Velocity S-wave (km/s) = 3.19518 3.82766 3.52563
# Velocity P-wave (km/s) = 5.17496 6.17280 5.69577
#
# Compressibility (1/GPa) = 0.04480053
#
# Stress axis : x y z
#
# Youngs Moduli (GPa) = 52.88252 37.69784 77.04472
#
# Poissons Ratio (x) = 0.25064 0.04626
# Poissons Ratio (y) = 0.35160 -0.03400
# Poissons Ratio (z) = 0.03175 -0.01664
#
# Static dielectric constant tensor:
#      x y z
#    x 1.586240 0.007230 -0.030080 
#    y 0.007230 1.582530 0.002440 
#    z -0.030080 0.002440 1.598720 
# 
# From -- ./inp_files/467781.got.cif
#   From: 2010.05.17/outbox.cif.g08.bks.cpg/sg2_234_cif.got.tgz:467781.got - 2010.06.03 11:33:40.
