data_PCOD9076854
_publ_section_title
;
Structure prediction by ZEFSAII (Michael W. Deem and Ramdas Pophale) SiO2 
 PCOD9076854
Probable space group: P -1
;
_chemical_formula_sum "Si O2"
_cell_formula_units_Z 16
_cell_length_a 10.031975
_cell_length_b 8.879639
_cell_length_c 12.528150
_cell_angle_alpha 50.445203
_cell_angle_beta 60.410640
_cell_angle_gamma 81.144399
_cell_volume 726.490480
_symmetry_space_group_name_H-M "P -1"
_symmetry_group_IT_number 2
_symmetry_cell_setting 'triclinic'
loop_
_space_group_symop_operation_xyz
x,y,z
-x,-y,-z
loop_
_atom_site_type_symbol
_atom_site_label
_atom_site_fract_x
_atom_site_fract_y
_atom_site_fract_z
Si Si1 0.803297 0.000126 0.009117
Si Si2 0.582492 0.279487 0.884909
Si Si3 0.097836 0.730856 0.957014
Si Si4 0.940254 0.195324 0.472433
Si Si5 0.246020 0.440332 0.155062
Si Si6 0.552116 0.587236 0.323365
Si Si7 0.796254 0.355181 0.260561
Si Si8 0.229604 0.070226 0.169514
O O1 0.716368 0.167360 0.918808
O O2 0.865733 0.928996 0.903811
O O3 0.898404 0.106004 0.025777
O O4 0.679973 0.800567 0.189238
O O5 0.605333 0.470657 0.869393
O O6 0.576495 0.360690 0.730504
O O7 0.414655 0.124197 0.042817
O O8 0.165861 0.783369 0.787922
O O9 0.224738 0.612163 0.005669
O O10 0.936073 0.557978 0.101783
O O11 0.822148 0.248422 0.408292
O O12 0.095467 0.377448 0.323344
O O13 0.849285 0.133397 0.646108
O O14 0.000000 0.000000 0.500000
O O15 0.229813 0.249347 0.171416
O O16 0.500000 0.500000 0.500000
O O17 0.637421 0.433204 0.297064
#
# Coordination Sequence:
#
# PCOD9076854 Si02
#       8
#     2   2   2   2   2   2   2   2
#     4  10  22  39  61  90 115 163 203 250 292 363
#     4  10  21  38  61  83 117 166 204 242 291 366
#     4   9  19  40  62  87 116 153 212 245 305 362
#     4   9  20  37  59  92 117 153 201 256 303 355
#     4   9  18  37  60  87 113 153 206 251 294 361
#     4  11  24  40  57  89 131 161 198 247 313 355
#     4  10  21  38  64  86 125 162 195 256 307 357
#     4  10  18  33  61  85 118 147 203 243 303 348
#
# _framework density 22.023686999999999
#
# number of rings (size 3 to 8) (size 9 to 14) (size 15 to 20)
#    0.000    2.250    0.000    3.375    3.500    3.500 
#    6.750    2.500    0.000    0.000    0.000    0.000 
#    0.000    0.000    0.000    0.000    0.000    0.000 
#
# Total GULP energy -89177.003274 kJ/mol
# GULP energy per Si atom -5573.562705 kJ/mol
# Density = 2.197356 g / cm^3
# Si number density = 22.023687 Si / 1000 Ang^3
#
#
#
# Elastic Constant Matrix: (Units=GPa)
#
#
# Indices 1 2 3 4 5 6 
#
# 1 54.5203 21.5744 23.0231 13.5439 11.4276 11.7564
# 2 21.5744 113.2450 27.0847 18.0061 -0.0549 10.9164
# 3 23.0231 27.0847 149.9581 25.6773 24.3850 14.3081
# 4 13.5439 18.0061 25.6773 31.8639 -0.9434 8.4666
# 5 11.4276 -0.0549 24.3850 -0.9434 23.6433 -3.8648
# 6 11.7564 10.9164 14.3081 8.4666 -3.8648 44.0487
#
#
#
# Elastic Compliance Matrix: (Units=1/GPa)
#
#
# Indices 1 2 3 4 5 6 
#
# 1 0.025790 -0.003195 0.001170 -0.008931 -0.015029 -0.006074
# 2 -0.003195 0.010292 -0.001177 -0.003313 0.002575 -0.000453
# 3 0.001170 -0.001177 0.010223 -0.007648 -0.011894 -0.002915
# 4 -0.008931 -0.003313 -0.007648 0.044039 0.013697 -0.001574
# 5 -0.015029 0.002575 -0.011894 0.013697 0.064050 0.010223
# 6 -0.006074 -0.000453 -0.002915 -0.001574 0.010223 0.026582
#
#
# Mechanical properties :
#
#
# Convention : Reuss Voigt Hill
#
# Bulk Modulus (GPa) = 25.06105 51.23199 38.14652
# Shear Modulus (GPa) = 24.91524 36.31391 30.61458
#
# Velocity S-wave (km/s) = 3.36712 4.06502 3.73242
# Velocity P-wave (km/s) = 5.14980 6.73389 5.99440
#
# Compressibility (1/GPa) = 0.03990256
#
# Stress axis : x y z
#
# Youngs Moduli (GPa) = 38.77428 97.16071 97.81622
#
# Poissons Ratio (x) = 0.31042 -0.11445
# Poissons Ratio (y) = 0.12388 0.11510
# Poissons Ratio (z) = -0.04537 0.11433
#
# Static dielectric constant tensor:
#      x y z
#    x 1.876270 -0.076510 -0.007260 
#    y -0.076510 2.015570 0.053720 
#    z -0.007260 0.053720 1.772400 
# 
# From -- ./inp_files/207747.got.cif
#   From: 2010.05.17/outbox.cif.g08.bks.cpg/sg2_104_cif.got.tgz:207747.got - 2010.06.03 11:33:40.
