data_PCOD9076776
_publ_section_title
;
Structure prediction by ZEFSAII (Michael W. Deem and Ramdas Pophale) SiO2 
 PCOD9076776
Probable space group: P -1
;
_chemical_formula_sum "Si O2"
_cell_formula_units_Z 14
_cell_length_a 8.506734
_cell_length_b 9.259545
_cell_length_c 12.726412
_cell_angle_alpha 138.052881
_cell_angle_beta 70.359471
_cell_angle_gamma 115.500378
_cell_volume 604.587983
_symmetry_space_group_name_H-M "P -1"
_symmetry_group_IT_number 2
_symmetry_cell_setting 'triclinic'
loop_
_space_group_symop_operation_xyz
x,y,z
-x,-y,-z
loop_
_atom_site_type_symbol
_atom_site_label
_atom_site_fract_x
_atom_site_fract_y
_atom_site_fract_z
Si Si1 0.986869 0.645714 0.821581
Si Si2 0.601628 0.439242 0.846455
Si Si3 0.514331 0.560985 0.359512
Si Si4 0.885618 0.791581 0.476198
Si Si5 0.006980 0.239991 0.349590
Si Si6 0.382056 0.958100 0.676984
Si Si7 0.617998 0.133368 0.136953
O O1 0.806317 0.567577 0.882603
O O2 0.023754 0.408334 0.658805
O O3 0.955387 0.770325 0.788547
O O4 0.177318 0.783678 0.896637
O O5 0.542329 0.506487 0.783174
O O6 0.533925 0.163821 0.706635
O O7 0.500000 0.500000 0.000000
O O8 0.706111 0.726252 0.419540
O O9 0.397073 0.709741 0.511007
O O10 0.539518 0.342021 0.291741
O O11 0.867954 0.812732 0.618036
O O12 0.000000 0.000000 0.500000
O O13 0.817308 0.066419 0.322393
O O14 0.000000 0.500000 0.500000
O O15 0.391631 0.991110 0.817908
O O16 0.500000 0.000000 0.000000
#
# Coordination Sequence:
#
# PCOD9076776 Si02
#       7
#     2   2   2   2   2   2   2
#     4   9  21  40  61  83 124 169 205 248 310 380
#     4  12  25  43  62  89 126 170 213 260 315 373
#     4  11  22  37  63  94 122 158 206 259 309 367
#     4  10  18  33  59  96 125 152 199 260 311 360
#     4   9  18  36  60  88 123 161 202 253 308 369
#     4  11  22  40  65  92 123 163 208 257 310 375
#     4  10  22  43  65  94 128 161 203 257 317 378
#
# _framework density 23.156267
#
# number of rings (size 3 to 8) (size 9 to 14) (size 15 to 20)
#    0.000    1.714    0.000    6.000    0.000    1.143 
#    0.000   17.143    0.000    0.000    0.000    0.000 
#    0.000    0.000    0.000    0.000    0.000    0.000 
#
# Total GULP energy -78166.090839 kJ/mol
# GULP energy per Si atom -5583.292203 kJ/mol
# Density = 2.310356 g / cm^3
# Si number density = 23.156267 Si / 1000 Ang^3
#
#
#
# Elastic Constant Matrix: (Units=GPa)
#
#
# Indices 1 2 3 4 5 6 
#
# 1 122.9296 55.0791 39.0793 -15.5376 12.5529 26.9217
# 2 55.0791 98.1068 5.0635 7.2999 8.6199 22.4446
# 3 39.0793 5.0635 72.9448 -7.0654 10.0351 6.6688
# 4 -15.5376 7.2999 -7.0654 29.6266 -2.9207 -6.2952
# 5 12.5529 8.6199 10.0351 -2.9207 39.4023 -3.6769
# 6 26.9217 22.4446 6.6688 -6.2952 -3.6769 37.6460
#
#
#
# Elastic Compliance Matrix: (Units=1/GPa)
#
#
# Indices 1 2 3 4 5 6 
#
# 1 0.015905 -0.008063 -0.006629 0.007703 -0.001440 -0.004245
# 2 -0.008063 0.017141 0.003312 -0.009472 -0.003376 -0.006954
# 3 -0.006629 0.003312 0.017478 -0.000595 -0.003177 -0.000740
# 4 0.007703 -0.009472 -0.000595 0.041956 0.003590 0.007611
# 5 -0.001440 -0.003376 -0.003177 0.003590 0.028302 0.006970
# 6 -0.004245 -0.006954 -0.000740 0.007611 0.006970 0.035830
#
#
# Mechanical properties :
#
#
# Convention : Reuss Voigt Hill
#
# Bulk Modulus (GPa) = 36.01651 54.71389 45.36520
# Shear Modulus (GPa) = 26.50758 34.31894 30.41326
#
# Velocity S-wave (km/s) = 3.38705 3.85393 3.62801
# Velocity P-wave (km/s) = 5.55730 6.59417 6.09781
#
# Compressibility (1/GPa) = 0.02776504
#
# Stress axis : x y z
#
# Youngs Moduli (GPa) = 62.87351 58.34001 57.21635
#
# Poissons Ratio (x) = 0.47037 0.37928
# Poissons Ratio (y) = 0.50692 -0.18952
# Poissons Ratio (z) = 0.41678 -0.19324
#
# Static dielectric constant tensor:
#      x y z
#    x 1.869880 -0.003400 -0.026280 
#    y -0.003400 1.817810 -0.010640 
#    z -0.026280 -0.010640 1.923330 
# 
# From -- ./inp_files/156796.got.cif
#   From: 2010.05.17/outbox.cif.g08.bks.cpg/sg2_79_cif.got.tgz:156796.got - 2010.06.03 11:33:40.
