data_PCOD9076587
_publ_section_title
;
Structure prediction by ZEFSAII (Michael W. Deem and Ramdas Pophale) SiO2 
 PCOD9076587
Probable space group: P -1
;
_chemical_formula_sum "Si O2"
_cell_formula_units_Z 16
_cell_length_a 21.192596
_cell_length_b 8.368282
_cell_length_c 8.865623
_cell_angle_alpha 49.223031
_cell_angle_beta 31.108167
_cell_angle_gamma 62.977578
_cell_volume 592.637123
_symmetry_space_group_name_H-M "P -1"
_symmetry_group_IT_number 2
_symmetry_cell_setting 'triclinic'
loop_
_space_group_symop_operation_xyz
x,y,z
-x,-y,-z
loop_
_atom_site_type_symbol
_atom_site_label
_atom_site_fract_x
_atom_site_fract_y
_atom_site_fract_z
Si Si1 0.491341 0.248244 0.708250
Si Si2 0.668486 0.980877 0.362892
Si Si3 0.011240 0.798599 0.703896
Si Si4 0.735638 0.896413 0.944299
Si Si5 0.864958 0.225504 0.026661
Si Si6 0.671121 0.383793 0.511363
Si Si7 0.107828 0.461166 0.499809
Si Si8 0.267848 0.412958 0.451890
O O1 0.500000 0.500000 0.500000
O O2 0.585300 0.136484 0.492162
O O3 0.540886 0.261574 0.769898
O O4 0.354703 0.126560 0.999845
O O5 0.632317 0.725372 0.631828
O O6 0.796527 0.034801 0.171712
O O7 0.694385 0.998746 0.120351
O O8 0.050574 0.617004 0.631165
O O9 0.128886 0.938076 0.475342
O O10 0.000000 0.000000 0.500000
O O11 0.877067 0.684169 0.125585
O O12 0.720210 0.641176 0.191352
O O13 0.871055 0.425244 0.774808
O O14 0.999279 0.243284 0.816383
O O15 0.771500 0.264686 0.318961
O O16 0.675696 0.380653 0.683895
O O17 0.236773 0.442919 0.323779
#
# Coordination Sequence:
#
# PCOD9076587 Si02
#       8
#     2   2   2   2   2   2   2   2
#     4   9  19  34  60  91 111 149 205 252 289 343
#     4  10  19  35  57  87 118 151 196 251 294 349
#     4  12  19  35  58  86 123 154 198 239 286 356
#     4  10  18  33  57  90 113 155 201 239 289 348
#     4  10  19  35  55  83 118 155 198 243 287 348
#     4   9  18  34  58  84 117 149 193 249 292 342
#     4  11  22  34  56  85 123 160 199 234 297 364
#     4  11  22  36  58  90 120 163 191 240 306 353
#
# _framework density 26.997973999999999
#
# number of rings (size 3 to 8) (size 9 to 14) (size 15 to 20)
#    0.000    1.750    5.000    0.750    0.000    1.500 
#    0.000    0.000    0.000    1.500    0.000    0.000 
#    0.000    0.000    0.000    0.000    0.000    0.000 
#
# Total GULP energy -89420.898678 kJ/mol
# GULP energy per Si atom -5588.806167 kJ/mol
# Density = 2.693653 g / cm^3
# Si number density = 26.997974 Si / 1000 Ang^3
#
#
#
# Elastic Constant Matrix: (Units=GPa)
#
#
# Indices 1 2 3 4 5 6 
#
# 1 182.7741 43.2725 32.7496 -7.1139 -24.8198 21.9717
# 2 43.2725 125.5008 44.9980 5.9923 7.0842 6.6457
# 3 32.7496 44.9980 71.2560 -1.4842 -2.2649 9.4864
# 4 -7.1139 5.9923 -1.4842 30.5733 8.1379 -2.8136
# 5 -24.8198 7.0842 -2.2649 8.1379 47.1981 -17.5023
# 6 21.9717 6.6457 9.4864 -2.8136 -17.5023 48.5339
#
#
#
# Elastic Compliance Matrix: (Units=1/GPa)
#
#
# Indices 1 2 3 4 5 6 
#
# 1 0.006844 -0.001927 -0.001633 0.000928 0.003160 -0.001322
# 2 -0.001927 0.011160 -0.006220 -0.002242 -0.002818 -0.000586
# 3 -0.001633 -0.006220 0.019017 0.001586 -0.000047 -0.002051
# 4 0.000928 -0.002242 0.001586 0.034800 -0.005204 -0.000283
# 5 0.003160 -0.002818 -0.000047 -0.005204 0.027325 0.008517
# 6 -0.001322 -0.000586 -0.002051 -0.000283 0.008517 0.024739
#
#
# Mechanical properties :
#
#
# Convention : Reuss Voigt Hill
#
# Bulk Modulus (GPa) = 57.27032 69.06346 63.16689
# Shear Modulus (GPa) = 33.49753 42.49510 37.99631
#
# Velocity S-wave (km/s) = 3.52624 3.97168 3.75557
# Velocity P-wave (km/s) = 6.15126 6.83146 6.50027
#
# Compressibility (1/GPa) = 0.01746105
#
# Stress axis : x y z
#
# Youngs Moduli (GPa) = 146.10926 89.60757 52.58492
#
# Poissons Ratio (x) = 0.17268 0.08587
# Poissons Ratio (y) = 0.28156 0.32707
# Poissons Ratio (z) = 0.23858 0.55735
#
# Static dielectric constant tensor:
#      x y z
#    x 2.176490 0.041630 -0.054060 
#    y 0.041630 2.357110 -0.148760 
#    z -0.054060 -0.148760 2.234890 
# 
# From -- ./inp_files/342529.got.cif
#   From: 2010.05.17/outbox.cif.g08.bks.cpg/sg2_172_cif.got.tgz:342529.got - 2010.06.03 11:33:40.
