data_PCOD9076169
_publ_section_title
;
Structure prediction by ZEFSAII (Michael W. Deem and Ramdas Pophale) SiO2 
 PCOD9076169
Probable space group: P -1
;
_chemical_formula_sum "Si O2"
_cell_formula_units_Z 16
_cell_length_a 14.086349
_cell_length_b 20.844524
_cell_length_c 5.420989
_cell_angle_alpha 75.088997
_cell_angle_beta 131.187453
_cell_angle_gamma 134.678152
_cell_volume 786.318617
_symmetry_space_group_name_H-M "P -1"
_symmetry_group_IT_number 2
_symmetry_cell_setting 'triclinic'
loop_
_space_group_symop_operation_xyz
x,y,z
-x,-y,-z
loop_
_atom_site_type_symbol
_atom_site_label
_atom_site_fract_x
_atom_site_fract_y
_atom_site_fract_z
Si Si1 0.088146 0.062565 0.838912
Si Si2 0.566315 0.687100 0.350759
Si Si3 0.801451 0.513698 0.164171
Si Si4 0.512649 0.750152 0.692466
Si Si5 0.937736 0.749807 0.891605
Si Si6 0.113688 0.587003 0.306570
Si Si7 0.717534 0.592623 0.313847
Si Si8 0.031665 0.198983 0.609477
O O1 0.056235 0.130003 0.725462
O O2 0.309157 0.133765 0.136820
O O3 0.000000 0.000000 0.500000
O O4 0.000000 0.000000 0.000000
O O5 0.521266 0.712222 0.490670
O O6 0.777712 0.743879 0.659855
O O7 0.412180 0.568843 0.211089
O O8 0.550471 0.721079 0.032603
O O9 0.819596 0.444690 0.360249
O O10 0.814654 0.571119 0.351099
O O11 0.972420 0.581910 0.201937
O O12 0.300236 0.692020 0.415411
O O13 0.808641 0.637769 0.695986
O O14 0.055998 0.813514 0.789326
O O15 0.049304 0.798407 0.286657
O O16 0.000000 0.500000 0.000000
O O17 0.773035 0.684837 0.196789
O O18 0.500000 0.500000 0.000000
#
# Coordination Sequence:
#
# PCOD9076169 Si02
#       8
#     2   2   2   2   2   2   2   2
#     4  12  23  37  60  86 114 152 197 247 309 350
#     4  11  17  32  54  76 118 150 189 222 278 338
#     4  10  20  35  50  86 114 163 201 228 273 352
#     4  11  21  35  56  80 113 155 186 244 287 341
#     4  10  18  33  50  76 115 154 181 224 280 339
#     4  10  21  35  56  80 121 160 200 237 276 345
#     4  10  21  33  54  84 118 161 191 230 287 360
#     4  10  21  36  51  79 114 148 186 237 284 349
#
# _framework density 20.347984
#
# number of rings (size 3 to 8) (size 9 to 14) (size 15 to 20)
#    0.750    0.750    5.000    1.500    1.750    1.500 
#    0.000    0.000    0.000    0.000    0.000    1.750 
#    0.000    0.000    0.000    0.000    0.000    0.000 
#
# Total GULP energy -89110.641243 kJ/mol
# GULP energy per Si atom -5569.415078 kJ/mol
# Density = 2.030167 g / cm^3
# Si number density = 20.347984 Si / 1000 Ang^3
#
#
#
# Elastic Constant Matrix: (Units=GPa)
#
#
# Indices 1 2 3 4 5 6 
#
# 1 128.3423 34.4010 43.5387 4.9325 -32.6454 12.9424
# 2 34.4010 103.1986 28.5361 8.2374 -7.1598 11.2752
# 3 43.5387 28.5361 67.5700 4.8138 -30.6796 12.5864
# 4 4.9325 8.2374 4.8138 31.5726 1.5805 -1.7104
# 5 -32.6454 -7.1598 -30.6796 1.5805 44.4736 1.3664
# 6 12.9424 11.2752 12.5864 -1.7104 1.3664 39.0093
#
#
#
# Elastic Compliance Matrix: (Units=1/GPa)
#
#
# Indices 1 2 3 4 5 6 
#
# 1 0.011184 -0.002104 -0.003172 -0.001131 0.005794 -0.002332
# 2 -0.002104 0.011724 -0.004382 -0.002002 -0.002570 -0.001274
# 3 -0.003172 -0.004382 0.027866 -0.003840 0.016553 -0.007420
# 4 -0.001131 -0.002002 -0.003840 0.033421 -0.005107 0.003837
# 5 0.005794 -0.002570 0.016553 -0.005107 0.038174 -0.008082
# 6 -0.002332 -0.001274 -0.007420 0.003837 -0.008082 0.029622
#
#
# Mechanical properties :
#
#
# Convention : Reuss Voigt Hill
#
# Bulk Modulus (GPa) = 31.78920 56.89582 44.34251
# Shear Modulus (GPa) = 27.50366 35.85346 31.67856
#
# Velocity S-wave (km/s) = 3.68049 4.20219 3.94996
# Velocity P-wave (km/s) = 5.80672 7.18099 6.53011
#
# Compressibility (1/GPa) = 0.03145722
#
# Stress axis : x y z
#
# Youngs Moduli (GPa) = 89.41157 85.29530 35.88627
#
# Poissons Ratio (x) = 0.17946 0.11384
# Poissons Ratio (y) = 0.18813 0.15726
# Poissons Ratio (z) = 0.28363 0.37378
#
# Static dielectric constant tensor:
#      x y z
#    x 1.761490 0.033340 -0.050360 
#    y 0.033340 1.823150 -0.057770 
#    z -0.050360 -0.057770 1.856310 
# 
# From -- ./inp_files/100712.got.cif
#   From: 2010.05.17/outbox.cif.g08.bks.cpg/sg2_51_cif.got.tgz:100712.got - 2010.06.03 11:33:40.
