data_PCOD9076005
_publ_section_title
;
Structure prediction by ZEFSAII (Michael W. Deem and Ramdas Pophale) SiO2 
 PCOD9076005
Probable space group: P -1
;
_chemical_formula_sum "Si O2"
_cell_formula_units_Z 16
_cell_length_a 8.840099
_cell_length_b 7.292124
_cell_length_c 15.589292
_cell_angle_alpha 103.635804
_cell_angle_beta 54.900437
_cell_angle_gamma 69.366630
_cell_volume 630.859982
_symmetry_space_group_name_H-M "P -1"
_symmetry_group_IT_number 2
_symmetry_cell_setting 'triclinic'
loop_
_space_group_symop_operation_xyz
x,y,z
-x,-y,-z
loop_
_atom_site_type_symbol
_atom_site_label
_atom_site_fract_x
_atom_site_fract_y
_atom_site_fract_z
Si Si1 0.060006 0.166077 0.668019
Si Si2 0.983610 0.236341 0.516363
Si Si3 0.552912 0.076679 0.772542
Si Si4 0.907347 0.677215 0.149075
Si Si5 0.579721 0.375940 0.551609
Si Si6 0.878119 0.288441 0.154469
Si Si7 0.265243 0.908990 0.120585
Si Si8 0.348745 0.612028 0.920677
O O1 0.964981 0.322666 0.629202
O O2 0.128389 0.261407 0.732128
O O3 0.883374 0.126176 0.766660
O O4 0.285992 0.904331 0.537097
O O5 0.761691 0.398669 0.544863
O O6 0.220111 0.133752 0.376789
O O7 0.000000 0.000000 0.500000
O O8 0.325770 0.132364 0.807419
O O9 0.601381 0.028984 0.853463
O O10 0.503650 0.336492 0.810114
O O11 0.969051 0.418807 0.091926
O O12 0.128931 0.659124 0.047341
O O13 0.500000 0.500000 0.500000
O O14 0.349178 0.506050 0.696619
O O15 0.764559 0.227863 0.110312
O O16 0.070773 0.103297 0.138660
O O17 0.443771 0.689772 0.972730
#
# Coordination Sequence:
#
# PCOD9076005 Si02
#       8
#     2   2   2   2   2   2   2   2
#     4  10  20  37  57  86 116 148 191 230 280 339
#     4  10  18  32  58  86 116 143 191 236 275 336
#     4  11  19  36  59  85 112 152 189 235 287 328
#     4  10  23  39  59  81 119 153 191 231 281 348
#     4  11  20  36  60  91 118 143 185 244 285 329
#     4  11  21  37  61  83 117 154 186 230 298 331
#     4  11  21  36  59  87 115 143 196 243 276 331
#     4  10  22  39  59  83 111 154 197 234 276 341
#
# _framework density 25.362203999999998
#
# number of rings (size 3 to 8) (size 9 to 14) (size 15 to 20)
#    0.000    1.500    3.750    5.250    0.000    2.000 
#    0.000    3.750    0.000    3.000    0.000    0.000 
#    0.000    0.000    0.000    0.000    0.000    0.000 
#
# Total GULP energy -89428.906269 kJ/mol
# GULP energy per Si atom -5589.306642 kJ/mol
# Density = 2.530448 g / cm^3
# Si number density = 25.362204 Si / 1000 Ang^3
#
#
#
# Elastic Constant Matrix: (Units=GPa)
#
#
# Indices 1 2 3 4 5 6 
#
# 1 135.2189 39.5715 39.8842 -17.5699 28.6458 -54.5651
# 2 39.5715 86.0608 12.2213 -10.6433 -0.5551 -43.3881
# 3 39.8842 12.2213 85.3025 -11.7312 20.5089 -15.4039
# 4 -17.5699 -10.6433 -11.7312 31.1404 -13.3402 6.8090
# 5 28.6458 -0.5551 20.5089 -13.3402 52.2851 -11.0164
# 6 -54.5651 -43.3881 -15.4039 6.8090 -11.0164 52.0980
#
#
#
# Elastic Compliance Matrix: (Units=1/GPa)
#
#
# Indices 1 2 3 4 5 6 
#
# 1 0.015020 0.001472 -0.003399 0.003182 -0.002925 0.014918
# 2 0.001472 0.021850 -0.000705 0.006008 0.005426 0.019892
# 3 -0.003399 -0.000705 0.014355 0.001960 -0.003464 -0.000891
# 4 0.003182 0.006008 0.001960 0.039213 0.008745 0.005640
# 5 -0.002925 0.005426 -0.003464 0.008745 0.025356 0.004650
# 6 0.014918 0.019892 -0.000891 0.005640 0.004650 0.051368
#
#
# Mechanical properties :
#
#
# Convention : Reuss Voigt Hill
#
# Bulk Modulus (GPa) = 21.75769 54.43737 38.09753
# Shear Modulus (GPa) = 26.63178 41.43170 34.03174
#
# Velocity S-wave (km/s) = 3.24398 4.04617 3.66707
# Velocity P-wave (km/s) = 4.75695 6.58325 5.74316
#
# Compressibility (1/GPa) = 0.04596076
#
# Stress axis : x y z
#
# Youngs Moduli (GPa) = 66.57653 45.76691 69.66432
#
# Poissons Ratio (x) = -0.06736 0.23679
# Poissons Ratio (y) = -0.09799 0.04911
# Poissons Ratio (z) = 0.22629 0.03226
#
# Static dielectric constant tensor:
#      x y z
#    x 2.159260 0.031130 0.039940 
#    y 0.031130 2.119100 -0.021800 
#    z 0.039940 -0.021800 2.012450 
# 
# From -- ./inp_files/242716.got.cif
#   From: 2010.05.17/outbox.cif.g08.bks.cpg/sg2_122_cif.got.tgz:242716.got - 2010.06.03 11:33:40.
