data_PCOD9076685
_publ_section_title
;
Structure prediction by ZEFSAII (Michael W. Deem and Ramdas Pophale) SiO2 
 PCOD9076685
Probable space group: P -1
;
_chemical_formula_sum "Si O2"
_cell_formula_units_Z 16
_cell_length_a 14.399613
_cell_length_b 20.127685
_cell_length_c 9.172510
_cell_angle_alpha 35.134651
_cell_angle_beta 139.491232
_cell_angle_gamma 149.602946
_cell_volume 760.247203
_symmetry_space_group_name_H-M "P -1"
_symmetry_group_IT_number 2
_symmetry_cell_setting 'triclinic'
loop_
_space_group_symop_operation_xyz
x,y,z
-x,-y,-z
loop_
_atom_site_type_symbol
_atom_site_label
_atom_site_fract_x
_atom_site_fract_y
_atom_site_fract_z
Si Si1 0.232775 0.044626 0.079259
Si Si2 0.177860 0.817349 0.852943
Si Si3 0.084102 0.929146 0.806383
Si Si4 0.100257 0.235381 0.625107
Si Si5 0.442467 0.108785 0.493363
Si Si6 0.633450 0.501322 0.329561
Si Si7 0.817837 0.395182 0.569395
Si Si8 0.691011 0.739527 0.781923
O O1 0.402041 0.097914 0.292742
O O2 0.196895 0.163092 0.837322
O O3 0.057503 0.883445 0.230865
O O4 0.230645 0.020255 0.948562
O O5 0.161050 0.882891 0.862380
O O6 0.010645 0.771159 0.631856
O O7 0.367941 0.950549 0.756029
O O8 0.160539 0.677643 0.135246
O O9 0.891523 0.790261 0.900930
O O10 0.000000 0.000000 0.500000
O O11 0.248579 0.406048 0.553971
O O12 0.648221 0.252412 0.528781
O O13 0.309250 0.135115 0.369471
O O14 0.434230 0.332387 0.384707
O O15 0.756124 0.485771 0.397157
O O16 0.597294 0.608897 0.025052
O O17 0.000000 0.500000 0.500000
#
# Coordination Sequence:
#
# PCOD9076685 Si02
#       8
#     2   2   2   2   2   2   2   2
#     4  10  18  33  60  93 117 144 195 253 304 337
#     4  11  23  38  63  90 123 157 199 242 294 354
#     4  12  19  33  59  93 122 144 188 251 298 337
#     4  10  18  35  60  91 117 151 193 247 296 354
#     4  10  20  40  66  88 114 154 206 250 288 349
#     4  10  20  35  60  82 118 157 194 234 289 364
#     4  11  25  42  60  84 123 166 198 236 297 363
#     4  10  18  33  58  92 114 149 193 241 297 346
#
# _framework density 21.045786
#
# number of rings (size 3 to 8) (size 9 to 14) (size 15 to 20)
#    0.000    1.500    5.000    1.875    0.000    0.500 
#    0.000    2.500    2.750    0.000    0.000    0.000 
#    0.000    0.000    0.000    0.000    0.000    0.000 
#
# Total GULP energy -89254.432686 kJ/mol
# GULP energy per Si atom -5578.402043 kJ/mol
# Density = 2.099788 g / cm^3
# Si number density = 21.045786 Si / 1000 Ang^3
#
#
#
# Elastic Constant Matrix: (Units=GPa)
#
#
# Indices 1 2 3 4 5 6 
#
# 1 40.1967 28.7840 24.4521 15.6364 -7.1601 -7.5401
# 2 28.7840 104.8857 41.8503 28.8955 -19.8877 -16.0874
# 3 24.4521 41.8503 116.4470 4.3869 -12.8023 -7.9015
# 4 15.6364 28.8955 4.3869 38.8209 -13.3438 -6.7532
# 5 -7.1601 -19.8877 -12.8023 -13.3438 24.5157 9.5852
# 6 -7.5401 -16.0874 -7.9015 -6.7532 9.5852 29.5478
#
#
#
# Elastic Compliance Matrix: (Units=1/GPa)
#
#
# Indices 1 2 3 4 5 6 
#
# 1 0.035987 -0.004753 -0.005586 -0.010937 -0.003702 0.003803
# 2 -0.004753 0.015589 -0.003656 -0.007297 0.004085 0.003304
# 3 -0.005586 -0.003656 0.011315 0.005066 0.004316 -0.000632
# 4 -0.010937 -0.007297 0.005066 0.040281 0.016002 -0.001393
# 5 -0.003702 0.004085 0.004316 0.016002 0.059101 -0.013081
# 6 0.003803 0.003304 -0.000632 -0.001393 -0.013081 0.040369
#
#
# Mechanical properties :
#
#
# Convention : Reuss Voigt Hill
#
# Bulk Modulus (GPa) = 28.65153 50.18913 39.42033
# Shear Modulus (GPa) = 20.63845 29.67309 25.15577
#
# Velocity S-wave (km/s) = 3.13492 3.75898 3.46104
# Velocity P-wave (km/s) = 5.17176 6.53753 5.89433
#
# Compressibility (1/GPa) = 0.03490216
#
# Stress axis : x y z
#
# Youngs Moduli (GPa) = 27.78760 64.14742 88.37574
#
# Poissons Ratio (x) = 0.30488 0.49363
# Poissons Ratio (y) = 0.13207 0.32313
# Poissons Ratio (z) = 0.15521 0.23455
#
# Static dielectric constant tensor:
#      x y z
#    x 1.765750 0.035870 -0.032430 
#    y 0.035870 1.863330 0.000310 
#    z -0.032430 0.000310 1.808510 
# 
# From -- ./inp_files/318906.got.cif
#   From: 2010.05.17/outbox.cif.g08.bks.cpg/sg2_160_cif.got.tgz:318906.got - 2010.06.03 11:33:40.
