data_PCOD9076850
_publ_section_title
;
Structure prediction by ZEFSAII (Michael W. Deem and Ramdas Pophale) SiO2 
 PCOD9076850
Probable space group: P -1
;
_chemical_formula_sum "Si O2"
_cell_formula_units_Z 16
_cell_length_a 7.414628
_cell_length_b 12.227439
_cell_length_c 13.500551
_cell_angle_alpha 137.192288
_cell_angle_beta 71.477645
_cell_angle_gamma 121.734200
_cell_volume 702.455789
_symmetry_space_group_name_H-M "P -1"
_symmetry_group_IT_number 2
_symmetry_cell_setting 'triclinic'
loop_
_space_group_symop_operation_xyz
x,y,z
-x,-y,-z
loop_
_atom_site_type_symbol
_atom_site_label
_atom_site_fract_x
_atom_site_fract_y
_atom_site_fract_z
Si Si1 0.669213 0.211343 0.114519
Si Si2 0.947771 0.742142 0.620740
Si Si3 0.334731 0.666118 0.583355
Si Si4 0.027523 0.090048 0.951056
Si Si5 0.632686 0.544859 0.906653
Si Si6 0.966365 0.512132 0.130125
Si Si7 0.459946 0.223307 0.582715
Si Si8 0.855433 0.158474 0.555761
O O1 0.625497 0.282405 0.273799
O O2 0.738243 0.363530 0.116178
O O3 0.883441 0.189645 0.057236
O O4 0.500000 0.000000 0.000000
O O5 0.147488 0.721277 0.621156
O O6 0.983718 0.767602 0.514640
O O7 0.751917 0.549900 0.552858
O O8 0.946726 0.924278 0.779439
O O9 0.511580 0.758008 0.528574
O O10 0.266994 0.241953 0.990613
O O11 0.000000 0.000000 0.000000
O O12 0.835626 0.509903 0.871276
O O13 0.502137 0.410141 0.752051
O O14 0.500000 0.500000 0.000000
O O15 0.025403 0.714283 0.288373
O O16 0.000000 0.500000 0.000000
O O17 0.653102 0.186153 0.568587
O O18 0.244814 0.051565 0.539173
#
# Coordination Sequence:
#
# PCOD9076850 Si02
#       8
#     2   2   2   2   2   2   2   2
#     4  11  24  40  57  86 123 157 197 238 288 354
#     4  10  18  33  61  84 113 146 190 245 294 338
#     4  10  19  34  58  85 115 150 191 241 293 343
#     4  11  21  36  60  91 118 151 192 241 297 344
#     4  10  21  37  58  89 121 144 189 248 294 339
#     4  10  22  39  59  82 115 159 199 233 284 355
#     4   9  18  30  53  85 112 141 186 242 283 339
#     4   9  17  32  54  82 107 144 194 232 284 338
#
# _framework density 22.777234
#
# number of rings (size 3 to 8) (size 9 to 14) (size 15 to 20)
#    0.000    2.000    2.500    1.500    5.250    2.000 
#    0.000    0.625    2.750    2.250    0.000    0.000 
#    0.000    0.000    0.000    0.000    0.000    0.000 
#
# Total GULP energy -89254.169206 kJ/mol
# GULP energy per Si atom -5578.385575 kJ/mol
# Density = 2.272539 g / cm^3
# Si number density = 22.777234 Si / 1000 Ang^3
#
#
#
# Elastic Constant Matrix: (Units=GPa)
#
#
# Indices 1 2 3 4 5 6 
#
# 1 43.4074 19.1067 2.7118 5.4744 -3.4326 3.0793
# 2 19.1067 190.8422 62.8706 3.7137 14.2017 10.6363
# 3 2.7118 62.8706 137.2050 -11.8940 15.2700 -11.5310
# 4 5.4744 3.7137 -11.8940 33.0925 0.1197 -2.5668
# 5 -3.4326 14.2017 15.2700 0.1197 24.4188 7.6068
# 6 3.0793 10.6363 -11.5310 -2.5668 7.6068 16.6846
#
#
#
# Elastic Compliance Matrix: (Units=1/GPa)
#
#
# Indices 1 2 3 4 5 6 
#
# 1 0.026180 -0.001999 -0.001947 -0.005612 0.009190 -0.009956
# 2 -0.001999 0.007291 -0.004265 -0.002637 0.000625 -0.007917
# 3 -0.001947 -0.004265 0.012650 0.006788 -0.011358 0.018044
# 4 -0.005612 -0.002637 0.006788 0.035226 -0.008938 0.016902
# 5 0.009190 0.000625 -0.011358 -0.008938 0.061252 -0.039245
# 6 -0.009956 -0.007917 0.018044 0.016902 -0.039245 0.099783
#
#
# Mechanical properties :
#
#
# Convention : Reuss Voigt Hill
#
# Bulk Modulus (GPa) = 33.67209 60.09253 46.88231
# Shear Modulus (GPa) = 18.60778 33.95687 26.28233
#
# Velocity S-wave (km/s) = 2.86133 3.86531 3.40057
# Velocity P-wave (km/s) = 5.07263 6.80888 6.00385
#
# Compressibility (1/GPa) = 0.02969818
#
# Stress axis : x y z
#
# Youngs Moduli (GPa) = 38.19713 137.15136 79.05084
#
# Poissons Ratio (x) = 0.27422 0.15393
# Poissons Ratio (y) = 0.07637 0.33715
# Poissons Ratio (z) = 0.07438 0.58495
#
# Static dielectric constant tensor:
#      x y z
#    x 1.906280 -0.000640 0.019330 
#    y -0.000640 1.819070 -0.011220 
#    z 0.019330 -0.011220 1.801110 
# 
# From -- ./inp_files/279429.got.cif
#   From: 2010.05.17/outbox.cif.g08.bks.cpg/sg2_140_cif.got.tgz:279429.got - 2010.06.03 11:33:40.
