data_PCOD9076968
_publ_section_title
;
Structure prediction by ZEFSAII (Michael W. Deem and Ramdas Pophale) SiO2 
 PCOD9076968
Probable space group: P -1
;
_chemical_formula_sum "Si O2"
_cell_formula_units_Z 16
_cell_length_a 11.924773
_cell_length_b 18.065916
_cell_length_c 8.313732
_cell_angle_alpha 37.452280
_cell_angle_beta 125.287055
_cell_angle_gamma 146.613384
_cell_volume 579.592067
_symmetry_space_group_name_H-M "P -1"
_symmetry_group_IT_number 2
_symmetry_cell_setting 'triclinic'
loop_
_space_group_symop_operation_xyz
x,y,z
-x,-y,-z
loop_
_atom_site_type_symbol
_atom_site_label
_atom_site_fract_x
_atom_site_fract_y
_atom_site_fract_z
Si Si1 0.120071 0.943572 0.326027
Si Si2 0.896275 0.593209 0.239791
Si Si3 0.908889 0.300355 0.461049
Si Si4 0.631562 0.633923 0.530659
Si Si5 0.565349 0.800739 0.406480
Si Si6 0.702175 0.720749 0.940327
Si Si7 0.263025 0.866090 0.855658
Si Si8 0.249220 0.649998 0.994067
O O1 0.149248 0.880017 0.303936
O O2 0.878889 0.787012 0.450124
O O3 0.239700 0.941527 0.558427
O O4 0.214071 0.141113 0.079823
O O5 0.050826 0.645433 0.414376
O O6 0.675775 0.377146 0.434921
O O7 0.842429 0.697566 0.059212
O O8 0.024358 0.674640 0.041382
O O9 0.166241 0.470309 0.318223
O O10 0.710011 0.250585 0.312103
O O11 0.500000 0.500000 0.500000
O O12 0.595991 0.750048 0.352615
O O13 0.529318 0.483197 0.849582
O O14 0.694646 0.802905 0.637736
O O15 0.636459 0.986572 0.173874
O O16 0.342220 0.795052 0.962147
O O17 0.000000 0.500000 0.000000
#
# Coordination Sequence:
#
# PCOD9076968 Si02
#       8
#     2   2   2   2   2   2   2   2
#     4  10  18  34  53  71 100 146 174 194 252 311
#     4  11  19  31  52  79 104 133 169 209 252 299
#     4   8  18  33  53  75 102 131 169 218 258 298
#     4  11  21  31  48  74 106 139 171 208 245 290
#     4  10  21  35  48  77 113 136 168 208 244 300
#     4  10  21  33  49  74 111 140 168 207 242 297
#     4  10  19  33  59  75  95 139 173 207 256 304
#     4   7  17  38  56  74  99 130 170 216 264 305
#
# _framework density 27.605623000000001
#
# number of rings (size 3 to 8) (size 9 to 14) (size 15 to 20)
#    0.750    1.500    0.000    5.250    0.000    5.500 
#    0.000    0.625    0.000    2.250    0.000    0.000 
#    0.000    0.000    0.000    0.000    0.000    0.000 
#
# Total GULP energy -89161.916828 kJ/mol
# GULP energy per Si atom -5572.619802 kJ/mol
# Density = 2.754279 g / cm^3
# Si number density = 27.605623 Si / 1000 Ang^3
#
#
#
# Elastic Constant Matrix: (Units=GPa)
#
#
# Indices 1 2 3 4 5 6 
#
# 1 97.8734 42.8279 46.6862 -15.9763 13.4530 1.6558
# 2 42.8279 118.4348 15.2110 -27.9083 10.5484 -28.6330
# 3 46.6862 15.2110 89.0244 -26.2685 19.6763 5.1532
# 4 -15.9763 -27.9083 -26.2685 50.5092 -8.0030 10.8435
# 5 13.4530 10.5484 19.6763 -8.0030 33.1829 -14.1791
# 6 1.6558 -28.6330 5.1532 10.8435 -14.1791 29.6953
#
#
#
# Elastic Compliance Matrix: (Units=1/GPa)
#
#
# Indices 1 2 3 4 5 6 
#
# 1 0.017138 -0.007279 -0.006394 -0.000784 -0.004828 -0.008883
# 2 -0.007279 0.015497 -0.000179 0.003490 0.006281 0.017104
# 3 -0.006394 -0.000179 0.021176 0.009655 -0.013288 -0.013361
# 4 -0.000784 0.003490 0.009655 0.028092 -0.004251 -0.010554
# 5 -0.004828 0.006281 -0.013288 -0.004251 0.051889 0.034961
# 6 -0.008883 0.017104 -0.013361 -0.010554 0.034961 0.073529
#
#
# Mechanical properties :
#
#
# Convention : Reuss Voigt Hill
#
# Bulk Modulus (GPa) = 38.30412 57.19810 47.75111
# Shear Modulus (GPa) = 20.51474 36.05131 28.28302
#
# Velocity S-wave (km/s) = 2.72901 3.61770 3.20431
# Velocity P-wave (km/s) = 4.88217 6.18183 5.57004
#
# Compressibility (1/GPa) = 0.02610686
#
# Stress axis : x y z
#
# Youngs Moduli (GPa) = 58.34920 64.53005 47.22357
#
# Poissons Ratio (x) = 0.46969 0.30195
# Poissons Ratio (y) = 0.42470 0.00846
# Poissons Ratio (z) = 0.37309 0.01157
#
# Static dielectric constant tensor:
#      x y z
#    x 1.947970 0.040190 -0.056350 
#    y 0.040190 2.120750 -0.028340 
#    z -0.056350 -0.028340 1.853900 
# 
# From -- ./inp_files/211997.got.cif
#   From: 2010.05.17/outbox.cif.g08.bks.cpg/sg2_106_cif.got.tgz:211997.got - 2010.06.03 11:33:40.
