data_PCOD9076203
_publ_section_title
;
Structure prediction by ZEFSAII (Michael W. Deem and Ramdas Pophale) SiO2 
 PCOD9076203
Probable space group: P -1
;
_chemical_formula_sum "Si O2"
_cell_formula_units_Z 16
_cell_length_a 10.956526
_cell_length_b 17.271048
_cell_length_c 11.625175
_cell_angle_alpha 39.045153
_cell_angle_beta 139.286381
_cell_angle_gamma 135.679756
_cell_volume 859.806548
_symmetry_space_group_name_H-M "P -1"
_symmetry_group_IT_number 2
_symmetry_cell_setting 'triclinic'
loop_
_space_group_symop_operation_xyz
x,y,z
-x,-y,-z
loop_
_atom_site_type_symbol
_atom_site_label
_atom_site_fract_x
_atom_site_fract_y
_atom_site_fract_z
Si Si1 0.691213 0.987538 0.834587
Si Si2 0.567419 0.151276 0.755354
Si Si3 0.033712 0.170930 0.708787
Si Si4 0.596110 0.818670 0.748939
Si Si5 0.143488 0.349921 0.772948
Si Si6 0.856336 0.042779 0.515556
Si Si7 0.301325 0.648697 0.554606
Si Si8 0.803232 0.064411 0.198310
O O1 0.560360 0.885788 0.765339
O O2 0.603126 0.059539 0.783863
O O3 0.814778 0.910763 0.079838
O O4 0.850858 0.093691 0.749210
O O5 0.567680 0.280306 0.541574
O O6 0.367393 0.074344 0.764867
O O7 0.737956 0.161235 0.957859
O O8 0.135082 0.307633 0.681993
O O9 0.956101 0.158504 0.539671
O O10 0.691699 0.936651 0.593676
O O11 0.408795 0.721955 0.661789
O O12 0.758586 0.746131 0.979881
O O13 0.268644 0.497052 0.714878
O O14 0.914213 0.337333 0.645164
O O15 0.001759 0.961444 0.676425
O O16 0.810758 0.098763 0.298288
#
# Coordination Sequence:
#
# PCOD9076203 Si02
#       8
#     2   2   2   2   2   2   2   2
#     4   9  17  29  53  79 106 133 159 219 280 306
#     4  11  19  34  48  77 110 133 172 219 254 315
#     4   9  16  31  53  76 106 134 166 214 272 312
#     4  10  20  35  56  82 109 132 170 221 266 316
#     4  10  21  34  53  78 110 143 168 212 260 317
#     4  10  18  33  52  80 101 134 173 215 266 311
#     4  11  21  34  52  79 110 142 175 204 262 321
#     4  10  21  30  50  76 105 138 170 213 265 302
#
# _framework density 18.608837999999999
#
# number of rings (size 3 to 8) (size 9 to 14) (size 15 to 20)
#    0.000    2.000    3.750    1.875    0.000    1.500 
#    0.000    0.000    0.000    1.500    0.000    0.000 
#    0.000    0.000    0.000    0.000    0.000    0.000 
#
# Total GULP energy -89175.182516 kJ/mol
# GULP energy per Si atom -5573.448907 kJ/mol
# Density = 1.856648 g / cm^3
# Si number density = 18.608838 Si / 1000 Ang^3
#
#
#
# Elastic Constant Matrix: (Units=GPa)
#
#
# Indices 1 2 3 4 5 6 
#
# 1 42.6178 15.9185 17.1226 3.5631 -9.1314 -8.8986
# 2 15.9185 106.7357 30.8262 13.4141 -11.0087 -18.9484
# 3 17.1226 30.8262 95.0475 18.0306 -11.9250 -16.0395
# 4 3.5631 13.4141 18.0306 29.7409 -8.7064 -4.0308
# 5 -9.1314 -11.0087 -11.9250 -8.7064 27.6216 8.1151
# 6 -8.8986 -18.9484 -16.0395 -4.0308 8.1151 19.5088
#
#
#
# Elastic Compliance Matrix: (Units=1/GPa)
#
#
# Indices 1 2 3 4 5 6 
#
# 1 0.027765 -0.001769 -0.002953 0.001860 0.005889 0.006453
# 2 -0.001769 0.012055 -0.001477 -0.003120 -0.000066 0.009070
# 3 -0.002953 -0.001477 0.014015 -0.006393 0.000331 0.007283
# 4 0.001860 -0.003120 -0.006393 0.041343 0.010616 -0.003312
# 5 0.005889 -0.000066 0.000331 0.010616 0.045704 -0.013924
# 6 0.006453 0.009070 0.007283 -0.003312 -0.013924 0.074108
#
#
# Mechanical properties :
#
#
# Convention : Reuss Voigt Hill
#
# Bulk Modulus (GPa) = 24.13254 41.34839 32.74047
# Shear Modulus (GPa) = 20.72970 27.40985 24.06978
#
# Velocity S-wave (km/s) = 3.34124 3.84206 3.60037
# Velocity P-wave (km/s) = 5.28031 6.47688 5.90896
#
# Compressibility (1/GPa) = 0.04143783
#
# Stress axis : x y z
#
# Youngs Moduli (GPa) = 36.01620 82.95494 71.35034
#
# Poissons Ratio (x) = 0.14673 0.21071
# Poissons Ratio (y) = 0.06370 0.10537
# Poissons Ratio (z) = 0.10636 0.12251
#
# Static dielectric constant tensor:
#      x y z
#    x 1.661400 0.017910 0.029890 
#    y 0.017910 1.680640 0.060400 
#    z 0.029890 0.060400 1.678450 
# 
# From -- ./inp_files/249800.got.cif
#   From: 2010.05.17/outbox.cif.g08.bks.cpg/sg2_125_cif.got.tgz:249800.got - 2010.06.03 11:33:40.
