data_PCOD9076801
_publ_section_title
;
Structure prediction by ZEFSAII (Michael W. Deem and Ramdas Pophale) SiO2 
 PCOD9076801
Probable space group: P -1
;
_chemical_formula_sum "Si O2"
_cell_formula_units_Z 14
_cell_length_a 8.626016
_cell_length_b 17.913542
_cell_length_c 21.560523
_cell_angle_alpha 18.791533
_cell_angle_beta 32.488704
_cell_angle_gamma 37.386755
_cell_volume 576.293363
_symmetry_space_group_name_H-M "P -1"
_symmetry_group_IT_number 2
_symmetry_cell_setting 'triclinic'
loop_
_space_group_symop_operation_xyz
x,y,z
-x,-y,-z
loop_
_atom_site_type_symbol
_atom_site_label
_atom_site_fract_x
_atom_site_fract_y
_atom_site_fract_z
Si Si1 0.582051 0.376904 0.905940
Si Si2 0.097722 0.098254 0.955992
Si Si3 0.157920 0.704087 0.826866
Si Si4 0.690737 0.546915 0.195494
Si Si5 0.839655 0.303430 0.669447
Si Si6 0.834698 0.082927 0.580546
Si Si7 0.698642 0.280033 0.601817
O O1 0.469286 0.592413 0.814514
O O2 0.513733 0.437537 0.809204
O O3 0.914863 0.326639 0.845791
O O4 0.407243 0.129938 0.173544
O O5 0.441427 0.089364 0.847735
O O6 0.020474 0.925914 0.171805
O O7 0.000000 0.000000 0.000000
O O8 0.120315 0.933064 0.617744
O O9 0.000000 0.500000 0.000000
O O10 0.972187 0.698278 0.957839
O O11 0.498167 0.646500 0.238699
O O12 0.790955 0.283491 0.385764
O O13 0.886543 0.290567 0.591055
O O14 0.000000 0.500000 0.500000
O O15 0.808873 0.227002 0.539110
O O16 0.500000 0.500000 0.500000
#
# Coordination Sequence:
#
# PCOD9076801 Si02
#       7
#     2   2   2   2   2   2   2
#     4  10  21  36  58  92 124 162 208 255 295 377
#     4  12  21  39  62  89 131 163 197 256 318 365
#     4   8  19  34  55  89 121 161 215 248 298 362
#     4  10  18  33  60  85 122 162 203 248 308 360
#     4  12  24  39  62  95 122 162 210 257 318 381
#     4  10  18  36  59  87 124 162 204 257 303 363
#     4  12  24  38  60  93 126 163 205 256 315 375
#
# _framework density 24.293182000000002
#
# number of rings (size 3 to 8) (size 9 to 14) (size 15 to 20)
#    0.000    1.714    4.286    3.000    0.000    5.143 
#    0.000    0.000    0.000    4.286    0.000    0.000 
#    0.000    0.000    0.000    0.000    0.000    0.000 
#
# Total GULP energy -78036.955208 kJ/mol
# GULP energy per Si atom -5574.068229 kJ/mol
# Density = 2.423789 g / cm^3
# Si number density = 24.293182 Si / 1000 Ang^3
#
#
#
# Elastic Constant Matrix: (Units=GPa)
#
#
# Indices 1 2 3 4 5 6 
#
# 1 77.9335 8.1259 41.2935 -0.4388 23.6424 5.7118
# 2 8.1259 116.2758 8.3558 -14.8894 15.5506 -13.6524
# 3 41.2935 8.3558 102.1547 -20.2142 52.6216 -11.9160
# 4 -0.4388 -14.8894 -20.2142 37.0855 -11.5895 9.3135
# 5 23.6424 15.5506 52.6216 -11.5895 46.8441 -10.5965
# 6 5.7118 -13.6524 -11.9160 9.3135 -10.5965 32.3004
#
#
#
# Elastic Compliance Matrix: (Units=1/GPa)
#
#
# Indices 1 2 3 4 5 6 
#
# 1 0.018128 -0.001578 -0.007147 -0.003621 -0.002948 -0.006432
# 2 -0.001578 0.009905 0.003224 0.003506 -0.004532 0.003157
# 3 -0.007147 0.003224 0.027629 0.007579 -0.026161 0.002052
# 4 -0.003621 0.003506 0.007579 0.033493 -0.000687 -0.004965
# 5 -0.002948 -0.004532 -0.026161 -0.000687 0.055200 0.007262
# 6 -0.006432 0.003157 0.002052 -0.004965 0.007262 0.038002
#
#
# Mechanical properties :
#
#
# Convention : Reuss Voigt Hill
#
# Bulk Modulus (GPa) = 22.39118 45.76826 34.07972
# Shear Modulus (GPa) = 24.01013 39.15189 31.58101
#
# Velocity S-wave (km/s) = 3.14721 4.01888 3.60946
# Velocity P-wave (km/s) = 4.73747 6.35736 5.60623
#
# Compressibility (1/GPa) = 0.04466043
#
# Stress axis : x y z
#
# Youngs Moduli (GPa) = 55.16257 100.96349 36.19333
#
# Poissons Ratio (x) = 0.15931 0.25868
# Poissons Ratio (y) = 0.08704 -0.11669
# Poissons Ratio (z) = 0.39425 -0.32552
#
# Static dielectric constant tensor:
#      x y z
#    x 2.166740 -0.200060 -0.452140 
#    y -0.200060 2.121150 0.234250 
#    z -0.452140 0.234250 2.722060 
# 
# From -- ./inp_files/591155.got.cif
#   From: 2010.05.17/outbox.cif.g08.bks.cpg/sg2_296_cif.got.tgz:591155.got - 2010.06.03 11:33:40.
