data_PCOD9076453
_publ_section_title
;
Structure prediction by ZEFSAII (Michael W. Deem and Ramdas Pophale) SiO2 
 PCOD9076453
Probable space group: P -1
;
_chemical_formula_sum "Si O2"
_cell_formula_units_Z 16
_cell_length_a 9.389846
_cell_length_b 12.889772
_cell_length_c 13.334376
_cell_angle_alpha 129.479700
_cell_angle_beta 135.520469
_cell_angle_gamma 86.677730
_cell_volume 594.935893
_symmetry_space_group_name_H-M "P -1"
_symmetry_group_IT_number 2
_symmetry_cell_setting 'triclinic'
loop_
_space_group_symop_operation_xyz
x,y,z
-x,-y,-z
loop_
_atom_site_type_symbol
_atom_site_label
_atom_site_fract_x
_atom_site_fract_y
_atom_site_fract_z
Si Si1 0.076711 0.245687 0.100148
Si Si2 0.563718 0.169572 0.779944
Si Si3 0.679921 0.411685 0.677809
Si Si4 0.084977 0.864583 0.491658
Si Si5 0.238836 0.482161 0.999108
Si Si6 0.985792 0.919830 0.822681
Si Si7 0.073233 0.725908 0.601571
Si Si8 0.569669 0.273501 0.060608
O O1 0.300386 0.477187 0.336546
O O2 0.972905 0.155091 0.104733
O O3 0.791512 0.171905 0.852751
O O4 0.170990 0.146025 0.044825
O O5 0.270519 0.954251 0.536921
O O6 0.522709 0.287716 0.772101
O O7 0.702235 0.286031 0.028058
O O8 0.353393 0.196083 0.399268
O O9 0.933091 0.422499 0.800216
O O10 0.729618 0.526063 0.872656
O O11 0.776820 0.653073 0.165376
O O12 0.169778 0.799239 0.581054
O O13 0.218430 0.068441 0.733442
O O14 0.030564 0.847927 0.707252
O O15 0.748581 0.498010 0.303606
O O16 0.309476 0.757124 0.805150
#
# Coordination Sequence:
#
# PCOD9076453 Si02
#       8
#     2   2   2   2   2   2   2   2
#     4  10  21  39  56  87 114 149 184 231 285 346
#     4   9  18  35  59  84 111 141 189 236 277 322
#     4  10  23  37  60  84 111 153 190 235 283 329
#     4  10  18  33  56  82 111 146 181 230 282 322
#     4  10  20  39  59  84 112 144 199 240 272 327
#     4  11  22  37  58  83 123 149 180 227 290 346
#     4  11  20  35  54  88 118 148 184 231 279 346
#     4   9  20  32  55  86 112 146 188 232 275 323
#
# _framework density 26.893654999999999
#
# number of rings (size 3 to 8) (size 9 to 14) (size 15 to 20)
#    0.750    1.250    2.500    1.500    0.000    2.000 
#    0.000    6.875    0.000    2.250    0.000    0.000 
#    0.000    0.000    0.000    0.000    0.000    0.000 
#
# Total GULP energy -89241.631843 kJ/mol
# GULP energy per Si atom -5577.601990 kJ/mol
# Density = 2.683244 g / cm^3
# Si number density = 26.893655 Si / 1000 Ang^3
#
#
#
# Elastic Constant Matrix: (Units=GPa)
#
#
# Indices 1 2 3 4 5 6 
#
# 1 62.4702 29.9527 27.7620 11.6198 -4.6361 0.0712
# 2 29.9527 114.8226 31.4051 24.9833 -3.5339 5.0558
# 3 27.7620 31.4051 120.3294 15.7769 -12.8826 -2.6224
# 4 11.6198 24.9833 15.7769 49.6567 -6.9430 -2.7864
# 5 -4.6361 -3.5339 -12.8826 -6.9430 32.7936 12.8110
# 6 0.0712 5.0558 -2.6224 -2.7864 12.8110 33.6946
#
#
#
# Elastic Compliance Matrix: (Units=1/GPa)
#
#
# Indices 1 2 3 4 5 6 
#
# 1 0.019649 -0.003879 -0.003238 -0.001510 0.000827 -0.000151
# 2 -0.003879 0.011173 -0.001498 -0.004360 -0.000021 -0.002137
# 3 -0.003238 -0.001498 0.009939 -0.001224 0.003139 -0.000290
# 4 -0.001510 -0.004360 -0.001224 0.023612 0.003350 0.001241
# 5 0.000827 -0.000021 0.003139 0.003350 0.037989 -0.013921
# 6 -0.000151 -0.002137 -0.000290 0.001241 -0.013921 0.035372
#
#
# Mechanical properties :
#
#
# Convention : Reuss Voigt Hill
#
# Bulk Modulus (GPa) = 42.49817 52.87355 47.68586
# Shear Modulus (GPa) = 30.71091 37.12912 33.92001
#
# Velocity S-wave (km/s) = 3.38292 3.71966 3.55528
# Velocity P-wave (km/s) = 5.57634 6.17663 5.88414
#
# Compressibility (1/GPa) = 0.02353043
#
# Stress axis : x y z
#
# Youngs Moduli (GPa) = 50.89323 89.50090 100.61663
#
# Poissons Ratio (x) = 0.34721 0.32575
# Poissons Ratio (y) = 0.19744 0.15074
# Poissons Ratio (z) = 0.16477 0.13409
#
# Static dielectric constant tensor:
#      x y z
#    x 2.063990 -0.017930 0.040690 
#    y -0.017930 2.095350 -0.001850 
#    z 0.040690 -0.001850 2.149110 
# 
# From -- ./inp_files/519872.got.cif
#   From: 2010.05.17/outbox.cif.g08.bks.cpg/sg2_260_cif.got.tgz:519872.got - 2010.06.03 11:33:40.
