data_PCOD9076304
_publ_section_title
;
Structure prediction by ZEFSAII (Michael W. Deem and Ramdas Pophale) SiO2 
 PCOD9076304
Probable space group: P -1
;
_chemical_formula_sum "Si O2"
_cell_formula_units_Z 12
_cell_length_a 14.029394
_cell_length_b 7.843099
_cell_length_c 7.894249
_cell_angle_alpha 111.176557
_cell_angle_beta 67.058339
_cell_angle_gamma 147.280293
_cell_volume 431.416307
_symmetry_space_group_name_H-M "P -1"
_symmetry_group_IT_number 2
_symmetry_cell_setting 'triclinic'
loop_
_space_group_symop_operation_xyz
x,y,z
-x,-y,-z
loop_
_atom_site_type_symbol
_atom_site_label
_atom_site_fract_x
_atom_site_fract_y
_atom_site_fract_z
Si Si1 0.604708 0.548572 0.101465
Si Si2 0.158171 0.300578 0.226481
Si Si3 0.692795 0.136667 0.859136
Si Si4 0.728621 0.323202 0.267452
Si Si5 0.054469 0.760465 0.451523
Si Si6 0.538872 0.337882 0.591466
O O1 0.571850 0.634296 0.313021
O O2 0.503931 0.211183 0.075143
O O3 0.500000 0.500000 0.000000
O O4 0.804222 0.786839 0.983646
O O5 0.256793 0.632645 0.224737
O O6 0.969103 0.099782 0.356422
O O7 0.279421 0.394773 0.327153
O O8 0.771628 0.062452 0.700281
O O9 0.774155 0.320531 0.047646
O O10 0.909624 0.591431 0.345407
O O11 0.610701 0.337529 0.376242
O O12 0.601407 0.995017 0.333297
O O13 0.000000 0.500000 0.500000
#
# Coordination Sequence:
#
# PCOD9076304 Si02
#       6
#     2   2   2   2   2   2
#     4  10  18  33  54  82 106 141 172 214 263 314
#     4   9  18  34  55  78 107 140 172 214 260 316
#     4  11  19  32  60  81 104 138 182 212 258 316
#     4  10  18  33  56  79 106 136 179 218 259 309
#     4   9  20  35  54  78 105 142 177 216 262 314
#     4   9  19  34  55  79 110 139 169 217 269 305
#
# _framework density 27.815359999999998
#
# number of rings (size 3 to 8) (size 9 to 14) (size 15 to 20)
#    0.000    2.333    3.333    1.000    0.000    0.000 
#    0.000    8.333    0.000    2.000    0.000    0.000 
#    0.000    0.000    0.000    0.000    0.000    0.000 
#
# Total GULP energy -67084.482691 kJ/mol
# GULP energy per Si atom -5590.373558 kJ/mol
# Density = 2.775205 g / cm^3
# Si number density = 27.815360 Si / 1000 Ang^3
#
#
#
# Elastic Constant Matrix: (Units=GPa)
#
#
# Indices 1 2 3 4 5 6 
#
# 1 114.2636 18.0044 50.9991 -0.5765 -26.1637 -16.9067
# 2 18.0044 56.0509 7.9133 -12.4639 -0.1958 -17.4028
# 3 50.9991 7.9133 206.0227 -1.3327 -53.4493 12.5734
# 4 -0.5765 -12.4639 -1.3327 32.5200 8.5336 -8.1791
# 5 -26.1637 -0.1958 -53.4493 8.5336 79.4672 -8.4544
# 6 -16.9067 -17.4028 12.5734 -8.1791 -8.4544 46.7345
#
#
#
# Elastic Compliance Matrix: (Units=1/GPa)
#
#
# Indices 1 2 3 4 5 6 
#
# 1 0.011367 -0.001993 -0.002314 -0.000245 0.002679 0.004435
# 2 -0.001993 0.024857 -0.001511 0.012628 -0.001816 0.010823
# 3 -0.002314 -0.001511 0.006572 -0.002009 0.003564 -0.002875
# 4 -0.000245 0.012628 -0.002009 0.039503 -0.004445 0.011264
# 5 0.002679 -0.001816 0.003564 -0.004445 0.016500 0.001541
# 6 0.004435 0.010823 -0.002875 0.011264 0.001541 0.030056
#
#
# Mechanical properties :
#
#
# Convention : Reuss Voigt Hill
#
# Bulk Modulus (GPa) = 32.09411 58.90787 45.50099
# Shear Modulus (GPa) = 33.13942 51.70568 42.42255
#
# Velocity S-wave (km/s) = 3.45542 4.31616 3.90955
# Velocity P-wave (km/s) = 5.24245 6.78698 6.06409
#
# Compressibility (1/GPa) = 0.03115837
#
# Stress axis : x y z
#
# Youngs Moduli (GPa) = 87.97368 40.23080 152.15979
#
# Poissons Ratio (x) = 0.08017 0.35217
# Poissons Ratio (y) = 0.17531 0.22998
# Poissons Ratio (z) = 0.20361 0.06081
#
# Static dielectric constant tensor:
#      x y z
#    x 2.160200 -0.029820 -0.024440 
#    y -0.029820 2.111930 -0.005180 
#    z -0.024440 -0.005180 2.234940 
# 
# From -- ./inp_files/148011.got.cif
#   From: 2010.05.17/outbox.cif.g08.bks.cpg/sg2_75_cif.got.tgz:148011.got - 2010.06.03 11:33:40.
