data_PCOD9076490
_publ_section_title
;
Structure prediction by ZEFSAII (Michael W. Deem and Ramdas Pophale) SiO2 
 PCOD9076490
Probable space group: P -1
;
_chemical_formula_sum "Si O2"
_cell_formula_units_Z 16
_cell_length_a 7.432334
_cell_length_b 15.597318
_cell_length_c 15.710686
_cell_angle_alpha 138.882918
_cell_angle_beta 137.482327
_cell_angle_gamma 47.932667
_cell_volume 781.965431
_symmetry_space_group_name_H-M "P -1"
_symmetry_group_IT_number 2
_symmetry_cell_setting 'triclinic'
loop_
_space_group_symop_operation_xyz
x,y,z
-x,-y,-z
loop_
_atom_site_type_symbol
_atom_site_label
_atom_site_fract_x
_atom_site_fract_y
_atom_site_fract_z
Si Si1 0.872300 0.153887 0.174294
Si Si2 0.751104 0.646019 0.728106
Si Si3 0.765552 0.373363 0.579547
Si Si4 0.380431 0.067274 0.153661
Si Si5 0.163224 0.160588 0.449461
Si Si6 0.987642 0.974493 0.375076
Si Si7 0.799086 0.449445 0.324175
Si Si8 0.646897 0.276448 0.642088
O O1 0.743878 0.314286 0.243202
O O2 0.145413 0.115866 0.180808
O O3 0.973750 0.123056 0.282391
O O4 0.678066 0.063169 0.007616
O O5 0.767796 0.527433 0.712967
O O6 0.517961 0.627528 0.566472
O O7 0.671738 0.805698 0.834678
O O8 0.033074 0.601913 0.741164
O O9 0.772562 0.285299 0.599558
O O10 0.005157 0.300821 0.544470
O O11 0.680188 0.032089 0.274800
O O12 0.181009 0.050485 0.446979
O O13 0.422705 0.189893 0.513315
O O14 0.102579 0.812279 0.281137
O O15 0.000000 0.000000 0.500000
O O16 0.536059 0.569830 0.298180
O O17 0.000000 0.500000 0.500000
#
# Coordination Sequence:
#
# PCOD9076490 Si02
#       8
#     2   2   2   2   2   2   2   2
#     4  10  22  39  65  96 123 158 208 261 306 365
#     4  10  18  33  56  86 121 150 198 253 308 353
#     4  11  20  33  58  91 122 150 198 262 309 350
#     4  10  22  42  63  89 129 166 201 253 315 363
#     4  12  22  39  62  94 123 159 206 254 314 358
#     4  12  24  40  59  87 128 169 205 246 305 376
#     4  11  18  34  62  91 124 152 205 259 305 357
#     4  12  23  37  57  94 126 158 203 257 304 364
#
# _framework density 20.461262000000001
#
# number of rings (size 3 to 8) (size 9 to 14) (size 15 to 20)
#    0.000    1.000    6.250    1.875    1.750    0.500 
#    0.000    0.625    0.000    0.000    0.000    6.125 
#    0.000    0.000    0.000    0.000    0.000    0.000 
#
# Total GULP energy -89244.510047 kJ/mol
# GULP energy per Si atom -5577.781878 kJ/mol
# Density = 2.041469 g / cm^3
# Si number density = 20.461262 Si / 1000 Ang^3
#
#
#
# Elastic Constant Matrix: (Units=GPa)
#
#
# Indices 1 2 3 4 5 6 
#
# 1 78.5290 26.5323 25.9028 0.5376 -1.0879 13.6929
# 2 26.5323 146.6496 48.9429 33.9239 -1.1215 7.2138
# 3 25.9028 48.9429 86.9123 28.3529 7.6874 5.9631
# 4 0.5376 33.9239 28.3529 26.8785 -0.1423 1.4122
# 5 -1.0879 -1.1215 7.6874 -0.1423 18.7496 6.5792
# 6 13.6929 7.2138 5.9631 1.4122 6.5792 45.2116
#
#
#
# Elastic Compliance Matrix: (Units=1/GPa)
#
#
# Indices 1 2 3 4 5 6 
#
# 1 0.016988 -0.003007 -0.007240 0.011378 0.005572 -0.004876
# 2 -0.003007 0.010562 -0.001208 -0.011970 0.000997 -0.000386
# 3 -0.007240 -0.001208 0.022340 -0.022036 -0.010394 0.001640
# 4 0.011378 -0.011970 -0.022036 0.075516 0.010432 -0.002506
# 5 0.005572 0.000997 -0.010394 0.010432 0.061479 -0.009748
# 6 -0.004876 -0.000386 0.001640 -0.002506 -0.009748 0.024937
#
#
# Mechanical properties :
#
#
# Convention : Reuss Voigt Hill
#
# Bulk Modulus (GPa) = 37.06495 57.20522 47.13508
# Shear Modulus (GPa) = 20.51500 32.21547 26.36524
#
# Velocity S-wave (km/s) = 3.16986 3.97225 3.59352
# Velocity P-wave (km/s) = 5.61706 7.00406 6.34855
#
# Compressibility (1/GPa) = 0.02697967
#
# Stress axis : x y z
#
# Youngs Moduli (GPa) = 58.86646 94.68044 44.76347
#
# Poissons Ratio (x) = 0.28468 0.32407
# Poissons Ratio (y) = 0.17700 0.05409
# Poissons Ratio (z) = 0.42617 0.11441
#
# Static dielectric constant tensor:
#      x y z
#    x 1.801380 -0.015500 -0.009680 
#    y -0.015500 1.771420 0.060870 
#    z -0.009680 0.060870 1.708910 
# 
# From -- ./inp_files/560546.got.cif
#   From: 2010.05.17/outbox.cif.g08.bks.cpg/sg2_281_cif.got.tgz:560546.got - 2010.06.03 11:33:40.
