data_PCOD9076454
_publ_section_title
;
Structure prediction by ZEFSAII (Michael W. Deem and Ramdas Pophale) SiO2 
 PCOD9076454
Probable space group: P -1
;
_chemical_formula_sum "Si O2"
_cell_formula_units_Z 12
_cell_length_a 8.892933
_cell_length_b 9.269424
_cell_length_c 12.234716
_cell_angle_alpha 74.368685
_cell_angle_beta 42.244091
_cell_angle_gamma 62.263459
_cell_volume 595.324565
_symmetry_space_group_name_H-M "P -1"
_symmetry_group_IT_number 2
_symmetry_cell_setting 'triclinic'
loop_
_space_group_symop_operation_xyz
x,y,z
-x,-y,-z
loop_
_atom_site_type_symbol
_atom_site_label
_atom_site_fract_x
_atom_site_fract_y
_atom_site_fract_z
Si Si1 0.225012 0.025088 0.166106
Si Si2 0.656356 0.682340 0.350663
Si Si3 0.259378 0.880394 0.835435
Si Si4 0.897194 0.865600 0.317419
Si Si5 0.340052 0.028660 0.343644
Si Si6 0.770915 0.343399 0.262580
O O1 0.025837 0.196388 0.191447
O O2 0.193339 0.034381 0.312209
O O3 0.154919 0.882424 0.182289
O O4 0.500000 0.000000 0.000000
O O5 0.810556 0.887546 0.484420
O O6 0.510916 0.840231 0.321073
O O7 0.771356 0.518888 0.249846
O O8 0.453642 0.662631 0.543393
O O9 0.269051 0.706382 0.828746
O O10 0.271586 0.973942 0.696418
O O11 0.477538 0.881300 0.791086
O O12 0.000000 0.000000 0.000000
O O13 0.853200 0.721396 0.309151
#
# Coordination Sequence:
#
# PCOD9076454 Si02
#       6
#     2   2   2   2   2   2
#     4  11  23  37  55  83 118 150 184 228 285 340
#     4  10  19  36  61  86 108 142 190 246 267 319
#     4  10  18  33  56  82 113 147 184 227 274 336
#     4  10  19  36  56  84 108 148 197 222 271 337
#     4  11  18  35  59  85 107 149 196 223 272 334
#     4  10  20  37  57  86 115 140 187 237 285 316
#
# _framework density 20.157071999999999
#
# number of rings (size 3 to 8) (size 9 to 14) (size 15 to 20)
#    0.000    1.667    5.000    3.500    0.000    0.000 
#    0.000   10.833    0.000    0.000    0.000    0.000 
#    0.000    0.000    0.000    0.000    0.000    0.000 
#
# Total GULP energy -66923.375725 kJ/mol
# GULP energy per Si atom -5576.947977 kJ/mol
# Density = 2.011119 g / cm^3
# Si number density = 20.157072 Si / 1000 Ang^3
#
#
#
# Elastic Constant Matrix: (Units=GPa)
#
#
# Indices 1 2 3 4 5 6 
#
# 1 70.9575 34.6277 -6.9886 -10.1807 -11.1343 30.0550
# 2 34.6277 134.2489 20.2948 13.2895 -8.4924 50.9024
# 3 -6.9886 20.2948 62.9429 -0.9702 -15.7341 13.0516
# 4 -10.1807 13.2895 -0.9702 19.9369 7.5365 1.2329
# 5 -11.1343 -8.4924 -15.7341 7.5365 37.7742 -8.1144
# 6 30.0550 50.9024 13.0516 1.2329 -8.1144 35.9148
#
#
#
# Elastic Compliance Matrix: (Units=1/GPa)
#
#
# Indices 1 2 3 4 5 6 
#
# 1 0.030344 0.000410 0.010574 0.016087 0.003896 -0.029488
# 2 0.000410 0.018102 -0.000551 -0.010560 0.000635 -0.025293
# 3 0.010574 -0.000551 0.022385 0.004621 0.008282 -0.014490
# 4 0.016087 -0.010560 0.004621 0.070011 -0.010751 -0.005007
# 5 0.003896 0.000635 0.008282 -0.010751 0.033525 0.000774
# 6 -0.029488 -0.025293 -0.014490 -0.005007 0.000774 0.093981
#
#
# Mechanical properties :
#
#
# Convention : Reuss Voigt Hill
#
# Bulk Modulus (GPa) = 10.90556 40.44634 25.67595
# Shear Modulus (GPa) = 17.98239 33.40621 25.69430
#
# Velocity S-wave (km/s) = 2.99007 4.07540 3.57417
# Velocity P-wave (km/s) = 4.16446 6.50034 5.45880
#
# Compressibility (1/GPa) = 0.09169631
#
# Stress axis : x y z
#
# Youngs Moduli (GPa) = 32.95528 55.24183 44.67240
#
# Poissons Ratio (x) = -0.02262 -0.47235
# Poissons Ratio (y) = -0.01350 0.02460
# Poissons Ratio (z) = -0.34846 0.03042
#
# Static dielectric constant tensor:
#      x y z
#    x 1.729390 0.049720 0.020070 
#    y 0.049720 1.725020 -0.036740 
#    z 0.020070 -0.036740 1.804480 
# 
# From -- ./inp_files/353632.got.cif
#   From: 2010.05.17/outbox.cif.g08.bks.cpg/sg2_177_cif.got.tgz:353632.got - 2010.06.03 11:33:40.
