data_PCOD9076719
_publ_section_title
;
Structure prediction by ZEFSAII (Michael W. Deem and Ramdas Pophale) SiO2 
 PCOD9076719
Probable space group: P -1
;
_chemical_formula_sum "Si O2"
_cell_formula_units_Z 16
_cell_length_a 9.780397
_cell_length_b 9.691614
_cell_length_c 15.382157
_cell_angle_alpha 65.451790
_cell_angle_beta 62.145763
_cell_angle_gamma 117.251724
_cell_volume 686.449057
_symmetry_space_group_name_H-M "P -1"
_symmetry_group_IT_number 2
_symmetry_cell_setting 'triclinic'
loop_
_space_group_symop_operation_xyz
x,y,z
-x,-y,-z
loop_
_atom_site_type_symbol
_atom_site_label
_atom_site_fract_x
_atom_site_fract_y
_atom_site_fract_z
Si Si1 0.915173 0.755298 0.988490
Si Si2 0.451839 0.628078 0.942822
Si Si3 0.608152 0.748242 0.492432
Si Si4 0.772780 0.228283 0.190164
Si Si5 0.990498 0.205471 0.674861
Si Si6 0.045866 0.208364 0.846730
Si Si7 0.055816 0.702378 0.705459
Si Si8 0.255872 0.692298 0.488463
O O1 0.117191 0.856202 0.830517
O O2 0.647845 0.477577 0.099174
O O3 0.020465 0.778305 0.043100
O O4 0.928455 0.945545 0.943045
O O5 0.721618 0.932883 0.786582
O O6 0.500000 0.500000 0.000000
O O7 0.227041 0.516064 0.104232
O O8 0.366912 0.469058 0.685907
O O9 0.433611 0.716017 0.488526
O O10 0.795861 0.762207 0.397938
O O11 0.801227 0.019182 0.414090
O O12 0.773374 0.260455 0.284424
O O13 0.476033 0.981181 0.308977
O O14 0.000000 0.500000 0.000000
O O15 0.940992 0.202283 0.792664
O O16 0.104163 0.450854 0.537079
O O17 0.073308 0.640549 0.622666
#
# Coordination Sequence:
#
# PCOD9076719 Si02
#       8
#     2   2   2   2   2   2   2   2
#     4  10  21  34  53  88 119 143 189 243 292 344
#     4  11  20  39  59  81 116 160 197 226 293 358
#     4  10  18  33  59  84 114 151 193 239 295 340
#     4  10  20  33  56  83 119 152 183 238 302 340
#     4  11  20  35  64  82 117 158 196 237 286 344
#     4  10  19  32  56  88 114 140 192 253 287 326
#     4  10  21  36  57  86 114 152 202 237 278 353
#     4  10  21  34  56  89 115 143 206 245 279 338
#
# _framework density 23.308356
#
# number of rings (size 3 to 8) (size 9 to 14) (size 15 to 20)
#    0.000    1.750    2.500    5.250    5.250    0.500 
#    0.000    0.625    0.000    3.000    0.000    0.000 
#    0.000    0.000    0.000    0.000    0.000    0.000 
#
# Total GULP energy -89145.470922 kJ/mol
# GULP energy per Si atom -5571.591933 kJ/mol
# Density = 2.325531 g / cm^3
# Si number density = 23.308356 Si / 1000 Ang^3
#
#
#
# Elastic Constant Matrix: (Units=GPa)
#
#
# Indices 1 2 3 4 5 6 
#
# 1 49.0677 12.1562 -4.3993 -4.0436 0.5271 -8.3237
# 2 12.1562 119.5552 48.8380 -24.7117 -0.0019 -11.6220
# 3 -4.3993 48.8380 100.4180 -30.4691 -8.9884 -6.4066
# 4 -4.0436 -24.7117 -30.4691 41.3386 -2.8468 4.5178
# 5 0.5271 -0.0019 -8.9884 -2.8468 25.1173 -2.2483
# 6 -8.3237 -11.6220 -6.4066 4.5178 -2.2483 29.5553
#
#
#
# Elastic Compliance Matrix: (Units=1/GPa)
#
#
# Indices 1 2 3 4 5 6 
#
# 1 0.022556 -0.002638 0.003637 0.002790 0.001664 0.005804
# 2 -0.002638 0.011356 -0.004789 0.002682 -0.001158 0.002186
# 3 0.003637 -0.004789 0.016105 0.009657 0.006932 0.001683
# 4 0.002790 0.002682 0.009657 0.033752 0.007162 -0.000681
# 5 0.001664 -0.001158 0.006932 0.007162 0.043404 0.003723
# 6 0.005804 0.002186 0.001683 -0.000681 0.003723 0.037081
#
#
# Mechanical properties :
#
#
# Convention : Reuss Voigt Hill
#
# Bulk Modulus (GPa) = 23.56453 42.47008 33.01731
# Shear Modulus (GPa) = 26.88483 33.36530 30.12506
#
# Velocity S-wave (km/s) = 3.39992 3.78759 3.59898
# Velocity P-wave (km/s) = 5.05415 6.11460 5.60949
#
# Compressibility (1/GPa) = 0.04243666
#
# Stress axis : x y z
#
# Youngs Moduli (GPa) = 44.33349 88.06182 62.09418
#
# Poissons Ratio (x) = 0.23234 -0.22585
# Poissons Ratio (y) = 0.11697 0.29735
# Poissons Ratio (z) = -0.16125 0.42171
#
# Static dielectric constant tensor:
#      x y z
#    x 1.989400 -0.011010 0.046490 
#    y -0.011010 1.924260 -0.061840 
#    z 0.046490 -0.061840 1.964710 
# 
# From -- ./inp_files/498800.got.cif
#   From: 2010.05.17/outbox.cif.g08.bks.cpg/sg2_250_cif.got.tgz:498800.got - 2010.06.03 11:33:40.
