data_PCOD9076617
_publ_section_title
;
Structure prediction by ZEFSAII (Michael W. Deem and Ramdas Pophale) SiO2 
 PCOD9076617
Probable space group: P -1
;
_chemical_formula_sum "Si O2"
_cell_formula_units_Z 10
_cell_length_a 7.895705
_cell_length_b 8.801659
_cell_length_c 6.761010
_cell_angle_alpha 97.809524
_cell_angle_beta 56.874543
_cell_angle_gamma 71.112773
_cell_volume 342.075989
_symmetry_space_group_name_H-M "P -1"
_symmetry_group_IT_number 2
_symmetry_cell_setting 'triclinic'
loop_
_space_group_symop_operation_xyz
x,y,z
-x,-y,-z
loop_
_atom_site_type_symbol
_atom_site_label
_atom_site_fract_x
_atom_site_fract_y
_atom_site_fract_z
Si Si1 0.657614 0.262527 0.910102
Si Si2 0.740291 0.449405 0.230370
Si Si3 0.092274 0.085547 0.118056
Si Si4 0.572502 0.039500 0.672755
Si Si5 0.200456 0.343374 0.467423
O O1 0.732604 0.395307 0.994064
O O2 0.401122 0.785167 0.280708
O O3 0.435426 0.306054 0.196123
O O4 0.855478 0.066862 0.786531
O O5 0.500000 0.500000 0.500000
O O6 0.799380 0.598459 0.294385
O O7 0.915973 0.285140 0.223119
O O8 0.340641 0.075591 0.941070
O O9 0.000000 0.000000 0.000000
O O10 0.780892 0.847398 0.568006
O O11 0.500000 0.000000 0.500000
O O12 0.000000 0.500000 0.500000
#
# Coordination Sequence:
#
# PCOD9076617 Si02
#       5
#     2   2   2   2   2
#     4   9  18  33  54  78 107 146 186 224 270 334
#     4   9  17  30  54  84 104 133 188 239 266 308
#     4   9  17  34  58  79 106 148 191 223 266 339
#     4  11  22  36  54  83 117 148 181 228 282 328
#     4  10  18  33  58  82 104 143 192 230 267 329
#
# _framework density 29.233267000000001
#
# number of rings (size 3 to 8) (size 9 to 14) (size 15 to 20)
#    0.000    2.400    0.000    6.000    0.000    0.000 
#    0.000    9.000    0.000    0.000    0.000    4.200 
#    0.000    0.000    0.000    0.000    0.000    0.000 
#
# Total GULP energy -55710.551957 kJ/mol
# GULP energy per Si atom -5571.055196 kJ/mol
# Density = 2.916673 g / cm^3
# Si number density = 29.233267 Si / 1000 Ang^3
#
#
#
# Elastic Constant Matrix: (Units=GPa)
#
#
# Indices 1 2 3 4 5 6 
#
# 1 158.6303 54.0964 79.4053 28.5834 51.9492 14.2281
# 2 54.0964 109.4630 60.4005 38.8228 -2.3044 -1.3469
# 3 79.4053 60.4005 158.3861 36.3375 47.4267 2.9522
# 4 28.5834 38.8228 36.3375 64.2015 7.3824 1.3095
# 5 51.9492 -2.3044 47.4267 7.3824 106.2836 24.1483
# 6 14.2281 -1.3469 2.9522 1.3095 24.1483 58.6717
#
#
#
# Elastic Compliance Matrix: (Units=1/GPa)
#
#
# Indices 1 2 3 4 5 6 
#
# 1 0.010138 -0.003537 -0.002496 -0.000521 -0.003680 -0.000888
# 2 -0.003537 0.015252 -0.003974 -0.005888 0.004293 -0.000228
# 3 -0.002496 -0.003974 0.010693 -0.002128 -0.003856 0.001610
# 4 -0.000521 -0.005888 -0.002128 0.020612 -0.000301 -0.000238
# 5 -0.003680 0.004293 -0.003856 -0.000301 0.014089 -0.004607
# 6 -0.000888 -0.000228 0.001610 -0.000238 -0.004607 0.019074
#
#
# Mechanical properties :
#
#
# Convention : Reuss Voigt Hill
#
# Bulk Modulus (GPa) = 62.22475 90.47598 76.35036
# Shear Modulus (GPa) = 43.39225 61.33652 52.36438
#
# Velocity S-wave (km/s) = 3.85690 4.58555 4.23692
# Velocity P-wave (km/s) = 6.41608 7.68461 7.07882
#
# Compressibility (1/GPa) = 0.01607078
#
# Stress axis : x y z
#
# Youngs Moduli (GPa) = 98.63701 65.56572 93.51945
#
# Poissons Ratio (x) = 0.23189 0.23341
# Poissons Ratio (y) = 0.34885 0.37161
# Poissons Ratio (z) = 0.24618 0.26053
#
# Static dielectric constant tensor:
#      x y z
#    x 2.580040 -0.289090 0.092830 
#    y -0.289090 2.406790 -0.031170 
#    z 0.092830 -0.031170 2.448400 
# 
# From -- ./inp_files/61527.got.cif
#   From: 2010.05.17/outbox.cif.g08.bks.cpg/sg2_31_cif.got.tgz:61527.got - 2010.06.03 11:33:40.
