data_PCOD9076422
_publ_section_title
;
Structure prediction by ZEFSAII (Michael W. Deem and Ramdas Pophale) SiO2 
 PCOD9076422
Probable space group: P -1
;
_chemical_formula_sum "Si O2"
_cell_formula_units_Z 14
_cell_length_a 11.014859
_cell_length_b 8.171002
_cell_length_c 17.038155
_cell_angle_alpha 119.572538
_cell_angle_beta 154.930195
_cell_angle_gamma 74.182678
_cell_volume 497.787048
_symmetry_space_group_name_H-M "P -1"
_symmetry_group_IT_number 2
_symmetry_cell_setting 'triclinic'
loop_
_space_group_symop_operation_xyz
x,y,z
-x,-y,-z
loop_
_atom_site_type_symbol
_atom_site_label
_atom_site_fract_x
_atom_site_fract_y
_atom_site_fract_z
Si Si1 0.641586 0.413655 0.880993
Si Si2 0.199402 0.029749 0.935719
Si Si3 0.249729 0.188405 0.246235
Si Si4 0.864853 0.563450 0.303184
Si Si5 0.526433 0.550922 0.702554
Si Si6 0.773326 0.141224 0.629193
Si Si7 0.579904 0.828680 0.161477
O O1 0.366721 0.475320 0.766566
O O2 0.580937 0.379610 0.744686
O O3 0.565364 0.214140 0.845110
O O4 0.985624 0.611456 0.149954
O O5 0.928369 0.832052 0.780169
O O6 0.528285 0.009909 0.130484
O O7 0.032875 0.047309 0.761945
O O8 0.255786 0.234359 0.068449
O O9 0.360254 0.398299 0.308291
O O10 0.560501 0.153241 0.436315
O O11 0.000000 0.000000 0.000000
O O12 0.897649 0.792485 0.346996
O O13 0.174116 0.535569 0.495643
O O14 0.662174 0.383718 0.078451
O O15 0.500000 0.000000 0.500000
#
# Coordination Sequence:
#
# PCOD9076422 Si02
#       7
#     2   2   2   2   2   2   2
#     4   9  18  33  54  76 104 144 172 208 266 320
#     4   9  19  35  54  82 103 135 182 223 251 303
#     4   9  18  32  54  77 105 134 170 216 265 309
#     4   9  19  34  56  73 110 144 174 209 270 311
#     4  10  18  33  56  77 104 144 179 208 261 316
#     4   9  17  33  55  74 101 140 175 211 261 314
#     4   9  19  35  54  76 110 136 180 215 262 306
#
# _framework density 28.124476000000001
#
# number of rings (size 3 to 8) (size 9 to 14) (size 15 to 20)
#    0.857    2.000    0.000    2.143    0.000    0.571 
#    0.000   12.857    0.000    0.000    0.000    0.000 
#    0.000    0.000    0.000    0.000    0.000    0.000 
#
# Total GULP energy -78207.413010 kJ/mol
# GULP energy per Si atom -5586.243786 kJ/mol
# Density = 2.806046 g / cm^3
# Si number density = 28.124476 Si / 1000 Ang^3
#
#
#
# Elastic Constant Matrix: (Units=GPa)
#
#
# Indices 1 2 3 4 5 6 
#
# 1 96.7301 34.0874 25.1220 -14.8642 11.1492 5.1229
# 2 34.0874 112.9958 48.6834 -48.4321 -12.3127 -0.5753
# 3 25.1220 48.6834 147.8729 -31.4146 7.3925 14.0650
# 4 -14.8642 -48.4321 -31.4146 70.5140 5.7795 -4.5614
# 5 11.1492 -12.3127 7.3925 5.7795 39.7517 -8.7918
# 6 5.1229 -0.5753 14.0650 -4.5614 -8.7918 40.0283
#
#
#
# Elastic Compliance Matrix: (Units=1/GPa)
#
#
# Indices 1 2 3 4 5 6 
#
# 1 0.012713 -0.004454 -0.000188 -0.000196 -0.005514 -0.002858
# 2 -0.004454 0.015969 -0.003509 0.008209 0.006633 0.004425
# 3 -0.000188 -0.003509 0.008823 0.001543 -0.003733 -0.003771
# 4 -0.000196 0.008209 0.001543 0.020610 -0.000268 0.001891
# 5 -0.005514 0.006633 -0.003733 -0.000268 0.031480 0.008997
# 6 -0.002858 0.004425 -0.003771 0.001891 0.008997 0.028928
#
#
# Mechanical properties :
#
#
# Convention : Reuss Voigt Hill
#
# Bulk Modulus (GPa) = 47.16118 63.70937 55.43527
# Shear Modulus (GPa) = 35.23798 46.70586 40.97192
#
# Velocity S-wave (km/s) = 3.54351 4.07957 3.82095
# Velocity P-wave (km/s) = 5.79199 6.70017 6.26257
#
# Compressibility (1/GPa) = 0.02120388
#
# Stress axis : x y z
#
# Youngs Moduli (GPa) = 78.65931 62.62114 113.34165
#
# Poissons Ratio (x) = 0.27888 0.02126
# Poissons Ratio (y) = 0.35031 0.39777
# Poissons Ratio (z) = 0.01476 0.21976
#
# Static dielectric constant tensor:
#      x y z
#    x 2.228360 0.034650 0.001900 
#    y 0.034650 2.285920 -0.005180 
#    z 0.001900 -0.005180 2.200690 
# 
# From -- ./inp_files/513614.got.cif
#   From: 2010.05.17/outbox.cif.g08.bks.cpg/sg2_257_cif.got.tgz:513614.got - 2010.06.03 11:33:40.
