data_PCOD9076306
_publ_section_title
;
Structure prediction by ZEFSAII (Michael W. Deem and Ramdas Pophale) SiO2 
 PCOD9076306
Probable space group: P -1
;
_chemical_formula_sum "Si O2"
_cell_formula_units_Z 16
_cell_length_a 12.253424
_cell_length_b 21.094163
_cell_length_c 14.788120
_cell_angle_alpha 24.686307
_cell_angle_beta 136.901585
_cell_angle_gamma 152.920641
_cell_volume 661.328578
_symmetry_space_group_name_H-M "P -1"
_symmetry_group_IT_number 2
_symmetry_cell_setting 'triclinic'
loop_
_space_group_symop_operation_xyz
x,y,z
-x,-y,-z
loop_
_atom_site_type_symbol
_atom_site_label
_atom_site_fract_x
_atom_site_fract_y
_atom_site_fract_z
Si Si1 0.533386 0.258096 0.160026
Si Si2 0.024730 0.707262 0.523705
Si Si3 0.291940 0.620886 0.073933
Si Si4 0.617823 0.422474 0.192494
Si Si5 0.152252 0.265746 0.914750
Si Si6 0.708224 0.744779 0.247047
Si Si7 0.559960 0.117891 0.676054
Si Si8 0.180662 0.562805 0.420442
O O1 0.650740 0.354809 0.207128
O O2 0.761586 0.418920 0.013762
O O3 0.350125 0.272020 0.032724
O O4 0.334186 0.971806 0.381409
O O5 0.919442 0.612495 0.684750
O O6 0.932847 0.791533 0.306955
O O7 0.853439 0.462656 0.675238
O O8 0.543472 0.697453 0.130996
O O9 0.395687 0.854660 0.878057
O O10 0.861874 0.655627 0.100683
O O11 0.460315 0.194016 0.463357
O O12 0.500000 0.500000 0.000000
O O13 0.250226 0.454779 0.651785
O O14 0.861055 0.990649 0.073272
O O15 0.500000 0.500000 0.500000
O O16 0.609727 0.173186 0.742186
O O17 0.868277 0.340203 0.544351
#
# Coordination Sequence:
#
# PCOD9076306 Si02
#       8
#     2   2   2   2   2   2   2   2
#     4  10  19  35  56  78 109 146 186 218 259 313
#     4  10  20  33  54  81 113 145 178 216 268 323
#     4  11  20  33  54  85 112 141 178 223 271 319
#     4   9  20  36  58  79 100 146 191 219 263 321
#     4   9  16  32  58  81 105 145 181 219 266 322
#     4   9  17  29  51  82 115 139 170 220 267 319
#     4  10  20  33  56  80 108 139 179 224 272 323
#     4  10  18  33  54  82 109 138 176 221 278 322
#
# _framework density 24.193721
#
# number of rings (size 3 to 8) (size 9 to 14) (size 15 to 20)
#    0.000    2.250    2.500    0.750    0.000    3.000 
#    0.000    0.625    0.000   21.750    0.000    0.000 
#    0.000    0.000    0.000    0.000    0.000    0.000 
#
# Total GULP energy -89087.242341 kJ/mol
# GULP energy per Si atom -5567.952646 kJ/mol
# Density = 2.413866 g / cm^3
# Si number density = 24.193721 Si / 1000 Ang^3
#
#
#
# Elastic Constant Matrix: (Units=GPa)
#
#
# Indices 1 2 3 4 5 6 
#
# 1 44.3426 29.1140 29.5701 12.2448 1.7520 -31.6134
# 2 29.1140 95.7397 20.3032 26.6641 -7.1924 -43.7254
# 3 29.5701 20.3032 66.3191 6.1573 1.7471 -8.7014
# 4 12.2448 26.6641 6.1573 35.0353 -1.1532 3.1814
# 5 1.7520 -7.1924 1.7471 -1.1532 50.3235 21.4775
# 6 -31.6134 -43.7254 -8.7014 3.1814 21.4775 60.9794
#
#
#
# Elastic Compliance Matrix: (Units=1/GPa)
#
#
# Indices 1 2 3 4 5 6 
#
# 1 0.124505 0.036101 -0.045038 -0.073864 -0.043313 0.103116
# 2 0.036101 0.037411 -0.016187 -0.043581 -0.018557 0.052042
# 3 -0.045038 -0.016187 0.032483 0.026164 0.014416 -0.036763
# 4 -0.073864 -0.043581 0.026164 0.091449 0.032545 -0.082044
# 5 -0.043313 -0.018557 0.014416 0.032545 0.040111 -0.049529
# 6 0.103116 0.052042 -0.036763 -0.082044 -0.049529 0.123653
#
#
# Mechanical properties :
#
#
# Convention : Reuss Voigt Hill
#
# Bulk Modulus (GPa) = 6.93710 40.48622 23.71166
# Shear Modulus (GPa) = 9.12559 37.76190 23.44374
#
# Velocity S-wave (km/s) = 1.94424 3.95500 3.11626
# Velocity P-wave (km/s) = 2.81312 6.13405 4.77180
#
# Compressibility (1/GPa) = 0.14415251
#
# Stress axis : x y z
#
# Youngs Moduli (GPa) = 8.03179 26.73016 30.78535
#
# Poissons Ratio (x) = -0.96499 1.38651
# Poissons Ratio (y) = -0.28996 0.49831
# Poissons Ratio (z) = 0.36174 0.43267
#
# Static dielectric constant tensor:
#      x y z
#    x 2.088100 -0.034340 0.046200 
#    y -0.034340 1.963830 0.067780 
#    z 0.046200 0.067780 1.956550 
# 
# From -- ./inp_files/258555.got.cif
#   From: 2010.05.17/outbox.cif.g08.bks.cpg/sg2_130_cif.got.tgz:258555.got - 2010.06.03 11:33:40.
