data_PCOD9076404
_publ_section_title
;
Structure prediction by ZEFSAII (Michael W. Deem and Ramdas Pophale) SiO2 
 PCOD9076404
Probable space group: P -1
;
_chemical_formula_sum "Si O2"
_cell_formula_units_Z 16
_cell_length_a 8.860047
_cell_length_b 17.467430
_cell_length_c 9.015928
_cell_angle_alpha 57.807043
_cell_angle_beta 45.682401
_cell_angle_gamma 36.093370
_cell_volume 586.443418
_symmetry_space_group_name_H-M "P -1"
_symmetry_group_IT_number 2
_symmetry_cell_setting 'triclinic'
loop_
_space_group_symop_operation_xyz
x,y,z
-x,-y,-z
loop_
_atom_site_type_symbol
_atom_site_label
_atom_site_fract_x
_atom_site_fract_y
_atom_site_fract_z
Si Si1 0.518297 0.668890 0.023982
Si Si2 0.244075 0.048052 0.514086
Si Si3 0.072626 0.818122 0.891311
Si Si4 0.746534 0.416685 0.125026
Si Si5 0.530888 0.176965 0.598682
Si Si6 0.936893 0.416387 0.600288
Si Si7 0.152329 0.667084 0.526994
Si Si8 0.319017 0.891305 0.095186
O O1 0.789924 0.511413 0.970234
O O2 0.355002 0.666781 0.276315
O O3 0.543536 0.764876 0.963965
O O4 0.290511 0.742362 0.964289
O O5 0.100408 0.182692 0.412440
O O6 0.006684 0.058297 0.756127
O O7 0.500000 0.000000 0.500000
O O8 0.346843 0.956144 0.402663
O O9 0.037492 0.728549 0.938392
O O10 0.265377 0.812148 0.639459
O O11 0.782047 0.971615 0.973563
O O12 0.408703 0.499409 0.209691
O O13 0.719858 0.406696 0.330038
O O14 0.575999 0.169477 0.749396
O O15 0.196282 0.287089 0.647271
O O16 0.968733 0.375521 0.450698
O O17 0.000000 0.500000 0.500000
#
# Coordination Sequence:
#
# PCOD9076404 Si02
#       8
#     2   2   2   2   2   2   2   2
#     4  10  21  35  59  86 112 148 188 229 282 336
#     4  10  18  33  55  89 108 137 184 243 276 314
#     4  11  20  37  58  87 113 147 189 230 281 337
#     4  11  22  38  61  85 110 149 195 232 274 333
#     4  11  21  36  59  88 111 146 190 233 278 332
#     4  11  21  32  56  88 114 143 185 240 277 322
#     4  10  21  38  60  85 109 146 193 234 275 332
#     4  10  22  37  60  86 110 150 193 229 277 335
#
# _framework density 27.283111999999999
#
# number of rings (size 3 to 8) (size 9 to 14) (size 15 to 20)
#    0.000    1.500    2.500    6.000    1.750    0.000 
#    0.000    0.000    0.000   12.750    0.000    0.000 
#    0.000    0.000    0.000    0.000    0.000    0.000 
#
# Total GULP energy -89648.412916 kJ/mol
# GULP energy per Si atom -5603.025807 kJ/mol
# Density = 2.722101 g / cm^3
# Si number density = 27.283112 Si / 1000 Ang^3
#
#
#
# Elastic Constant Matrix: (Units=GPa)
#
#
# Indices 1 2 3 4 5 6 
#
# 1 103.7177 54.9770 53.3060 12.1692 5.7774 25.2699
# 2 54.9770 193.1253 62.6777 -27.3948 10.6872 54.0078
# 3 53.3060 62.6777 143.3108 -5.8786 20.5299 12.8842
# 4 12.1692 -27.3948 -5.8786 35.5822 2.9428 11.3730
# 5 5.7774 10.6872 20.5299 2.9428 54.7191 -0.2359
# 6 25.2699 54.0078 12.8842 11.3730 -0.2359 67.1618
#
#
#
# Elastic Compliance Matrix: (Units=1/GPa)
#
#
# Indices 1 2 3 4 5 6 
#
# 1 0.015181 -0.004430 -0.004328 -0.009529 0.001400 0.000299
# 2 -0.004430 0.011788 -0.001795 0.013578 -0.001933 -0.009774
# 3 -0.004328 -0.001795 0.009782 0.001670 -0.002949 0.000902
# 4 -0.009529 0.013578 0.001670 0.047521 -0.004896 -0.015718
# 5 0.001400 -0.001933 -0.002949 -0.004896 0.019885 0.002493
# 6 0.000299 -0.009774 0.000902 -0.015718 0.002493 0.025134
#
#
# Mechanical properties :
#
#
# Convention : Reuss Voigt Hill
#
# Bulk Modulus (GPa) = 63.91250 86.89724 75.40487
# Shear Modulus (GPa) = 32.13100 49.43883 40.78491
#
# Velocity S-wave (km/s) = 3.43547 4.26146 3.87056
# Velocity P-wave (km/s) = 6.26204 7.49217 6.90456
#
# Compressibility (1/GPa) = 0.01564639
#
# Stress axis : x y z
#
# Youngs Moduli (GPa) = 65.87177 84.83162 102.22380
#
# Poissons Ratio (x) = 0.37579 0.44239
# Poissons Ratio (y) = 0.29180 0.18351
# Poissons Ratio (z) = 0.28507 0.15229
#
# Static dielectric constant tensor:
#      x y z
#    x 2.107820 -0.021200 -0.055220 
#    y -0.021200 2.228910 0.057880 
#    z -0.055220 0.057880 2.125490 
# 
# From -- ./inp_files/217294.got.cif
#   From: 2010.05.17/outbox.cif.g08.bks.cpg/sg2_109_cif.got.tgz:217294.got - 2010.06.03 11:33:40.
