data_PCOD9076640
_publ_section_title
;
Structure prediction by ZEFSAII (Michael W. Deem and Ramdas Pophale) SiO2 
 PCOD9076640
Probable space group: P -1
;
_chemical_formula_sum "Si O2"
_cell_formula_units_Z 15
_cell_length_a 12.205023
_cell_length_b 11.775589
_cell_length_c 9.300967
_cell_angle_alpha 95.385031
_cell_angle_beta 36.133788
_cell_angle_gamma 111.970173
_cell_volume 675.886504
_symmetry_space_group_name_H-M "P -1"
_symmetry_group_IT_number 2
_symmetry_cell_setting 'triclinic'
loop_
_space_group_symop_operation_xyz
x,y,z
-x,-y,-z
loop_
_atom_site_type_symbol
_atom_site_label
_atom_site_fract_x
_atom_site_fract_y
_atom_site_fract_z
Si Si1 0.819646 0.909149 0.468097
Si Si2 0.520361 0.872830 0.292019
Si Si3 0.841034 0.072194 0.212871
Si Si4 0.005623 0.338191 0.945051
Si Si5 0.794014 0.061998 0.781753
Si Si6 0.771820 0.419460 0.428000
Si Si7 0.000000 0.500000 0.500000
Si Si8 0.322578 0.729026 0.977448
O O1 0.575972 0.791034 0.690884
O O2 0.977373 0.866930 0.368398
O O3 0.911617 0.995755 0.237147
O O4 0.819942 0.012843 0.595305
O O5 0.309037 0.886723 0.530589
O O6 0.447177 0.720308 0.371005
O O7 0.676891 0.967477 0.260433
O O8 0.638703 0.933234 0.024756
O O9 0.012560 0.210232 0.974170
O O10 0.207925 0.453414 0.659348
O O11 0.948435 0.397944 0.150897
O O12 0.803411 0.288632 0.041980
O O13 0.704064 0.160708 0.893350
O O14 0.834070 0.447600 0.531244
O O15 0.197986 0.597725 0.188524
#
# Coordination Sequence:
#
# PCOD9076640 Si02
#       8
#     2   2   2   2   2   2   1   2
#     4  11  23  35  57  86 119 149 194 237 291 339
#     4  10  18  34  58  85 112 148 194 234 289 333
#     4  10  18  33  58  85 110 151 189 240 283 342
#     4   9  18  33  55  84 115 147 194 232 288 338
#     4  11  23  36  55  88 117 151 190 246 283 343
#     4   9  18  31  52  87 115 146 192 239 274 353
#     4  10  22  32  60  88 108 158 200 218 302 348
#     4  11  20  40  57  83 114 153 191 241 285 343
#
# _framework density 22.193076999999999
#
# number of rings (size 3 to 8) (size 9 to 14) (size 15 to 20)
#    0.000    1.867    2.667    2.800    3.733    0.533 
#    0.000    0.667    0.000    0.800    0.000    0.000 
#    0.000    0.000    0.000    0.000    0.000    0.000 
#
# Total GULP energy -83573.577756 kJ/mol
# GULP energy per Si atom -5571.571850 kJ/mol
# Density = 2.214256 g / cm^3
# Si number density = 22.193077 Si / 1000 Ang^3
#
#
#
# Elastic Constant Matrix: (Units=GPa)
#
#
# Indices 1 2 3 4 5 6 
#
# 1 75.5422 20.2575 28.6824 -4.0237 23.4769 -4.2298
# 2 20.2575 68.7076 36.1798 -29.5968 5.3064 -1.8465
# 3 28.6824 36.1798 75.2673 -22.0920 8.1849 -6.0379
# 4 -4.0237 -29.5968 -22.0920 39.2738 2.9705 1.8254
# 5 23.4769 5.3064 8.1849 2.9705 46.7793 7.9700
# 6 -4.2298 -1.8465 -6.0379 1.8254 7.9700 17.0525
#
#
#
# Elastic Compliance Matrix: (Units=1/GPa)
#
#
# Indices 1 2 3 4 5 6 
#
# 1 0.019231 -0.003446 -0.004940 -0.003033 -0.009463 0.007396
# 2 -0.003446 0.025691 -0.006558 0.015453 -0.000728 -0.001709
# 3 -0.004940 -0.006558 0.020746 0.006094 -0.001743 0.005573
# 4 -0.003033 0.015453 0.006094 0.040497 -0.003971 0.000600
# 5 -0.009463 -0.000728 -0.001743 -0.003971 0.029566 -0.016437
# 6 0.007396 -0.001709 0.005573 0.000600 -0.016437 0.069883
#
#
# Mechanical properties :
#
#
# Convention : Reuss Voigt Hill
#
# Bulk Modulus (GPa) = 27.94875 43.30628 35.62751
# Shear Modulus (GPa) = 20.20776 29.58093 24.89434
#
# Velocity S-wave (km/s) = 3.02079 3.65484 3.35284
# Velocity P-wave (km/s) = 4.97873 6.11279 5.57467
#
# Compressibility (1/GPa) = 0.03577978
#
# Stress axis : x y z
#
# Youngs Moduli (GPa) = 51.99975 38.92479 48.20097
#
# Poissons Ratio (x) = 0.13412 0.23812
# Poissons Ratio (y) = 0.17917 0.31612
# Poissons Ratio (z) = 0.25688 0.25529
#
# Static dielectric constant tensor:
#      x y z
#    x 1.815800 -0.004690 -0.000100 
#    y -0.004690 1.854830 -0.004470 
#    z -0.000100 -0.004470 1.828420 
# 
# From -- ./inp_files/234891.got.cif
#   From: 2010.05.17/outbox.cif.g08.bks.cpg/sg2_118_cif.got.tgz:234891.got - 2010.06.03 11:33:40.
