data_PCOD9076798
_publ_section_title
;
Structure prediction by ZEFSAII (Michael W. Deem and Ramdas Pophale) SiO2 
 PCOD9076798
Probable space group: P -1
;
_chemical_formula_sum "Si O2"
_cell_formula_units_Z 16
_cell_length_a 13.704058
_cell_length_b 21.325944
_cell_length_c 7.467447
_cell_angle_alpha 120.412307
_cell_angle_beta 116.092627
_cell_angle_gamma 21.757593
_cell_volume 694.507175
_symmetry_space_group_name_H-M "P -1"
_symmetry_group_IT_number 2
_symmetry_cell_setting 'triclinic'
loop_
_space_group_symop_operation_xyz
x,y,z
-x,-y,-z
loop_
_atom_site_type_symbol
_atom_site_label
_atom_site_fract_x
_atom_site_fract_y
_atom_site_fract_z
Si Si1 0.592520 0.758122 0.964024
Si Si2 0.214835 0.876768 0.757181
Si Si3 0.382679 0.492163 0.428445
Si Si4 0.289926 0.289619 0.427738
Si Si5 0.204968 0.198607 0.109357
Si Si6 0.365013 0.793082 0.329522
Si Si7 0.013287 0.374039 0.842866
Si Si8 0.681544 0.457791 0.132149
O O1 0.309031 0.893584 0.952172
O O2 0.605050 0.768584 0.776572
O O3 0.801372 0.565031 0.892035
O O4 0.702803 0.760464 0.164462
O O5 0.389334 0.704209 0.722448
O O6 0.291473 0.834631 0.544164
O O7 0.907798 0.047865 0.764453
O O8 0.500000 0.500000 0.500000
O O9 0.335783 0.518398 0.638199
O O10 0.108165 0.628314 0.323845
O O11 0.247305 0.230550 0.349981
O O12 0.480330 0.225739 0.602050
O O13 0.000000 0.500000 0.500000
O O14 0.995529 0.261937 0.062290
O O15 0.054372 0.334883 0.029122
O O16 0.500000 0.000000 0.000000
O O17 0.546299 0.613228 0.169446
O O18 0.500000 0.500000 0.000000
#
# Coordination Sequence:
#
# PCOD9076798 Si02
#       8
#     2   2   2   2   2   2   2   2
#     4   8  16  31  55  85 108 148 196 237 297 358
#     4   8  16  30  56  85 111 141 190 244 287 354
#     4  10  20  36  60  84 122 161 198 237 309 376
#     4  10  18  33  60  85 116 151 201 248 293 358
#     4  11  24  39  60  90 123 159 205 255 306 362
#     4   9  17  32  55  86 112 148 194 244 297 346
#     4   9  18  34  57  80 112 156 195 239 303 358
#     4  11  23  38  60  87 121 160 204 253 304 365
#
# _framework density 23.037921000000001
#
# number of rings (size 3 to 8) (size 9 to 14) (size 15 to 20)
#    0.000    2.500    1.250    1.500    0.000    6.000 
#    0.000    0.625    2.750    6.750    0.000    0.000 
#    0.000    0.000    0.000    0.000    0.000    0.000 
#
# Total GULP energy -89153.358430 kJ/mol
# GULP energy per Si atom -5572.084902 kJ/mol
# Density = 2.298549 g / cm^3
# Si number density = 23.037921 Si / 1000 Ang^3
#
#
#
# Elastic Constant Matrix: (Units=GPa)
#
#
# Indices 1 2 3 4 5 6 
#
# 1 112.8518 49.3612 37.1014 -22.4379 49.4829 -42.2551
# 2 49.3612 104.0894 41.6135 -18.9774 35.0899 -56.0013
# 3 37.1014 41.6135 80.3630 -26.0785 42.9949 -28.6258
# 4 -22.4379 -18.9774 -26.0785 39.1589 -17.6110 12.9341
# 5 49.4829 35.0899 42.9949 -17.6110 55.5913 -26.1286
# 6 -42.2551 -56.0013 -28.6258 12.9341 -26.1286 47.7410
#
#
#
# Elastic Compliance Matrix: (Units=1/GPa)
#
#
# Indices 1 2 3 4 5 6 
#
# 1 0.017654 0.001260 0.002935 0.003398 -0.012480 0.011112
# 2 0.001260 0.026913 -0.002509 0.001481 -0.001660 0.029871
# 3 0.002935 -0.002509 0.025034 0.008797 -0.015928 0.003565
# 4 0.003398 0.001481 0.008797 0.033921 0.000502 0.001104
# 5 -0.012480 -0.001660 -0.015928 0.000502 0.043033 0.000872
# 6 0.011112 0.029871 0.003565 0.001104 0.000872 0.068136
#
#
# Mechanical properties :
#
#
# Convention : Reuss Voigt Hill
#
# Bulk Modulus (GPa) = 13.70370 61.49515 37.59942
# Shear Modulus (GPa) = 21.21862 39.78010 30.49936
#
# Velocity S-wave (km/s) = 3.03814 4.15989 3.64246
# Velocity P-wave (km/s) = 4.27414 7.05861 5.83490
#
# Compressibility (1/GPa) = 0.07297301
#
# Stress axis : x y z
#
# Youngs Moduli (GPa) = 56.64592 37.15654 39.94628
#
# Poissons Ratio (x) = -0.04682 -0.11724
# Poissons Ratio (y) = -0.07138 0.10022
# Poissons Ratio (z) = -0.16626 0.09322
#
# Static dielectric constant tensor:
#      x y z
#    x 2.018110 0.022080 0.045170 
#    y 0.022080 1.869240 0.007810 
#    z 0.045170 0.007810 1.964490 
# 
# From -- ./inp_files/319890.got.cif
#   From: 2010.05.17/outbox.cif.g08.bks.cpg/sg2_160_cif.got.tgz:319890.got - 2010.06.03 11:33:40.
