data_PCOD9076132
_publ_section_title
;
Structure prediction by ZEFSAII (Michael W. Deem and Ramdas Pophale) SiO2 
 PCOD9076132
Probable space group: P -1
;
_chemical_formula_sum "Si O2"
_cell_formula_units_Z 16
_cell_length_a 24.244111
_cell_length_b 9.074992
_cell_length_c 11.567372
_cell_angle_alpha 64.707011
_cell_angle_beta 148.487078
_cell_angle_gamma 138.677901
_cell_volume 691.107575
_symmetry_space_group_name_H-M "P -1"
_symmetry_group_IT_number 2
_symmetry_cell_setting 'triclinic'
loop_
_space_group_symop_operation_xyz
x,y,z
-x,-y,-z
loop_
_atom_site_type_symbol
_atom_site_label
_atom_site_fract_x
_atom_site_fract_y
_atom_site_fract_z
Si Si1 0.821428 0.599915 0.797374
Si Si2 0.787639 0.715674 0.179725
Si Si3 0.726125 0.327221 0.350576
Si Si4 0.958038 0.260571 0.042056
Si Si5 0.445352 0.266419 0.171695
Si Si6 0.343962 0.912534 0.913070
Si Si7 0.770803 0.511462 0.990849
Si Si8 0.638642 0.013763 0.659433
O O1 0.992646 0.802864 0.948853
O O2 0.664885 0.531290 0.500814
O O3 0.878841 0.670242 0.010775
O O4 0.721818 0.298290 0.699705
O O5 0.706247 0.456098 0.187400
O O6 0.657683 0.699133 0.990429
O O7 0.792250 0.683542 0.062592
O O8 0.000000 0.000000 0.500000
O O9 0.904924 0.587880 0.657065
O O10 0.547646 0.092217 0.192304
O O11 0.739732 0.193155 0.330559
O O12 0.000000 0.500000 0.000000
O O13 0.751486 0.015423 0.796592
O O14 0.389618 0.135241 0.988386
O O15 0.363307 0.031229 0.194139
O O16 0.216664 0.637321 0.859345
O O17 0.564016 0.247070 0.663288
#
# Coordination Sequence:
#
# PCOD9076132 Si02
#       8
#     2   2   2   2   2   2   2   2
#     4  10  18  34  64  92 122 152 201 259 290 350
#     4  11  26  42  57  84 129 167 196 242 307 367
#     4  10  21  38  60  89 124 156 197 253 299 353
#     4  10  19  34  57  93 126 146 188 253 316 336
#     4  11  19  37  62  85 119 161 204 242 296 357
#     4  10  18  36  65  90 114 155 210 249 291 354
#     4  10  19  39  65  90 118 156 206 249 297 355
#     4  10  18  32  63  93 121 151 200 258 299 344
#
# _framework density 23.151243999999998
#
# number of rings (size 3 to 8) (size 9 to 14) (size 15 to 20)
#    0.000    1.750    3.750    2.250    0.000    2.500 
#    4.500    1.875    2.750    2.250    0.000    0.000 
#    0.000    0.000    0.000    0.000    0.000    0.000 
#
# Total GULP energy -89341.477526 kJ/mol
# GULP energy per Si atom -5583.842345 kJ/mol
# Density = 2.309855 g / cm^3
# Si number density = 23.151244 Si / 1000 Ang^3
#
#
#
# Elastic Constant Matrix: (Units=GPa)
#
#
# Indices 1 2 3 4 5 6 
#
# 1 192.1555 7.1414 42.1992 -8.7074 -7.5231 -17.2772
# 2 7.1414 40.7681 14.2306 0.4409 -2.2859 -9.8717
# 3 42.1992 14.2306 33.3069 -15.3932 9.4211 -9.6167
# 4 -8.7074 0.4409 -15.3932 18.3180 -2.0863 1.7456
# 5 -7.5231 -2.2859 9.4211 -2.0863 44.4952 2.6820
# 6 -17.2772 -9.8717 -9.6167 1.7456 2.6820 26.7908
#
#
#
# Elastic Compliance Matrix: (Units=1/GPa)
#
#
# Indices 1 2 3 4 5 6 
#
# 1 0.009947 0.007555 -0.024611 -0.015461 0.006512 0.000720
# 2 0.007555 0.040878 -0.044250 -0.033835 0.010849 0.005169
# 3 -0.024611 -0.044250 0.141156 0.102861 -0.032405 0.015034
# 4 -0.015461 -0.033835 0.102861 0.131405 -0.020451 0.007970
# 5 0.006512 0.010849 -0.032405 -0.020451 0.030345 -0.005140
# 6 0.000720 0.005169 0.015034 0.007970 -0.005140 0.045087
#
#
# Mechanical properties :
#
#
# Convention : Reuss Voigt Hill
#
# Bulk Modulus (GPa) = 14.41561 43.70807 29.06184
# Shear Modulus (GPa) = 9.18184 31.43142 20.30663
#
# Velocity S-wave (km/s) = 1.99365 3.68864 2.96485
# Velocity P-wave (km/s) = 3.39702 6.08783 4.92958
#
# Compressibility (1/GPa) = 0.06936926
#
# Stress axis : x y z
#
# Youngs Moduli (GPa) = 100.53140 24.46331 7.08434
#
# Poissons Ratio (x) = -0.18482 0.17435
# Poissons Ratio (y) = -0.75950 0.31348
# Poissons Ratio (z) = 2.47413 1.08251
#
# Static dielectric constant tensor:
#      x y z
#    x 1.972590 0.033360 -0.019270 
#    y 0.033360 1.944790 -0.031560 
#    z -0.019270 -0.031560 1.884590 
# 
# From -- ./inp_files/328963.got.cif
#   From: 2010.05.17/outbox.cif.g08.bks.cpg/sg2_165_cif.got.tgz:328963.got - 2010.06.03 11:33:40.
