data_PCOD9076000
_publ_section_title
;
Structure prediction by ZEFSAII (Michael W. Deem and Ramdas Pophale) SiO2 
 PCOD9076000
Probable space group: P -1
;
_chemical_formula_sum "Si O2"
_cell_formula_units_Z 13
_cell_length_a 8.968297
_cell_length_b 15.088734
_cell_length_c 6.939760
_cell_angle_alpha 59.823460
_cell_angle_beta 79.704674
_cell_angle_gamma 39.601514
_cell_volume 478.990699
_symmetry_space_group_name_H-M "P -1"
_symmetry_group_IT_number 2
_symmetry_cell_setting 'triclinic'
loop_
_space_group_symop_operation_xyz
x,y,z
-x,-y,-z
loop_
_atom_site_type_symbol
_atom_site_label
_atom_site_fract_x
_atom_site_fract_y
_atom_site_fract_z
Si Si1 0.000000 0.000000 0.500000
Si Si2 0.840897 0.422348 0.196852
Si Si3 0.363748 0.673637 0.531614
Si Si4 0.259157 0.204434 0.670628
Si Si5 0.824522 0.907303 0.719811
Si Si6 0.921858 0.915428 0.063998
Si Si7 0.402156 0.305891 0.801878
O O1 0.722729 0.199587 0.424788
O O2 0.139680 0.032804 0.528249
O O3 0.053688 0.320626 0.424233
O O4 0.007927 0.284290 0.137258
O O5 0.638390 0.440056 0.261149
O O6 0.698051 0.606241 0.062567
O O7 0.601305 0.594296 0.453189
O O8 0.306554 0.887733 0.042446
O O9 0.263875 0.291528 0.731544
O O10 0.532786 0.051043 0.672594
O O11 0.201526 0.129547 0.872633
O O12 0.970752 0.910914 0.828845
O O13 0.161656 0.777503 0.289814
#
# Coordination Sequence:
#
# PCOD9076000 Si02
#       7
#     1   2   2   2   2   2   2
#     4  10  18  32  58  86 102 136 190 230 254 320
#     4  10  22  34  56  84 115 140 183 233 277 313
#     4  10  20  36  59  82 110 146 187 222 273 329
#     4  10  20  38  58  79 108 154 187 217 269 335
#     4  10  19  35  57  82 112 141 189 225 268 323
#     4  10  21  37  61  79 109 150 188 217 271 336
#     4  11  19  35  58  82 113 144 182 229 276 321
#
# _framework density 27.140402999999999
#
# number of rings (size 3 to 8) (size 9 to 14) (size 15 to 20)
#    0.000    1.846    3.077    3.692    0.000    0.000 
#    0.000    3.846    6.769    0.000    0.000    0.000 
#    0.000    0.000    0.000    0.000    0.000    0.000 
#
# Total GULP energy -72441.781657 kJ/mol
# GULP energy per Si atom -5572.444743 kJ/mol
# Density = 2.707863 g / cm^3
# Si number density = 27.140403 Si / 1000 Ang^3
#
#
#
# Elastic Constant Matrix: (Units=GPa)
#
#
# Indices 1 2 3 4 5 6 
#
# 1 87.6177 21.3581 17.8881 9.4695 -38.4614 2.4108
# 2 21.3581 196.1491 0.3571 -17.4351 -14.6302 27.9169
# 3 17.8881 0.3571 22.8134 4.6287 -2.7009 0.7495
# 4 9.4695 -17.4351 4.6287 20.4516 6.7903 -10.5264
# 5 -38.4614 -14.6302 -2.7009 6.7903 46.1573 -9.1382
# 6 2.4108 27.9169 0.7495 -10.5264 -9.1382 36.3880
#
#
#
# Elastic Compliance Matrix: (Units=1/GPa)
#
#
# Indices 1 2 3 4 5 6 
#
# 1 0.028370 -0.003169 -0.015233 -0.019978 0.024951 0.001352
# 2 -0.003169 0.006276 0.001161 0.005400 -0.002088 -0.003592
# 3 -0.015233 0.001161 0.055542 -0.003697 -0.009414 -0.004459
# 4 -0.019978 0.005400 -0.003697 0.078760 -0.023962 0.014023
# 5 0.024951 -0.002088 -0.009414 -0.023962 0.045696 0.004687
# 6 0.001352 -0.003592 -0.004459 0.014023 0.004687 0.035473
#
#
# Mechanical properties :
#
#
# Convention : Reuss Voigt Hill
#
# Bulk Modulus (GPa) = 17.95048 42.86521 30.40785
# Shear Modulus (GPa) = 16.49256 38.39786 27.44521
#
# Velocity S-wave (km/s) = 2.46778 3.76544 3.18344
# Velocity P-wave (km/s) = 3.84034 5.89346 4.97399
#
# Compressibility (1/GPa) = 0.05570883
#
# Stress axis : x y z
#
# Youngs Moduli (GPa) = 35.24812 159.32553 18.00449
#
# Poissons Ratio (x) = 0.50484 0.27426
# Poissons Ratio (y) = 0.11169 -0.02091
# Poissons Ratio (z) = 0.53692 -0.18505
#
# Static dielectric constant tensor:
#      x y z
#    x 2.152210 0.065100 -0.033530 
#    y 0.065100 1.906740 -0.853620 
#    z -0.033530 -0.853620 0.255310 
# 
# From -- ./inp_files/320818.got.cif
#   From: 2010.05.17/outbox.cif.g08.bks.cpg/sg2_161_cif.got.tgz:320818.got - 2010.06.03 11:33:40.
