data_PCOD9076143
_publ_section_title
;
Structure prediction by ZEFSAII (Michael W. Deem and Ramdas Pophale) SiO2 
 PCOD9076143
Probable space group: P -1
;
_chemical_formula_sum "Si O2"
_cell_formula_units_Z 16
_cell_length_a 9.337974
_cell_length_b 11.751310
_cell_length_c 13.909316
_cell_angle_alpha 86.476349
_cell_angle_beta 138.894882
_cell_angle_gamma 64.143933
_cell_volume 678.938862
_symmetry_space_group_name_H-M "P -1"
_symmetry_group_IT_number 2
_symmetry_cell_setting 'triclinic'
loop_
_space_group_symop_operation_xyz
x,y,z
-x,-y,-z
loop_
_atom_site_type_symbol
_atom_site_label
_atom_site_fract_x
_atom_site_fract_y
_atom_site_fract_z
Si Si1 0.243368 0.339493 0.772683
Si Si2 0.315202 0.029305 0.053287
Si Si3 0.163189 0.608668 0.271386
Si Si4 0.696032 0.111109 0.266915
Si Si5 0.488386 0.348753 0.291436
Si Si6 0.225309 0.954035 0.418228
Si Si7 0.115638 0.602185 0.598480
Si Si8 0.541035 0.058126 0.661920
O O1 0.324214 0.437599 0.779012
O O2 0.070196 0.381790 0.783504
O O3 0.975846 0.413954 0.551126
O O4 0.524299 0.140855 0.906059
O O5 0.584733 0.026494 0.193022
O O6 0.247032 0.031046 0.130485
O O7 0.018556 0.201429 0.842153
O O8 0.500000 0.500000 0.500000
O O9 0.238951 0.523866 0.211270
O O10 0.419769 0.282427 0.177115
O O11 0.000000 0.000000 0.500000
O O12 0.852759 0.107992 0.252897
O O13 0.649701 0.213305 0.466313
O O14 0.717046 0.345296 0.348007
O O15 0.288848 0.943643 0.338981
O O16 0.428723 0.976901 0.571612
O O17 0.784660 0.753592 0.479373
#
# Coordination Sequence:
#
# PCOD9076143 Si02
#       8
#     2   2   2   2   2   2   2   2
#     4  10  21  41  63  94 125 174 220 270 324 387
#     4  11  23  43  66  95 135 172 223 271 328 392
#     4  12  26  42  66  95 130 175 227 278 324 389
#     4  10  18  37  65  96 127 173 209 264 330 389
#     4  11  20  38  63  94 130 173 218 263 331 389
#     4  10  18  32  65  99 128 171 212 260 320 406
#     4  10  19  36  66  91 132 173 212 266 331 388
#     4  10  18  34  61 101 134 168 214 260 328 387
#
# _framework density 23.566185999999998
#
# number of rings (size 3 to 8) (size 9 to 14) (size 15 to 20)
#    0.000    1.500    5.000    3.375    0.000    0.500 
#    0.000    1.875    0.000    1.500    0.000    0.000 
#    0.000    0.000    0.000    0.000    0.000    0.000 
#
# Total GULP energy -89457.940980 kJ/mol
# GULP energy per Si atom -5591.121311 kJ/mol
# Density = 2.351255 g / cm^3
# Si number density = 23.566186 Si / 1000 Ang^3
#
#
#
# Elastic Constant Matrix: (Units=GPa)
#
#
# Indices 1 2 3 4 5 6 
#
# 1 189.5133 48.9527 40.8085 -11.0152 -22.9863 -18.7423
# 2 48.9527 78.9682 30.1067 -17.7252 -4.3562 6.2647
# 3 40.8085 30.1067 108.5802 -12.3214 -3.8636 9.5280
# 4 -11.0152 -17.7252 -12.3214 35.7749 5.2170 -7.2352
# 5 -22.9863 -4.3562 -3.8636 5.2170 24.7194 -6.3794
# 6 -18.7423 6.2647 9.5280 -7.2352 -6.3794 39.6772
#
#
#
# Elastic Compliance Matrix: (Units=1/GPa)
#
#
# Indices 1 2 3 4 5 6 
#
# 1 0.008661 -0.004621 -0.002290 -0.000321 0.008680 0.006708
# 2 -0.004621 0.017951 -0.002303 0.006451 -0.003864 -0.003909
# 3 -0.002290 -0.002303 0.011117 0.001585 -0.002015 -0.003423
# 4 -0.000321 0.006451 0.001585 0.033061 -0.004941 0.003684
# 5 0.008680 -0.003864 -0.002015 -0.004941 0.051831 0.012627
# 6 0.006708 -0.003909 -0.003423 0.003684 0.012627 0.032513
#
#
# Mechanical properties :
#
#
# Convention : Reuss Voigt Hill
#
# Bulk Modulus (GPa) = 51.81047 68.53306 60.17177
# Shear Modulus (GPa) = 27.77813 37.18053 32.47933
#
# Velocity S-wave (km/s) = 3.43699 3.97634 3.71646
# Velocity P-wave (km/s) = 6.14681 7.08703 6.63360
#
# Compressibility (1/GPa) = 0.01930112
#
# Stress axis : x y z
#
# Youngs Moduli (GPa) = 115.45862 55.70705 89.94879
#
# Poissons Ratio (x) = 0.25744 0.20598
# Poissons Ratio (y) = 0.53357 0.20715
# Poissons Ratio (z) = 0.26439 0.12829
#
# Static dielectric constant tensor:
#      x y z
#    x 1.904010 0.000600 -0.009330 
#    y 0.000600 1.955300 -0.015830 
#    z -0.009330 -0.015830 1.951290 
# 
# From -- ./inp_files/500313.got.cif
#   From: 2010.05.17/outbox.cif.g08.bks.cpg/sg2_251_cif.got.tgz:500313.got - 2010.06.03 11:33:40.
