data_PCOD9076134
_publ_section_title
;
Structure prediction by ZEFSAII (Michael W. Deem and Ramdas Pophale) SiO2 
 PCOD9076134
Probable space group: P -1
;
_chemical_formula_sum "Si O2"
_cell_formula_units_Z 14
_cell_length_a 8.504871
_cell_length_b 11.717862
_cell_length_c 7.042886
_cell_angle_alpha 87.899756
_cell_angle_beta 125.396150
_cell_angle_gamma 78.013067
_cell_volume 548.730449
_symmetry_space_group_name_H-M "P -1"
_symmetry_group_IT_number 2
_symmetry_cell_setting 'triclinic'
loop_
_space_group_symop_operation_xyz
x,y,z
-x,-y,-z
loop_
_atom_site_type_symbol
_atom_site_label
_atom_site_fract_x
_atom_site_fract_y
_atom_site_fract_z
Si Si1 0.552321 0.671447 0.156491
Si Si2 0.869270 0.101629 0.531432
Si Si3 0.448741 0.051451 0.173204
Si Si4 0.972906 0.687948 0.455640
Si Si5 0.141728 0.475763 0.347482
Si Si6 0.688890 0.165445 0.747096
Si Si7 0.368023 0.307108 0.208887
O O1 0.729918 0.740024 0.298027
O O2 0.346813 0.754525 0.093012
O O3 0.382870 0.949730 0.243608
O O4 0.552188 0.650958 0.933548
O O5 0.658989 0.072281 0.377448
O O6 0.893629 0.117778 0.773912
O O7 0.905938 0.217983 0.459365
O O8 0.000000 0.000000 0.500000
O O9 0.309095 0.185511 0.117667
O O10 0.500000 0.000000 0.000000
O O11 0.005984 0.594039 0.656522
O O12 0.034262 0.612006 0.309864
O O13 0.340533 0.440735 0.628474
O O14 0.211660 0.416895 0.198149
O O15 0.538783 0.258992 0.492726
#
# Coordination Sequence:
#
# PCOD9076134 Si02
#       7
#     2   2   2   2   2   2   2
#     4   9  17  35  62  85 109 159 208 229 293 364
#     4  11  23  36  64  90 121 156 194 254 302 342
#     4  11  22  39  62  86 119 164 204 234 296 375
#     4   9  19  39  57  89 124 152 202 249 295 347
#     4   8  19  36  61  85 119 165 192 246 297 353
#     4  10  21  38  57  82 119 158 194 241 299 354
#     4  10  18  32  64  85 106 159 209 235 280 366
#
# _framework density 25.513437
#
# number of rings (size 3 to 8) (size 9 to 14) (size 15 to 20)
#    0.857    1.429    1.429    2.571    2.000    0.571 
#    0.000    8.571    0.000    4.286    0.000    0.000 
#    0.000    0.000    0.000    0.000    0.000    0.000 
#
# Total GULP energy -77984.907289 kJ/mol
# GULP energy per Si atom -5570.350521 kJ/mol
# Density = 2.545537 g / cm^3
# Si number density = 25.513437 Si / 1000 Ang^3
#
#
#
# Elastic Constant Matrix: (Units=GPa)
#
#
# Indices 1 2 3 4 5 6 
#
# 1 102.3124 53.8200 44.2620 24.0139 -35.2976 -31.5172
# 2 53.8200 130.2851 33.7219 23.2900 -28.2281 -32.2086
# 3 44.2620 33.7219 99.1148 15.1211 -42.1678 -7.3619
# 4 24.0139 23.2900 15.1211 31.7030 -21.0962 -20.0773
# 5 -35.2976 -28.2281 -42.1678 -21.0962 44.5337 21.1285
# 6 -31.5172 -32.2086 -7.3619 -20.0773 21.1285 47.9430
#
#
#
# Elastic Compliance Matrix: (Units=1/GPa)
#
#
# Indices 1 2 3 4 5 6 
#
# 1 0.016798 -0.003287 -0.004091 -0.002446 0.003529 0.005626
# 2 -0.003287 0.010808 -0.001730 -0.002348 -0.000420 0.004036
# 3 -0.004091 -0.001730 0.019856 0.002733 0.019718 -0.008347
# 4 -0.002446 -0.002348 0.002733 0.053787 0.019302 0.011253
# 5 0.003529 -0.000420 0.019718 0.019302 0.058870 -0.012796
# 6 0.005626 0.004036 -0.008347 0.011253 -0.012796 0.036338
#
#
# Mechanical properties :
#
#
# Convention : Reuss Voigt Hill
#
# Bulk Modulus (GPa) = 34.19215 66.14668 50.16942
# Shear Modulus (GPa) = 22.27956 38.16318 30.22137
#
# Velocity S-wave (km/s) = 2.95828 3.87176 3.44543
# Velocity P-wave (km/s) = 5.00992 6.78011 5.96109
#
# Compressibility (1/GPa) = 0.02924648
#
# Stress axis : x y z
#
# Youngs Moduli (GPa) = 59.53183 92.52687 50.36153
#
# Poissons Ratio (x) = 0.30418 0.20600
# Poissons Ratio (y) = 0.19571 0.08711
# Poissons Ratio (z) = 0.24352 0.16004
#
# Static dielectric constant tensor:
#      x y z
#    x 2.091480 -0.111540 0.104070 
#    y -0.111540 2.078440 -0.101570 
#    z 0.104070 -0.101570 2.096900 
# 
# From -- ./inp_files/172376.got.cif
#   From: 2010.05.17/outbox.cif.g08.bks.cpg/sg2_87_cif.got.tgz:172376.got - 2010.06.03 11:33:40.
