data_PCOD9076744
_publ_section_title
;
Structure prediction by ZEFSAII (Michael W. Deem and Ramdas Pophale) SiO2 
 PCOD9076744
Probable space group: P -1
;
_chemical_formula_sum "Si O2"
_cell_formula_units_Z 14
_cell_length_a 20.420649
_cell_length_b 23.130745
_cell_length_c 7.610238
_cell_angle_alpha 143.175548
_cell_angle_beta 152.534640
_cell_angle_gamma 19.900378
_cell_volume 551.066667
_symmetry_space_group_name_H-M "P -1"
_symmetry_group_IT_number 2
_symmetry_cell_setting 'triclinic'
loop_
_space_group_symop_operation_xyz
x,y,z
-x,-y,-z
loop_
_atom_site_type_symbol
_atom_site_label
_atom_site_fract_x
_atom_site_fract_y
_atom_site_fract_z
Si Si1 0.124219 0.793803 0.154225
Si Si2 0.942033 0.091787 0.342895
Si Si3 0.736911 0.646066 0.544430
Si Si4 0.480865 0.178035 0.911690
Si Si5 0.666832 0.420538 0.388060
Si Si6 0.262887 0.444215 0.324357
Si Si7 0.048891 0.286371 0.266891
O O1 0.398960 0.598017 0.274607
O O2 0.165244 0.827369 0.518768
O O3 0.996536 0.947353 0.101025
O O4 0.947873 0.802136 0.800957
O O5 0.755452 0.260039 0.188354
O O6 0.220965 0.983959 0.734018
O O7 0.563838 0.779931 0.299304
O O8 0.618682 0.678894 0.526597
O O9 0.887506 0.466358 0.398224
O O10 0.958285 0.598973 0.992817
O O11 0.321192 0.175576 0.589084
O O12 0.355625 0.337292 0.109569
O O13 0.691390 0.469380 0.389348
O O14 0.884352 0.341054 0.844012
#
# Coordination Sequence:
#
# PCOD9076744 Si02
#       7
#     2   2   2   2   2   2   2
#     4  10  21  36  57  94 122 161 208 246 297 373
#     4  10  21  34  62  91 123 161 202 250 307 358
#     4  10  19  34  62  92 123 160 201 250 306 360
#     4  11  19  37  62  94 121 155 205 254 302 361
#     4  11  19  37  63  89 121 164 207 244 302 370
#     4  10  19  35  62  91 123 162 200 248 307 360
#     4  10  18  33  59  88 122 154 202 252 296 356
#
# _framework density 25.405275
#
# number of rings (size 3 to 8) (size 9 to 14) (size 15 to 20)
#    0.000    1.714    4.286    2.571    0.000    3.429 
#    0.000    0.714    6.286    4.286    0.000    0.000 
#    0.000    0.000    0.000    0.000    0.000    0.000 
#
# Total GULP energy -78420.855786 kJ/mol
# GULP energy per Si atom -5601.489699 kJ/mol
# Density = 2.534745 g / cm^3
# Si number density = 25.405275 Si / 1000 Ang^3
#
#
#
# Elastic Constant Matrix: (Units=GPa)
#
#
# Indices 1 2 3 4 5 6 
#
# 1 140.9760 60.9569 65.0653 -7.7107 29.8555 33.3055
# 2 60.9569 155.1063 57.4016 -8.4972 32.9000 40.0283
# 3 65.0653 57.4016 103.0819 -14.0482 38.3208 20.7157
# 4 -7.7107 -8.4972 -14.0482 25.6009 0.7868 -2.3041
# 5 29.8555 32.9000 38.3208 0.7868 53.2587 13.4936
# 6 33.3055 40.0283 20.7157 -2.3041 13.4936 50.1656
#
#
#
# Elastic Compliance Matrix: (Units=1/GPa)
#
#
# Indices 1 2 3 4 5 6 
#
# 1 0.011179 -0.001250 -0.005368 -0.000341 -0.000598 -0.004063
# 2 -0.001250 0.009791 -0.002694 0.000985 -0.002090 -0.005262
# 3 -0.005368 -0.002694 0.019042 0.008292 -0.009338 0.000743
# 4 -0.000341 0.000985 0.008292 0.044045 -0.007016 -0.000074
# 5 -0.000598 -0.002090 -0.009338 -0.007016 0.027694 -0.001850
# 6 -0.004063 -0.005262 0.000743 -0.000074 -0.001850 0.027018
#
#
# Mechanical properties :
#
#
# Convention : Reuss Voigt Hill
#
# Bulk Modulus (GPa) = 46.75656 85.11242 65.93449
# Shear Modulus (GPa) = 30.39107 40.18773 35.28940
#
# Velocity S-wave (km/s) = 3.46244 3.98158 3.73105
# Velocity P-wave (km/s) = 5.86761 7.39675 6.67611
#
# Compressibility (1/GPa) = 0.02138737
#
# Stress axis : x y z
#
# Youngs Moduli (GPa) = 89.45158 102.13456 52.51642
#
# Poissons Ratio (x) = 0.12771 0.28190
# Poissons Ratio (y) = 0.11185 0.14148
# Poissons Ratio (z) = 0.48016 0.27516
#
# Static dielectric constant tensor:
#      x y z
#    x 2.032570 0.020960 0.007410 
#    y 0.020960 1.979800 0.028830 
#    z 0.007410 0.028830 2.037080 
# 
# From -- ./inp_files/350019.got.cif
#   From: 2010.05.17/outbox.cif.g08.bks.cpg/sg2_176_cif.got.tgz:350019.got - 2010.06.03 11:33:40.
