data_PCOD9076497
_publ_section_title
;
Structure prediction by ZEFSAII (Michael W. Deem and Ramdas Pophale) SiO2 
 PCOD9076497
Probable space group: P -1
;
_chemical_formula_sum "Si O2"
_cell_formula_units_Z 13
_cell_length_a 21.020893
_cell_length_b 6.705068
_cell_length_c 12.585725
_cell_angle_alpha 134.402494
_cell_angle_beta 153.453094
_cell_angle_gamma 36.763454
_cell_volume 473.556132
_symmetry_space_group_name_H-M "P -1"
_symmetry_group_IT_number 2
_symmetry_cell_setting 'triclinic'
loop_
_space_group_symop_operation_xyz
x,y,z
-x,-y,-z
loop_
_atom_site_type_symbol
_atom_site_label
_atom_site_fract_x
_atom_site_fract_y
_atom_site_fract_z
Si Si1 0.012331 0.752119 0.510551
Si Si2 0.382571 0.313163 0.864446
Si Si3 0.671312 0.114387 0.644409
Si Si4 0.783658 0.276305 0.666611
Si Si5 0.537390 0.705847 0.274217
Si Si6 0.118779 0.671497 0.864107
Si Si7 0.000000 0.500000 0.000000
O O1 0.192479 0.408230 0.632457
O O2 0.034440 0.865575 0.700472
O O3 0.867585 0.674169 0.256042
O O4 0.000000 0.000000 0.500000
O O5 0.421204 0.286336 0.786167
O O6 0.390407 0.632022 0.029349
O O7 0.500000 0.000000 0.000000
O O8 0.669995 0.254240 0.578372
O O9 0.528557 0.034932 0.424814
O O10 0.713291 0.335091 0.864192
O O11 0.846107 0.752468 0.783854
O O12 0.680127 0.398933 0.446227
O O13 0.965535 0.919208 0.804605
O O14 0.853607 0.518012 0.869705
#
# Coordination Sequence:
#
# PCOD9076497 Si02
#       7
#     2   2   2   2   2   2   1
#     4  11  24  40  59  86 121 158 194 242 301 352
#     4  11  23  41  64  87 118 158 201 247 292 352
#     4  10  19  33  55  87 121 155 197 249 297 348
#     4  10  18  33  56  88 121 152 194 248 296 346
#     4  10  21  35  60  89 114 150 205 247 291 352
#     4  10  21  35  56  85 120 156 195 240 298 359
#     4   8  16  26  48  82 116 148 186 232 290 344
#
# _framework density 27.451865999999999
#
# number of rings (size 3 to 8) (size 9 to 14) (size 15 to 20)
#    0.000    1.846    0.000    5.538    0.000   11.077 
#    0.000    0.769    0.000    4.615    0.000    0.000 
#    0.000    0.000    0.000    0.000    0.000    0.000 
#
# Total GULP energy -72369.385517 kJ/mol
# GULP energy per Si atom -5566.875809 kJ/mol
# Density = 2.738938 g / cm^3
# Si number density = 27.451866 Si / 1000 Ang^3
#
#
#
# Elastic Constant Matrix: (Units=GPa)
#
#
# Indices 1 2 3 4 5 6 
#
# 1 104.0959 45.7122 36.4204 6.9155 -22.8099 46.5449
# 2 45.7122 110.3178 74.8215 -17.2250 5.7717 44.8139
# 3 36.4204 74.8215 131.2595 43.0265 -4.9820 22.6604
# 4 6.9155 -17.2250 43.0265 53.6249 41.0253 9.4034
# 5 -22.8099 5.7717 -4.9820 41.0253 37.9182 -8.0246
# 6 46.5449 44.8139 22.6604 9.4034 -8.0246 49.0296
#
#
#
# Elastic Compliance Matrix: (Units=1/GPa)
#
#
# Indices 1 2 3 4 5 6 
#
# 1 0.018599 0.002923 -0.004414 0.002638 0.003451 -0.018230
# 2 0.002923 0.003254 0.003033 -0.014586 0.017115 -0.001553
# 3 -0.004414 0.003033 0.004269 0.009524 -0.013844 -0.004648
# 4 0.002638 -0.014586 0.009524 -0.009761 0.017999 0.011244
# 5 0.003451 0.017115 -0.013844 0.017999 0.001212 -0.015775
# 6 -0.018230 -0.001553 -0.004648 0.011244 -0.015775 0.036531
#
#
# Mechanical properties :
#
#
# Convention : Reuss Voigt Hill
#
# Bulk Modulus (GPa) = 34.23763 73.28684 53.76223
# Shear Modulus (GPa) = 82.29776 40.69580 61.49678
#
# Velocity S-wave (km/s) = 5.48124 3.85443 4.73818
# Velocity P-wave (km/s) = 7.24966 6.82373 7.03992
#
# Compressibility (1/GPa) = 0.02920763
#
# Stress axis : x y z
#
# Youngs Moduli (GPa) = 53.76575 307.29550 234.23595
#
# Poissons Ratio (x) = -0.89833 1.03384
# Poissons Ratio (y) = -0.15718 -0.71040
# Poissons Ratio (z) = 0.23731 -0.93198
#
# Static dielectric constant tensor:
#      x y z
#    x 2.215500 -0.361420 0.251480 
#    y -0.361420 3.060980 -0.886770 
#    z 0.251480 -0.886770 3.403000 
# 
# From -- ./inp_files/64063.got.cif
#   From: 2010.05.17/outbox.cif.g08.bks.cpg/sg2_33_cif.got.tgz:64063.got - 2010.06.03 11:33:40.
