data_PCOD9076091
_publ_section_title
;
Structure prediction by ZEFSAII (Michael W. Deem and Ramdas Pophale) SiO2 
 PCOD9076091
Probable space group: P -1
;
_chemical_formula_sum "Si O2"
_cell_formula_units_Z 14
_cell_length_a 10.686353
_cell_length_b 15.655481
_cell_length_c 8.138395
_cell_angle_alpha 53.803073
_cell_angle_beta 116.863910
_cell_angle_gamma 151.553962
_cell_volume 515.269177
_symmetry_space_group_name_H-M "P -1"
_symmetry_group_IT_number 2
_symmetry_cell_setting 'triclinic'
loop_
_space_group_symop_operation_xyz
x,y,z
-x,-y,-z
loop_
_atom_site_type_symbol
_atom_site_label
_atom_site_fract_x
_atom_site_fract_y
_atom_site_fract_z
Si Si1 0.130124 0.493056 0.212029
Si Si2 0.328847 0.339567 0.236352
Si Si3 0.135379 0.299207 0.651781
Si Si4 0.946655 0.625374 0.068541
Si Si5 0.417558 0.089177 0.816283
Si Si6 0.812931 0.270280 0.586364
Si Si7 0.027532 0.037856 0.688082
O O1 0.217857 0.432345 0.400678
O O2 0.344495 0.717756 0.142854
O O3 0.085831 0.453304 0.037653
O O4 0.876511 0.343672 0.353757
O O5 0.611459 0.528156 0.277007
O O6 0.114182 0.174008 0.440623
O O7 0.248472 0.398660 0.039717
O O8 0.265428 0.198776 0.240191
O O9 0.079243 0.142507 0.756442
O O10 0.858437 0.172094 0.698720
O O11 0.237130 0.869007 0.976469
O O12 0.952996 0.568780 0.314418
O O13 0.554421 0.155732 0.643801
O O14 0.220641 0.061749 0.755603
#
# Coordination Sequence:
#
# PCOD9076091 Si02
#       7
#     2   2   2   2   2   2   2
#     4  10  22  40  65  91 123 167 205 252 314 364
#     4  10  18  32  60  91 118 158 207 249 308 363
#     4  10  20  38  59  89 124 156 203 256 302 364
#     4  11  23  41  65  93 127 167 205 257 314 370
#     4  11  22  41  65  94 126 165 210 257 307 373
#     4  10  24  43  62  94 130 162 208 259 308 371
#     4  10  18  33  62  93 117 160 209 250 306 369
#
# _framework density 27.170262999999998
#
# number of rings (size 3 to 8) (size 9 to 14) (size 15 to 20)
#    0.857    0.857    2.857    2.143    0.000    1.714 
#    0.000    7.143    0.000    1.714    0.000    0.000 
#    0.000    0.000    0.000    0.000    0.000    0.000 
#
# Total GULP energy -78116.455697 kJ/mol
# GULP energy per Si atom -5579.746836 kJ/mol
# Density = 2.710842 g / cm^3
# Si number density = 27.170263 Si / 1000 Ang^3
#
#
#
# Elastic Constant Matrix: (Units=GPa)
#
#
# Indices 1 2 3 4 5 6 
#
# 1 131.4880 67.3428 34.7402 8.0609 -1.0884 -46.8128
# 2 67.3428 182.2858 49.8258 -4.2866 -13.8916 -41.0106
# 3 34.7402 49.8258 188.8434 6.3589 -6.0684 -9.6116
# 4 8.0609 -4.2866 6.3589 39.8138 2.6927 -2.1757
# 5 -1.0884 -13.8916 -6.0684 2.6927 29.3812 7.7235
# 6 -46.8128 -41.0106 -9.6116 -2.1757 7.7235 44.9807
#
#
#
# Elastic Compliance Matrix: (Units=1/GPa)
#
#
# Indices 1 2 3 4 5 6 
#
# 1 0.013597 -0.002195 -0.001353 -0.001828 -0.003918 0.012445
# 2 -0.002195 0.007850 -0.001437 0.001614 0.002058 0.004290
# 3 -0.001353 -0.001437 0.005904 -0.000985 0.001022 -0.001680
# 4 -0.001828 0.001614 -0.000985 0.026018 -0.002152 0.000987
# 5 -0.003918 0.002058 0.001022 -0.002152 0.037513 -0.008528
# 6 0.012445 0.004290 -0.001680 0.000987 -0.008528 0.040248
#
#
# Mechanical properties :
#
#
# Convention : Reuss Voigt Hill
#
# Bulk Modulus (GPa) = 57.53739 89.60386 73.57062
# Shear Modulus (GPa) = 34.03820 46.21571 40.12696
#
# Velocity S-wave (km/s) = 3.54329 4.12875 3.84718
# Velocity P-wave (km/s) = 6.16137 7.46854 6.84622
#
# Compressibility (1/GPa) = 0.01738000
#
# Stress axis : x y z
#
# Youngs Moduli (GPa) = 73.54364 127.39494 169.37702
#
# Poissons Ratio (x) = 0.27965 0.22919
# Poissons Ratio (y) = 0.16144 0.24342
# Poissons Ratio (z) = 0.09951 0.18309
#
# Static dielectric constant tensor:
#      x y z
#    x 2.319580 -0.028550 0.040170 
#    y -0.028550 2.121350 -0.015930 
#    z 0.040170 -0.015930 2.221550 
# 
# From -- ./inp_files/272626.got.cif
#   From: 2010.05.17/outbox.cif.g08.bks.cpg/sg2_137_cif.got.tgz:272626.got - 2010.06.03 11:33:40.
