data_PCOD9076923
_publ_section_title
;
Structure prediction by ZEFSAII (Michael W. Deem and Ramdas Pophale) SiO2 
 PCOD9076923
Probable space group: P -1
;
_chemical_formula_sum "Si O2"
_cell_formula_units_Z 12
_cell_length_a 5.578021
_cell_length_b 6.859391
_cell_length_c 15.692163
_cell_angle_alpha 60.158269
_cell_angle_beta 106.145074
_cell_angle_gamma 127.423054
_cell_volume 413.344589
_symmetry_space_group_name_H-M "P -1"
_symmetry_group_IT_number 2
_symmetry_cell_setting 'triclinic'
loop_
_space_group_symop_operation_xyz
x,y,z
-x,-y,-z
loop_
_atom_site_type_symbol
_atom_site_label
_atom_site_fract_x
_atom_site_fract_y
_atom_site_fract_z
Si Si1 0.701019 0.346527 0.328912
Si Si2 0.155328 0.609531 0.082586
Si Si3 0.385874 0.560745 0.371247
Si Si4 0.910576 0.205132 0.521237
Si Si5 0.212777 0.265413 0.867408
Si Si6 0.044329 0.957610 0.739363
O O1 0.567015 0.472475 0.351019
O O2 0.688527 0.118911 0.436696
O O3 0.622981 0.416456 0.215778
O O4 0.073344 0.522242 0.320781
O O5 0.514293 0.760534 0.075560
O O6 0.024692 0.766878 0.080147
O O7 0.061118 0.347070 0.188105
O O8 0.000000 0.500000 0.000000
O O9 0.631260 0.884211 0.312421
O O10 0.234029 0.322949 0.481203
O O11 0.000000 0.500000 0.500000
O O12 0.861191 0.018438 0.638286
O O13 0.068496 0.080859 0.808503
#
# Coordination Sequence:
#
# PCOD9076923 Si02
#       6
#     2   2   2   2   2   2
#     4   9  19  34  64  97 137 174 214 271 323 409
#     4  12  30  50  70 104 137 174 246 304 340 412
#     4   9  18  32  60  96 132 179 218 254 328 405
#     4  10  18  33  66 103 139 183 220 264 337 416
#     4  11  24  48  74 101 138 178 236 289 346 423
#     4  11  23  44  76 101 141 197 216 281 363 395
#
# _framework density 29.031466000000002
#
# number of rings (size 3 to 8) (size 9 to 14) (size 15 to 20)
#    1.000    0.667    3.333    3.000    0.000    6.667 
#    0.000    1.667    0.000    0.000    0.000    0.000 
#    0.000    0.000    0.000    0.000    0.000    0.000 
#
# Total GULP energy -66869.765969 kJ/mol
# GULP energy per Si atom -5572.480497 kJ/mol
# Density = 2.896539 g / cm^3
# Si number density = 29.031466 Si / 1000 Ang^3
#
#
#
# Elastic Constant Matrix: (Units=GPa)
#
#
# Indices 1 2 3 4 5 6 
#
# 1 242.4908 57.0629 97.0379 23.3696 1.1111 -32.9888
# 2 57.0629 77.9366 59.4307 9.9480 1.9946 -20.7174
# 3 97.0379 59.4307 161.1839 -1.0747 -2.2410 3.9951
# 4 23.3696 9.9480 -1.0747 70.0177 -1.7154 3.0505
# 5 1.1111 1.9946 -2.2410 -1.7154 69.8690 8.6354
# 6 -32.9888 -20.7174 3.9951 3.0505 8.6354 37.3432
#
#
#
# Elastic Compliance Matrix: (Units=1/GPa)
#
#
# Indices 1 2 3 4 5 6 
#
# 1 0.007293 0.001097 -0.005037 -0.003057 -0.001393 0.008161
# 2 0.001097 0.025400 -0.010536 -0.004975 -0.003349 0.017368
# 3 -0.005037 -0.010536 0.013495 0.003996 0.002474 -0.012637
# 4 -0.003057 -0.004975 0.003996 0.016443 0.001664 -0.007616
# 5 -0.001393 -0.003349 0.002474 0.001664 0.015422 -0.007055
# 6 0.008161 0.017368 -0.012637 -0.007616 -0.007055 0.047229
#
#
# Mechanical properties :
#
#
# Convention : Reuss Voigt Hill
#
# Bulk Modulus (GPa) = 58.01822 100.96381 79.49102
# Shear Modulus (GPa) = 31.25414 53.31797 42.28606
#
# Velocity S-wave (km/s) = 3.28466 4.29016 3.82063
# Velocity P-wave (km/s) = 5.86628 7.70672 6.84860
#
# Compressibility (1/GPa) = 0.01723596
#
# Stress axis : x y z
#
# Youngs Moduli (GPa) = 137.12508 39.37080 74.10031
#
# Poissons Ratio (x) = -0.04317 0.37322
# Poissons Ratio (y) = -0.15037 0.78069
# Poissons Ratio (z) = 0.69066 0.41479
#
# Static dielectric constant tensor:
#      x y z
#    x 2.321580 0.108720 -0.036200 
#    y 0.108720 2.621490 0.027600 
#    z -0.036200 0.027600 2.360740 
# 
# From -- ./inp_files/547011.got.cif
#   From: 2010.05.17/outbox.cif.g08.bks.cpg/sg2_274_cif.got.tgz:547011.got - 2010.06.03 11:33:40.
