data_PCOD9076912
_publ_section_title
;
Structure prediction by ZEFSAII (Michael W. Deem and Ramdas Pophale) SiO2 
 PCOD9076912
Probable space group: P -1
;
_chemical_formula_sum "Si O2"
_cell_formula_units_Z 15
_cell_length_a 8.727422
_cell_length_b 14.209156
_cell_length_c 17.475235
_cell_angle_alpha 152.714672
_cell_angle_beta 40.664379
_cell_angle_gamma 143.054292
_cell_volume 587.887109
_symmetry_space_group_name_H-M "P -1"
_symmetry_group_IT_number 2
_symmetry_cell_setting 'triclinic'
loop_
_space_group_symop_operation_xyz
x,y,z
-x,-y,-z
loop_
_atom_site_type_symbol
_atom_site_label
_atom_site_fract_x
_atom_site_fract_y
_atom_site_fract_z
Si Si1 0.690431 0.060413 0.634786
Si Si2 0.245994 0.891240 0.880916
Si Si3 0.213717 0.379400 0.718670
Si Si4 0.737416 0.835278 0.070520
Si Si5 0.553387 0.625377 0.215552
Si Si6 0.024083 0.567521 0.450565
Si Si7 0.425806 0.313875 0.325613
Si Si8 0.500000 0.000000 0.500000
O O1 0.405880 0.025817 0.739812
O O2 0.710705 0.092124 0.560042
O O3 0.907098 0.280465 0.751418
O O4 0.725813 0.836562 0.482988
O O5 0.105186 0.662145 0.717311
O O6 0.503128 0.884827 0.812901
O O7 0.274550 0.100584 0.968729
O O8 0.026575 0.881070 0.016405
O O9 0.295523 0.423519 0.808041
O O10 0.383977 0.577602 0.740477
O O11 0.567372 0.569779 0.939940
O O12 0.322709 0.684927 0.389893
O O13 0.672501 0.861922 0.300763
O O14 0.856377 0.709811 0.606573
O O15 0.000000 0.500000 0.500000
O O16 0.500000 0.500000 0.500000
#
# Coordination Sequence:
#
# PCOD9076912 Si02
#       8
#     2   2   2   2   2   2   2   1
#     4  10  22  39  65  85 121 164 202 257 303 363
#     4   9  21  37  60  91 121 157 208 250 303 381
#     4  10  21  39  60  89 121 158 211 252 301 358
#     4  10  21  41  64  85 127 166 197 250 328 356
#     4  10  22  40  60  89 121 160 206 257 296 375
#     4  10  18  33  64  90 116 158 204 252 307 349
#     4  10  19  33  59  90 118 152 204 254 298 352
#     4  10  24  40  60  92 114 152 222 246 292 366
#
# _framework density 25.515103
#
# number of rings (size 3 to 8) (size 9 to 14) (size 15 to 20)
#    0.000    2.133    1.333    1.600    7.467    1.067 
#    2.400    0.667    0.000    0.000    0.000    0.000 
#    0.000    0.000    0.000    0.000    0.000    0.000 
#
# Total GULP energy -83638.699981 kJ/mol
# GULP energy per Si atom -5575.913332 kJ/mol
# Density = 2.545703 g / cm^3
# Si number density = 25.515103 Si / 1000 Ang^3
#
#
#
# Elastic Constant Matrix: (Units=GPa)
#
#
# Indices 1 2 3 4 5 6 
#
# 1 119.5638 24.1721 -0.7430 -10.2364 -29.9902 2.7261
# 2 24.1721 63.8707 4.2628 -4.0764 -3.2429 4.5349
# 3 -0.7430 4.2628 71.7315 -3.4344 -28.1533 10.3378
# 4 -10.2364 -4.0764 -3.4344 35.0282 9.3776 -4.9310
# 5 -29.9902 -3.2429 -28.1533 9.3776 41.1702 -2.7601
# 6 2.7261 4.5349 10.3378 -4.9310 -2.7601 31.1708
#
#
#
# Elastic Compliance Matrix: (Units=1/GPa)
#
#
# Indices 1 2 3 4 5 6 
#
# 1 0.012378 -0.004329 0.005348 0.000213 0.012210 -0.001112
# 2 -0.004329 0.017450 -0.002262 0.001327 -0.003731 -0.001530
# 3 0.005348 -0.002262 0.022465 -0.002532 0.019235 -0.006286
# 4 0.000213 0.001327 -0.002532 0.031424 -0.008304 0.004864
# 5 0.012210 -0.003731 0.019235 -0.008304 0.047667 -0.003997
# 6 -0.001112 -0.001530 -0.006286 0.004864 -0.003997 0.034902
#
#
# Mechanical properties :
#
#
# Convention : Reuss Voigt Hill
#
# Bulk Modulus (GPa) = 20.07735 34.50552 27.29144
# Shear Modulus (GPa) = 26.97239 36.63879 31.80559
#
# Velocity S-wave (km/s) = 3.25486 3.79352 3.53447
# Velocity P-wave (km/s) = 4.69163 5.72195 5.23221
#
# Compressibility (1/GPa) = 0.04980736
#
# Stress axis : x y z
#
# Youngs Moduli (GPa) = 80.78550 57.30685 44.51390
#
# Poissons Ratio (x) = 0.24809 -0.23807
# Poissons Ratio (y) = 0.34973 0.10069
# Poissons Ratio (z) = -0.43206 0.12963
#
# Static dielectric constant tensor:
#      x y z
#    x 1.859790 0.448710 0.209560 
#    y 0.448710 1.036830 -0.377340 
#    z 0.209560 -0.377340 1.925510 
# 
# From -- ./inp_files/213823.got.cif
#   From: 2010.05.17/outbox.cif.g08.bks.cpg/sg2_107_cif.got.tgz:213823.got - 2010.06.03 11:33:40.
