data_PCOD9076877
_publ_section_title
;
Structure prediction by ZEFSAII (Michael W. Deem and Ramdas Pophale) SiO2 
 PCOD9076877
Probable space group: P -1
;
_chemical_formula_sum "Si O2"
_cell_formula_units_Z 14
_cell_length_a 5.061378
_cell_length_b 5.820788
_cell_length_c 21.476392
_cell_angle_alpha 117.182346
_cell_angle_beta 95.842437
_cell_angle_gamma 97.633310
_cell_volume 548.299563
_symmetry_space_group_name_H-M "P -1"
_symmetry_group_IT_number 2
_symmetry_cell_setting 'triclinic'
loop_
_space_group_symop_operation_xyz
x,y,z
-x,-y,-z
loop_
_atom_site_type_symbol
_atom_site_label
_atom_site_fract_x
_atom_site_fract_y
_atom_site_fract_z
Si Si1 0.021288 0.663523 0.275004
Si Si2 0.519223 0.529562 0.325721
Si Si3 0.843215 0.239610 0.037375
Si Si4 0.056489 0.789210 0.148182
Si Si5 0.457696 0.026642 0.894322
Si Si6 0.725001 0.042040 0.580190
Si Si7 0.829586 0.593013 0.452369
O O1 0.719642 0.537995 0.273807
O O2 0.213522 0.476873 0.286204
O O3 0.080322 0.731226 0.213759
O O4 0.108469 0.939446 0.349158
O O5 0.633355 0.408276 0.374941
O O6 0.524861 0.827544 0.389474
O O7 0.049908 0.514753 0.077689
O O8 0.700631 0.216039 0.098808
O O9 0.608617 0.209400 0.976647
O O10 0.000000 0.000000 0.000000
O O11 0.304612 0.996484 0.150371
O O12 0.771645 0.863852 0.134152
O O13 0.658492 0.771381 0.509337
O O14 0.935539 0.238239 0.565205
O O15 0.000000 0.500000 0.500000
#
# Coordination Sequence:
#
# PCOD9076877 Si02
#       7
#     2   2   2   2   2   2   2
#     4   9  20  38  63  82 118 168 201 247 313 375
#     4   9  18  38  58  83 120 155 201 251 307 359
#     4  11  25  43  66  97 137 157 211 278 316 365
#     4  12  24  41  70  91 127 176 214 252 326 385
#     4  11  25  41  65 100 123 165 216 263 312 384
#     4   8  19  36  55  85 120 151 198 254 307 358
#     4  10  18  33  62  87 114 155 201 252 310 363
#
# _framework density 25.533484000000001
#
# number of rings (size 3 to 8) (size 9 to 14) (size 15 to 20)
#    0.857    1.143    1.429    2.143    4.000    0.571 
#    0.000    2.857    3.143    0.000    0.000    0.000 
#    0.000    0.000    0.000    0.000    0.000    0.000 
#
# Total GULP energy -78171.134542 kJ/mol
# GULP energy per Si atom -5583.652467 kJ/mol
# Density = 2.547537 g / cm^3
# Si number density = 25.533484 Si / 1000 Ang^3
#
#
#
# Elastic Constant Matrix: (Units=GPa)
#
#
# Indices 1 2 3 4 5 6 
#
# 1 155.6788 23.5299 34.7997 -12.6394 -5.9551 -5.6383
# 2 23.5299 42.7549 30.9373 -16.8053 7.6816 11.8610
# 3 34.7997 30.9373 118.6506 -36.2479 -2.4912 1.7641
# 4 -12.6394 -16.8053 -36.2479 32.9086 -9.2974 7.2056
# 5 -5.9551 7.6816 -2.4912 -9.2974 32.5636 -12.6094
# 6 -5.6383 11.8610 1.7641 7.2056 -12.6094 35.9845
#
#
#
# Elastic Compliance Matrix: (Units=1/GPa)
#
#
# Indices 1 2 3 4 5 6 
#
# 1 0.007868 -0.006314 -0.000996 -0.001154 0.004529 0.005181
# 2 -0.006314 0.047990 -0.005638 0.016428 -0.018386 -0.026263
# 3 -0.000996 -0.005638 0.014898 0.014968 0.006684 0.000317
# 4 -0.001154 0.016428 0.014968 0.060577 0.008338 -0.015538
# 5 0.004529 -0.018386 0.006684 0.008338 0.046991 0.021239
# 6 0.005181 -0.026263 0.000317 -0.015538 0.021239 0.047796
#
#
# Mechanical properties :
#
#
# Convention : Reuss Voigt Hill
#
# Bulk Modulus (GPa) = 22.29127 55.06868 38.67998
# Shear Modulus (GPa) = 18.72876 35.47916 27.10396
#
# Velocity S-wave (km/s) = 2.71125 3.73166 3.26161
# Velocity P-wave (km/s) = 4.30701 6.33886 5.41902
#
# Compressibility (1/GPa) = 0.04486060
#
# Stress axis : x y z
#
# Youngs Moduli (GPa) = 127.10483 20.83765 67.12085
#
# Poissons Ratio (x) = 0.13157 0.06684
# Poissons Ratio (y) = 0.80252 0.37843
# Poissons Ratio (z) = 0.12658 0.11748
#
# Static dielectric constant tensor:
#      x y z
#    x 2.020280 -0.035480 0.061740 
#    y -0.035480 2.080160 0.026690 
#    z 0.061740 0.026690 2.084310 
# 
# From -- ./inp_files/580870.got.cif
#   From: 2010.05.17/outbox.cif.g08.bks.cpg/sg2_291_cif.got.tgz:580870.got - 2010.06.03 11:33:40.
