data_PCOD9076158
_publ_section_title
;
Structure prediction by ZEFSAII (Michael W. Deem and Ramdas Pophale) SiO2 
 PCOD9076158
Probable space group: P -1
;
_chemical_formula_sum "Si O2"
_cell_formula_units_Z 16
_cell_length_a 11.779275
_cell_length_b 11.964920
_cell_length_c 8.260461
_cell_angle_alpha 103.073565
_cell_angle_beta 110.293349
_cell_angle_gamma 132.676295
_cell_volume 596.704910
_symmetry_space_group_name_H-M "P -1"
_symmetry_group_IT_number 2
_symmetry_cell_setting 'triclinic'
loop_
_space_group_symop_operation_xyz
x,y,z
-x,-y,-z
loop_
_atom_site_type_symbol
_atom_site_label
_atom_site_fract_x
_atom_site_fract_y
_atom_site_fract_z
Si Si1 0.514538 0.825887 0.711234
Si Si2 0.809796 0.832809 0.478741
Si Si3 0.507722 0.814797 0.348047
Si Si4 0.006489 0.357179 0.295422
Si Si5 0.841898 0.623410 0.309050
Si Si6 0.290297 0.270315 0.251351
Si Si7 0.099418 0.332482 0.004352
Si Si8 0.607246 0.203897 0.036735
O O1 0.567262 0.910666 0.584584
O O2 0.638289 0.801388 0.784507
O O3 0.532599 0.920025 0.909627
O O4 0.256583 0.594736 0.498867
O O5 0.651925 0.815979 0.388673
O O6 0.716958 0.640063 0.304167
O O7 0.859899 0.856361 0.703048
O O8 0.000000 0.000000 0.500000
O O9 0.269092 0.571178 0.164121
O O10 0.507105 0.900291 0.226096
O O11 0.842625 0.333096 0.209167
O O12 0.998635 0.277683 0.430216
O O13 0.965923 0.256316 0.075639
O O14 0.665556 0.385731 0.127137
O O15 0.969810 0.729824 0.237151
O O16 0.500000 0.500000 0.500000
O O17 0.203223 0.290899 0.083940
#
# Coordination Sequence:
#
# PCOD9076158 Si02
#       8
#     2   2   2   2   2   2   2   2
#     4   9  17  27  47  74 111 144 167 214 276 328
#     4  11  22  37  56  80 118 150 182 230 280 332
#     4   9  20  32  50  81 109 144 178 229 278 325
#     4  10  18  33  48  83 120 140 174 230 284 321
#     4  10  20  32  52  80 108 145 181 223 275 328
#     4  11  16  34  56  80 116 143 177 231 289 326
#     4  10  19  30  56  85 109 144 179 229 280 330
#     4  10  20  30  54  85 112 143 183 229 273 331
#
# _framework density 26.813925999999999
#
# number of rings (size 3 to 8) (size 9 to 14) (size 15 to 20)
#    0.000    2.000    5.000    2.250    1.750    6.500 
#    0.000    0.625    0.000    0.750    0.000   28.000 
#    0.000    0.000    0.000    0.000    0.000    0.000 
#
# Total GULP energy -89581.819217 kJ/mol
# GULP energy per Si atom -5598.863701 kJ/mol
# Density = 2.675290 g / cm^3
# Si number density = 26.813926 Si / 1000 Ang^3
#
#
#
# Elastic Constant Matrix: (Units=GPa)
#
#
# Indices 1 2 3 4 5 6 
#
# 1 106.9427 17.0542 31.9960 -28.7540 -10.1321 42.6778
# 2 17.0542 108.3470 47.4593 -44.9438 -1.2891 22.8089
# 3 31.9960 47.4593 137.7427 -63.7888 -19.4397 19.8461
# 4 -28.7540 -44.9438 -63.7888 75.0232 -3.1024 -24.8221
# 5 -10.1321 -1.2891 -19.4397 -3.1024 31.5068 -11.5171
# 6 42.6778 22.8089 19.8461 -24.8221 -11.5171 46.0049
#
#
#
# Elastic Compliance Matrix: (Units=1/GPa)
#
#
# Indices 1 2 3 4 5 6 
#
# 1 0.015421 0.001635 -0.002224 0.000137 -0.001630 -0.014491
# 2 0.001635 0.012917 -0.002021 0.005039 -0.001408 -0.004683
# 3 -0.002224 -0.002021 0.015986 0.014480 0.013150 0.007274
# 4 0.000137 0.005039 0.014480 0.034041 0.017620 0.013907
# 5 -0.001630 -0.001408 0.013150 0.017620 0.047568 0.017953
# 6 -0.014491 -0.004683 0.007274 0.013907 0.017953 0.046361
#
#
# Mechanical properties :
#
#
# Convention : Reuss Voigt Hill
#
# Bulk Modulus (GPa) = 25.57319 60.67237 43.12278
# Shear Modulus (GPa) = 26.23989 47.60850 36.92419
#
# Velocity S-wave (km/s) = 3.13164 4.21826 3.71489
# Velocity P-wave (km/s) = 4.75754 6.81184 5.87518
#
# Compressibility (1/GPa) = 0.03910345
#
# Stress axis : x y z
#
# Youngs Moduli (GPa) = 64.84754 77.41958 62.55363
#
# Poissons Ratio (x) = -0.12657 0.13914
# Poissons Ratio (y) = -0.10602 0.12641
# Poissons Ratio (z) = 0.14424 0.15645
#
# Static dielectric constant tensor:
#      x y z
#    x 2.132900 -0.016870 -0.132540 
#    y -0.016870 2.210860 0.006300 
#    z -0.132540 0.006300 2.220470 
# 
# From -- ./inp_files/273241.got.cif
#   From: 2010.05.17/outbox.cif.g08.bks.cpg/sg2_137_cif.got.tgz:273241.got - 2010.06.03 11:33:40.
