data_PCOD9076211
_publ_section_title
;
Structure prediction by ZEFSAII (Michael W. Deem and Ramdas Pophale) SiO2 
 PCOD9076211
Probable space group: P -1
;
_chemical_formula_sum "Si O2"
_cell_formula_units_Z 16
_cell_length_a 9.070986
_cell_length_b 14.909041
_cell_length_c 17.297026
_cell_angle_alpha 49.113778
_cell_angle_beta 143.129224
_cell_angle_gamma 142.599365
_cell_volume 851.345921
_symmetry_space_group_name_H-M "P -1"
_symmetry_group_IT_number 2
_symmetry_cell_setting 'triclinic'
loop_
_space_group_symop_operation_xyz
x,y,z
-x,-y,-z
loop_
_atom_site_type_symbol
_atom_site_label
_atom_site_fract_x
_atom_site_fract_y
_atom_site_fract_z
Si Si1 0.012985 0.570582 0.364545
Si Si2 0.166482 0.658419 0.210407
Si Si3 0.198521 0.729206 0.503799
Si Si4 0.535430 0.890885 0.123709
Si Si5 0.680762 0.646330 0.631495
Si Si6 0.165621 0.250379 0.524113
Si Si7 0.124982 0.057607 0.377158
Si Si8 0.188404 0.562420 0.122414
O O1 0.999198 0.613385 0.247406
O O2 0.027612 0.671099 0.382145
O O3 0.340530 0.596985 0.497883
O O4 0.772388 0.398635 0.381042
O O5 0.304054 0.819374 0.141281
O O6 0.002828 0.549727 0.129701
O O7 0.483403 0.676055 0.347502
O O8 0.007850 0.741416 0.481695
O O9 0.535709 0.875038 0.547589
O O10 0.434278 0.741322 0.120956
O O11 0.877903 0.981424 0.248226
O O12 0.500000 0.000000 0.000000
O O13 0.852322 0.804774 0.655436
O O14 0.683695 0.529705 0.749583
O O15 0.833002 0.672281 0.596427
O O16 0.997981 0.076242 0.539122
O O17 0.000000 0.500000 0.000000
#
# Coordination Sequence:
#
# PCOD9076211 Si02
#       8
#     2   2   2   2   2   2   2   2
#     4   9  18  33  50  83 109 141 171 217 263 309
#     4   8  18  32  55  79 107 132 178 221 264 303
#     4  10  19  29  51  77 118 141 172 201 266 325
#     4   9  19  35  54  77 105 135 175 225 265 303
#     4  10  19  32  55  78 110 136 180 222 253 310
#     4  10  18  33  52  81 110 141 171 214 267 311
#     4  10  20  33  48  82 112 143 166 212 270 318
#     4  10  19  31  52  82  99 130 177 224 262 298
#
# _framework density 18.793771
#
# number of rings (size 3 to 8) (size 9 to 14) (size 15 to 20)
#    0.750    1.750    0.000    3.000    0.000    3.000 
#    0.000    0.000    0.000    0.750    9.750    6.125 
#    0.000    0.000    0.000    0.000    0.000    0.000 
#
# Total GULP energy -89086.998369 kJ/mol
# GULP energy per Si atom -5567.937398 kJ/mol
# Density = 1.875100 g / cm^3
# Si number density = 18.793771 Si / 1000 Ang^3
#
#
#
# Elastic Constant Matrix: (Units=GPa)
#
#
# Indices 1 2 3 4 5 6 
#
# 1 99.9955 21.5051 27.2405 -1.8496 -28.8137 -7.6842
# 2 21.5051 122.3153 42.3760 -8.7525 -16.6093 -10.5179
# 3 27.2405 42.3760 81.5813 -18.0578 -30.0245 -1.6293
# 4 -1.8496 -8.7525 -18.0578 30.5255 -0.7993 -1.0546
# 5 -28.8137 -16.6093 -30.0245 -0.7993 27.3941 -2.4767
# 6 -7.6842 -10.5179 -1.6293 -1.0546 -2.4767 26.1859
#
#
#
# Elastic Compliance Matrix: (Units=1/GPa)
#
#
# Indices 1 2 3 4 5 6 
#
# 1 0.015759 -0.000302 0.003656 0.003822 0.021133 0.006883
# 2 -0.000302 0.010379 -0.004698 0.000345 0.001190 0.003914
# 3 0.003656 -0.004698 0.030737 0.018172 0.035687 0.005206
# 4 0.003822 0.000345 0.018172 0.044752 0.026054 0.006657
# 5 0.021133 0.001190 0.035687 0.026054 0.101092 0.019511
# 6 0.006883 0.003914 0.005206 0.006657 0.019511 0.044218
#
#
# Mechanical properties :
#
#
# Convention : Reuss Voigt Hill
#
# Bulk Modulus (GPa) = 18.45450 54.01503 36.23477
# Shear Modulus (GPa) = 18.67855 31.00579 24.84217
#
# Velocity S-wave (km/s) = 3.15599 4.06617 3.63964
# Velocity P-wave (km/s) = 4.80845 7.13080 6.08151
#
# Compressibility (1/GPa) = 0.05418733
#
# Stress axis : x y z
#
# Youngs Moduli (GPa) = 63.45757 96.34670 32.53387
#
# Poissons Ratio (x) = 0.02912 -0.11895
# Poissons Ratio (y) = 0.01918 0.15284
# Poissons Ratio (z) = -0.23202 0.45262
#
# Static dielectric constant tensor:
#      x y z
#    x 1.715450 -0.016740 -0.006460 
#    y -0.016740 1.703060 -0.015450 
#    z -0.006460 -0.015450 1.652960 
# 
# From -- ./inp_files/560832.got.cif
#   From: 2010.05.17/outbox.cif.g08.bks.cpg/sg2_281_cif.got.tgz:560832.got - 2010.06.03 11:33:40.
