data_PCOD9076342
_publ_section_title
;
Structure prediction by ZEFSAII (Michael W. Deem and Ramdas Pophale) SiO2 
 PCOD9076342
Probable space group: P -1
;
_chemical_formula_sum "Si O2"
_cell_formula_units_Z 14
_cell_length_a 5.289256
_cell_length_b 9.510633
_cell_length_c 11.498337
_cell_angle_alpha 98.147889
_cell_angle_beta 75.134340
_cell_angle_gamma 105.411618
_cell_volume 537.270427
_symmetry_space_group_name_H-M "P -1"
_symmetry_group_IT_number 2
_symmetry_cell_setting 'triclinic'
loop_
_space_group_symop_operation_xyz
x,y,z
-x,-y,-z
loop_
_atom_site_type_symbol
_atom_site_label
_atom_site_fract_x
_atom_site_fract_y
_atom_site_fract_z
Si Si1 0.352850 0.972691 0.752437
Si Si2 0.556399 0.294248 0.693338
Si Si3 0.123293 0.766255 0.949217
Si Si4 0.623195 0.422589 0.245423
Si Si5 0.444656 0.332752 0.023797
Si Si6 0.887727 0.885383 0.606553
Si Si7 0.813936 0.632418 0.431636
O O1 0.264915 0.911360 0.882629
O O2 0.586593 0.896941 0.672014
O O3 0.095851 0.932643 0.692903
O O4 0.484352 0.142371 0.747383
O O5 0.428702 0.422536 0.771633
O O6 0.381013 0.273632 0.592154
O O7 0.878172 0.345363 0.647419
O O8 0.122416 0.630998 0.841875
O O9 0.290281 0.727220 0.032110
O O10 0.821229 0.760947 0.011704
O O11 0.414381 0.318784 0.168316
O O12 0.671208 0.467405 0.382107
O O13 0.500000 0.500000 0.000000
O O14 0.869875 0.713976 0.558166
O O15 0.000000 0.000000 0.500000
#
# Coordination Sequence:
#
# PCOD9076342 Si02
#       7
#     2   2   2   2   2   2   2
#     4  12  22  35  56  83 114 151 182 241 271 306
#     4  10  18  33  55  77 106 152 183 220 270 314
#     4  10  22  38  57  86 116 134 182 230 289 323
#     4   8  21  35  57  80 112 139 187 217 282 327
#     4  10  20  39  67  84 102 142 186 224 269 353
#     4  12  20  34  53  81 111 153 205 222 254 317
#     4  10  19  32  53  77 105 147 194 231 245 313
#
# _framework density 26.057639999999999
#
# number of rings (size 3 to 8) (size 9 to 14) (size 15 to 20)
#    1.714    0.000    2.857    3.429    0.000    0.000 
#    0.000    1.429    0.000    1.714    0.000    0.000 
#    0.000    0.000    0.000    0.000    0.000    0.000 
#
# Total GULP energy -77981.276134 kJ/mol
# GULP energy per Si atom -5570.091152 kJ/mol
# Density = 2.599833 g / cm^3
# Si number density = 26.057640 Si / 1000 Ang^3
#
#
#
# Elastic Constant Matrix: (Units=GPa)
#
#
# Indices 1 2 3 4 5 6 
#
# 1 149.5411 23.6977 12.2673 -13.8971 11.6024 8.1721
# 2 23.6977 84.4625 1.1235 -7.9951 -2.8731 -10.7991
# 3 12.2673 1.1235 53.2434 4.8575 5.1135 -7.2698
# 4 -13.8971 -7.9951 4.8575 49.2778 -2.2365 -0.6933
# 5 11.6024 -2.8731 5.1135 -2.2365 27.3167 -2.4976
# 6 8.1721 -10.7991 -7.2698 -0.6933 -2.4976 37.1006
#
#
#
# Elastic Compliance Matrix: (Units=1/GPa)
#
#
# Indices 1 2 3 4 5 6 
#
# 1 0.007844 -0.002506 -0.002013 0.001809 -0.003348 -0.003043
# 2 -0.002506 0.013401 0.000517 0.001618 0.002947 0.004782
# 3 -0.002013 0.000517 0.020320 -0.002549 -0.002706 0.004346
# 4 0.001809 0.001618 -0.002549 0.021392 0.001638 0.000083
# 5 -0.003348 0.002947 -0.002706 0.001638 0.039323 0.003743
# 6 -0.003043 0.004782 0.004346 0.000083 0.003743 0.030121
#
#
# Mechanical properties :
#
#
# Convention : Reuss Voigt Hill
#
# Bulk Modulus (GPa) = 29.79688 40.15821 34.97754
# Shear Modulus (GPa) = 32.98342 39.41625 36.19984
#
# Velocity S-wave (km/s) = 3.56165 3.89351 3.73127
# Velocity P-wave (km/s) = 5.32669 5.97137 5.65822
#
# Compressibility (1/GPa) = 0.03356056
#
# Stress axis : x y z
#
# Youngs Moduli (GPa) = 127.49344 74.62401 49.21165
#
# Poissons Ratio (x) = 0.18698 0.09908
# Poissons Ratio (y) = 0.31945 -0.02544
# Poissons Ratio (z) = 0.25668 -0.03858
#
# Static dielectric constant tensor:
#      x y z
#    x 2.180880 0.115300 0.103580 
#    y 0.115300 2.128140 0.060480 
#    z 0.103580 0.060480 2.241320 
# 
# From -- ./inp_files/481620.got.cif
#   From: 2010.05.17/outbox.cif.g08.bks.cpg/sg2_241_cif.got.tgz:481620.got - 2010.06.03 11:33:40.
