data_PCOD9076323
_publ_section_title
;
Structure prediction by ZEFSAII (Michael W. Deem and Ramdas Pophale) SiO2 
 PCOD9076323
Probable space group: P -1
;
_chemical_formula_sum "Si O2"
_cell_formula_units_Z 16
_cell_length_a 11.462871
_cell_length_b 18.579126
_cell_length_c 9.201562
_cell_angle_alpha 55.765398
_cell_angle_beta 25.841405
_cell_angle_gamma 48.784787
_cell_volume 639.776125
_symmetry_space_group_name_H-M "P -1"
_symmetry_group_IT_number 2
_symmetry_cell_setting 'triclinic'
loop_
_space_group_symop_operation_xyz
x,y,z
-x,-y,-z
loop_
_atom_site_type_symbol
_atom_site_label
_atom_site_fract_x
_atom_site_fract_y
_atom_site_fract_z
Si Si1 0.104347 0.587123 0.768147
Si Si2 0.323244 0.147965 0.725305
Si Si3 0.650966 0.254084 0.415485
Si Si4 0.545253 0.756718 0.061587
Si Si5 0.726433 0.430924 0.703243
Si Si6 0.899379 0.588836 0.282852
Si Si7 0.768039 0.722886 0.555446
Si Si8 0.323692 0.977663 0.095673
O O1 0.345045 0.566024 0.393754
O O2 0.842672 0.683883 0.890894
O O3 0.128039 0.600752 0.899054
O O4 0.000000 0.500000 0.000000
O O5 0.506948 0.183226 0.592869
O O6 0.390725 0.172352 0.459957
O O7 0.976161 0.218944 0.032342
O O8 0.328392 0.047311 0.881058
O O9 0.688255 0.244991 0.557950
O O10 0.416244 0.356588 0.507040
O O11 0.493192 0.866648 0.989504
O O12 0.558174 0.722840 0.922067
O O13 0.957061 0.480730 0.376383
O O14 0.905735 0.322422 0.683526
O O15 0.500000 0.500000 0.000000
O O16 0.829767 0.646294 0.445318
O O17 0.000000 0.000000 0.500000
O O18 0.500000 0.000000 0.000000
#
# Coordination Sequence:
#
# PCOD9076323 Si02
#       8
#     2   2   2   2   2   2   2   2
#     4   8  17  34  59  85 119 170 216 260 316 390
#     4  11  21  40  62  91 123 162 211 258 322 378
#     4  10  20  38  64  90 121 167 211 260 308 382
#     4  10  20  38  61  93 125 167 217 270 326 386
#     4  10  18  33  54  85 124 166 211 267 319 376
#     4   9  18  35  57  82 121 169 213 257 314 381
#     4  10  22  36  59  89 128 168 212 268 332 379
#     4  12  23  42  69  96 125 169 221 272 324 388
#
# _framework density 25.008747
#
# number of rings (size 3 to 8) (size 9 to 14) (size 15 to 20)
#    0.000    2.000    2.500    1.125    0.000    0.500 
#    0.000   13.125    0.000    5.250    0.000    0.000 
#    0.000    0.000    0.000    0.000    0.000    0.000 
#
# Total GULP energy -89222.252910 kJ/mol
# GULP energy per Si atom -5576.390807 kJ/mol
# Density = 2.495183 g / cm^3
# Si number density = 25.008747 Si / 1000 Ang^3
#
#
#
# Elastic Constant Matrix: (Units=GPa)
#
#
# Indices 1 2 3 4 5 6 
#
# 1 120.6443 30.0107 67.8371 -8.8495 30.1541 -12.3631
# 2 30.0107 175.5367 24.5783 -17.8716 3.5732 -21.3742
# 3 67.8371 24.5783 98.5534 -21.8894 26.3147 3.5498
# 4 -8.8495 -17.8716 -21.8894 34.0983 -6.1334 9.7884
# 5 30.1541 3.5732 26.3147 -6.1334 61.0917 -8.7044
# 6 -12.3631 -21.3742 3.5498 9.7884 -8.7044 39.6810
#
#
#
# Elastic Compliance Matrix: (Units=1/GPa)
#
#
# Indices 1 2 3 4 5 6 
#
# 1 0.015893 -0.000866 -0.011660 -0.006123 -0.002460 0.006499
# 2 -0.000866 0.006537 -0.001039 0.001835 0.001124 0.003138
# 3 -0.011660 -0.001039 0.022901 0.013379 -0.004196 -0.010462
# 4 -0.006123 0.001835 0.013379 0.040720 -0.000508 -0.012272
# 5 -0.002460 0.001124 -0.004196 -0.000508 0.019945 0.004715
# 6 0.006499 0.003138 -0.010462 -0.012272 0.004715 0.033914
#
#
# Mechanical properties :
#
#
# Convention : Reuss Voigt Hill
#
# Bulk Modulus (GPa) = 54.95289 71.06518 63.00904
# Shear Modulus (GPa) = 28.88390 45.12808 37.00599
#
# Velocity S-wave (km/s) = 3.40215 4.25254 3.85089
# Velocity P-wave (km/s) = 6.11996 7.25189 6.70984
#
# Compressibility (1/GPa) = 0.01819741
#
# Stress axis : x y z
#
# Youngs Moduli (GPa) = 62.92252 152.98662 43.66647
#
# Poissons Ratio (x) = 0.13254 0.50917
# Poissons Ratio (y) = 0.05451 0.04539
# Poissons Ratio (z) = 0.73371 0.15902
#
# Static dielectric constant tensor:
#      x y z
#    x 2.103990 0.044650 0.048080 
#    y 0.044650 2.026510 -0.010140 
#    z 0.048080 -0.010140 2.023550 
# 
# From -- ./inp_files/282977.got.cif
#   From: 2010.05.17/outbox.cif.g08.bks.cpg/sg2_142_cif.got.tgz:282977.got - 2010.06.03 11:33:40.
