data_PCOD9076410
_publ_section_title
;
Structure prediction by ZEFSAII (Michael W. Deem and Ramdas Pophale) SiO2 
 PCOD9076410
Probable space group: P -1
;
_chemical_formula_sum "Si O2"
_cell_formula_units_Z 12
_cell_length_a 12.840526
_cell_length_b 9.339284
_cell_length_c 8.296330
_cell_angle_alpha 31.614726
_cell_angle_beta 73.675476
_cell_angle_gamma 70.584942
_cell_volume 491.874002
_symmetry_space_group_name_H-M "P -1"
_symmetry_group_IT_number 2
_symmetry_cell_setting 'triclinic'
loop_
_space_group_symop_operation_xyz
x,y,z
-x,-y,-z
loop_
_atom_site_type_symbol
_atom_site_label
_atom_site_fract_x
_atom_site_fract_y
_atom_site_fract_z
Si Si1 0.404054 0.672005 0.488080
Si Si2 0.555722 0.799238 0.852059
Si Si3 0.001511 0.509128 0.685703
Si Si4 0.341108 0.526475 0.157630
Si Si5 0.208088 0.705577 0.329989
Si Si6 0.867232 0.070648 0.185525
O O1 0.500000 0.500000 0.500000
O O2 0.299625 0.811298 0.294521
O O3 0.447561 0.904016 0.351961
O O4 0.372301 0.432947 0.843150
O O5 0.610561 0.744567 0.705377
O O6 0.439636 0.691120 0.995865
O O7 0.000000 0.500000 0.500000
O O8 0.120102 0.586202 0.590551
O O9 0.902766 0.763033 0.528646
O O10 0.966256 0.232435 0.029092
O O11 0.279106 0.475950 0.398531
O O12 0.248025 0.740706 0.895732
O O13 0.147166 0.918417 0.015966
#
# Coordination Sequence:
#
# PCOD9076410 Si02
#       6
#     2   2   2   2   2   2
#     4  12  24  41  60  88 123 157 192 243 299 348
#     4  11  25  42  58  89 125 154 196 239 296 356
#     4  10  18  33  55  92 112 143 196 256 275 332
#     4   9  22  41  62  89 115 163 195 243 288 352
#     4   9  20  37  61  91 113 154 196 243 292 338
#     4   9  20  34  58  88 113 146 200 245 284 331
#
# _framework density 24.396491000000001
#
# number of rings (size 3 to 8) (size 9 to 14) (size 15 to 20)
#    1.000    1.000    1.667    2.500    0.000   12.000 
#    0.000    0.000    0.000    6.000    0.000    0.000 
#    0.000    0.000    0.000    0.000    0.000    0.000 
#
# Total GULP energy -67025.836552 kJ/mol
# GULP energy per Si atom -5585.486379 kJ/mol
# Density = 2.434096 g / cm^3
# Si number density = 24.396491 Si / 1000 Ang^3
#
#
#
# Elastic Constant Matrix: (Units=GPa)
#
#
# Indices 1 2 3 4 5 6 
#
# 1 120.1387 47.1527 9.1781 -14.3000 -11.2701 -5.2528
# 2 47.1527 108.6809 27.4580 -35.1397 -1.9765 2.6118
# 3 9.1781 27.4580 83.7212 -25.5838 -0.8646 12.8159
# 4 -14.3000 -35.1397 -25.5838 35.3676 6.3025 -1.8263
# 5 -11.2701 -1.9765 -0.8646 6.3025 15.4787 -6.2130
# 6 -5.2528 2.6118 12.8159 -1.8263 -6.2130 25.9141
#
#
#
# Elastic Compliance Matrix: (Units=1/GPa)
#
#
# Indices 1 2 3 4 5 6 
#
# 1 0.011651 -0.005913 -0.001357 -0.003917 0.011721 0.006163
# 2 -0.005913 0.016851 0.000806 0.016609 -0.010760 -0.004705
# 3 -0.001357 0.000806 0.017693 0.014277 -0.009916 -0.010478
# 4 -0.003917 0.016609 0.014277 0.057958 -0.028456 -0.012266
# 5 0.011721 -0.010760 -0.009916 -0.028456 0.094438 0.029001
# 6 0.006163 -0.004705 -0.010478 -0.012266 0.029001 0.051583
#
#
# Mechanical properties :
#
#
# Convention : Reuss Voigt Hill
#
# Bulk Modulus (GPa) = 30.06028 53.34650 41.70339
# Shear Modulus (GPa) = 18.23546 30.60219 24.41883
#
# Velocity S-wave (km/s) = 2.73694 3.54555 3.16716
# Velocity P-wave (km/s) = 4.72611 6.21894 5.52319
#
# Compressibility (1/GPa) = 0.03326649
#
# Stress axis : x y z
#
# Youngs Moduli (GPa) = 85.82861 59.34473 56.51930
#
# Poissons Ratio (x) = 0.35093 0.07670
# Poissons Ratio (y) = 0.50754 -0.04557
# Poissons Ratio (z) = 0.11647 -0.04785
#
# Static dielectric constant tensor:
#      x y z
#    x 1.989660 -0.000620 0.026240 
#    y -0.000620 1.997120 0.043280 
#    z 0.026240 0.043280 1.950030 
# 
# From -- ./inp_files/293709.got.cif
#   From: 2010.05.17/outbox.cif.g08.bks.cpg/sg2_147_cif.got.tgz:293709.got - 2010.06.03 11:33:40.
