data_PCOD9076607
_publ_section_title
;
Structure prediction by ZEFSAII (Michael W. Deem and Ramdas Pophale) SiO2 
 PCOD9076607
Probable space group: P -1
;
_chemical_formula_sum "Si O2"
_cell_formula_units_Z 16
_cell_length_a 5.983696
_cell_length_b 17.766931
_cell_length_c 9.233091
_cell_angle_alpha 96.416301
_cell_angle_beta 73.582442
_cell_angle_gamma 133.411468
_cell_volume 679.179281
_symmetry_space_group_name_H-M "P -1"
_symmetry_group_IT_number 2
_symmetry_cell_setting 'triclinic'
loop_
_space_group_symop_operation_xyz
x,y,z
-x,-y,-z
loop_
_atom_site_type_symbol
_atom_site_label
_atom_site_fract_x
_atom_site_fract_y
_atom_site_fract_z
Si Si1 0.021969 0.979961 0.218835
Si Si2 0.173939 0.888812 0.344728
Si Si3 0.136999 0.628459 0.626484
Si Si4 0.534415 0.467858 0.139859
Si Si5 0.843970 0.549900 0.382938
Si Si6 0.482151 0.283932 0.144921
Si Si7 0.144062 0.889806 0.664591
Si Si8 0.524092 0.141481 0.948797
O O1 0.931989 0.897310 0.334823
O O2 0.764896 0.914296 0.124553
O O3 0.991122 0.055022 0.312311
O O4 0.365848 0.056403 0.089103
O O5 0.125509 0.844895 0.503114
O O6 0.212724 0.840492 0.193826
O O7 0.495659 0.012593 0.331953
O O8 0.126392 0.534635 0.627535
O O9 0.416629 0.710997 0.705778
O O10 0.812977 0.594594 0.737647
O O11 0.122824 0.641807 0.459413
O O12 0.801628 0.558871 0.223215
O O13 0.598335 0.392330 0.099380
O O14 0.500000 0.500000 0.000000
O O15 0.500000 0.500000 0.500000
O O16 0.093852 0.200232 0.196343
O O17 0.602309 0.240545 0.020407
#
# Coordination Sequence:
#
# PCOD9076607 Si02
#       8
#     2   2   2   2   2   2   2   2
#     4   9  17  32  54  78 108 154 192 233 288 345
#     4  10  18  33  58  79 114 156 198 234 289 337
#     4   9  18  35  63  82 107 152 187 233 303 349
#     4  10  21  37  63  88 112 150 200 243 293 355
#     4   8  16  34  61  86 107 138 192 234 282 369
#     4  10  21  36  56  83 124 149 198 243 297 349
#     4   9  20  34  53  86 111 153 202 238 276 352
#     4   9  19  32  51  82 113 147 192 238 286 353
#
# _framework density 23.557846000000001
#
# number of rings (size 3 to 8) (size 9 to 14) (size 15 to 20)
#    0.000    2.750    0.000    1.500    0.000    5.000 
#    0.000    0.000   49.500    0.000    0.000    0.000 
#    0.000    0.000    0.000    0.000    0.000    0.000 
#
# Total GULP energy -89180.019758 kJ/mol
# GULP energy per Si atom -5573.751235 kJ/mol
# Density = 2.350423 g / cm^3
# Si number density = 23.557846 Si / 1000 Ang^3
#
#
#
# Elastic Constant Matrix: (Units=GPa)
#
#
# Indices 1 2 3 4 5 6 
#
# 1 48.4357 19.0949 18.7470 13.0116 13.5293 -11.0121
# 2 19.0949 57.6683 29.6318 17.8311 2.8525 -7.0820
# 3 18.7470 29.6318 97.3831 24.1844 22.7527 -11.3540
# 4 13.0116 17.8311 24.1844 26.7405 1.1197 -9.1493
# 5 13.5293 2.8525 22.7527 1.1197 40.6645 4.9877
# 6 -11.0121 -7.0820 -11.3540 -9.1493 4.9877 27.2068
#
#
#
# Elastic Compliance Matrix: (Units=1/GPa)
#
#
# Indices 1 2 3 4 5 6 
#
# 1 0.030509 -0.006840 0.002340 -0.008118 -0.012110 0.011035
# 2 -0.006840 0.024644 -0.004993 -0.009562 0.003895 -0.002367
# 3 0.002340 -0.004993 0.017080 -0.011145 -0.010281 0.004912
# 4 -0.008118 -0.009562 -0.011145 0.060474 0.006882 0.008649
# 5 -0.012110 0.003895 -0.010281 0.006882 0.035426 -0.012358
# 6 0.011035 -0.002367 0.004912 0.008649 -0.012358 0.047830
#
#
# Mechanical properties :
#
#
# Convention : Reuss Voigt Hill
#
# Bulk Modulus (GPa) = 18.78042 37.60382 28.19212
# Shear Modulus (GPa) = 19.78638 27.98991 23.88815
#
# Velocity S-wave (km/s) = 2.90126 3.45067 3.18782
# Velocity P-wave (km/s) = 4.38320 5.64563 5.05399
#
# Compressibility (1/GPa) = 0.05324694
#
# Stress axis : x y z
#
# Youngs Moduli (GPa) = 32.77706 40.57711 58.54757
#
# Poissons Ratio (x) = 0.27756 -0.13701
# Poissons Ratio (y) = 0.22420 0.29234
# Poissons Ratio (z) = -0.07670 0.20261
#
# Static dielectric constant tensor:
#      x y z
#    x 1.926300 0.052550 0.000160 
#    y 0.052550 1.943570 -0.010580 
#    z 0.000160 -0.010580 1.993850 
# 
# From -- ./inp_files/44184.got.cif
#   From: 2010.05.17/outbox.cif.g08.bks.cpg/sg2_23_cif.got.tgz:44184.got - 2010.06.03 11:33:40.
