data_PCOD9076674
_publ_section_title
;
Structure prediction by ZEFSAII (Michael W. Deem and Ramdas Pophale) SiO2 
 PCOD9076674
Probable space group: P -1
;
_chemical_formula_sum "Si O2"
_cell_formula_units_Z 16
_cell_length_a 14.939277
_cell_length_b 10.906342
_cell_length_c 11.276193
_cell_angle_alpha 43.482175
_cell_angle_beta 117.943941
_cell_angle_gamma 82.960210
_cell_volume 724.645695
_symmetry_space_group_name_H-M "P -1"
_symmetry_group_IT_number 2
_symmetry_cell_setting 'triclinic'
loop_
_space_group_symop_operation_xyz
x,y,z
-x,-y,-z
loop_
_atom_site_type_symbol
_atom_site_label
_atom_site_fract_x
_atom_site_fract_y
_atom_site_fract_z
Si Si1 0.875986 0.051510 0.993410
Si Si2 0.483038 0.048877 0.779575
Si Si3 0.937253 0.845614 0.941035
Si Si4 0.323506 0.005003 0.435722
Si Si5 0.369748 0.331505 0.256372
Si Si6 0.178652 0.249025 0.428517
Si Si7 0.739753 0.169083 0.074699
Si Si8 0.572876 0.617241 0.283358
O O1 0.792579 0.084698 0.031908
O O2 0.737725 0.326660 0.636455
O O3 0.994105 0.049024 0.110784
O O4 0.954094 0.809178 0.120068
O O5 0.466956 0.139245 0.571068
O O6 0.311911 0.199263 0.599328
O O7 0.504543 0.178249 0.794662
O O8 0.589670 0.738629 0.101714
O O9 0.030700 0.575133 0.111106
O O10 0.760966 0.031393 0.667831
O O11 0.289971 0.259376 0.208254
O O12 0.257796 0.078396 0.475842
O O13 0.508649 0.753238 0.703850
O O14 0.252363 0.638613 0.011778
O O15 0.156941 0.104531 0.594387
O O16 0.558426 0.353142 0.849389
#
# Coordination Sequence:
#
# PCOD9076674 Si02
#       8
#     2   2   2   2   2   2   2   2
#     4  11  22  38  59  88 120 150 194 237 281 355
#     4   9  18  33  59  85 118 147 184 234 291 343
#     4  11  23  40  59  80 116 162 194 229 290 346
#     4  10  22  40  64  80 112 158 193 239 289 340
#     4  10  20  39  61  91 112 143 198 244 286 342
#     4  10  21  40  57  84 120 155 194 236 283 340
#     4  11  22  35  62  90 118 147 191 247 288 336
#     4  10  18  33  58  89 117 149 179 235 298 337
#
# _framework density 22.079756
#
# number of rings (size 3 to 8) (size 9 to 14) (size 15 to 20)
#    0.000    1.750    2.500    2.250    1.750    1.000 
#    0.000    7.500    0.000    0.000    0.000    0.000 
#    0.000    0.000    0.000    0.000    0.000    0.000 
#
# Total GULP energy -89199.579928 kJ/mol
# GULP energy per Si atom -5574.973745 kJ/mol
# Density = 2.202950 g / cm^3
# Si number density = 22.079756 Si / 1000 Ang^3
#
#
#
# Elastic Constant Matrix: (Units=GPa)
#
#
# Indices 1 2 3 4 5 6 
#
# 1 63.4595 23.0703 22.3441 -4.7867 -2.4689 -4.5153
# 2 23.0703 81.1461 -18.4958 4.7494 -5.3875 -1.8915
# 3 22.3441 -18.4958 13.9943 11.4531 -7.2295 -6.3240
# 4 -4.7867 4.7494 11.4531 4.0782 11.2557 16.4277
# 5 -2.4689 -5.3875 -7.2295 11.2557 19.4176 7.8396
# 6 -4.5153 -1.8915 -6.3240 16.4277 7.8396 39.6112
#
#
#
# Elastic Compliance Matrix: (Units=1/GPa)
#
#
# Indices 1 2 3 4 5 6 
#
# 1 0.018164 -0.004001 -0.004988 -0.024491 0.009783 0.009304
# 2 -0.004001 0.012089 0.001069 0.019111 -0.005165 -0.006612
# 3 -0.004988 0.001069 0.019423 0.054540 -0.018076 -0.016458
# 4 -0.024491 0.019111 0.054540 0.018437 0.013192 -0.003429
# 5 0.009783 -0.005165 -0.018076 0.013192 0.043427 -0.016083
# 6 0.009304 -0.006612 -0.016458 -0.003429 -0.016083 0.027968
#
#
# Mechanical properties :
#
#
# Convention : Reuss Voigt Hill
#
# Bulk Modulus (GPa) = 29.55404 23.60413 26.57908
# Shear Modulus (GPa) = 30.00737 21.40016 25.70376
#
# Velocity S-wave (km/s) = 3.69052 3.11661 3.41564
# Velocity P-wave (km/s) = 5.61909 4.86463 5.25541
#
# Compressibility (1/GPa) = 0.03383632
#
# Stress axis : x y z
#
# Youngs Moduli (GPa) = 55.05334 82.71886 51.48587
#
# Poissons Ratio (x) = 0.33098 0.25681
# Poissons Ratio (y) = 0.22028 -0.05505
# Poissons Ratio (z) = 0.27460 -0.08845
#
# Static dielectric constant tensor:
#      x y z
#    x 1.815310 -0.004830 0.008580 
#    y -0.004830 1.837000 -0.014960 
#    z 0.008580 -0.014960 1.888160 
# 
# From -- ./inp_files/422817.got.cif
#   From: 2010.05.17/outbox.cif.g08.bks.cpg/sg2_212_cif.got.tgz:422817.got - 2010.06.03 11:33:40.
