data_PCOD9076536
_publ_section_title
;
Structure prediction by ZEFSAII (Michael W. Deem and Ramdas Pophale) SiO2 
 PCOD9076536
Probable space group: P -1
;
_chemical_formula_sum "Si O2"
_cell_formula_units_Z 14
_cell_length_a 16.229094
_cell_length_b 10.078060
_cell_length_c 9.145577
_cell_angle_alpha 123.892175
_cell_angle_beta 68.187925
_cell_angle_gamma 150.737105
_cell_volume 582.105075
_symmetry_space_group_name_H-M "P -1"
_symmetry_group_IT_number 2
_symmetry_cell_setting 'triclinic'
loop_
_space_group_symop_operation_xyz
x,y,z
-x,-y,-z
loop_
_atom_site_type_symbol
_atom_site_label
_atom_site_fract_x
_atom_site_fract_y
_atom_site_fract_z
Si Si1 0.233943 0.472010 0.274195
Si Si2 0.380208 0.724923 0.792682
Si Si3 0.825988 0.381689 0.362853
Si Si4 0.430604 0.546135 0.411977
Si Si5 0.773496 0.992765 0.566116
Si Si6 0.000179 0.593047 0.902737
Si Si7 0.125683 0.252599 0.907047
O O1 0.254763 0.674588 0.468130
O O2 0.341807 0.506018 0.314444
O O3 0.264035 0.495430 0.097152
O O4 0.023924 0.110362 0.193406
O O5 0.281647 0.701083 0.744302
O O6 0.460653 0.724422 0.628012
O O7 0.233766 0.399680 0.779538
O O8 0.500000 0.000000 0.000000
O O9 0.849187 0.234485 0.203264
O O10 0.029882 0.757243 0.451135
O O11 0.620340 0.756620 0.400616
O O12 0.300630 0.215901 0.371588
O O13 0.823916 0.252948 0.735022
O O14 0.983780 0.752977 0.035927
O O15 0.000000 0.500000 0.000000
#
# Coordination Sequence:
#
# PCOD9076536 Si02
#       7
#     2   2   2   2   2   2   2
#     4  10  22  38  58  86 112 157 181 228 286 347
#     4  11  21  35  58  88 111 147 191 241 271 330
#     4   9  20  37  59  79 114 146 195 223 284 330
#     4  10  19  34  57  84 113 146 193 229 284 331
#     4   9  19  33  57  82 111 148 186 241 271 330
#     4  10  18  33  57  83 108 146 187 239 266 326
#     4  11  21  37  61  82 120 144 191 231 285 334
#
# _framework density 24.050640999999999
#
# number of rings (size 3 to 8) (size 9 to 14) (size 15 to 20)
#    0.857    1.143    1.429    3.429    0.000    2.857 
#    0.000    6.429    0.000    5.143    0.000    0.000 
#    0.000    0.000    0.000    0.000    0.000    0.000 
#
# Total GULP energy -78086.695905 kJ/mol
# GULP energy per Si atom -5577.621136 kJ/mol
# Density = 2.399590 g / cm^3
# Si number density = 24.050641 Si / 1000 Ang^3
#
#
#
# Elastic Constant Matrix: (Units=GPa)
#
#
# Indices 1 2 3 4 5 6 
#
# 1 70.3642 7.9555 29.4572 -11.2236 17.9223 17.8789
# 2 7.9555 41.0905 4.2693 6.7095 7.4771 13.5078
# 3 29.4572 4.2693 96.5177 -5.1063 19.8453 7.2608
# 4 -11.2236 6.7095 -5.1063 20.7637 -3.8266 4.1361
# 5 17.9223 7.4771 19.8453 -3.8266 36.3398 3.1973
# 6 17.8789 13.5078 7.2608 4.1361 3.1973 25.8502
#
#
#
# Elastic Compliance Matrix: (Units=1/GPa)
#
#
# Indices 1 2 3 4 5 6 
#
# 1 0.024211 0.000313 -0.003951 0.014185 -0.006838 -0.017223
# 2 0.000313 0.031590 0.000522 -0.008169 -0.006501 -0.014759
# 3 -0.003951 0.000522 0.012605 -0.000036 -0.005006 -0.000456
# 4 0.014185 -0.008169 -0.000036 0.062090 0.002632 -0.015792
# 5 -0.006838 -0.006501 -0.005006 0.002632 0.034817 0.004805
# 6 -0.017223 -0.014759 -0.000456 -0.015792 0.004805 0.060369
#
#
# Mechanical properties :
#
#
# Convention : Reuss Voigt Hill
#
# Bulk Modulus (GPa) = 16.08382 32.37068 24.22725
# Shear Modulus (GPa) = 19.79112 27.67677 23.73395
#
# Velocity S-wave (km/s) = 2.87172 3.39598 3.14480
# Velocity P-wave (km/s) = 4.20687 5.37266 4.82510
#
# Compressibility (1/GPa) = 0.06217427
#
# Stress axis : x y z
#
# Youngs Moduli (GPa) = 41.30390 31.65533 79.33194
#
# Poissons Ratio (x) = -0.00990 0.31343
# Poissons Ratio (y) = -0.01292 -0.04141
# Poissons Ratio (z) = 0.16319 -0.01652
#
# Static dielectric constant tensor:
#      x y z
#    x 1.946960 0.025870 -0.032410 
#    y 0.025870 1.976890 -0.047100 
#    z -0.032410 -0.047100 1.981800 
# 
# From -- ./inp_files/331259.got.cif
#   From: 2010.05.17/outbox.cif.g08.bks.cpg/sg2_166_cif.got.tgz:331259.got - 2010.06.03 11:33:40.
