data_PCOD9076656
_publ_section_title
;
Structure prediction by ZEFSAII (Michael W. Deem and Ramdas Pophale) SiO2 
 PCOD9076656
Probable space group: P -1
;
_chemical_formula_sum "Si O2"
_cell_formula_units_Z 16
_cell_length_a 10.011583
_cell_length_b 13.341667
_cell_length_c 8.645103
_cell_angle_alpha 45.802178
_cell_angle_beta 72.483919
_cell_angle_gamma 103.206893
_cell_volume 605.925377
_symmetry_space_group_name_H-M "P -1"
_symmetry_group_IT_number 2
_symmetry_cell_setting 'triclinic'
loop_
_space_group_symop_operation_xyz
x,y,z
-x,-y,-z
loop_
_atom_site_type_symbol
_atom_site_label
_atom_site_fract_x
_atom_site_fract_y
_atom_site_fract_z
Si Si1 0.620610 0.336994 0.944695
Si Si2 0.639284 0.011064 0.782541
Si Si3 0.807736 0.398710 0.366956
Si Si4 0.421688 0.221367 0.680206
Si Si5 0.997445 0.308131 0.646994
Si Si6 0.088631 0.008863 0.188512
Si Si7 0.695361 0.868441 0.537403
Si Si8 0.164139 0.751067 0.889199
O O1 0.536993 0.168174 0.040726
O O2 0.446262 0.301829 0.117695
O O3 0.785939 0.525844 0.609265
O O4 0.718553 0.314369 0.071589
O O5 0.711095 0.210772 0.507580
O O6 0.607812 0.951250 0.041244
O O7 0.813782 0.021198 0.682328
O O8 0.632337 0.386133 0.466803
O O9 0.899712 0.363357 0.511650
O O10 0.975844 0.596973 0.031754
O O11 0.377246 0.190991 0.548450
O O12 0.261270 0.202427 0.847071
O O13 0.970028 0.138417 0.765910
O O14 0.912675 0.264857 0.892351
O O15 0.906170 0.960346 0.363498
O O16 0.702016 0.033737 0.413660
#
# Coordination Sequence:
#
# PCOD9076656 Si02
#       8
#     2   2   2   2   2   2   2   2
#     4  11  23  38  61  91 117 147 192 250 295 328
#     4   9  19  35  60  84 113 150 198 233 284 341
#     4  10  18  33  58  87 111 141 196 247 277 324
#     4  10  19  35  62  86 109 157 195 231 285 347
#     4  10  20  37  63  89 114 147 201 243 278 347
#     4   9  22  37  62  82 115 161 197 225 287 348
#     4  12  23  40  57  85 126 155 188 234 295 352
#     4  11  21  36  61  89 118 151 192 241 290 346
#
# _framework density 26.405889999999999
#
# number of rings (size 3 to 8) (size 9 to 14) (size 15 to 20)
#    0.750    1.000    1.250    4.875    0.000    1.000 
#    0.000    8.750    0.000    0.000    0.000    0.000 
#    0.000    0.000    0.000    0.000    0.000    0.000 
#
# Total GULP energy -89351.555346 kJ/mol
# GULP energy per Si atom -5584.472209 kJ/mol
# Density = 2.634579 g / cm^3
# Si number density = 26.405890 Si / 1000 Ang^3
#
#
#
# Elastic Constant Matrix: (Units=GPa)
#
#
# Indices 1 2 3 4 5 6 
#
# 1 71.8306 1.6683 39.9595 4.9150 -35.2745 4.3428
# 2 1.6683 65.1029 22.8413 -3.2825 -8.3252 13.0990
# 3 39.9595 22.8413 156.0146 1.4224 -47.8147 10.2190
# 4 4.9150 -3.2825 1.4224 40.7067 3.7979 -6.8018
# 5 -35.2745 -8.3252 -47.8147 3.7979 57.4424 5.3955
# 6 4.3428 13.0990 10.2190 -6.8018 5.3955 36.8193
#
#
#
# Elastic Compliance Matrix: (Units=1/GPa)
#
#
# Indices 1 2 3 4 5 6 
#
# 1 0.022003 0.002643 -0.001426 -0.004662 0.013579 -0.005991
# 2 0.002643 0.017673 -0.001812 -0.000247 0.003315 -0.006628
# 3 -0.001426 -0.001812 0.009437 -0.001489 0.007109 -0.003123
# 4 -0.004662 -0.000247 -0.001489 0.026943 -0.006576 0.006992
# 5 0.013579 0.003315 0.007109 -0.006576 0.033603 -0.010893
# 6 -0.005991 -0.006628 -0.003123 0.006992 -0.010893 0.033979
#
#
# Mechanical properties :
#
#
# Convention : Reuss Voigt Hill
#
# Bulk Modulus (GPa) = 20.86665 46.87625 33.87145
# Shear Modulus (GPa) = 31.09416 42.22563 36.65989
#
# Velocity S-wave (km/s) = 3.43526 4.00321 3.73006
# Velocity P-wave (km/s) = 4.86355 6.25766 5.60413
#
# Compressibility (1/GPa) = 0.04792337
#
# Stress axis : x y z
#
# Youngs Moduli (GPa) = 45.44850 56.58242 105.96596
#
# Poissons Ratio (x) = -0.14956 0.15112
# Poissons Ratio (y) = -0.12013 0.19202
# Poissons Ratio (z) = 0.06482 0.10253
#
# Static dielectric constant tensor:
#      x y z
#    x 2.171790 -0.046800 -0.028290 
#    y -0.046800 2.210070 0.112990 
#    z -0.028290 0.112990 2.120620 
# 
# From -- ./inp_files/431039.got.cif
#   From: 2010.05.17/outbox.cif.g08.bks.cpg/sg2_216_cif.got.tgz:431039.got - 2010.06.03 11:33:40.
