data_PCOD9076483
_publ_section_title
;
Structure prediction by ZEFSAII (Michael W. Deem and Ramdas Pophale) SiO2 
 PCOD9076483
Probable space group: P -1
;
_chemical_formula_sum "Si O2"
_cell_formula_units_Z 13
_cell_length_a 13.747339
_cell_length_b 8.471910
_cell_length_c 9.589392
_cell_angle_alpha 69.110286
_cell_angle_beta 32.632683
_cell_angle_gamma 52.815644
_cell_volume 448.609153
_symmetry_space_group_name_H-M "P -1"
_symmetry_group_IT_number 2
_symmetry_cell_setting 'triclinic'
loop_
_space_group_symop_operation_xyz
x,y,z
-x,-y,-z
loop_
_atom_site_type_symbol
_atom_site_label
_atom_site_fract_x
_atom_site_fract_y
_atom_site_fract_z
Si Si1 0.630130 0.095104 0.455592
Si Si2 0.562878 0.812005 0.803265
Si Si3 0.873714 0.740322 0.688663
Si Si4 0.000000 0.000000 0.500000
Si Si5 0.393958 0.665065 0.838748
Si Si6 0.130904 0.760506 0.704682
Si Si7 0.150438 0.523343 0.998265
O O1 0.656571 0.133317 0.251503
O O2 0.805611 0.110075 0.323969
O O3 0.383864 0.305705 0.731885
O O4 0.640987 0.900491 0.563076
O O5 0.757147 0.695131 0.722559
O O6 0.468258 0.693427 0.891243
O O7 0.342321 0.018379 0.080279
O O8 0.039767 0.795829 0.431269
O O9 0.962927 0.567107 0.755851
O O10 0.014629 0.888278 0.665436
O O11 0.629443 0.451886 0.566319
O O12 0.221427 0.625710 0.992766
O O13 0.035382 0.677527 0.956167
#
# Coordination Sequence:
#
# PCOD9076483 Si02
#       7
#     2   2   2   1   2   2   2
#     4   8  14  31  55  83 109 135 173 223 263 313
#     4  10  18  33  56  86 108 133 182 225 262 313
#     4  10  22  35  54  78 110 146 176 215 268 320
#     4  12  22  38  56  72 108 156 178 208 268 332
#     4   9  17  30  59  87 107 131 176 232 269 296
#     4   9  18  34  56  80 107 142 179 211 266 319
#     4   8  17  34  54  82 107 134 179 224 259 312
#
# _framework density 28.978452000000001
#
# number of rings (size 3 to 8) (size 9 to 14) (size 15 to 20)
#    0.000    2.769    1.538    2.308    2.154    1.231 
#    0.000    0.769    0.000    3.692    0.000    0.000 
#    0.000    0.000    0.000    0.000    0.000    0.000 
#
# Total GULP energy -72634.141158 kJ/mol
# GULP energy per Si atom -5587.241628 kJ/mol
# Density = 2.891250 g / cm^3
# Si number density = 28.978452 Si / 1000 Ang^3
#
#
#
# Elastic Constant Matrix: (Units=GPa)
#
#
# Indices 1 2 3 4 5 6 
#
# 1 181.7623 69.4734 28.0752 -31.3254 17.1822 -5.7733
# 2 69.4734 179.5586 61.1484 -48.9357 3.2290 -19.9349
# 3 28.0752 61.1484 50.3291 -11.7158 8.9769 2.0508
# 4 -31.3254 -48.9357 -11.7158 61.0859 -0.3745 3.3596
# 5 17.1822 3.2290 8.9769 -0.3745 42.0175 -3.4688
# 6 -5.7733 -19.9349 2.0508 3.3596 -3.4688 53.8088
#
#
#
# Elastic Compliance Matrix: (Units=1/GPa)
#
#
# Indices 1 2 3 4 5 6 
#
# 1 0.006887 -0.001934 -0.000594 0.001866 -0.002544 -0.000236
# 2 -0.001934 0.013808 -0.014904 0.006943 0.003410 0.005263
# 3 -0.000594 -0.014904 0.038925 -0.004425 -0.007568 -0.007281
# 4 0.001866 0.006943 -0.004425 0.021954 -0.000026 0.001569
# 5 -0.002544 0.003410 -0.007568 -0.000026 0.026441 0.002985
# 6 -0.000236 0.005263 -0.007281 0.001569 0.002985 0.020881
#
#
# Mechanical properties :
#
#
# Convention : Reuss Voigt Hill
#
# Bulk Modulus (GPa) = 40.39501 81.00492 60.69997
# Shear Modulus (GPa) = 29.06741 48.24597 38.65669
#
# Velocity S-wave (km/s) = 3.17056 4.08473 3.65633
# Velocity P-wave (km/s) = 5.23194 7.08949 6.23034
#
# Compressibility (1/GPa) = 0.02475553
#
# Stress axis : x y z
#
# Youngs Moduli (GPa) = 145.19384 72.42001 25.69017
#
# Poissons Ratio (x) = 0.14009 0.01526
# Poissons Ratio (y) = 0.28087 0.38289
# Poissons Ratio (z) = 0.08627 1.07936
#
# Static dielectric constant tensor:
#      x y z
#    x 2.481930 0.253440 -2.695870 
#    y 0.253440 2.465450 -3.184970 
#    z -2.695870 -3.184970 44.780580 
# 
# From -- ./inp_files/150290.got.cif
#   From: 2010.05.17/outbox.cif.g08.bks.cpg/sg2_76_cif.got.tgz:150290.got - 2010.06.03 11:33:40.
