data_PCOD9076554
_publ_section_title
;
Structure prediction by ZEFSAII (Michael W. Deem and Ramdas Pophale) SiO2 
 PCOD9076554
Probable space group: P -1
;
_chemical_formula_sum "Si O2"
_cell_formula_units_Z 16
_cell_length_a 15.288257
_cell_length_b 23.961251
_cell_length_c 13.304303
_cell_angle_alpha 32.951413
_cell_angle_beta 32.634964
_cell_angle_gamma 15.960892
_cell_volume 708.319658
_symmetry_space_group_name_H-M "P -1"
_symmetry_group_IT_number 2
_symmetry_cell_setting 'triclinic'
loop_
_space_group_symop_operation_xyz
x,y,z
-x,-y,-z
loop_
_atom_site_type_symbol
_atom_site_label
_atom_site_fract_x
_atom_site_fract_y
_atom_site_fract_z
Si Si1 0.479350 0.965802 0.445627
Si Si2 0.842268 0.256612 0.016454
Si Si3 0.089492 0.387080 0.184088
Si Si4 0.886935 0.055437 0.638521
Si Si5 0.757561 0.721844 0.119927
Si Si6 0.576978 0.912896 0.212897
Si Si7 0.974474 0.217628 0.723681
Si Si8 0.503400 0.549363 0.529274
O O1 0.230206 0.050479 0.637958
O O2 0.381080 0.143123 0.261381
O O3 0.470573 0.925537 0.403873
O O4 0.846485 0.774133 0.424753
O O5 0.121963 0.178849 0.906897
O O6 0.912985 0.196218 0.921545
O O7 0.500000 0.500000 0.000000
O O8 0.869835 0.138140 0.232549
O O9 0.074386 0.483057 0.139565
O O10 0.796678 0.469377 0.360185
O O11 0.000000 0.500000 0.000000
O O12 0.550901 0.174639 0.778336
O O13 0.816166 0.209128 0.509124
O O14 0.000000 0.000000 0.500000
O O15 0.704579 0.769698 0.217027
O O16 0.707369 0.858881 0.905616
O O17 0.623152 0.417371 0.707200
O O18 0.500000 0.500000 0.500000
#
# Coordination Sequence:
#
# PCOD9076554 Si02
#       8
#     2   2   2   2   2   2   2   2
#     4   9  17  32  58  82 112 152 191 236 297 357
#     4  10  20  37  59  84 122 160 192 239 303 363
#     4  10  18  33  57  85 116 149 191 250 295 347
#     4  10  21  37  60  83 115 156 195 239 292 354
#     4   9  18  32  53  86 114 141 189 242 289 337
#     4   9  17  32  55  85 112 145 191 236 287 347
#     4   9  19  35  57  82 112 154 195 235 300 353
#     4  10  22  39  57  83 115 155 200 244 290 358
#
# _framework density 22.588671999999999
#
# number of rings (size 3 to 8) (size 9 to 14) (size 15 to 20)
#    0.000    2.500    1.250    0.750    1.750    2.000 
#    4.500    1.875    0.000   43.500    0.000    0.000 
#    0.000    0.000    0.000    0.000    0.000    0.000 
#
# Total GULP energy -89169.564314 kJ/mol
# GULP energy per Si atom -5573.097770 kJ/mol
# Density = 2.253726 g / cm^3
# Si number density = 22.588672 Si / 1000 Ang^3
#
#
#
# Elastic Constant Matrix: (Units=GPa)
#
#
# Indices 1 2 3 4 5 6 
#
# 1 104.7228 49.6020 30.8889 -9.7103 39.6199 25.8113
# 2 49.6020 107.9704 36.6215 -7.3398 27.1030 20.4436
# 3 30.8889 36.6215 97.1624 3.8368 46.2218 8.8737
# 4 -9.7103 -7.3398 3.8368 25.0179 2.9363 9.5025
# 5 39.6199 27.1030 46.2218 2.9363 46.0520 12.5817
# 6 25.8113 20.4436 8.8737 9.5025 12.5817 44.1642
#
#
#
# Elastic Compliance Matrix: (Units=1/GPa)
#
#
# Indices 1 2 3 4 5 6 
#
# 1 0.019566 -0.003704 0.003320 0.010994 -0.016485 -0.008057
# 2 -0.003704 0.013343 -0.003517 0.004655 -0.000278 -0.004227
# 3 0.003320 -0.003517 0.021104 -0.001138 -0.022467 0.002093
# 4 0.010994 0.004655 -0.001138 0.053405 -0.009803 -0.017049
# 5 -0.016485 -0.000278 -0.022467 -0.009803 0.059381 -0.000530
# 6 -0.008057 -0.004227 0.002093 -0.017049 -0.000530 0.032707
#
#
# Mechanical properties :
#
#
# Convention : Reuss Voigt Hill
#
# Bulk Modulus (GPa) = 21.63967 60.45336 41.04652
# Shear Modulus (GPa) = 22.45046 35.89636 29.17341
#
# Velocity S-wave (km/s) = 3.15601 3.99072 3.59765
# Velocity P-wave (km/s) = 4.78343 6.93219 5.95552
#
# Compressibility (1/GPa) = 0.04621142
#
# Stress axis : x y z
#
# Youngs Moduli (GPa) = 51.10847 74.94628 47.38388
#
# Poissons Ratio (x) = 0.27758 -0.15730
# Poissons Ratio (y) = 0.18929 0.16665
# Poissons Ratio (z) = -0.16967 0.26359
#
# Static dielectric constant tensor:
#      x y z
#    x 2.112200 -0.144120 0.063360 
#    y -0.144120 2.012600 -0.053970 
#    z 0.063360 -0.053970 1.952320 
# 
# From -- ./inp_files/457476.got.cif
#   From: 2010.05.17/outbox.cif.g08.bks.cpg/sg2_229_cif.got.tgz:457476.got - 2010.06.03 11:33:40.
