data_PCOD9076386
_publ_section_title
;
Structure prediction by ZEFSAII (Michael W. Deem and Ramdas Pophale) SiO2 
 PCOD9076386
Probable space group: P -1
;
_chemical_formula_sum "Si O2"
_cell_formula_units_Z 16
_cell_length_a 10.782471
_cell_length_b 12.706234
_cell_length_c 9.135361
_cell_angle_alpha 134.733815
_cell_angle_beta 85.589607
_cell_angle_gamma 114.846921
_cell_volume 758.891562
_symmetry_space_group_name_H-M "P -1"
_symmetry_group_IT_number 2
_symmetry_cell_setting 'triclinic'
loop_
_space_group_symop_operation_xyz
x,y,z
-x,-y,-z
loop_
_atom_site_type_symbol
_atom_site_label
_atom_site_fract_x
_atom_site_fract_y
_atom_site_fract_z
Si Si1 0.112354 0.009160 0.705899
Si Si2 0.550196 0.181415 0.098527
Si Si3 0.264858 0.916864 0.189047
Si Si4 0.605744 0.791997 0.302544
Si Si5 0.655864 0.527973 0.470625
Si Si6 0.678672 0.495700 0.089050
Si Si7 0.027167 0.254996 0.790446
Si Si8 0.766678 0.898898 0.912722
O O1 0.273545 0.079453 0.697193
O O2 0.073024 0.150035 0.793270
O O3 0.119943 0.999781 0.869496
O O4 0.005926 0.838834 0.456958
O O5 0.645767 0.352679 0.357718
O O6 0.395911 0.167140 0.072903
O O7 0.649897 0.176923 0.957571
O O8 0.500000 0.000000 0.000000
O O9 0.123406 0.785323 0.166127
O O10 0.368573 0.088493 0.442668
O O11 0.219729 0.988433 0.120992
O O12 0.647005 0.647665 0.195257
O O13 0.446047 0.682433 0.143700
O O14 0.500000 0.500000 0.500000
O O15 0.669782 0.503341 0.272627
O O16 0.765898 0.723719 0.700485
O O17 0.835902 0.556540 0.066286
#
# Coordination Sequence:
#
# PCOD9076386 Si02
#       8
#     2   2   2   2   2   2   2   2
#     4   9  18  34  56  86 116 147 190 242 279 335
#     4   9  20  36  55  82 122 151 180 238 292 339
#     4  10  19  37  58  85 118 156 186 229 292 347
#     4   9  17  31  56  82 112 149 188 235 285 330
#     4  10  19  33  55  85 111 140 192 242 278 322
#     4  10  18  33  55  85 115 145 192 242 278 327
#     4   9  20  36  55  84 122 153 183 231 298 342
#     4  10  19  34  60  89 109 144 201 242 276 323
#
# _framework density 21.083382
#
# number of rings (size 3 to 8) (size 9 to 14) (size 15 to 20)
#    0.000    2.500    1.250    2.250    0.000    0.500 
#    0.000    6.250    0.000    0.750    0.000    0.000 
#    0.000    0.000    0.000    0.000    0.000    0.000 
#
# Total GULP energy -89159.201650 kJ/mol
# GULP energy per Si atom -5572.450103 kJ/mol
# Density = 2.103539 g / cm^3
# Si number density = 21.083382 Si / 1000 Ang^3
#
#
#
# Elastic Constant Matrix: (Units=GPa)
#
#
# Indices 1 2 3 4 5 6 
#
# 1 63.1506 38.0868 55.3405 4.9453 -2.8205 20.8566
# 2 38.0868 71.9644 41.8063 -3.6325 4.9174 12.6159
# 3 55.3405 41.8063 108.6747 -9.0350 1.0408 -7.1818
# 4 4.9453 -3.6325 -9.0350 32.2887 -1.3923 0.7366
# 5 -2.8205 4.9174 1.0408 -1.3923 31.1909 -0.1862
# 6 20.8566 12.6159 -7.1818 0.7366 -0.1862 45.1429
#
#
#
# Elastic Compliance Matrix: (Units=1/GPa)
#
#
# Indices 1 2 3 4 5 6 
#
# 1 0.059391 -0.010520 -0.029638 -0.017609 0.007059 -0.028898
# 2 -0.010520 0.021895 -0.002884 0.003128 -0.004178 -0.001786
# 3 -0.029638 -0.002884 0.027612 0.011406 -0.002526 0.018695
# 4 -0.017609 0.003128 0.011406 0.036985 -0.000765 0.008469
# 5 0.007059 -0.004178 -0.002526 -0.000765 0.033394 -0.002346
# 6 -0.028898 -0.001786 0.018695 0.008469 -0.002346 0.038828
#
#
# Mechanical properties :
#
#
# Convention : Reuss Voigt Hill
#
# Bulk Modulus (GPa) = 43.83238 57.13965 50.48601
# Shear Modulus (GPa) = 16.03634 28.96158 22.49896
#
# Velocity S-wave (km/s) = 2.76092 3.71032 3.27026
# Velocity P-wave (km/s) = 5.56765 6.74655 6.18525
#
# Compressibility (1/GPa) = 0.02281418
#
# Stress axis : x y z
#
# Youngs Moduli (GPa) = 16.83771 45.67255 36.21660
#
# Poissons Ratio (x) = 0.48046 1.07339
# Poissons Ratio (y) = 0.17713 0.10444
# Poissons Ratio (z) = 0.49904 0.13171
#
# Static dielectric constant tensor:
#      x y z
#    x 1.799090 0.010990 -0.000020 
#    y 0.010990 1.842360 -0.003430 
#    z -0.000020 -0.003430 1.747840 
# 
# From -- ./inp_files/274635.got.cif
#   From: 2010.05.17/outbox.cif.g08.bks.cpg/sg2_138_cif.got.tgz:274635.got - 2010.06.03 11:33:40.
