data_PCOD9076769
_publ_section_title
;
Structure prediction by ZEFSAII (Michael W. Deem and Ramdas Pophale) SiO2 
 PCOD9076769
Probable space group: P -1
;
_chemical_formula_sum "Si O2"
_cell_formula_units_Z 14
_cell_length_a 14.787924
_cell_length_b 13.036464
_cell_length_c 17.720922
_cell_angle_alpha 148.812770
_cell_angle_beta 18.697855
_cell_angle_gamma 148.099931
_cell_volume 551.547102
_symmetry_space_group_name_H-M "P -1"
_symmetry_group_IT_number 2
_symmetry_cell_setting 'triclinic'
loop_
_space_group_symop_operation_xyz
x,y,z
-x,-y,-z
loop_
_atom_site_type_symbol
_atom_site_label
_atom_site_fract_x
_atom_site_fract_y
_atom_site_fract_z
Si Si1 0.012389 0.440352 0.662568
Si Si2 0.241802 0.871856 0.222329
Si Si3 0.496720 0.329520 0.661055
Si Si4 0.171844 0.799933 0.065645
Si Si5 0.582518 0.945053 0.594707
Si Si6 0.850313 0.379674 0.180159
Si Si7 0.287606 0.189606 0.893631
O O1 0.261069 0.462804 0.416568
O O2 0.193376 0.482011 0.626371
O O3 0.781530 0.244866 0.752907
O O4 0.844477 0.610408 0.876197
O O5 0.167507 0.742041 0.121189
O O6 0.000000 0.000000 0.500000
O O7 0.547115 0.020828 0.058146
O O8 0.522497 0.177904 0.477770
O O9 0.491669 0.225874 0.680705
O O10 0.173695 0.357991 0.926309
O O11 0.897647 0.901065 0.331545
O O12 0.193032 0.623127 0.877304
O O13 0.373679 0.830925 0.752600
O O14 0.497682 0.155867 0.773962
O O15 0.000000 0.000000 0.000000
#
# Coordination Sequence:
#
# PCOD9076769 Si02
#       7
#     2   2   2   2   2   2   2
#     4  10  22  36  61  96 124 156 204 251 299 365
#     4  11  25  46  62  82 119 169 215 250 299 361
#     4   9  17  30  55  91 128 158 185 236 305 362
#     4  10  23  41  68  83 116 171 203 255 308 353
#     4  10  18  33  59  94 124 156 194 245 305 366
#     4   9  18  36  60  95 120 150 201 253 303 356
#     4  11  18  32  60  95 131 157 190 244 307 370
#
# _framework density 25.383143
#
# number of rings (size 3 to 8) (size 9 to 14) (size 15 to 20)
#    0.000    2.000    4.286    1.286    0.000    5.143 
#    0.000   10.714    0.000    4.286    0.000    0.000 
#    0.000    0.000    0.000    0.000    0.000    0.000 
#
# Total GULP energy -78106.182784 kJ/mol
# GULP energy per Si atom -5579.013056 kJ/mol
# Density = 2.532537 g / cm^3
# Si number density = 25.383143 Si / 1000 Ang^3
#
#
#
# Elastic Constant Matrix: (Units=GPa)
#
#
# Indices 1 2 3 4 5 6 
#
# 1 120.6809 14.1300 17.7940 -11.6271 12.4780 -20.8190
# 2 14.1300 97.0036 33.4179 -22.5824 -0.5301 -35.6666
# 3 17.7940 33.4179 123.4980 -25.3708 -21.4967 -24.3875
# 4 -11.6271 -22.5824 -25.3708 46.1558 -15.5572 18.1834
# 5 12.4780 -0.5301 -21.4967 -15.5572 47.7466 -2.1192
# 6 -20.8190 -35.6666 -24.3875 18.1834 -2.1192 46.3224
#
#
#
# Elastic Compliance Matrix: (Units=1/GPa)
#
#
# Indices 1 2 3 4 5 6 
#
# 1 0.009377 0.000345 -0.001398 -0.000860 -0.003182 0.003937
# 2 0.000345 0.015096 -0.001384 0.003135 0.000913 0.009861
# 3 -0.001398 -0.001384 0.012110 0.007638 0.008382 0.002066
# 4 -0.000860 0.003135 0.007638 0.034906 0.014762 -0.006978
# 5 -0.003182 0.000913 0.008382 0.014762 0.030338 -0.000721
# 6 0.003937 0.009861 0.002066 -0.006978 -0.000721 0.034744
#
#
# Mechanical properties :
#
#
# Convention : Reuss Voigt Hill
#
# Bulk Modulus (GPa) = 31.53652 52.42957 41.98305
# Shear Modulus (GPa) = 32.89169 46.43431 39.66300
#
# Velocity S-wave (km/s) = 3.60364 4.28171 3.95723
# Velocity P-wave (km/s) = 5.45583 6.71894 6.12006
#
# Compressibility (1/GPa) = 0.03170927
#
# Stress axis : x y z
#
# Youngs Moduli (GPa) = 106.64188 66.24247 82.57895
#
# Poissons Ratio (x) = -0.02288 0.11542
# Poissons Ratio (y) = -0.03683 0.11432
# Poissons Ratio (z) = 0.14906 0.09171
#
# Static dielectric constant tensor:
#      x y z
#    x 2.070260 0.120800 0.065490 
#    y 0.120800 2.199510 0.032170 
#    z 0.065490 0.032170 1.989630 
# 
# From -- ./inp_files/28333.got.cif
#   From: 2010.05.17/outbox.cif.g08.bks.cpg/sg2_15_cif.got.tgz:28333.got - 2010.06.03 11:33:40.
