data_PCOD9076790
_publ_section_title
;
Structure prediction by ZEFSAII (Michael W. Deem and Ramdas Pophale) SiO2 
 PCOD9076790
Probable space group: P -1
;
_chemical_formula_sum "Si O2"
_cell_formula_units_Z 16
_cell_length_a 11.289409
_cell_length_b 16.072810
_cell_length_c 9.717960
_cell_angle_alpha 48.078987
_cell_angle_beta 37.450241
_cell_angle_gamma 35.296272
_cell_volume 618.526314
_symmetry_space_group_name_H-M "P -1"
_symmetry_group_IT_number 2
_symmetry_cell_setting 'triclinic'
loop_
_space_group_symop_operation_xyz
x,y,z
-x,-y,-z
loop_
_atom_site_type_symbol
_atom_site_label
_atom_site_fract_x
_atom_site_fract_y
_atom_site_fract_z
Si Si1 0.253566 0.789293 0.708747
Si Si2 0.149697 0.941661 0.068724
Si Si3 0.682477 0.040766 0.753309
Si Si4 0.936810 0.214849 0.468369
Si Si5 0.525214 0.661943 0.888424
Si Si6 0.998790 0.530579 0.183926
Si Si7 0.289670 0.277833 0.001104
Si Si8 0.590901 0.485301 0.639009
O O1 0.342903 0.868737 0.456176
O O2 0.430566 0.713969 0.764690
O O3 0.330130 0.648087 0.711725
O O4 0.970303 0.910270 0.897519
O O5 0.045709 0.872411 0.322362
O O6 0.430011 0.805354 0.906812
O O7 0.000000 0.000000 0.000000
O O8 0.585789 0.156823 0.836817
O O9 0.964481 0.892224 0.635893
O O10 0.500000 0.000000 0.000000
O O11 0.679451 0.375419 0.550725
O O12 0.159136 0.225206 0.259906
O O13 0.819493 0.526943 0.789461
O O14 0.396399 0.601014 0.146012
O O15 0.835895 0.678631 0.084399
O O16 0.800450 0.505350 0.423682
O O17 0.201520 0.420846 0.000217
#
# Coordination Sequence:
#
# PCOD9076790 Si02
#       8
#     2   2   2   2   2   2   2   2
#     4  10  18  33  60  83 115 154 186 233 287 332
#     4   8  16  32  54  77 109 151 184 225 283 332
#     4   9  16  31  57  82 107 150 193 223 278 342
#     4   8  16  29  54  79 102 147 189 217 279 336
#     4  10  21  36  58  86 116 149 189 234 283 339
#     4  10  20  35  58  86 114 148 190 232 285 337
#     4   9  17  33  54  81 114 147 187 235 279 334
#     4  10  19  35  56  84 119 147 183 234 285 335
#
# _framework density 25.867937999999999
#
# number of rings (size 3 to 8) (size 9 to 14) (size 15 to 20)
#    0.000    2.750    1.250    0.375    0.000    0.500 
#    0.000   10.000   11.000   74.250    0.000    0.000 
#    0.000    0.000    0.000    0.000    0.000    0.000 
#
# Total GULP energy -89191.058170 kJ/mol
# GULP energy per Si atom -5574.441136 kJ/mol
# Density = 2.580906 g / cm^3
# Si number density = 25.867938 Si / 1000 Ang^3
#
#
#
# Elastic Constant Matrix: (Units=GPa)
#
#
# Indices 1 2 3 4 5 6 
#
# 1 64.4341 40.8678 41.4526 -8.0696 15.3325 -0.1196
# 2 40.8678 204.8009 48.0342 23.2521 21.7547 5.1630
# 3 41.4526 48.0342 132.5256 -11.0040 4.9691 -9.5194
# 4 -8.0696 23.2521 -11.0040 58.2003 2.4083 13.3351
# 5 15.3325 21.7547 4.9691 2.4083 35.6564 12.3678
# 6 -0.1196 5.1630 -9.5194 13.3351 12.3678 55.3368
#
#
#
# Elastic Compliance Matrix: (Units=1/GPa)
#
#
# Indices 1 2 3 4 5 6 
#
# 1 0.023286 -0.002918 -0.005620 0.003602 -0.007771 0.000225
# 2 -0.002918 0.006451 -0.001576 -0.003283 -0.002395 0.000447
# 3 -0.005620 -0.001576 0.010022 0.001412 0.001473 0.001189
# 4 0.003602 -0.003283 0.001412 0.020255 0.000422 -0.004418
# 5 -0.007771 -0.002395 0.001473 0.000422 0.035220 -0.007513
# 6 0.000225 0.000447 0.001189 -0.004418 -0.007513 0.020979
#
#
# Mechanical properties :
#
#
# Convention : Reuss Voigt Hill
#
# Bulk Modulus (GPa) = 51.19772 73.60777 62.40275
# Shear Modulus (GPa) = 34.97714 47.93242 41.45478
#
# Velocity S-wave (km/s) = 3.68114 4.30928 4.00753
# Velocity P-wave (km/s) = 6.15651 7.29910 6.75202
#
# Compressibility (1/GPa) = 0.01953212
#
# Stress axis : x y z
#
# Youngs Moduli (GPa) = 42.94350 155.02622 99.77953
#
# Poissons Ratio (x) = 0.45235 0.56071
# Poissons Ratio (y) = 0.12531 0.15725
# Poissons Ratio (z) = 0.24132 0.24432
#
# Static dielectric constant tensor:
#      x y z
#    x 2.163370 0.051060 0.038820 
#    y 0.051060 2.189330 0.037640 
#    z 0.038820 0.037640 1.972480 
# 
# From -- ./inp_files/457462.got.cif
#   From: 2010.05.17/outbox.cif.g08.bks.cpg/sg2_229_cif.got.tgz:457462.got - 2010.06.03 11:33:40.
