data_PCOD9076244
_publ_section_title
;
Structure prediction by ZEFSAII (Michael W. Deem and Ramdas Pophale) SiO2 
 PCOD9076244
Probable space group: P -1
;
_chemical_formula_sum "Si O2"
_cell_formula_units_Z 16
_cell_length_a 20.101809
_cell_length_b 10.103114
_cell_length_c 15.686696
_cell_angle_alpha 129.576245
_cell_angle_beta 28.366096
_cell_angle_gamma 147.910285
_cell_volume 726.175879
_symmetry_space_group_name_H-M "P -1"
_symmetry_group_IT_number 2
_symmetry_cell_setting 'triclinic'
loop_
_space_group_symop_operation_xyz
x,y,z
-x,-y,-z
loop_
_atom_site_type_symbol
_atom_site_label
_atom_site_fract_x
_atom_site_fract_y
_atom_site_fract_z
Si Si1 0.141080 0.380406 0.800212
Si Si2 0.753321 0.204285 0.062493
Si Si3 0.994773 0.844467 0.753400
Si Si4 0.552646 0.179433 0.593413
Si Si5 0.898089 0.015826 0.495845
Si Si6 0.947042 0.205776 0.702908
Si Si7 0.396020 0.405351 0.810320
Si Si8 0.617714 0.749214 0.406907
O O1 0.180511 0.531635 0.902243
O O2 0.052326 0.104676 0.798821
O O3 0.389016 0.616614 0.575903
O O4 0.963669 0.309377 0.913288
O O5 0.548606 0.980539 0.267024
O O6 0.749471 0.116363 0.938245
O O7 0.004365 0.809314 0.628810
O O8 0.197871 0.966690 0.632615
O O9 0.752363 0.608057 0.972221
O O10 0.438723 0.259358 0.744360
O O11 0.819089 0.467847 0.415766
O O12 0.500000 0.000000 0.500000
O O13 0.639377 0.720158 0.648034
O O14 0.020857 0.952900 0.355515
O O15 0.909683 0.140136 0.618323
O O16 0.278006 0.247808 0.789417
O O17 0.500000 0.500000 0.500000
#
# Coordination Sequence:
#
# PCOD9076244 Si02
#       8
#     2   2   2   2   2   2   2   2
#     4  10  18  33  53  79 112 138 165 225 273 308
#     4  11  19  34  53  78 113 139 172 214 268 325
#     4  11  20  34  54  80 108 141 180 221 264 310
#     4  11  21  31  54  83 111 139 172 218 271 320
#     4  10  20  36  50  75 113 142 177 219 257 317
#     4  10  21  34  52  76 110 148 174 211 268 314
#     4  11  19  33  53  81 105 138 180 216 271 316
#     4  10  19  33  53  77 112 136 174 223 274 307
#
# _framework density 22.033231000000001
#
# number of rings (size 3 to 8) (size 9 to 14) (size 15 to 20)
#    0.000    1.500    5.000    3.375    0.000    1.000 
#    0.000    3.750    0.000    0.750    0.000    4.375 
#    0.000    0.000    0.000    0.000    0.000    0.000 
#
# Total GULP energy -89274.083884 kJ/mol
# GULP energy per Si atom -5579.630243 kJ/mol
# Density = 2.198308 g / cm^3
# Si number density = 22.033231 Si / 1000 Ang^3
#
#
#
# Elastic Constant Matrix: (Units=GPa)
#
#
# Indices 1 2 3 4 5 6 
#
# 1 41.3353 5.4995 13.1328 -3.5322 20.7856 13.5825
# 2 5.4995 48.5574 9.8080 21.4993 15.6715 14.7105
# 3 13.1328 9.8080 105.6744 6.0530 27.7646 12.8257
# 4 -3.5322 21.4993 6.0530 23.3477 14.6201 9.2622
# 5 20.7856 15.6715 27.7646 14.6201 40.0157 12.5730
# 6 13.5825 14.7105 12.8257 9.2622 12.5730 31.4042
#
#
#
# Elastic Compliance Matrix: (Units=1/GPa)
#
#
# Indices 1 2 3 4 5 6 
#
# 1 0.053833 -0.009932 0.003843 0.047760 -0.038225 -0.018983
# 2 -0.009932 0.038406 -0.001314 -0.038960 0.006621 -0.004318
# 3 0.003843 -0.001314 0.012124 0.007202 -0.011408 -0.003555
# 4 0.047760 -0.038960 0.007202 0.126239 -0.054096 -0.020922
# 5 -0.038225 0.006621 -0.011408 -0.054096 0.067759 0.006917
# 6 -0.018983 -0.004318 -0.003555 -0.020922 0.006917 0.046929
#
#
# Mechanical properties :
#
#
# Convention : Reuss Voigt Hill
#
# Bulk Modulus (GPa) = 11.16618 28.04973 19.60795
# Shear Modulus (GPa) = 12.82224 30.09531 21.45877
#
# Velocity S-wave (km/s) = 2.41498 3.69983 3.12417
# Velocity P-wave (km/s) = 3.58539 5.56865 4.68321
#
# Compressibility (1/GPa) = 0.08955618
#
# Stress axis : x y z
#
# Youngs Moduli (GPa) = 18.57595 26.03777 82.48393
#
# Poissons Ratio (x) = 0.25861 -0.31698
# Poissons Ratio (y) = 0.18449 0.10840
# Poissons Ratio (z) = -0.07139 0.03422
#
# Static dielectric constant tensor:
#      x y z
#    x 1.918600 -0.010320 -0.011150 
#    y -0.010320 1.812540 0.036340 
#    z -0.011150 0.036340 1.889730 
# 
# From -- ./inp_files/431107.got.cif
#   From: 2010.05.17/outbox.cif.g08.bks.cpg/sg2_216_cif.got.tgz:431107.got - 2010.06.03 11:33:40.
