data_PCOD9076289
_publ_section_title
;
Structure prediction by ZEFSAII (Michael W. Deem and Ramdas Pophale) SiO2 
 PCOD9076289
Probable space group: P -1
;
_chemical_formula_sum "Si O2"
_cell_formula_units_Z 16
_cell_length_a 14.875595
_cell_length_b 9.117980
_cell_length_c 20.930981
_cell_angle_alpha 96.460733
_cell_angle_beta 20.968970
_cell_angle_gamma 111.663742
_cell_volume 676.019356
_symmetry_space_group_name_H-M "P -1"
_symmetry_group_IT_number 2
_symmetry_cell_setting 'triclinic'
loop_
_space_group_symop_operation_xyz
x,y,z
-x,-y,-z
loop_
_atom_site_type_symbol
_atom_site_label
_atom_site_fract_x
_atom_site_fract_y
_atom_site_fract_z
Si Si1 0.054638 0.137339 0.672638
Si Si2 0.890988 0.074365 0.169113
Si Si3 0.244143 0.691810 0.131652
Si Si4 0.334488 0.319729 0.244140
Si Si5 0.020676 0.654309 0.616939
Si Si6 0.138015 0.877382 0.949408
Si Si7 0.928111 0.147846 0.284923
Si Si8 0.571548 0.794362 0.696555
O O1 0.001994 0.283970 0.732447
O O2 0.358036 0.244508 0.421291
O O3 0.131300 0.051886 0.671985
O O4 0.648284 0.921918 0.900461
O O5 0.078777 0.217625 0.116009
O O6 0.018990 0.199699 0.022586
O O7 0.459135 0.930954 0.458996
O O8 0.929077 0.914393 0.128427
O O9 0.040627 0.529108 0.318918
O O10 0.340495 0.614827 0.010193
O O11 0.434258 0.332038 0.251490
O O12 0.215730 0.419354 0.293340
O O13 0.946241 0.055546 0.476282
O O14 0.448320 0.872318 0.326122
O O15 0.893974 0.716385 0.759573
O O16 0.228493 0.761153 0.917239
#
# Coordination Sequence:
#
# PCOD9076289 Si02
#       8
#     2   2   2   2   2   2   2   2
#     4  10  19  34  50  80 105 139 174 213 253 309
#     4   9  18  31  55  82  98 132 179 224 252 302
#     4  10  20  32  53  75 111 140 170 207 255 317
#     4   9  17  29  49  74 103 143 164 199 255 312
#     4  10  18  35  51  78 111 138 166 215 257 307
#     4   9  17  33  55  81 102 135 176 215 262 300
#     4  10  18  33  54  80 104 131 177 221 255 296
#     4   9  16  31  48  75 107 132 170 209 252 311
#
# _framework density 23.667960999999998
#
# number of rings (size 3 to 8) (size 9 to 14) (size 15 to 20)
#    0.000    2.500    5.000    0.375    1.750    0.000 
#    2.250    1.875    0.000    7.500    0.000    0.000 
#    0.000    0.000    0.000    0.000    0.000    0.250 
#
# Total GULP energy -89288.078050 kJ/mol
# GULP energy per Si atom -5580.504878 kJ/mol
# Density = 2.361409 g / cm^3
# Si number density = 23.667961 Si / 1000 Ang^3
#
#
#
# Elastic Constant Matrix: (Units=GPa)
#
#
# Indices 1 2 3 4 5 6 
#
# 1 120.8750 29.6451 45.0805 8.5197 3.2004 -17.1688
# 2 29.6451 62.2119 40.6443 23.1210 -11.0929 -24.1880
# 3 45.0805 40.6443 50.5597 18.0221 -7.2628 -11.5008
# 4 8.5197 23.1210 18.0221 37.9683 -5.7613 -4.7064
# 5 3.2004 -11.0929 -7.2628 -5.7613 24.0400 0.1670
# 6 -17.1688 -24.1880 -11.5008 -4.7064 0.1670 37.9524
#
#
#
# Elastic Compliance Matrix: (Units=1/GPa)
#
#
# Indices 1 2 3 4 5 6 
#
# 1 0.013769 0.003856 -0.015727 0.001879 -0.004384 0.004173
# 2 0.003856 0.051396 -0.033985 -0.011704 0.009973 0.022706
# 3 -0.015727 -0.033985 0.061148 -0.005610 0.003618 -0.010956
# 4 0.001879 -0.011704 -0.005610 0.035396 0.001165 -0.003925
# 5 -0.004384 0.009973 0.003618 0.001165 0.048117 0.005402
# 6 0.004173 0.022706 -0.010956 -0.003925 0.005402 0.038877
#
#
# Mechanical properties :
#
#
# Convention : Reuss Voigt Hill
#
# Bulk Modulus (GPa) = 28.90086 51.59848 40.24967
# Shear Modulus (GPa) = 14.20656 27.87725 21.04190
#
# Velocity S-wave (km/s) = 2.45265 3.43570 2.98492
# Velocity P-wave (km/s) = 4.50090 6.13083 5.37797
#
# Compressibility (1/GPa) = 0.03460105
#
# Stress axis : x y z
#
# Youngs Moduli (GPa) = 72.62660 19.45679 16.35365
#
# Poissons Ratio (x) = -0.07502 0.25719
# Poissons Ratio (y) = -0.28003 0.55578
# Poissons Ratio (z) = 1.14219 0.66124
#
# Static dielectric constant tensor:
#      x y z
#    x 1.943210 0.037690 -0.043440 
#    y 0.037690 1.993080 -0.083010 
#    z -0.043440 -0.083010 1.933200 
# 
# From -- ./inp_files/294872.got.cif
#   From: 2010.05.17/outbox.cif.g08.bks.cpg/sg2_148_cif.got.tgz:294872.got - 2010.06.03 11:33:40.
