data_PCOD9076925
_publ_section_title
;
Structure prediction by ZEFSAII (Michael W. Deem and Ramdas Pophale) SiO2 
 PCOD9076925
Probable space group: P -1
;
_chemical_formula_sum "Si O2"
_cell_formula_units_Z 16
_cell_length_a 15.179879
_cell_length_b 25.970042
_cell_length_c 5.228141
_cell_angle_alpha 95.636894
_cell_angle_beta 89.080022
_cell_angle_gamma 156.225111
_cell_volume 812.759281
_symmetry_space_group_name_H-M "P -1"
_symmetry_group_IT_number 2
_symmetry_cell_setting 'triclinic'
loop_
_space_group_symop_operation_xyz
x,y,z
-x,-y,-z
loop_
_atom_site_type_symbol
_atom_site_label
_atom_site_fract_x
_atom_site_fract_y
_atom_site_fract_z
Si Si1 0.396293 0.057799 0.818022
Si Si2 0.191013 0.120342 0.246127
Si Si3 0.140794 0.827730 0.873201
Si Si4 0.729771 0.594206 0.471300
Si Si5 0.174018 0.015983 0.495073
Si Si6 0.592713 0.660065 0.753797
Si Si7 0.516319 0.068401 0.303633
Si Si8 0.845397 0.755296 0.282782
O O1 0.173033 0.903048 0.794059
O O2 0.325688 0.076747 0.747050
O O3 0.514635 0.093865 0.590506
O O4 0.525861 0.117032 0.102632
O O5 0.364661 0.255329 0.191362
O O6 0.046299 0.073882 0.438925
O O7 0.287055 0.119578 0.362152
O O8 0.000000 0.000000 0.000000
O O9 0.287521 0.866238 0.722588
O O10 0.888833 0.677317 0.751165
O O11 0.288263 0.913927 0.166726
O O12 0.500000 0.500000 0.500000
O O13 0.653347 0.496598 0.333185
O O14 0.846088 0.694259 0.305351
O O15 0.078651 0.912080 0.319811
O O16 0.719900 0.710477 0.515233
O O17 0.706602 0.694863 0.009407
#
# Coordination Sequence:
#
# PCOD9076925 Si02
#       8
#     2   2   2   2   2   2   2   2
#     4  10  19  33  53  79 103 133 181 221 268 308
#     4  10  20  33  50  71 108 142 178 219 265 312
#     4   9  19  34  53  77 110 142 175 216 264 312
#     4  10  20  35  51  80 110 148 172 208 258 333
#     4  10  20  31  52  77 101 142 176 224 267 310
#     4  10  21  33  47  68 104 139 176 203 248 311
#     4   9  20  34  53  78 107 137 177 225 262 309
#     4  10  18  34  47  70 102 138 176 203 246 310
#
# _framework density 19.686025999999998
#
# number of rings (size 3 to 8) (size 9 to 14) (size 15 to 20)
#    0.750    1.500    2.500    0.750    1.750    2.000 
#    4.500    0.000    0.000    0.000    0.000    1.750 
#    0.000    0.000    0.000    0.000    0.000    0.000 
#
# Total GULP energy -89103.387645 kJ/mol
# GULP energy per Si atom -5568.961728 kJ/mol
# Density = 1.964122 g / cm^3
# Si number density = 19.686026 Si / 1000 Ang^3
#
#
#
# Elastic Constant Matrix: (Units=GPa)
#
#
# Indices 1 2 3 4 5 6 
#
# 1 59.4402 31.6797 13.7076 -7.7273 17.0743 -12.7345
# 2 31.6797 79.9644 14.9555 9.0260 8.8487 -31.3299
# 3 13.7076 14.9555 90.4224 -8.5493 5.7399 -5.2747
# 4 -7.7273 9.0260 -8.5493 23.9638 -2.2635 8.0561
# 5 17.0743 8.8487 5.7399 -2.2635 32.1824 -7.9482
# 6 -12.7345 -31.3299 -5.2747 8.0561 -7.9482 46.2075
#
#
#
# Elastic Compliance Matrix: (Units=1/GPa)
#
#
# Indices 1 2 3 4 5 6 
#
# 1 0.028449 -0.014316 -0.000110 0.015648 -0.011670 -0.006615
# 2 -0.014316 0.028921 -0.003879 -0.023240 0.003614 0.019894
# 3 -0.000110 -0.003879 0.012265 0.006564 -0.001248 -0.002620
# 4 0.015648 -0.023240 0.006564 0.065133 -0.004123 -0.022760
# 5 -0.011670 0.003614 -0.001248 -0.004123 0.037761 0.006306
# 6 -0.006615 0.019894 -0.002620 -0.022760 0.006306 0.038061
#
#
# Mechanical properties :
#
#
# Convention : Reuss Voigt Hill
#
# Bulk Modulus (GPa) = 30.28320 38.94585 34.61452
# Shear Modulus (GPa) = 19.36426 31.76970 25.56698
#
# Velocity S-wave (km/s) = 3.13973 4.02160 3.60771
# Velocity P-wave (km/s) = 5.34419 6.43356 5.91401
#
# Compressibility (1/GPa) = 0.03302161
#
# Stress axis : x y z
#
# Youngs Moduli (GPa) = 35.15101 34.57743 81.53597
#
# Poissons Ratio (x) = 0.49503 0.00900
# Poissons Ratio (y) = 0.50324 0.31630
# Poissons Ratio (z) = 0.00388 0.13413
#
# Static dielectric constant tensor:
#      x y z
#    x 1.848120 0.004280 -0.113710 
#    y 0.004280 1.769360 -0.076220 
#    z -0.113710 -0.076220 1.879650 
# 
# From -- ./inp_files/100898.got.cif
#   From: 2010.05.17/outbox.cif.g08.bks.cpg/sg2_51_cif.got.tgz:100898.got - 2010.06.03 11:33:40.
