data_PCOD9076062
_publ_section_title
;
Structure prediction by ZEFSAII (Michael W. Deem and Ramdas Pophale) SiO2 
 PCOD9076062
Probable space group: P -1
;
_chemical_formula_sum "Si O2"
_cell_formula_units_Z 14
_cell_length_a 8.198180
_cell_length_b 11.751211
_cell_length_c 11.831158
_cell_angle_alpha 37.654239
_cell_angle_beta 54.803757
_cell_angle_gamma 72.773187
_cell_volume 538.918541
_symmetry_space_group_name_H-M "P -1"
_symmetry_group_IT_number 2
_symmetry_cell_setting 'triclinic'
loop_
_space_group_symop_operation_xyz
x,y,z
-x,-y,-z
loop_
_atom_site_type_symbol
_atom_site_label
_atom_site_fract_x
_atom_site_fract_y
_atom_site_fract_z
Si Si1 0.976081 0.082809 0.814092
Si Si2 0.746817 0.258643 0.586411
Si Si3 0.399354 0.392617 0.377083
Si Si4 0.763884 0.934391 0.690492
Si Si5 0.342003 0.273458 0.862055
Si Si6 0.881293 0.358205 0.820485
Si Si7 0.444807 0.785018 0.744931
O O1 0.897395 0.158885 0.671919
O O2 0.886681 0.183937 0.871050
O O3 0.226853 0.182183 0.639264
O O4 0.862310 0.850110 0.029966
O O5 0.709548 0.134947 0.582528
O O6 0.531108 0.215228 0.774762
O O7 0.891638 0.484221 0.364734
O O8 0.545960 0.493343 0.345189
O O9 0.256613 0.526259 0.285963
O O10 0.541456 0.362253 0.242514
O O11 0.709973 0.803046 0.928342
O O12 0.626709 0.807444 0.745776
O O13 0.000000 0.000000 0.500000
O O14 0.764793 0.284773 0.042426
O O15 0.500000 0.000000 0.500000
#
# Coordination Sequence:
#
# PCOD9076062 Si02
#       7
#     2   2   2   2   2   2   2
#     4  10  18  33  61 100 123 145 205 274 314 354
#     4  10  18  32  59  94 120 149 202 268 313 352
#     4  11  21  37  62  92 120 156 217 254 309 373
#     4  11  22  37  63  94 123 162 212 258 306 367
#     4  11  19  33  62  97 122 152 201 273 312 353
#     4  11  19  37  64  93 121 162 210 259 305 376
#     4  12  26  42  58  88 134 173 201 255 322 373
#
# _framework density 25.977951999999998
#
# number of rings (size 3 to 8) (size 9 to 14) (size 15 to 20)
#    0.000    1.143    4.286    6.429    2.000    0.000 
#    0.000    1.429    0.000    1.714    0.000    0.000 
#    0.000    0.000    0.000    0.000    0.000    0.000 
#
# Total GULP energy -78416.832563 kJ/mol
# GULP energy per Si atom -5601.202326 kJ/mol
# Density = 2.591882 g / cm^3
# Si number density = 25.977952 Si / 1000 Ang^3
#
#
#
# Elastic Constant Matrix: (Units=GPa)
#
#
# Indices 1 2 3 4 5 6 
#
# 1 55.2820 14.1169 34.7125 -5.7041 -17.7496 9.4015
# 2 14.1169 161.2908 36.1488 -8.1270 -24.9084 -4.1109
# 3 34.7125 36.1488 162.0664 -3.9013 -26.3570 -6.7167
# 4 -5.7041 -8.1270 -3.9013 65.4715 1.7301 -13.5161
# 5 -17.7496 -24.9084 -26.3570 1.7301 56.1612 -0.0704
# 6 9.4015 -4.1109 -6.7167 -13.5161 -0.0704 31.4597
#
#
#
# Elastic Compliance Matrix: (Units=1/GPa)
#
#
# Indices 1 2 3 4 5 6 
#
# 1 0.024168 -0.000495 -0.004553 -0.000076 0.005274 -0.008280
# 2 -0.000495 0.006915 -0.000966 0.000954 0.002429 0.001261
# 3 -0.004553 -0.000966 0.007793 0.000549 0.001777 0.003138
# 4 -0.000076 0.000954 0.000549 0.016975 0.000143 0.007558
# 5 0.005274 0.002429 0.001777 0.000143 0.021379 -0.000770
# 6 -0.008280 0.001261 0.003138 0.007558 -0.000770 0.038341
#
#
# Mechanical properties :
#
#
# Convention : Reuss Voigt Hill
#
# Bulk Modulus (GPa) = 37.24760 60.95506 49.10133
# Shear Modulus (GPa) = 36.61664 50.19588 43.40626
#
# Velocity S-wave (km/s) = 3.75844 4.40050 4.09208
# Velocity P-wave (km/s) = 5.76227 7.02384 6.42410
#
# Compressibility (1/GPa) = 0.02684737
#
# Stress axis : x y z
#
# Youngs Moduli (GPa) = 41.37651 144.60925 128.31502
#
# Poissons Ratio (x) = 0.07162 0.58427
# Poissons Ratio (y) = 0.02049 0.12396
# Poissons Ratio (z) = 0.18840 0.13970
#
# Static dielectric constant tensor:
#      x y z
#    x 2.146320 -0.014020 0.055010 
#    y -0.014020 1.987850 -0.066170 
#    z 0.055010 -0.066170 2.106340 
# 
# From -- ./inp_files/517595.got.cif
#   From: 2010.05.17/outbox.cif.g08.bks.cpg/sg2_259_cif.got.tgz:517595.got - 2010.06.03 11:33:40.
