data_PCOD9076537
_publ_section_title
;
Structure prediction by ZEFSAII (Michael W. Deem and Ramdas Pophale) SiO2 
 PCOD9076537
Probable space group: P -1
;
_chemical_formula_sum "Si O2"
_cell_formula_units_Z 16
_cell_length_a 22.492561
_cell_length_b 7.092218
_cell_length_c 15.625800
_cell_angle_alpha 87.591986
_cell_angle_beta 161.802667
_cell_angle_gamma 100.073073
_cell_volume 701.191523
_symmetry_space_group_name_H-M "P -1"
_symmetry_group_IT_number 2
_symmetry_cell_setting 'triclinic'
loop_
_space_group_symop_operation_xyz
x,y,z
-x,-y,-z
loop_
_atom_site_type_symbol
_atom_site_label
_atom_site_fract_x
_atom_site_fract_y
_atom_site_fract_z
Si Si1 0.933436 0.082446 0.087152
Si Si2 0.583949 0.703698 0.302923
Si Si3 0.218510 0.562602 0.126559
Si Si4 0.122892 0.656088 0.459109
Si Si5 0.535919 0.668994 0.970840
Si Si6 0.162339 0.739892 0.694946
Si Si7 0.005602 0.828275 0.645997
Si Si8 0.618905 0.704855 0.551782
O O1 0.184228 0.160279 0.419985
O O2 0.886707 0.035996 0.125586
O O3 0.875199 0.274997 0.981604
O O4 0.798674 0.902965 0.840651
O O5 0.518346 0.465049 0.187691
O O6 0.595457 0.729679 0.419586
O O7 0.397839 0.756952 0.012933
O O8 0.402684 0.660517 0.306030
O O9 0.319085 0.485847 0.341748
O O10 0.033534 0.364615 0.831097
O O11 0.362250 0.752366 0.750782
O O12 0.098800 0.761972 0.510825
O O13 0.054878 0.411243 0.398191
O O14 0.500000 0.500000 0.000000
O O15 0.781055 0.817126 0.310556
O O16 0.000000 0.500000 0.500000
O O17 0.142174 0.868794 0.745948
#
# Coordination Sequence:
#
# PCOD9076537 Si02
#       8
#     2   2   2   2   2   2   2   2
#     4  11  21  39  59  82 120 153 186 236 287 335
#     4  12  19  32  55  88 118 146 192 238 280 342
#     4  10  22  41  59  81 112 157 195 232 282 337
#     4   9  15  29  50  79 107 141 182 233 279 327
#     4  10  14  28  50  83 112 141 188 229 282 343
#     4  10  16  25  51  87 113 137 194 235 273 341
#     4   9  16  27  52  86 107 146 186 230 282 333
#     4  11  25  38  57  87 113 154 196 233 279 339
#
# _framework density 22.818303
#
# number of rings (size 3 to 8) (size 9 to 14) (size 15 to 20)
#    0.000    1.750    7.500    3.000    0.000    0.500 
#    0.000    0.000    0.000    3.750    0.000    0.000 
#    0.000    0.000    0.000    0.000    0.000    0.000 
#
# Total GULP energy -89427.473139 kJ/mol
# GULP energy per Si atom -5589.217071 kJ/mol
# Density = 2.276637 g / cm^3
# Si number density = 22.818303 Si / 1000 Ang^3
#
#
#
# Elastic Constant Matrix: (Units=GPa)
#
#
# Indices 1 2 3 4 5 6 
#
# 1 42.2132 13.0279 -0.0764 13.3673 -23.0936 -4.2207
# 2 13.0279 50.4287 19.4813 16.2997 0.9021 0.4486
# 3 -0.0764 19.4813 98.3893 -4.3180 1.9157 -0.4057
# 4 13.3673 16.2997 -4.3180 15.2826 -16.3169 -19.1395
# 5 -23.0936 0.9021 1.9157 -16.3169 45.0454 0.2826
# 6 -4.2207 0.4486 -0.4057 -19.1395 0.2826 3.6671
#
#
#
# Elastic Compliance Matrix: (Units=1/GPa)
#
#
# Indices 1 2 3 4 5 6 
#
# 1 0.037506 -0.007570 0.000836 -0.008429 0.016297 -0.001066
# 2 -0.007570 0.021145 -0.003802 0.006085 -0.002065 0.020198
# 3 0.000836 -0.003802 0.010830 -0.001656 -0.000518 -0.005978
# 4 -0.008429 0.006085 -0.001656 -0.008256 -0.007030 -0.053179
# 5 0.016297 -0.002065 -0.000518 -0.007030 0.028197 -0.019911
# 6 -0.001066 0.020198 -0.005978 -0.053179 -0.019911 -0.007682
#
#
# Mechanical properties :
#
#
# Convention : Reuss Voigt Hill
#
# Bulk Modulus (GPa) = 20.65722 28.43298 24.54510
# Shear Modulus (GPa) = 42.03556 23.37224 32.70390
#
# Velocity S-wave (km/s) = 4.29673 3.20390 3.78991
# Velocity P-wave (km/s) = 5.80417 5.11608 5.47095
#
# Compressibility (1/GPa) = 0.04840921
#
# Stress axis : x y z
#
# Youngs Moduli (GPa) = 26.66263 47.29266 92.33661
#
# Poissons Ratio (x) = 0.35800 -0.07723
# Poissons Ratio (y) = 0.20183 0.35107
# Poissons Ratio (z) = -0.02230 0.17981
#
# Static dielectric constant tensor:
#      x y z
#    x 1.833660 -0.005600 0.002220 
#    y -0.005600 1.933720 -0.006350 
#    z 0.002220 -0.006350 1.819040 
# 
# From -- ./inp_files/540502.got.cif
#   From: 2010.05.17/outbox.cif.g08.bks.cpg/sg2_271_cif.got.tgz:540502.got - 2010.06.03 11:33:40.
