data_PCOD9076155
_publ_section_title
;
Structure prediction by ZEFSAII (Michael W. Deem and Ramdas Pophale) SiO2 
 PCOD9076155
Probable space group: P -1
;
_chemical_formula_sum "Si O2"
_cell_formula_units_Z 16
_cell_length_a 14.714910
_cell_length_b 7.916859
_cell_length_c 24.982561
_cell_angle_alpha 54.041966
_cell_angle_beta 160.649183
_cell_angle_gamma 129.522539
_cell_volume 742.878982
_symmetry_space_group_name_H-M "P -1"
_symmetry_group_IT_number 2
_symmetry_cell_setting 'triclinic'
loop_
_space_group_symop_operation_xyz
x,y,z
-x,-y,-z
loop_
_atom_site_type_symbol
_atom_site_label
_atom_site_fract_x
_atom_site_fract_y
_atom_site_fract_z
Si Si1 0.990615 0.806980 0.890882
Si Si2 0.927388 0.002544 0.371408
Si Si3 0.656483 0.929267 0.497513
Si Si4 0.604242 0.292139 0.469984
Si Si5 0.622212 0.712813 0.346788
Si Si6 0.036259 0.405919 0.293779
Si Si7 0.048812 0.370753 0.983942
Si Si8 0.024012 0.235135 0.877166
O O1 0.741695 0.782020 0.713489
O O2 0.148476 0.635162 0.990686
O O3 0.138040 0.059155 0.941543
O O4 0.854217 0.713851 0.891170
O O5 0.110322 0.927186 0.441826
O O6 0.171323 0.125344 0.526505
O O7 0.838170 0.201368 0.256630
O O8 0.700272 0.818658 0.312560
O O9 0.759879 0.714886 0.600238
O O10 0.328068 0.857828 0.306665
O O11 0.682751 0.079018 0.535744
O O12 0.685690 0.484306 0.434535
O O13 0.763822 0.410457 0.589338
O O14 0.297357 0.689573 0.188484
O O15 0.891857 0.531968 0.149478
O O16 0.106091 0.268545 0.979091
#
# Coordination Sequence:
#
# PCOD9076155 Si02
#       8
#     2   2   2   2   2   2   2   2
#     4   9  20  30  46  71  92 118 158 184 224 276
#     4   8  16  29  43  70  90 123 154 177 229 272
#     4   9  17  27  43  68  94 120 148 176 231 280
#     4   9  17  30  45  70  97 118 145 192 226 271
#     4   9  15  29  49  62  95 123 148 193 222 262
#     4   9  19  30  44  69 102 117 148 182 230 275
#     4  10  18  33  48  68  93 122 149 191 231 259
#     4  11  18  30  48  69  97 121 146 188 228 278
#
# _framework density 21.537828000000001
#
# number of rings (size 3 to 8) (size 9 to 14) (size 15 to 20)
#    0.750    2.000    1.250    1.500    0.000    3.500 
#    0.000    0.000    0.000    0.750    0.000    7.875 
#    0.000    0.000    0.000    0.000    0.000    0.000 
#
# Total GULP energy -89092.677728 kJ/mol
# GULP energy per Si atom -5568.292358 kJ/mol
# Density = 2.148881 g / cm^3
# Si number density = 21.537828 Si / 1000 Ang^3
#
#
#
# Elastic Constant Matrix: (Units=GPa)
#
#
# Indices 1 2 3 4 5 6 
#
# 1 64.3643 29.7301 9.4099 2.1209 -16.2239 2.6494
# 2 29.7301 75.1462 21.3744 -8.1407 -3.7198 -21.9777
# 3 9.4099 21.3744 41.6280 -1.5685 -15.0523 2.9600
# 4 2.1209 -8.1407 -1.5685 24.8702 1.2411 -6.4968
# 5 -16.2239 -3.7198 -15.0523 1.2411 25.9155 -1.7231
# 6 2.6494 -21.9777 2.9600 -6.4968 -1.7231 33.6621
#
#
#
# Elastic Compliance Matrix: (Units=1/GPa)
#
#
# Indices 1 2 3 4 5 6 
#
# 1 0.031662 -0.023247 0.014421 -0.016042 0.024247 -0.020793
# 2 -0.023247 0.041443 -0.025666 0.024097 -0.022363 0.034650
# 3 0.014421 -0.025666 0.046419 -0.014314 0.031453 -0.023127
# 4 -0.016042 0.024097 -0.014314 0.056766 -0.015728 0.028405
# 5 0.024247 -0.022363 0.031453 -0.015728 0.068327 -0.018813
# 6 -0.020793 0.034650 -0.023127 0.028405 -0.018813 0.060519
#
#
# Mechanical properties :
#
#
# Convention : Reuss Voigt Hill
#
# Bulk Modulus (GPa) = 19.78676 33.57415 26.68046
# Shear Modulus (GPa) = 12.78875 24.93118 18.85997
#
# Velocity S-wave (km/s) = 2.43941 3.40597 2.96238
# Velocity P-wave (km/s) = 4.14019 5.57583 4.91076
#
# Compressibility (1/GPa) = 0.05053884
#
# Stress axis : x y z
#
# Youngs Moduli (GPa) = 31.58318 24.12980 21.54274
#
# Poissons Ratio (x) = 0.56095 -0.31066
# Poissons Ratio (y) = 0.73422 0.55292
# Poissons Ratio (z) = -0.45545 0.61932
#
# Static dielectric constant tensor:
#      x y z
#    x 1.802820 0.033430 -0.016600 
#    y 0.033430 1.839600 -0.022710 
#    z -0.016600 -0.022710 1.770110 
# 
# From -- ./inp_files/620204.got.cif
#   From: 2010.05.17/outbox.cif.g08.bks.cpg/sg2_311_cif.got.tgz:620204.got - 2010.06.03 11:33:40.
