data_PCOD9076564
_publ_section_title
;
Structure prediction by ZEFSAII (Michael W. Deem and Ramdas Pophale) SiO2 
 PCOD9076564
Probable space group: P -1
;
_chemical_formula_sum "Si O2"
_cell_formula_units_Z 16
_cell_length_a 19.793705
_cell_length_b 9.333035
_cell_length_c 6.786840
_cell_angle_alpha 54.464594
_cell_angle_beta 52.380584
_cell_angle_gamma 37.777802
_cell_volume 595.638369
_symmetry_space_group_name_H-M "P -1"
_symmetry_group_IT_number 2
_symmetry_cell_setting 'triclinic'
loop_
_space_group_symop_operation_xyz
x,y,z
-x,-y,-z
loop_
_atom_site_type_symbol
_atom_site_label
_atom_site_fract_x
_atom_site_fract_y
_atom_site_fract_z
Si Si1 0.607756 0.305540 0.329631
Si Si2 0.753380 0.840768 0.315259
Si Si3 0.683472 0.516161 0.251824
Si Si4 0.568899 0.990657 0.205879
Si Si5 0.006912 0.544258 0.718636
Si Si6 0.372230 0.521796 0.190160
Si Si7 0.050333 0.769557 0.968499
Si Si8 0.126254 0.995737 0.228821
O O1 0.500000 0.500000 0.500000
O O2 0.658825 0.040279 0.481182
O O3 0.688830 0.355083 0.211174
O O4 0.595946 0.339998 0.086169
O O5 0.689178 0.867523 0.209567
O O6 0.858104 0.587036 0.430120
O O7 0.815592 0.936654 0.069572
O O8 0.607104 0.796850 0.130284
O O9 0.623573 0.514112 0.555077
O O10 0.813254 0.397925 0.150549
O O11 0.500000 0.000000 0.500000
O O12 0.468037 0.269123 0.108289
O O13 0.914154 0.833977 0.642563
O O14 0.000000 0.500000 0.000000
O O15 0.977347 0.397090 0.786027
O O16 0.230422 0.710652 0.279786
O O17 0.990565 0.889225 0.767947
O O18 0.000000 0.000000 0.000000
#
# Coordination Sequence:
#
# PCOD9076564 Si02
#       8
#     2   2   2   2   2   2   2   2
#     4  11  23  39  59  86 119 155 195 241 294 349
#     4   9  17  34  56  81 114 151 192 236 288 343
#     4  11  22  38  62  87 117 157 196 241 295 350
#     4  10  20  35  58  86 116 155 199 241 292 350
#     4   8  15  30  55  81 109 149 192 234 285 342
#     4  10  23  39  59  86 118 153 198 243 293 352
#     4  10  18  33  57  86 117 149 192 242 291 344
#     4   9  18  33  55  81 111 150 192 236 285 341
#
# _framework density 26.861939
#
# number of rings (size 3 to 8) (size 9 to 14) (size 15 to 20)
#    0.000    2.500    0.000    6.000    0.000    5.500 
#    0.000    0.000    0.000    7.500    0.000    0.000 
#    0.000    1.000    0.000    0.000    0.000    0.000 
#
# Total GULP energy -89078.806250 kJ/mol
# GULP energy per Si atom -5567.425391 kJ/mol
# Density = 2.680080 g / cm^3
# Si number density = 26.861939 Si / 1000 Ang^3
#
#
#
# Elastic Constant Matrix: (Units=GPa)
#
#
# Indices 1 2 3 4 5 6 
#
# 1 129.4439 69.8685 9.2945 7.1295 -16.3234 6.7610
# 2 69.8685 215.3715 25.8428 42.1187 -4.4649 7.0983
# 3 9.2945 25.8428 62.7524 5.9429 -8.0643 -2.4427
# 4 7.1295 42.1187 5.9429 34.3738 -1.6445 2.0857
# 5 -16.3234 -4.4649 -8.0643 -1.6445 28.7944 7.8274
# 6 6.7610 7.0983 -2.4427 2.0857 7.8274 53.7742
#
#
#
# Elastic Compliance Matrix: (Units=1/GPa)
#
#
# Indices 1 2 3 4 5 6 
#
# 1 0.010461 -0.003817 0.000471 0.002828 0.006119 -0.001790
# 2 -0.003817 0.007738 -0.002084 -0.008425 -0.002025 -0.000015
# 3 0.000471 -0.002084 0.017374 -0.000343 0.004699 0.000334
# 4 0.002828 -0.008425 -0.000343 0.039091 0.002753 -0.001176
# 5 0.006119 -0.002025 0.004699 0.002753 0.041090 -0.006376
# 6 -0.001790 -0.000015 0.000334 -0.001176 -0.006376 0.019812
#
#
# Mechanical properties :
#
#
# Convention : Reuss Voigt Hill
#
# Bulk Modulus (GPa) = 40.46533 68.61995 54.54264
# Shear Modulus (GPa) = 32.32807 43.55926 37.94367
#
# Velocity S-wave (km/s) = 3.47290 4.03128 3.76246
# Velocity P-wave (km/s) = 5.58375 6.87525 6.26288
#
# Compressibility (1/GPa) = 0.02471251
#
# Stress axis : x y z
#
# Youngs Moduli (GPa) = 95.58955 129.23602 57.55882
#
# Poissons Ratio (x) = 0.49336 -0.02714
# Poissons Ratio (y) = 0.36491 0.11996
# Poissons Ratio (z) = -0.04507 0.26934
#
# Static dielectric constant tensor:
#      x y z
#    x 1.991270 0.287480 -0.207160 
#    y 0.287480 1.896330 0.169690 
#    z -0.207160 0.169690 2.087920 
# 
# From -- ./inp_files/343415.got.cif
#   From: 2010.05.17/outbox.cif.g08.bks.cpg/sg2_172_cif.got.tgz:343415.got - 2010.06.03 11:33:40.
