data_PCOD9076899
_publ_section_title
;
Structure prediction by ZEFSAII (Michael W. Deem and Ramdas Pophale) SiO2 
 PCOD9076899
Probable space group: P -1
;
_chemical_formula_sum "Si O2"
_cell_formula_units_Z 14
_cell_length_a 9.909151
_cell_length_b 8.890702
_cell_length_c 9.737141
_cell_angle_alpha 46.785815
_cell_angle_beta 124.619788
_cell_angle_gamma 112.027630
_cell_volume 514.354354
_symmetry_space_group_name_H-M "P -1"
_symmetry_group_IT_number 2
_symmetry_cell_setting 'triclinic'
loop_
_space_group_symop_operation_xyz
x,y,z
-x,-y,-z
loop_
_atom_site_type_symbol
_atom_site_label
_atom_site_fract_x
_atom_site_fract_y
_atom_site_fract_z
Si Si1 0.592523 0.360111 0.465315
Si Si2 0.639702 0.107929 0.416217
Si Si3 0.782879 0.683206 0.783242
Si Si4 0.791091 0.086297 0.939262
Si Si5 0.658647 0.066764 0.140644
Si Si6 0.146020 0.347093 0.447736
Si Si7 0.902925 0.666073 0.159383
O O1 0.662961 0.318145 0.380394
O O2 0.399267 0.380684 0.329303
O O3 0.640399 0.162387 0.709999
O O4 0.689675 0.540750 0.477657
O O5 0.500000 0.000000 0.500000
O O6 0.783663 0.936033 0.624117
O O7 0.612580 0.148483 0.213665
O O8 0.892621 0.616556 0.758736
O O9 0.799427 0.626488 0.986867
O O10 0.944361 0.198496 0.891686
O O11 0.757503 0.185380 0.006818
O O12 0.813623 0.836217 0.100034
O O13 0.793873 0.886564 0.360296
O O14 0.500000 0.000000 0.000000
O O15 0.995470 0.448142 0.382123
#
# Coordination Sequence:
#
# PCOD9076899 Si02
#       7
#     2   2   2   2   2   2   2
#     4  10  19  37  67  90 117 157 210 251 294 360
#     4   9  18  34  60  90 115 154 199 244 298 359
#     4  10  18  33  63  91 115 155 210 249 288 355
#     4  10  21  39  64  91 121 161 206 247 302 360
#     4  11  23  39  64  91 124 156 202 259 308 350
#     4  10  22  37  57  91 126 158 200 249 306 360
#     4  10  21  37  64  88 122 166 205 241 298 373
#
# _framework density 27.218589999999999
#
# number of rings (size 3 to 8) (size 9 to 14) (size 15 to 20)
#    0.000    2.000    1.429    3.429    2.000    1.714 
#    0.000    3.571    9.429    1.714    0.000    0.000 
#    0.000    0.000    0.000    0.000    0.000    0.000 
#
# Total GULP energy -78182.912317 kJ/mol
# GULP energy per Si atom -5584.493737 kJ/mol
# Density = 2.715664 g / cm^3
# Si number density = 27.218590 Si / 1000 Ang^3
#
#
#
# Elastic Constant Matrix: (Units=GPa)
#
#
# Indices 1 2 3 4 5 6 
#
# 1 71.6300 27.9826 19.4254 8.3856 -7.3838 -33.0611
# 2 27.9826 85.7921 35.7679 21.6323 -9.2198 -42.0184
# 3 19.4254 35.7679 118.4292 21.5982 5.6929 -24.2210
# 4 8.3856 21.6323 21.5982 55.0291 -20.0714 -5.0466
# 5 -7.3838 -9.2198 5.6929 -20.0714 41.7308 17.9615
# 6 -33.0611 -42.0184 -24.2210 -5.0466 17.9615 46.0759
#
#
#
# Elastic Compliance Matrix: (Units=1/GPa)
#
#
# Indices 1 2 3 4 5 6 
#
# 1 0.022659 0.004314 0.001430 -0.006682 -0.008587 0.023560
# 2 0.004314 0.028304 0.000871 -0.014298 -0.014353 0.033394
# 3 0.001430 0.000871 0.012135 -0.007875 -0.009800 0.011158
# 4 -0.006682 -0.014298 -0.007875 0.034619 0.025485 -0.028116
# 5 -0.008587 -0.014353 -0.009800 0.025485 0.050671 -0.041363
# 6 0.023560 0.033394 0.011158 -0.028116 -0.041363 0.087972
#
#
# Mechanical properties :
#
#
# Convention : Reuss Voigt Hill
#
# Bulk Modulus (GPa) = 13.10110 49.13367 31.11739
# Shear Modulus (GPa) = 20.11492 41.41217 30.76354
#
# Velocity S-wave (km/s) = 2.72143 3.90483 3.36555
# Velocity P-wave (km/s) = 3.83388 6.19846 5.15362
#
# Compressibility (1/GPa) = 0.07632946
#
# Stress axis : x y z
#
# Youngs Moduli (GPa) = 44.13304 35.33071 82.40428
#
# Poissons Ratio (x) = -0.15242 -0.11786
# Poissons Ratio (y) = -0.19040 -0.07180
# Poissons Ratio (z) = -0.06312 -0.03078
#
# Static dielectric constant tensor:
#      x y z
#    x 2.219330 0.021700 -0.088960 
#    y 0.021700 2.235990 -0.066760 
#    z -0.088960 -0.066760 2.259880 
# 
# From -- ./inp_files/237296.got.cif
#   From: 2010.05.17/outbox.cif.g08.bks.cpg/sg2_119_cif.got.tgz:237296.got - 2010.06.03 11:33:40.
