data_PCOD9076549
_publ_section_title
;
Structure prediction by ZEFSAII (Michael W. Deem and Ramdas Pophale) SiO2 
 PCOD9076549
Probable space group: P -1
;
_chemical_formula_sum "Si O2"
_cell_formula_units_Z 16
_cell_length_a 14.345202
_cell_length_b 8.723408
_cell_length_c 12.472177
_cell_angle_alpha 63.775102
_cell_angle_beta 57.202633
_cell_angle_gamma 112.426519
_cell_volume 667.940559
_symmetry_space_group_name_H-M "P -1"
_symmetry_group_IT_number 2
_symmetry_cell_setting 'triclinic'
loop_
_space_group_symop_operation_xyz
x,y,z
-x,-y,-z
loop_
_atom_site_type_symbol
_atom_site_label
_atom_site_fract_x
_atom_site_fract_y
_atom_site_fract_z
Si Si1 0.800058 0.840993 0.296964
Si Si2 0.249450 0.514729 0.399916
Si Si3 0.767682 0.184209 0.236281
Si Si4 0.476275 0.209358 0.309840
Si Si5 0.627837 0.127299 0.105299
Si Si6 0.219402 0.282192 0.869073
Si Si7 0.527852 0.438414 0.890697
Si Si8 0.849680 0.152779 0.822610
O O1 0.817503 0.738230 0.416575
O O2 0.689245 0.614003 0.337331
O O3 0.721181 0.924317 0.343222
O O4 0.021777 0.139232 0.025786
O O5 0.436154 0.813730 0.259578
O O6 0.326075 0.535479 0.232789
O O7 0.065180 0.407635 0.557810
O O8 0.671637 0.104482 0.437110
O O9 0.684720 0.144791 0.186778
O O10 0.000000 0.500000 0.000000
O O11 0.654399 0.462178 0.201756
O O12 0.404247 0.309564 0.298895
O O13 0.563036 0.238284 0.138147
O O14 0.799775 0.266210 0.880274
O O15 0.179168 0.038152 0.012831
O O16 0.500000 0.500000 0.000000
O O17 0.319160 0.104789 0.079178
#
# Coordination Sequence:
#
# PCOD9076549 Si02
#       8
#     2   2   2   2   2   2   2   2
#     4  10  18  33  57  84 119 163 208 239 286 364
#     4  10  21  39  64  88 121 165 206 249 303 360
#     4  12  24  34  55  91 131 170 201 243 299 362
#     4  11  23  39  56  89 128 162 200 254 305 355
#     4  11  23  37  58  90 130 167 197 244 304 375
#     4   9  18  33  56  81 115 166 204 241 289 352
#     4  10  22  43  69  93 115 151 210 266 308 358
#     4   9  20  38  62  89 119 158 205 248 300 369
#
# _framework density 23.954226999999999
#
# number of rings (size 3 to 8) (size 9 to 14) (size 15 to 20)
#    0.000    1.750    2.500    1.875    1.750    1.500 
#    0.000    2.500    0.000    1.500    0.000    0.000 
#    0.000    0.000    0.000    0.000    0.000    0.000 
#
# Total GULP energy -89233.220020 kJ/mol
# GULP energy per Si atom -5577.076251 kJ/mol
# Density = 2.389971 g / cm^3
# Si number density = 23.954227 Si / 1000 Ang^3
#
#
#
# Elastic Constant Matrix: (Units=GPa)
#
#
# Indices 1 2 3 4 5 6 
#
# 1 56.2304 32.0887 33.3375 14.4591 -26.0432 -18.2399
# 2 32.0887 128.9920 57.1200 40.7863 -17.1283 -8.6219
# 3 33.3375 57.1200 110.2682 28.9952 -31.0556 4.2246
# 4 14.4591 40.7863 28.9952 39.0626 -8.1751 -1.9219
# 5 -26.0432 -17.1283 -31.0556 -8.1751 37.0884 12.6565
# 6 -18.2399 -8.6219 4.2246 -1.9219 12.6565 30.8369
#
#
#
# Elastic Compliance Matrix: (Units=1/GPa)
#
#
# Indices 1 2 3 4 5 6 
#
# 1 0.033447 -0.002635 -0.005128 -0.002498 0.012488 0.014468
# 2 -0.002635 0.013425 -0.004339 -0.010214 -0.002639 0.003236
# 3 -0.005128 -0.004339 0.018268 -0.005063 0.012776 -0.012308
# 4 -0.002498 -0.010214 -0.005063 0.040588 -0.001611 -0.000449
# 5 0.012488 -0.002639 0.012776 -0.001611 0.050257 -0.015829
# 6 0.014468 0.003236 -0.012308 -0.000449 -0.015829 0.050047
#
#
# Mechanical properties :
#
#
# Convention : Reuss Voigt Hill
#
# Bulk Modulus (GPa) = 24.42803 60.06479 42.24641
# Shear Modulus (GPa) = 20.50187 32.92721 26.71454
#
# Velocity S-wave (km/s) = 2.92871 3.71157 3.34313
# Velocity P-wave (km/s) = 4.65364 6.59522 5.70760
#
# Compressibility (1/GPa) = 0.04093658
#
# Stress axis : x y z
#
# Youngs Moduli (GPa) = 29.89817 74.48904 54.74109
#
# Poissons Ratio (x) = 0.19625 0.28070
# Poissons Ratio (y) = 0.07877 0.23753
# Poissons Ratio (z) = 0.15331 0.32321
#
# Static dielectric constant tensor:
#      x y z
#    x 1.973140 0.015520 0.024950 
#    y 0.015520 1.983900 0.055680 
#    z 0.024950 0.055680 1.978690 
# 
# From -- ./inp_files/222536.got.cif
#   From: 2010.05.17/outbox.cif.g08.bks.cpg/sg2_112_cif.got.tgz:222536.got - 2010.06.03 11:33:40.
