data_PCOD9076498
_publ_section_title
;
Structure prediction by ZEFSAII (Michael W. Deem and Ramdas Pophale) SiO2 
 PCOD9076498
Probable space group: P -1
;
_chemical_formula_sum "Si O2"
_cell_formula_units_Z 16
_cell_length_a 15.542570
_cell_length_b 15.109764
_cell_length_c 9.574682
_cell_angle_alpha 144.914189
_cell_angle_beta 40.715591
_cell_angle_gamma 124.830082
_cell_volume 835.834539
_symmetry_space_group_name_H-M "P -1"
_symmetry_group_IT_number 2
_symmetry_cell_setting 'triclinic'
loop_
_space_group_symop_operation_xyz
x,y,z
-x,-y,-z
loop_
_atom_site_type_symbol
_atom_site_label
_atom_site_fract_x
_atom_site_fract_y
_atom_site_fract_z
Si Si1 0.521898 0.293054 0.826998
Si Si2 0.051418 0.081538 0.677775
Si Si3 0.187900 0.883988 0.787032
Si Si4 0.573124 0.838601 0.482985
Si Si5 0.639157 0.895345 0.012150
Si Si6 0.767948 0.090259 0.541541
Si Si7 0.721826 0.712334 0.404885
Si Si8 0.603561 0.424558 0.160726
O O1 0.676030 0.235309 0.528849
O O2 0.441981 0.297708 0.786376
O O3 0.456633 0.162552 0.827798
O O4 0.528700 0.425538 0.104638
O O5 0.146366 0.210251 0.689527
O O6 0.138187 0.950131 0.494499
O O7 0.000000 0.000000 0.500000
O O8 0.928978 0.152755 0.017040
O O9 0.153820 0.893647 0.677947
O O10 0.235304 0.043865 0.990838
O O11 0.610079 0.783159 0.521547
O O12 0.686671 0.943368 0.434598
O O13 0.438952 0.959247 0.788526
O O14 0.679372 0.762801 0.678588
O O15 0.664470 0.247017 0.888810
O O16 0.723374 0.529202 0.146595
O O17 0.500000 0.500000 0.500000
#
# Coordination Sequence:
#
# PCOD9076498 Si02
#       8
#     2   2   2   2   2   2   2   2
#     4  10  19  34  61  85 116 145 190 234 283 339
#     4  11  23  39  58  86 113 146 199 244 276 320
#     4  10  18  35  59  87 108 148 194 238 273 331
#     4  10  18  33  56  89 111 141 186 242 285 320
#     4  11  16  33  60  86 113 141 190 244 281 332
#     4  10  20  37  62  83 112 152 196 228 278 340
#     4  11  23  34  55  85 122 144 183 237 291 331
#     4  11  21  37  58  87 119 153 181 226 292 356
#
# _framework density 19.142544999999998
#
# number of rings (size 3 to 8) (size 9 to 14) (size 15 to 20)
#    0.000    1.500    6.250    1.500    0.000    1.500 
#    0.000    3.125    0.000    0.000    0.000    0.000 
#    0.000    0.000    0.000    0.000    0.000    0.000 
#
# Total GULP energy -89208.634333 kJ/mol
# GULP energy per Si atom -5575.539646 kJ/mol
# Density = 1.909898 g / cm^3
# Si number density = 19.142545 Si / 1000 Ang^3
#
#
#
# Elastic Constant Matrix: (Units=GPa)
#
#
# Indices 1 2 3 4 5 6 
#
# 1 128.3588 32.9982 34.0742 0.4654 24.5482 6.3569
# 2 32.9982 65.9982 26.9080 -11.6755 2.5197 9.0000
# 3 34.0742 26.9080 77.5354 -15.2420 19.4790 3.1180
# 4 0.4654 -11.6755 -15.2420 18.4544 7.1621 4.7015
# 5 24.5482 2.5197 19.4790 7.1621 34.0494 2.4994
# 6 6.3569 9.0000 3.1180 4.7015 2.4994 27.8652
#
#
#
# Elastic Compliance Matrix: (Units=1/GPa)
#
#
# Indices 1 2 3 4 5 6 
#
# 1 0.010658 -0.004809 -0.002336 -0.003276 -0.005333 0.000414
# 2 -0.004809 0.022163 -0.003003 0.013191 0.001363 -0.008073
# 3 -0.002336 -0.003003 0.024721 0.026422 -0.017489 -0.004153
# 4 -0.003276 0.013191 0.026422 0.102869 -0.033841 -0.020791
# 5 -0.005333 0.001363 -0.017489 -0.033841 0.049946 0.003963
# 6 0.000414 -0.008073 -0.004153 -0.020791 0.003963 0.042017
#
#
# Mechanical properties :
#
#
# Convention : Reuss Voigt Hill
#
# Bulk Modulus (GPa) = 26.84805 51.09482 38.97143
# Shear Modulus (GPa) = 17.53863 27.93460 22.73662
#
# Velocity S-wave (km/s) = 3.03018 3.82421 3.45012
# Velocity P-wave (km/s) = 5.12820 6.80068 6.02278
#
# Compressibility (1/GPa) = 0.03724666
#
# Stress axis : x y z
#
# Youngs Moduli (GPa) = 93.82240 45.12001 40.45196
#
# Poissons Ratio (x) = 0.21699 0.09449
# Poissons Ratio (y) = 0.45121 0.12146
# Poissons Ratio (z) = 0.21916 0.13548
#
# Static dielectric constant tensor:
#      x y z
#    x 1.698490 0.005100 0.012190 
#    y 0.005100 1.688760 0.006960 
#    z 0.012190 0.006960 1.668490 
# 
# From -- ./inp_files/206419.got.cif
#   From: 2010.05.17/outbox.cif.g08.bks.cpg/sg2_104_cif.got.tgz:206419.got - 2010.06.03 11:33:40.
