data_PCOD9076052
_publ_section_title
;
Structure prediction by ZEFSAII (Michael W. Deem and Ramdas Pophale) SiO2 
 PCOD9076052
Probable space group: P -1
;
_chemical_formula_sum "Si O2"
_cell_formula_units_Z 16
_cell_length_a 7.563682
_cell_length_b 15.136701
_cell_length_c 11.773277
_cell_angle_alpha 142.911679
_cell_angle_beta 56.712143
_cell_angle_gamma 108.225985
_cell_volume 658.243596
_symmetry_space_group_name_H-M "P -1"
_symmetry_group_IT_number 2
_symmetry_cell_setting 'triclinic'
loop_
_space_group_symop_operation_xyz
x,y,z
-x,-y,-z
loop_
_atom_site_type_symbol
_atom_site_label
_atom_site_fract_x
_atom_site_fract_y
_atom_site_fract_z
Si Si1 0.497361 0.834308 0.264413
Si Si2 0.916663 0.204244 0.360792
Si Si3 0.478843 0.395926 0.792521
Si Si4 0.625944 0.207840 0.127673
Si Si5 0.727423 0.350012 0.023351
Si Si6 0.849693 0.888995 0.396408
Si Si7 0.104933 0.132018 0.991588
Si Si8 0.292752 0.133203 0.330993
O O1 0.553685 0.749166 0.276698
O O2 0.368772 0.740496 0.132569
O O3 0.709770 0.829772 0.110122
O O4 0.321909 0.995809 0.503749
O O5 0.709483 0.342209 0.591020
O O6 0.058215 0.181509 0.401958
O O7 0.841097 0.050395 0.204581
O O8 0.078550 0.208174 0.203069
O O9 0.500000 0.500000 0.000000
O O10 0.307188 0.486873 0.855114
O O11 0.450074 0.221204 0.303393
O O12 0.603202 0.334949 0.169437
O O13 0.865403 0.181733 0.071401
O O14 0.621445 0.047828 0.905313
O O15 0.976428 0.257591 0.861641
O O16 0.735019 0.847091 0.506190
O O17 0.000000 0.000000 0.500000
#
# Coordination Sequence:
#
# PCOD9076052 Si02
#       8
#     2   2   2   2   2   2   2   2
#     4  10  20  37  61  92 118 156 203 254 304 351
#     4  10  21  38  60  90 123 160 196 249 306 356
#     4  10  22  40  64  89 121 158 206 252 297 358
#     4  10  20  34  56  86 119 156 197 243 298 351
#     4  10  20  39  61  86 119 156 205 254 292 354
#     4  10  18  32  60  89 114 146 202 254 291 337
#     4  10  23  37  59  90 129 155 198 250 306 361
#     4  10  18  32  59  87 115 151 202 250 289 343
#
# _framework density 24.307109000000001
#
# number of rings (size 3 to 8) (size 9 to 14) (size 15 to 20)
#    0.000    2.000    2.500    3.000    7.000    0.500 
#    0.000    8.125    0.000    0.000    0.000    0.000 
#    0.000    0.000    0.000    0.000    0.000    0.000 
#
# Total GULP energy -89570.951079 kJ/mol
# GULP energy per Si atom -5598.184442 kJ/mol
# Density = 2.425179 g / cm^3
# Si number density = 24.307109 Si / 1000 Ang^3
#
#
#
# Elastic Constant Matrix: (Units=GPa)
#
#
# Indices 1 2 3 4 5 6 
#
# 1 83.7529 41.5521 35.2749 -3.0200 -16.4208 -22.2373
# 2 41.5521 177.9500 46.2753 -11.6780 -17.5705 -28.2792
# 3 35.2749 46.2753 98.6197 -15.2760 -15.1114 -9.6919
# 4 -3.0200 -11.6780 -15.2760 45.6835 -4.4121 0.7070
# 5 -16.4208 -17.5705 -15.1114 -4.4121 41.2083 -3.7930
# 6 -22.2373 -28.2792 -9.6919 0.7070 -3.7930 39.4038
#
#
#
# Elastic Compliance Matrix: (Units=1/GPa)
#
#
# Indices 1 2 3 4 5 6 
#
# 1 0.017668 -0.001104 -0.004044 -0.000033 0.005888 0.008751
# 2 -0.001104 0.007459 -0.002078 0.001314 0.002528 0.004439
# 3 -0.004044 -0.002078 0.013611 0.004037 0.002906 -0.000219
# 4 -0.000033 0.001314 0.004037 0.024005 0.004777 0.001946
# 5 0.005888 0.002528 0.002906 0.004777 0.030065 0.008660
# 6 0.008751 0.004439 -0.000219 0.001946 0.008660 0.034247
#
#
# Mechanical properties :
#
#
# Convention : Reuss Voigt Hill
#
# Bulk Modulus (GPa) = 41.17795 67.39192 54.28494
# Shear Modulus (GPa) = 33.42204 41.07382 37.24793
#
# Velocity S-wave (km/s) = 3.71211 4.11516 3.91882
# Velocity P-wave (km/s) = 5.94563 7.09681 6.54657
#
# Compressibility (1/GPa) = 0.02428484
#
# Stress axis : x y z
#
# Youngs Moduli (GPa) = 56.60027 134.06780 73.47199
#
# Poissons Ratio (x) = 0.14799 0.29715
# Poissons Ratio (y) = 0.06248 0.15267
# Poissons Ratio (z) = 0.22892 0.27859
#
# Static dielectric constant tensor:
#      x y z
#    x 2.041260 0.039310 0.021940 
#    y 0.039310 1.962810 0.020210 
#    z 0.021940 0.020210 1.928100 
# 
# From -- ./inp_files/399546.got.cif
#   From: 2010.05.17/outbox.cif.g08.bks.cpg/sg2_200_cif.got.tgz:399546.got - 2010.06.03 11:33:40.
