data_PCOD9076492
_publ_section_title
;
Structure prediction by ZEFSAII (Michael W. Deem and Ramdas Pophale) SiO2 
 PCOD9076492
Probable space group: P -1
;
_chemical_formula_sum "Si O2"
_cell_formula_units_Z 16
_cell_length_a 9.520764
_cell_length_b 7.818833
_cell_length_c 19.715502
_cell_angle_alpha 41.809841
_cell_angle_beta 129.470920
_cell_angle_gamma 120.484837
_cell_volume 753.689017
_symmetry_space_group_name_H-M "P -1"
_symmetry_group_IT_number 2
_symmetry_cell_setting 'triclinic'
loop_
_space_group_symop_operation_xyz
x,y,z
-x,-y,-z
loop_
_atom_site_type_symbol
_atom_site_label
_atom_site_fract_x
_atom_site_fract_y
_atom_site_fract_z
Si Si1 0.928372 0.443885 0.710782
Si Si2 0.693332 0.431372 0.009863
Si Si3 0.550871 0.486671 0.218813
Si Si4 0.822024 0.106378 0.379048
Si Si5 0.665043 0.553497 0.481645
Si Si6 0.629875 0.894287 0.928308
Si Si7 0.399548 0.553510 0.292569
Si Si8 0.807556 0.964747 0.106708
O O1 0.838252 0.460225 0.603007
O O2 0.778453 0.517494 0.697003
O O3 0.095374 0.656587 0.710460
O O4 0.008419 0.166238 0.817887
O O5 0.560443 0.526839 0.881481
O O6 0.757596 0.686617 0.995387
O O7 0.564151 0.256340 0.072152
O O8 0.822174 0.233934 0.071533
O O9 0.679700 0.252215 0.337185
O O10 0.412293 0.478055 0.241025
O O11 0.682217 0.751244 0.174894
O O12 0.715880 0.853067 0.393811
O O13 0.000000 0.000000 0.500000
O O14 0.500000 0.500000 0.500000
O O15 0.576593 0.452017 0.414590
O O16 0.603254 0.136912 0.801842
O O17 0.703595 0.988847 0.996320
#
# Coordination Sequence:
#
# PCOD9076492 Si02
#       8
#     2   2   2   2   2   2   2   2
#     4   9  21  36  58  79 119 158 180 242 303 335
#     4  10  18  33  56  87 116 152 202 233 289 346
#     4  10  18  33  58  83 114 153 194 241 279 352
#     4   9  18  37  58  79 109 150 190 233 296 339
#     4   9  19  37  60  81 110 149 194 234 287 345
#     4  10  19  31  58  86 111 156 195 241 284 348
#     4  11  19  35  59  87 112 151 199 237 291 343
#     4  10  18  37  55  80 122 150 196 238 292 342
#
# _framework density 21.228915000000001
#
# number of rings (size 3 to 8) (size 9 to 14) (size 15 to 20)
#    0.000    2.250    2.500    1.500    0.000    1.500 
#    0.000   11.875    8.250    0.000    0.000    0.000 
#    0.000    0.000    0.000    0.000    0.000    0.000 
#
# Total GULP energy -89111.366029 kJ/mol
# GULP energy per Si atom -5569.460377 kJ/mol
# Density = 2.118060 g / cm^3
# Si number density = 21.228915 Si / 1000 Ang^3
#
#
#
# Elastic Constant Matrix: (Units=GPa)
#
#
# Indices 1 2 3 4 5 6 
#
# 1 79.3422 20.7897 7.2117 -0.5537 9.0283 -12.4013
# 2 20.7897 23.3323 -6.7300 -1.3443 1.0275 -3.5010
# 3 7.2117 -6.7300 52.0339 -2.4760 13.7062 0.6400
# 4 -0.5537 -1.3443 -2.4760 11.5457 -8.4831 4.1723
# 5 9.0283 1.0275 13.7062 -8.4831 32.9449 -3.8447
# 6 -12.4013 -3.5010 0.6400 4.1723 -3.8447 21.3377
#
#
#
# Elastic Compliance Matrix: (Units=1/GPa)
#
#
# Indices 1 2 3 4 5 6 
#
# 1 0.019480 -0.017516 -0.004427 -0.008439 -0.004014 0.009507
# 2 -0.017516 0.061776 0.010729 0.009975 0.000723 -0.002186
# 3 -0.004427 0.010729 0.023718 0.000525 -0.009238 -0.003291
# 4 -0.008439 0.009975 0.000525 0.116576 0.029375 -0.020786
# 5 -0.004014 0.000723 -0.009238 0.029375 0.042843 0.000039
# 6 0.009507 -0.002186 -0.003291 -0.020786 0.000039 0.056202
#
#
# Mechanical properties :
#
#
# Convention : Reuss Voigt Hill
#
# Bulk Modulus (GPa) = 12.11459 21.91681 17.01570
# Shear Modulus (GPa) = 13.49389 22.06147 17.77768
#
# Velocity S-wave (km/s) = 2.52392 3.22719 2.89697
# Velocity P-wave (km/s) = 3.76996 4.92268 4.38437
#
# Compressibility (1/GPa) = 0.08254511
#
# Stress axis : x y z
#
# Youngs Moduli (GPa) = 51.33594 16.18752 42.16169
#
# Poissons Ratio (x) = 0.28355 0.18663
# Poissons Ratio (y) = 0.89923 -0.45234
# Poissons Ratio (z) = 0.22724 -0.17367
#
# Static dielectric constant tensor:
#      x y z
#    x 1.776520 0.013430 0.018170 
#    y 0.013430 1.810340 -0.000080 
#    z 0.018170 -0.000080 1.804650 
# 
# From -- ./inp_files/188727.got.cif
#   From: 2010.05.17/outbox.cif.g08.bks.cpg/sg2_95_cif.got.tgz:188727.got - 2010.06.03 11:33:40.
