data_PCOD9076943
_publ_section_title
;
Structure prediction by ZEFSAII (Michael W. Deem and Ramdas Pophale) SiO2 
 PCOD9076943
Probable space group: P -1
;
_chemical_formula_sum "Si O2"
_cell_formula_units_Z 12
_cell_length_a 12.459495
_cell_length_b 9.480940
_cell_length_c 14.387186
_cell_angle_alpha 33.395142
_cell_angle_beta 152.006590
_cell_angle_gamma 147.041296
_cell_volume 403.504925
_symmetry_space_group_name_H-M "P -1"
_symmetry_group_IT_number 2
_symmetry_cell_setting 'triclinic'
loop_
_space_group_symop_operation_xyz
x,y,z
-x,-y,-z
loop_
_atom_site_type_symbol
_atom_site_label
_atom_site_fract_x
_atom_site_fract_y
_atom_site_fract_z
Si Si1 0.646774 0.551724 0.377809
Si Si2 0.671000 0.316873 0.326544
Si Si3 0.822866 0.891990 0.059890
Si Si4 0.682967 0.304061 0.834412
Si Si5 0.008384 0.464085 0.835284
Si Si6 0.821423 0.053973 0.436370
O O1 0.629674 0.386653 0.360836
O O2 0.394691 0.594145 0.185284
O O3 0.749513 0.390639 0.618976
O O4 0.881974 0.856356 0.393519
O O5 0.411425 0.222931 0.124894
O O6 0.773198 0.098068 0.482884
O O7 0.861837 0.616301 0.266564
O O8 0.738220 0.028608 0.008792
O O9 0.031902 0.168705 0.024607
O O10 0.912119 0.527072 0.828069
O O11 0.410778 0.214306 0.626187
O O12 0.192910 0.705419 0.778940
#
# Coordination Sequence:
#
# PCOD9076943 Si02
#       6
#     2   2   2   2   2   2
#     4  10  19  30  54  78  98 127 167 210 241 286
#     4  10  18  34  51  75 102 130 167 200 249 296
#     4   8  19  34  51  71 100 138 161 198 251 293
#     4   9  17  36  51  74 101 130 167 198 247 299
#     4   8  19  32  53  76  92 138 165 195 251 285
#     4   9  19  32  54  72 103 130 162 203 250 291
#
# _framework density 29.739412999999999
#
# number of rings (size 3 to 8) (size 9 to 14) (size 15 to 20)
#    2.000    1.000    0.000    1.500    0.000    2.000 
#    0.000    0.000    0.000    1.000    0.000    0.000 
#    0.000    0.000    0.000    0.000    0.000    0.000 
#
# Total GULP energy -66976.744503 kJ/mol
# GULP energy per Si atom -5581.395375 kJ/mol
# Density = 2.967172 g / cm^3
# Si number density = 29.739413 Si / 1000 Ang^3
#
#
#
# Elastic Constant Matrix: (Units=GPa)
#
#
# Indices 1 2 3 4 5 6 
#
# 1 185.3695 42.5541 17.7870 -4.5461 23.5505 -10.7141
# 2 42.5541 129.1826 -0.3780 -13.3087 -4.0030 17.3442
# 3 17.7870 -0.3780 57.2391 -12.8809 12.6309 11.6488
# 4 -4.5461 -13.3087 -12.8809 42.8406 4.0583 7.3218
# 5 23.5505 -4.0030 12.6309 4.0583 59.4242 0.9404
# 6 -10.7141 17.3442 11.6488 7.3218 0.9404 73.3259
#
#
#
# Elastic Compliance Matrix: (Units=1/GPa)
#
#
# Indices 1 2 3 4 5 6 
#
# 1 0.006592 -0.002617 -0.002179 -0.000901 -0.002297 0.002048
# 2 -0.002617 0.009485 0.002198 0.003811 0.001002 -0.003368
# 3 -0.002179 0.002198 0.021993 0.008331 -0.004151 -0.005111
# 4 -0.000901 0.003811 0.008331 0.028095 -0.002995 -0.005123
# 5 -0.002297 0.001002 -0.004151 -0.002995 0.018891 0.000144
# 6 0.002048 -0.003368 -0.005111 -0.005123 0.000144 0.016055
#
#
# Mechanical properties :
#
#
# Convention : Reuss Voigt Hill
#
# Bulk Modulus (GPa) = 30.41779 54.63526 42.52652
# Shear Modulus (GPa) = 42.63839 55.90669 49.27254
#
# Velocity S-wave (km/s) = 3.79057 4.34047 4.07481
# Velocity P-wave (km/s) = 5.42294 6.59779 6.03900
#
# Compressibility (1/GPa) = 0.03287550
#
# Stress axis : x y z
#
# Youngs Moduli (GPa) = 151.68800 105.42595 45.46902
#
# Poissons Ratio (x) = 0.27589 0.09906
# Poissons Ratio (y) = 0.39695 -0.09993
# Poissons Ratio (z) = 0.33046 -0.23170
#
# Static dielectric constant tensor:
#      x y z
#    x 2.327720 -0.052680 -0.099330 
#    y -0.052680 2.267840 0.024860 
#    z -0.099330 0.024860 2.356610 
# 
# From -- ./inp_files/301616.got.cif
#   From: 2010.05.17/outbox.cif.g08.bks.cpg/sg2_151_cif.got.tgz:301616.got - 2010.06.03 11:33:40.
