data_PCOD9076558
_publ_section_title
;
Structure prediction by ZEFSAII (Michael W. Deem and Ramdas Pophale) SiO2 
 PCOD9076558
Probable space group: P -1
;
_chemical_formula_sum "Si O2"
_cell_formula_units_Z 12
_cell_length_a 7.950264
_cell_length_b 14.483160
_cell_length_c 6.720282
_cell_angle_alpha 73.377259
_cell_angle_beta 65.821366
_cell_angle_gamma 122.939269
_cell_volume 442.710442
_symmetry_space_group_name_H-M "P -1"
_symmetry_group_IT_number 2
_symmetry_cell_setting 'triclinic'
loop_
_space_group_symop_operation_xyz
x,y,z
-x,-y,-z
loop_
_atom_site_type_symbol
_atom_site_label
_atom_site_fract_x
_atom_site_fract_y
_atom_site_fract_z
Si Si1 0.066282 0.934254 0.150667
Si Si2 0.621867 0.253660 0.723733
Si Si3 0.758301 0.159215 0.182195
Si Si4 0.468289 0.730311 0.709384
Si Si5 0.747550 0.550203 0.086626
Si Si6 0.253122 0.488771 0.414313
O O1 0.796930 0.829239 0.492581
O O2 0.101876 0.852355 0.049395
O O3 0.373453 0.080272 0.998607
O O4 0.000000 0.000000 0.000000
O O5 0.587045 0.259784 0.500047
O O6 0.590389 0.346545 0.781557
O O7 0.944532 0.357546 0.552878
O O8 0.629607 0.213876 0.160162
O O9 0.500000 0.000000 0.500000
O O10 0.994889 0.274746 0.163724
O O11 0.270437 0.559536 0.942795
O O12 0.454731 0.486938 0.237132
O O13 0.767262 0.534662 0.323434
#
# Coordination Sequence:
#
# PCOD9076558 Si02
#       6
#     2   2   2   2   2   2
#     4  10  18  33  57  86 109 144 186 229 274 325
#     4   9  17  32  57  89 111 144 192 229 276 335
#     4  12  21  34  60  85 111 149 191 231 274 335
#     4  10  21  37  60  86 112 148 189 229 280 332
#     4  10  20  36  55  83 115 146 189 231 280 333
#     4   9  18  34  59  84 112 151 187 229 282 333
#
# _framework density 27.105751000000001
#
# number of rings (size 3 to 8) (size 9 to 14) (size 15 to 20)
#    0.000    2.000    3.333    4.500    0.000    0.000 
#    0.000    4.167    0.000    8.000    0.000    0.000 
#    0.000    0.000    0.000    0.000    0.000    0.000 
#
# Total GULP energy -67233.865029 kJ/mol
# GULP energy per Si atom -5602.822086 kJ/mol
# Density = 2.704406 g / cm^3
# Si number density = 27.105751 Si / 1000 Ang^3
#
#
#
# Elastic Constant Matrix: (Units=GPa)
#
#
# Indices 1 2 3 4 5 6 
#
# 1 72.3571 61.5471 34.2619 -3.0637 -21.6149 -20.9475
# 2 61.5471 219.4067 73.7958 -4.7573 -22.3844 -25.5398
# 3 34.2619 73.7958 194.0491 -25.2648 -32.8375 -24.7211
# 4 -3.0637 -4.7573 -25.2648 53.0755 1.1736 1.5416
# 5 -21.6149 -22.3844 -32.8375 1.1736 43.2334 6.7167
# 6 -20.9475 -25.5398 -24.7211 1.5416 6.7167 62.1776
#
#
#
# Elastic Compliance Matrix: (Units=1/GPa)
#
#
# Indices 1 2 3 4 5 6 
#
# 1 0.021384 -0.004674 -0.000106 0.000471 0.007491 0.004421
# 2 -0.004674 0.006444 -0.001691 -0.000503 -0.000341 0.000449
# 3 -0.000106 -0.001691 0.007121 0.003095 0.004151 0.001576
# 4 0.000471 -0.000503 0.003095 0.020244 0.001699 0.000497
# 5 0.007491 -0.000341 0.004151 0.001699 0.029684 0.000786
# 6 0.004421 0.000449 0.001576 0.000497 0.000786 0.018286
#
#
# Mechanical properties :
#
#
# Convention : Reuss Voigt Hill
#
# Bulk Modulus (GPa) = 45.43975 91.66917 68.55446
# Shear Modulus (GPa) = 40.50484 52.77783 46.64133
#
# Velocity S-wave (km/s) = 3.86985 4.41739 4.15265
# Velocity P-wave (km/s) = 6.06365 7.74017 6.95263
#
# Compressibility (1/GPa) = 0.02200717
#
# Stress axis : x y z
#
# Youngs Moduli (GPa) = 46.76475 155.17561 140.42001
#
# Poissons Ratio (x) = 0.72524 0.01488
# Poissons Ratio (y) = 0.21856 0.23751
# Poissons Ratio (z) = 0.00496 0.26247
#
# Static dielectric constant tensor:
#      x y z
#    x 2.182450 0.065010 0.086750 
#    y 0.065010 2.102090 0.049410 
#    z 0.086750 0.049410 2.170090 
# 
# From -- ./inp_files/397266.got.cif
#   From: 2010.05.17/outbox.cif.g08.bks.cpg/sg2_199_cif.got.tgz:397266.got - 2010.06.03 11:33:40.
