data_PCOD9076043
_publ_section_title
;
Structure prediction by ZEFSAII (Michael W. Deem and Ramdas Pophale) SiO2 
 PCOD9076043
Probable space group: P -1
;
_chemical_formula_sum "Si O2"
_cell_formula_units_Z 14
_cell_length_a 8.015678
_cell_length_b 11.838436
_cell_length_c 12.099031
_cell_angle_alpha 37.558778
_cell_angle_beta 77.521793
_cell_angle_gamma 100.046344
_cell_volume 556.221164
_symmetry_space_group_name_H-M "P -1"
_symmetry_group_IT_number 2
_symmetry_cell_setting 'triclinic'
loop_
_space_group_symop_operation_xyz
x,y,z
-x,-y,-z
loop_
_atom_site_type_symbol
_atom_site_label
_atom_site_fract_x
_atom_site_fract_y
_atom_site_fract_z
Si Si1 0.796201 0.497154 0.241318
Si Si2 0.785471 0.866669 0.703209
Si Si3 0.382601 0.087255 0.885931
Si Si4 0.658425 0.355296 0.144243
Si Si5 0.937861 0.997697 0.815498
Si Si6 0.614187 0.535438 0.613140
Si Si7 0.215627 0.672453 0.090347
O O1 0.748981 0.349873 0.252646
O O2 0.570953 0.437171 0.354954
O O3 0.967723 0.504699 0.288106
O O4 0.923337 0.767193 0.989315
O O5 0.590811 0.827593 0.693291
O O6 0.711457 0.608474 0.935785
O O7 0.000000 0.000000 0.500000
O O8 0.830022 0.988306 0.721793
O O9 0.310209 0.929742 0.912226
O O10 0.190287 0.025460 0.039455
O O11 0.500000 0.000000 0.000000
O O12 0.540955 0.358902 0.659211
O O13 0.764509 0.337348 0.035429
O O14 0.168888 0.223375 0.620866
O O15 0.657608 0.416070 0.800067
#
# Coordination Sequence:
#
# PCOD9076043 Si02
#       7
#     2   2   2   2   2   2   2
#     4  10  22  39  59  86 116 147 190 238 282 335
#     4  10  18  32  59  86 110 147 189 230 282 336
#     4   9  20  37  58  85 116 148 190 235 279 336
#     4  10  19  34  55  82 115 148 185 231 282 335
#     4  10  20  37  60  85 115 150 189 236 284 333
#     4  10  21  40  61  83 114 150 190 235 283 335
#     4  11  21  38  61  84 116 154 188 231 285 338
#
# _framework density 25.169843
#
# number of rings (size 3 to 8) (size 9 to 14) (size 15 to 20)
#    0.000    2.000    0.000    6.429    0.000    4.571 
#    0.000   11.429    0.000    7.714    0.000    0.000 
#    0.000    0.000    0.000    0.000    0.000    0.000 
#
# Total GULP energy -78317.637221 kJ/mol
# GULP energy per Si atom -5594.116944 kJ/mol
# Density = 2.511255 g / cm^3
# Si number density = 25.169843 Si / 1000 Ang^3
#
#
#
# Elastic Constant Matrix: (Units=GPa)
#
#
# Indices 1 2 3 4 5 6 
#
# 1 89.4571 40.7747 35.5993 -6.2911 -28.6654 5.0784
# 2 40.7747 160.0041 43.8610 -26.1692 -7.0930 -15.2359
# 3 35.5993 43.8610 144.2225 -43.9976 -25.0692 0.5060
# 4 -6.2911 -26.1692 -43.9976 32.3163 4.9253 -0.8887
# 5 -28.6654 -7.0930 -25.0692 4.9253 48.6251 -8.7104
# 6 5.0784 -15.2359 0.5060 -0.8887 -8.7104 25.8904
#
#
#
# Elastic Compliance Matrix: (Units=1/GPa)
#
#
# Indices 1 2 3 4 5 6 
#
# 1 0.016620 -0.004302 -0.003314 -0.005990 0.007455 -0.003425
# 2 -0.004302 0.008978 0.000413 0.007263 -0.000648 0.006151
# 3 -0.003314 0.000413 0.013737 0.017877 0.003831 0.002527
# 4 -0.005990 0.007263 0.017877 0.059897 0.002085 0.007857
# 5 0.007455 -0.000648 0.003831 0.002085 0.027986 0.007569
# 6 -0.003425 0.006151 0.002527 0.007857 0.007569 0.045682
#
#
# Mechanical properties :
#
#
# Convention : Reuss Voigt Hill
#
# Bulk Modulus (GPa) = 40.11330 70.46151 55.28741
# Shear Modulus (GPa) = 25.56036 39.59629 32.57832
#
# Velocity S-wave (km/s) = 3.19017 3.97062 3.60160
# Velocity P-wave (km/s) = 5.43519 7.00544 6.26967
#
# Compressibility (1/GPa) = 0.02492939
#
# Stress axis : x y z
#
# Youngs Moduli (GPa) = 60.16721 111.38554 72.79712
#
# Poissons Ratio (x) = 0.47923 0.24121
# Poissons Ratio (y) = 0.25887 -0.03008
# Poissons Ratio (z) = 0.19937 -0.04602
#
# Static dielectric constant tensor:
#      x y z
#    x 2.072200 0.065650 0.005040 
#    y 0.065650 1.964380 0.019560 
#    z 0.005040 0.019560 1.995850 
# 
# From -- ./inp_files/222671.got.cif
#   From: 2010.05.17/outbox.cif.g08.bks.cpg/sg2_112_cif.got.tgz:222671.got - 2010.06.03 11:33:40.
