data_PCOD9076613
_publ_section_title
;
Structure prediction by ZEFSAII (Michael W. Deem and Ramdas Pophale) SiO2 
 PCOD9076613
Probable space group: P -1
;
_chemical_formula_sum "Si O2"
_cell_formula_units_Z 16
_cell_length_a 6.209133
_cell_length_b 24.132233
_cell_length_c 17.736949
_cell_angle_alpha 161.450724
_cell_angle_beta 103.742968
_cell_angle_gamma 84.886236
_cell_volume 737.330728
_symmetry_space_group_name_H-M "P -1"
_symmetry_group_IT_number 2
_symmetry_cell_setting 'triclinic'
loop_
_space_group_symop_operation_xyz
x,y,z
-x,-y,-z
loop_
_atom_site_type_symbol
_atom_site_label
_atom_site_fract_x
_atom_site_fract_y
_atom_site_fract_z
Si Si1 0.627970 0.299744 0.893012
Si Si2 0.975582 0.990596 0.867527
Si Si3 0.829321 0.704498 0.224676
Si Si4 0.933756 0.384636 0.728884
Si Si5 0.770473 0.158150 0.201325
Si Si6 0.534151 0.985002 0.750580
Si Si7 0.310280 0.007092 0.600649
Si Si8 0.513102 0.302738 0.264862
O O1 0.443632 0.324105 0.849076
O O2 0.468517 0.219323 0.852138
O O3 0.692880 0.136544 0.651197
O O4 0.883482 0.491705 0.162335
O O5 0.777284 0.950060 0.733051
O O6 0.858910 0.067174 0.022742
O O7 0.038063 0.825487 0.696204
O O8 0.238658 0.157733 0.081757
O O9 0.908330 0.677307 0.279525
O O10 0.863267 0.539249 0.965810
O O11 0.024530 0.919123 0.488806
O O12 0.681981 0.189641 0.445975
O O13 0.714145 0.326161 0.376896
O O14 0.500000 0.000000 0.000000
O O15 0.446236 0.979479 0.650534
O O16 0.569259 0.188527 0.053292
O O17 0.500000 0.500000 0.500000
#
# Coordination Sequence:
#
# PCOD9076613 Si02
#       8
#     2   2   2   2   2   2   2   2
#     4  10  18  33  58  80 114 158 195 232 295 342
#     4   9  18  35  63  82 109 154 186 237 301 346
#     4   9  17  32  54  79 108 152 194 235 287 339
#     4   9  19  32  51  83 111 142 199 245 272 352
#     4   8  16  34  61  88 108 135 194 234 285 362
#     4  10  21  36  56  83 123 149 199 242 298 345
#     4   9  20  34  53  85 114 154 195 238 283 357
#     4  10  21  37  63  88 111 152 200 240 293 357
#
# _framework density 21.699895999999999
#
# number of rings (size 3 to 8) (size 9 to 14) (size 15 to 20)
#    0.000    2.750    0.000    1.500    0.000    5.000 
#    0.000    0.000   49.500    0.000    0.000    0.000 
#    0.000    0.000    0.000    0.000    0.000    0.000 
#
# Total GULP energy -89183.926074 kJ/mol
# GULP energy per Si atom -5573.995380 kJ/mol
# Density = 2.165051 g / cm^3
# Si number density = 21.699896 Si / 1000 Ang^3
#
#
#
# Elastic Constant Matrix: (Units=GPa)
#
#
# Indices 1 2 3 4 5 6 
#
# 1 82.3629 23.0193 24.2358 6.6323 3.8220 -19.5347
# 2 23.0193 53.9307 35.3555 17.3299 -3.7005 -13.8660
# 3 24.2358 35.3555 88.2762 14.1875 -6.1460 -4.6762
# 4 6.6323 17.3299 14.1875 28.8209 -0.6460 -0.5039
# 5 3.8220 -3.7005 -6.1460 -0.6460 23.8283 0.7849
# 6 -19.5347 -13.8660 -4.6762 -0.5039 0.7849 47.0717
#
#
#
# Elastic Compliance Matrix: (Units=1/GPa)
#
#
# Indices 1 2 3 4 5 6 
#
# 1 0.015374 -0.003760 -0.002730 0.000068 -0.003919 0.005067
# 2 -0.003760 0.032704 -0.009250 -0.014064 0.002686 0.006959
# 3 -0.002730 -0.009250 0.016161 -0.001734 0.003199 -0.002324
# 4 0.000068 -0.014064 -0.001734 0.043896 -0.001327 -0.003795
# 5 -0.003919 0.002686 0.003199 -0.001327 0.043843 -0.001263
# 6 0.005067 0.006959 -0.002324 -0.003795 -0.001263 0.025147
#
#
# Mechanical properties :
#
#
# Convention : Reuss Voigt Hill
#
# Bulk Modulus (GPa) = 30.52673 43.31010 36.91841
# Shear Modulus (GPa) = 22.77650 29.40813 26.09231
#
# Velocity S-wave (km/s) = 3.24329 3.68532 3.47135
# Velocity P-wave (km/s) = 5.30315 6.17340 5.75475
#
# Compressibility (1/GPa) = 0.03275818
#
# Stress axis : x y z
#
# Youngs Moduli (GPa) = 65.04509 30.57714 61.87858
#
# Poissons Ratio (x) = 0.11497 0.16894
# Poissons Ratio (y) = 0.24457 0.57238
# Poissons Ratio (z) = 0.17759 0.28284
#
# Static dielectric constant tensor:
#      x y z
#    x 1.782240 0.011040 0.000510 
#    y 0.011040 1.882730 -0.017920 
#    z 0.000510 -0.017920 1.824210 
# 
# From -- ./inp_files/116227.got.cif
#   From: 2010.05.17/outbox.cif.g08.bks.cpg/sg2_59_cif.got.tgz:116227.got - 2010.06.03 11:33:40.
