data_PCOD9076532
_publ_section_title
;
Structure prediction by ZEFSAII (Michael W. Deem and Ramdas Pophale) SiO2 
 PCOD9076532
Probable space group: P -1
;
_chemical_formula_sum "Si O2"
_cell_formula_units_Z 16
_cell_length_a 24.557908
_cell_length_b 12.843979
_cell_length_c 8.487364
_cell_angle_alpha 121.732054
_cell_angle_beta 142.533302
_cell_angle_gamma 27.537655
_cell_volume 583.259401
_symmetry_space_group_name_H-M "P -1"
_symmetry_group_IT_number 2
_symmetry_cell_setting 'triclinic'
loop_
_space_group_symop_operation_xyz
x,y,z
-x,-y,-z
loop_
_atom_site_type_symbol
_atom_site_label
_atom_site_fract_x
_atom_site_fract_y
_atom_site_fract_z
Si Si1 0.364305 0.569402 0.404213
Si Si2 0.055234 0.291597 0.955015
Si Si3 0.905067 0.860370 0.749753
Si Si4 0.399605 0.277357 0.412955
Si Si5 0.928185 0.826034 0.422968
Si Si6 0.581683 0.737543 0.887688
Si Si7 0.654592 0.360011 0.106864
Si Si8 0.605317 0.710518 0.254339
O O1 0.352945 0.480972 0.445500
O O2 0.617636 0.547069 0.791669
O O3 0.170944 0.904404 0.221614
O O4 0.567211 0.401272 0.781040
O O5 0.159153 0.139331 0.900646
O O6 0.839988 0.478426 0.605075
O O7 0.168563 0.115265 0.239751
O O8 0.000000 0.500000 0.000000
O O9 0.835190 0.912063 0.451423
O O10 0.158497 0.526943 0.062699
O O11 0.514772 0.100857 0.372776
O O12 0.500396 0.124278 0.690583
O O13 0.876562 0.029152 0.412563
O O14 0.180491 0.501875 0.756520
O O15 0.488417 0.883999 0.959764
O O16 0.646456 0.513986 0.194206
O O17 0.500000 0.500000 0.000000
#
# Coordination Sequence:
#
# PCOD9076532 Si02
#       8
#     2   2   2   2   2   2   2   2
#     4  10  19  31  48  85 127 147 173 215 273 368
#     4  10  24  41  60  85 105 145 216 256 271 313
#     4  10  18  33  57  82 113 153 185 235 286 324
#     4   8  16  29  48  77 114 145 179 220 269 340
#     4  10  21  36  60  86 118 149 184 238 292 341
#     4   8  19  31  50  79 113 150 191 212 274 347
#     4  12  21  32  54  95 130 148 177 215 290 382
#     4  10  19  34  56  78 115 151 177 235 292 325
#
# _framework density 27.432047000000001
#
# number of rings (size 3 to 8) (size 9 to 14) (size 15 to 20)
#    0.750    1.500    2.500    0.375    5.250    2.000 
#    0.000    0.000    0.000    1.500    0.000    0.000 
#    0.000    0.000    0.000    0.000    0.000    0.000 
#
# Total GULP energy -89452.975229 kJ/mol
# GULP energy per Si atom -5590.810952 kJ/mol
# Density = 2.736961 g / cm^3
# Si number density = 27.432047 Si / 1000 Ang^3
#
#
#
# Elastic Constant Matrix: (Units=GPa)
#
#
# Indices 1 2 3 4 5 6 
#
# 1 189.9177 53.6313 64.2215 21.9714 -63.4369 -10.3637
# 2 53.6313 109.1839 40.1850 1.1336 -19.6394 0.8888
# 3 64.2215 40.1850 119.8369 13.1027 -37.1035 -14.5594
# 4 21.9714 1.1336 13.1027 40.8942 -19.0153 -8.3783
# 5 -63.4369 -19.6394 -37.1035 -19.0153 66.8728 11.1048
# 6 -10.3637 0.8888 -14.5594 -8.3783 11.1048 44.5970
#
#
#
# Elastic Compliance Matrix: (Units=1/GPa)
#
#
# Indices 1 2 3 4 5 6 
#
# 1 0.008832 -0.002509 -0.001837 -0.001206 0.006330 -0.000300
# 2 -0.002509 0.011446 -0.002810 0.001703 0.000147 -0.001445
# 3 -0.001837 -0.002810 0.011669 -0.000621 0.003316 0.002496
# 4 -0.001206 0.001703 -0.000621 0.029051 0.006731 0.003265
# 5 0.006330 0.000147 0.003316 0.006731 0.025162 -0.002450
# 6 -0.000300 -0.001445 0.002496 0.003265 -0.002450 0.024421
#
#
# Mechanical properties :
#
#
# Convention : Reuss Voigt Hill
#
# Bulk Modulus (GPa) = 56.70293 81.66823 69.18558
# Shear Modulus (GPa) = 38.23465 47.86620 43.05043
#
# Velocity S-wave (km/s) = 3.73741 4.18173 3.96580
# Velocity P-wave (km/s) = 6.27212 7.29051 6.80041
#
# Compressibility (1/GPa) = 0.01763577
#
# Stress axis : x y z
#
# Youngs Moduli (GPa) = 113.21890 87.36735 85.69631
#
# Poissons Ratio (x) = 0.21920 0.15742
# Poissons Ratio (y) = 0.28406 0.24081
# Poissons Ratio (z) = 0.20797 0.24550
#
# Static dielectric constant tensor:
#      x y z
#    x 2.193820 -0.033150 -0.050050 
#    y -0.033150 2.099990 0.048370 
#    z -0.050050 0.048370 2.160610 
# 
# From -- ./inp_files/353596.got.cif
#   From: 2010.05.17/outbox.cif.g08.bks.cpg/sg2_177_cif.got.tgz:353596.got - 2010.06.03 11:33:40.
