data_PCOD9076972
_publ_section_title
;
Structure prediction by ZEFSAII (Michael W. Deem and Ramdas Pophale) SiO2 
 PCOD9076972
Probable space group: P -1
;
_chemical_formula_sum "Si O2"
_cell_formula_units_Z 14
_cell_length_a 10.136134
_cell_length_b 16.704430
_cell_length_c 6.969090
_cell_angle_alpha 128.546644
_cell_angle_beta 62.289832
_cell_angle_gamma 144.549131
_cell_volume 532.903187
_symmetry_space_group_name_H-M "P -1"
_symmetry_group_IT_number 2
_symmetry_cell_setting 'triclinic'
loop_
_space_group_symop_operation_xyz
x,y,z
-x,-y,-z
loop_
_atom_site_type_symbol
_atom_site_label
_atom_site_fract_x
_atom_site_fract_y
_atom_site_fract_z
Si Si1 0.328776 0.831562 0.095247
Si Si2 0.978774 0.321228 0.404198
Si Si3 0.841077 0.576515 0.134253
Si Si4 0.594136 0.244367 0.704756
Si Si5 0.870025 0.895611 0.128535
Si Si6 0.418012 0.460433 0.275184
Si Si7 0.264030 0.985019 0.130368
O O1 0.401813 0.844579 0.278112
O O2 0.063788 0.670394 0.998493
O O3 0.502785 0.857497 0.888337
O O4 0.337898 0.955092 0.215495
O O5 0.793650 0.316174 0.527546
O O6 0.842031 0.155331 0.155057
O O7 0.049926 0.338929 0.606556
O O8 0.239675 0.458726 0.348062
O O9 0.664415 0.571601 0.172708
O O10 0.702343 0.399220 0.973152
O O11 0.329408 0.137213 0.697449
O O12 0.732818 0.719590 0.916797
O O13 0.074699 0.972162 0.246324
O O14 0.000000 0.000000 0.000000
O O15 0.500000 0.500000 0.500000
#
# Coordination Sequence:
#
# PCOD9076972 Si02
#       7
#     2   2   2   2   2   2   2
#     4  10  19  34  53  77 107 139 174 213 266 312
#     4   9  17  32  52  78 104 131 180 217 247 313
#     4   9  18  33  55  78 104 139 175 214 261 315
#     4  10  19  34  58  79 104 135 179 216 261 312
#     4  10  18  34  53  78 103 140 178 214 258 315
#     4   8  16  31  50  77 105 129 174 220 257 302
#     4  10  21  34  53  78 107 139 175 215 263 311
#
# _framework density 26.271191000000002
#
# number of rings (size 3 to 8) (size 9 to 14) (size 15 to 20)
#    0.000    2.571    1.429    1.714    0.000    2.286 
#    2.571    9.286    0.000   17.143    0.000    0.000 
#    0.000    0.000    0.000    0.000    0.000    0.000 
#
# Total GULP energy -78108.783602 kJ/mol
# GULP energy per Si atom -5579.198829 kJ/mol
# Density = 2.621140 g / cm^3
# Si number density = 26.271191 Si / 1000 Ang^3
#
#
#
# Elastic Constant Matrix: (Units=GPa)
#
#
# Indices 1 2 3 4 5 6 
#
# 1 167.4255 79.9375 54.7403 -16.7981 -8.7437 84.6321
# 2 79.9375 135.3987 25.9366 -13.4411 -9.7894 62.2774
# 3 54.7403 25.9366 89.3163 -7.1018 4.0340 17.4451
# 4 -16.7981 -13.4411 -7.1018 20.0203 17.2813 -14.9956
# 5 -8.7437 -9.7894 4.0340 17.2813 36.3876 -8.7071
# 6 84.6321 62.2774 17.4451 -14.9956 -8.7071 73.3721
#
#
#
# Elastic Compliance Matrix: (Units=1/GPa)
#
#
# Indices 1 2 3 4 5 6 
#
# 1 0.018201 -0.000715 -0.007680 -0.004546 0.002602 -0.019182
# 2 -0.000715 0.012428 -0.001513 -0.001345 0.001720 -0.009435
# 3 -0.007680 -0.001513 0.015957 0.009756 -0.006853 0.007529
# 4 -0.004546 -0.001345 0.009756 0.104419 -0.047393 0.019782
# 5 0.002602 0.001720 -0.006853 -0.047393 0.050270 -0.006552
# 6 -0.019182 -0.009435 0.007529 0.019782 -0.006552 0.045239
#
#
# Mechanical properties :
#
#
# Convention : Reuss Voigt Hill
#
# Bulk Modulus (GPa) = 37.35326 79.26327 58.30826
# Shear Modulus (GPa) = 18.16511 41.39107 29.77809
#
# Velocity S-wave (km/s) = 2.63239 3.97360 3.37038
# Velocity P-wave (km/s) = 4.84649 7.16166 6.11465
#
# Compressibility (1/GPa) = 0.02677143
#
# Stress axis : x y z
#
# Youngs Moduli (GPa) = 54.94121 80.46285 62.66846
#
# Poissons Ratio (x) = 0.05752 0.48129
# Poissons Ratio (y) = 0.03928 0.09479
# Poissons Ratio (z) = 0.42195 0.12171
#
# Static dielectric constant tensor:
#      x y z
#    x 2.063530 0.034650 -0.015990 
#    y 0.034650 2.166420 -0.115780 
#    z -0.015990 -0.115780 2.107610 
# 
# From -- ./inp_files/282247.got.cif
#   From: 2010.05.17/outbox.cif.g08.bks.cpg/sg2_142_cif.got.tgz:282247.got - 2010.06.03 11:33:40.
