data_PCOD9076659
_publ_section_title
;
Structure prediction by ZEFSAII (Michael W. Deem and Ramdas Pophale) SiO2 
 PCOD9076659
Probable space group: P -1
;
_chemical_formula_sum "Si O2"
_cell_formula_units_Z 16
_cell_length_a 16.467975
_cell_length_b 7.100560
_cell_length_c 9.483423
_cell_angle_alpha 136.643945
_cell_angle_beta 106.746494
_cell_angle_gamma 99.871302
_cell_volume 594.151005
_symmetry_space_group_name_H-M "P -1"
_symmetry_group_IT_number 2
_symmetry_cell_setting 'triclinic'
loop_
_space_group_symop_operation_xyz
x,y,z
-x,-y,-z
loop_
_atom_site_type_symbol
_atom_site_label
_atom_site_fract_x
_atom_site_fract_y
_atom_site_fract_z
Si Si1 0.202787 0.697157 0.190392
Si Si2 0.429447 0.403649 0.273846
Si Si3 0.014100 0.298931 0.017120
Si Si4 0.686312 0.618354 0.289374
Si Si5 0.128033 0.485234 0.442959
Si Si6 0.430097 0.088152 0.611183
Si Si7 0.633269 0.201636 0.290948
Si Si8 0.776194 0.190875 0.052913
O O1 0.118442 0.347064 0.030432
O O2 0.212710 0.000796 0.447923
O O3 0.000000 0.500000 0.000000
O O4 0.177792 0.733287 0.037851
O O5 0.500000 0.500000 0.500000
O O6 0.479566 0.701888 0.344536
O O7 0.420597 0.110120 0.013935
O O8 0.310337 0.195626 0.157881
O O9 0.054026 0.480524 0.287082
O O10 0.923468 0.910276 0.778451
O O11 0.600455 0.659563 0.205141
O O12 0.650025 0.503352 0.370124
O O13 0.716000 0.375576 0.118773
O O14 0.248495 0.682620 0.559481
O O15 0.141821 0.642247 0.688828
O O16 0.430340 0.910765 0.657460
O O17 0.321599 0.817336 0.327217
#
# Coordination Sequence:
#
# PCOD9076659 Si02
#       8
#     2   2   2   2   2   2   2   2
#     4  10  20  37  62  85 114 152 191 237 285 342
#     4  10  18  33  58  87 116 155 189 233 285 329
#     4  11  20  36  63  83 111 148 193 238 286 348
#     4   8  19  35  60  80 116 153 186 231 290 323
#     4   9  20  35  56  85 112 150 186 234 295 334
#     4  10  19  35  59  85 112 152 199 225 280 343
#     4  10  19  34  60  82 116 154 190 233 283 342
#     4  10  20  37  62  83 122 154 185 240 287 337
#
# _framework density 26.929182000000001
#
# number of rings (size 3 to 8) (size 9 to 14) (size 15 to 20)
#    0.750    1.750    2.500    1.875    0.000    2.500 
#    0.000    0.625   16.500    6.000    0.000    0.000 
#    0.000    0.000    0.000    0.000    0.000    0.000 
#
# Total GULP energy -89417.279093 kJ/mol
# GULP energy per Si atom -5588.579943 kJ/mol
# Density = 2.686789 g / cm^3
# Si number density = 26.929182 Si / 1000 Ang^3
#
#
#
# Elastic Constant Matrix: (Units=GPa)
#
#
# Indices 1 2 3 4 5 6 
#
# 1 63.9664 34.1490 22.9684 -1.7300 9.6521 4.8790
# 2 34.1490 180.3495 67.6974 -8.6698 -4.0060 4.2809
# 3 22.9684 67.6974 151.4708 -12.3495 33.3411 4.2795
# 4 -1.7300 -8.6698 -12.3495 35.6412 1.3087 11.5921
# 5 9.6521 -4.0060 33.3411 1.3087 36.2961 -10.5338
# 6 4.8790 4.2809 4.2795 11.5921 -10.5338 61.8410
#
#
#
# Elastic Compliance Matrix: (Units=1/GPa)
#
#
# Indices 1 2 3 4 5 6 
#
# 1 0.018693 -0.003741 0.000470 0.001252 -0.006618 -0.002610
# 2 -0.003741 0.008033 -0.004495 -0.000414 0.006378 0.001214
# 3 0.000470 -0.004495 0.011809 0.004649 -0.012674 -0.003573
# 4 0.001252 -0.000414 0.004649 0.032482 -0.008102 -0.007861
# 5 -0.006618 0.006378 -0.012674 -0.008102 0.044887 0.010122
# 6 -0.002610 0.001214 -0.003573 -0.007861 0.010122 0.019737
#
#
# Mechanical properties :
#
#
# Convention : Reuss Voigt Hill
#
# Bulk Modulus (GPa) = 43.47048 71.71294 57.59171
# Shear Modulus (GPa) = 31.47784 44.82045 38.14915
#
# Velocity S-wave (km/s) = 3.42264 4.08411 3.76792
# Velocity P-wave (km/s) = 5.63887 6.99485 6.35314
#
# Compressibility (1/GPa) = 0.02300412
#
# Stress axis : x y z
#
# Youngs Moduli (GPa) = 53.49551 124.48115 84.67924
#
# Poissons Ratio (x) = 0.46566 -0.03980
# Poissons Ratio (y) = 0.20012 0.38064
# Poissons Ratio (z) = -0.02514 0.55955
#
# Static dielectric constant tensor:
#      x y z
#    x 2.280650 -0.003750 0.007040 
#    y -0.003750 2.050670 0.015560 
#    z 0.007040 0.015560 2.141580 
# 
# From -- ./inp_files/356306.got.cif
#   From: 2010.05.17/outbox.cif.g08.bks.cpg/sg2_179_cif.got.tgz:356306.got - 2010.06.03 11:33:40.
