data_PCOD9076675
_publ_section_title
;
Structure prediction by ZEFSAII (Michael W. Deem and Ramdas Pophale) SiO2 
 PCOD9076675
Probable space group: P -1
;
_chemical_formula_sum "Si O2"
_cell_formula_units_Z 16
_cell_length_a 13.230522
_cell_length_b 14.866213
_cell_length_c 8.212412
_cell_angle_alpha 72.387437
_cell_angle_beta 83.581941
_cell_angle_gamma 25.947606
_cell_volume 621.886755
_symmetry_space_group_name_H-M "P -1"
_symmetry_group_IT_number 2
_symmetry_cell_setting 'triclinic'
loop_
_space_group_symop_operation_xyz
x,y,z
-x,-y,-z
loop_
_atom_site_type_symbol
_atom_site_label
_atom_site_fract_x
_atom_site_fract_y
_atom_site_fract_z
Si Si1 0.364600 0.505583 0.865674
Si Si2 0.350124 0.744569 0.370776
Si Si3 0.984353 0.384954 0.122122
Si Si4 0.698051 0.535917 0.673887
Si Si5 0.816151 0.923540 0.967110
Si Si6 0.520029 0.839318 0.795947
Si Si7 0.866459 0.112847 0.140981
Si Si8 0.074917 0.336938 0.502436
O O1 0.609388 0.277166 0.058914
O O2 0.465449 0.445536 0.700992
O O3 0.182436 0.570815 0.849342
O O4 0.235875 0.704872 0.859702
O O5 0.494761 0.642036 0.566877
O O6 0.102567 0.888933 0.336193
O O7 0.262051 0.922252 0.216175
O O8 0.060584 0.349380 0.305530
O O9 0.193270 0.165974 0.084087
O O10 0.796887 0.615417 0.940602
O O11 0.905103 0.309482 0.874560
O O12 0.871344 0.436238 0.557807
O O13 0.562163 0.733472 0.693386
O O14 0.633585 0.069700 0.071954
O O15 0.352407 0.069232 0.647827
O O16 0.000000 0.000000 0.000000
O O17 0.000000 0.500000 0.500000
#
# Coordination Sequence:
#
# PCOD9076675 Si02
#       8
#     2   2   2   2   2   2   2   2
#     4  10  18  33  58  89 117 155 204 240 293 355
#     4  11  18  35  61  84 115 158 195 243 297 339
#     4  11  20  38  64  86 115 163 200 239 298 356
#     4  10  22  37  60  90 116 151 200 240 292 357
#     4  10  20  34  58  90 115 153 200 241 289 353
#     4  10  22  39  59  89 121 153 199 246 291 356
#     4   9  20  31  54  93 120 152 199 247 290 348
#     4  11  24  41  62  91 121 151 197 249 298 353
#
# _framework density 25.728155999999998
#
# number of rings (size 3 to 8) (size 9 to 14) (size 15 to 20)
#    0.000    1.750    3.750    0.750    0.000    1.000 
#    0.000    5.625    0.000   11.250    0.000    0.000 
#    0.000    0.000    0.000    0.000    0.000    0.000 
#
# Total GULP energy -89562.865805 kJ/mol
# GULP energy per Si atom -5597.679113 kJ/mol
# Density = 2.566960 g / cm^3
# Si number density = 25.728156 Si / 1000 Ang^3
#
#
#
# Elastic Constant Matrix: (Units=GPa)
#
#
# Indices 1 2 3 4 5 6 
#
# 1 54.1833 38.7894 48.9542 -11.6223 12.7926 9.1642
# 2 38.7894 190.1549 65.9832 5.8096 3.2053 35.7344
# 3 48.9542 65.9832 151.4711 7.9659 21.6930 43.8812
# 4 -11.6223 5.8096 7.9659 36.5082 6.5426 -3.4820
# 5 12.7926 3.2053 21.6930 6.5426 41.4618 -0.9659
# 6 9.1642 35.7344 43.8812 -3.4820 -0.9659 41.8463
#
#
#
# Elastic Compliance Matrix: (Units=1/GPa)
#
#
# Indices 1 2 3 4 5 6 
#
# 1 0.038139 -0.005881 -0.013140 0.018335 -0.007056 0.011812
# 2 -0.005881 0.007538 0.000249 -0.003956 0.001593 -0.005702
# 3 -0.013140 0.000249 0.015973 -0.008531 -0.003322 -0.014871
# 4 0.018335 -0.003956 -0.008531 0.037984 -0.006618 0.011316
# 5 -0.007056 0.001593 -0.003322 -0.006618 0.029043 0.003789
# 6 0.011812 -0.005702 -0.014871 0.011316 0.003789 0.042803
#
#
# Mechanical properties :
#
#
# Convention : Reuss Voigt Hill
#
# Bulk Modulus (GPa) = 41.48430 78.14034 59.81232
# Shear Modulus (GPa) = 23.03517 40.10209 31.56863
#
# Velocity S-wave (km/s) = 2.99545 3.95230 3.50667
# Velocity P-wave (km/s) = 5.30309 7.15996 6.30031
#
# Compressibility (1/GPa) = 0.02410551
#
# Stress axis : x y z
#
# Youngs Moduli (GPa) = 26.21983 132.66509 62.60712
#
# Poissons Ratio (x) = 0.78026 0.82264
# Poissons Ratio (y) = 0.15421 -0.01560
# Poissons Ratio (z) = 0.34452 -0.03305
#
# Static dielectric constant tensor:
#      x y z
#    x 2.151770 -0.027360 -0.016010 
#    y -0.027360 2.045700 -0.021620 
#    z -0.016010 -0.021620 2.000650 
# 
# From -- ./inp_files/336747.got.cif
#   From: 2010.05.17/outbox.cif.g08.bks.cpg/sg2_169_cif.got.tgz:336747.got - 2010.06.03 11:33:40.
