data_PCOD9076335
_publ_section_title
;
Structure prediction by ZEFSAII (Michael W. Deem and Ramdas Pophale) SiO2 
 PCOD9076335
Probable space group: P -1
;
_chemical_formula_sum "Si O2"
_cell_formula_units_Z 14
_cell_length_a 24.675396
_cell_length_b 7.190920
_cell_length_c 10.773352
_cell_angle_alpha 58.427576
_cell_angle_beta 144.592684
_cell_angle_gamma 145.936467
_cell_volume 548.476948
_symmetry_space_group_name_H-M "P -1"
_symmetry_group_IT_number 2
_symmetry_cell_setting 'triclinic'
loop_
_space_group_symop_operation_xyz
x,y,z
-x,-y,-z
loop_
_atom_site_type_symbol
_atom_site_label
_atom_site_fract_x
_atom_site_fract_y
_atom_site_fract_z
Si Si1 0.294559 0.386221 0.382301
Si Si2 0.083053 0.091898 0.885807
Si Si3 0.485651 0.254729 0.135097
Si Si4 0.363246 0.812338 0.711680
Si Si5 0.004967 0.405366 0.761374
Si Si6 0.152654 0.481434 0.667068
Si Si7 0.780684 0.301570 0.735196
O O1 0.465510 0.635269 0.668499
O O2 0.272849 0.595318 0.315232
O O3 0.157824 0.977800 0.335754
O O4 0.246003 0.305351 0.176305
O O5 0.090183 0.145717 0.734323
O O6 0.051484 0.277466 0.815843
O O7 0.936692 0.676404 0.815716
O O8 0.626007 0.374558 0.292953
O O9 0.500000 0.500000 0.000000
O O10 0.310300 0.832828 0.924424
O O11 0.222003 0.580374 0.625011
O O12 0.351084 0.978619 0.523695
O O13 0.500000 0.000000 0.000000
O O14 0.963271 0.530865 0.554180
O O15 0.142229 0.714273 0.013674
#
# Coordination Sequence:
#
# PCOD9076335 Si02
#       7
#     2   2   2   2   2   2   2
#     4   8  15  31  51  72  94 131 170 200 232 287
#     4   9  18  30  49  76 105 127 160 201 247 289
#     4  10  18  33  55  72  91 133 175 202 235 289
#     4   9  20  34  49  75  98 127 166 205 242 292
#     4   9  16  30  50  75  99 128 167 198 234 291
#     4  11  20  29  49  80 104 125 156 212 248 280
#     4   8  16  32  52  68  98 136 161 195 241 294
#
# _framework density 25.525231000000002
#
# number of rings (size 3 to 8) (size 9 to 14) (size 15 to 20)
#    0.000    2.857    1.429    2.143    0.000    1.714 
#    0.000    0.000    0.000    0.857    0.000    0.000 
#    0.000    0.000    0.000    0.000    0.000    0.000 
#
# Total GULP energy -78064.034933 kJ/mol
# GULP energy per Si atom -5576.002495 kJ/mol
# Density = 2.546713 g / cm^3
# Si number density = 25.525231 Si / 1000 Ang^3
#
#
#
# Elastic Constant Matrix: (Units=GPa)
#
#
# Indices 1 2 3 4 5 6 
#
# 1 54.5565 -2.4779 15.5799 -7.4435 -9.7172 -2.3457
# 2 -2.4779 43.0995 21.4262 -9.2975 0.9925 -1.5483
# 3 15.5799 21.4262 208.2951 -21.2602 -32.9410 -3.5865
# 4 -7.4435 -9.2975 -21.2602 43.3271 0.2535 -10.3766
# 5 -9.7172 0.9925 -32.9410 0.2535 38.1828 -7.2033
# 6 -2.3457 -1.5483 -3.5865 -10.3766 -7.2033 20.7838
#
#
#
# Elastic Compliance Matrix: (Units=1/GPa)
#
#
# Indices 1 2 3 4 5 6 
#
# 1 0.020785 0.002623 -0.000036 0.005945 0.006622 0.007798
# 2 0.002623 0.026003 -0.002402 0.005891 -0.001308 0.004306
# 3 -0.000036 -0.002402 0.006605 0.003937 0.006716 0.005250
# 4 0.005945 0.005891 0.003937 0.032234 0.008470 0.020818
# 5 0.006622 -0.001308 0.006716 0.008470 0.037219 0.018937
# 6 0.007798 0.004306 0.005250 0.020818 0.018937 0.067178
#
#
# Mechanical properties :
#
#
# Convention : Reuss Voigt Hill
#
# Bulk Modulus (GPa) = 18.60068 41.66753 30.13410
# Shear Modulus (GPa) = 24.08764 38.55361 31.32063
#
# Velocity S-wave (km/s) = 3.07527 3.89062 3.50672
# Velocity P-wave (km/s) = 4.46237 6.04500 5.31294
#
# Compressibility (1/GPa) = 0.05376147
#
# Stress axis : x y z
#
# Youngs Moduli (GPa) = 48.11198 38.45745 151.39892
#
# Poissons Ratio (x) = -0.10087 0.00549
# Poissons Ratio (y) = -0.12620 0.36372
# Poissons Ratio (z) = 0.00174 0.09239
#
# Static dielectric constant tensor:
#      x y z
#    x 2.209480 -0.143780 -0.070130 
#    y -0.143780 2.111330 0.086400 
#    z -0.070130 0.086400 2.183500 
# 
# From -- ./inp_files/154702.got.cif
#   From: 2010.05.17/outbox.cif.g08.bks.cpg/sg2_78_cif.got.tgz:154702.got - 2010.06.03 11:33:40.
