data_PCOD9076991
_publ_section_title
;
Structure prediction by ZEFSAII (Michael W. Deem and Ramdas Pophale) SiO2 
 PCOD9076991
Probable space group: P -1
;
_chemical_formula_sum "Si O2"
_cell_formula_units_Z 16
_cell_length_a 13.692376
_cell_length_b 12.372042
_cell_length_c 6.914827
_cell_angle_alpha 75.422644
_cell_angle_beta 135.457363
_cell_angle_gamma 126.199104
_cell_volume 632.721787
_symmetry_space_group_name_H-M "P -1"
_symmetry_group_IT_number 2
_symmetry_cell_setting 'triclinic'
loop_
_space_group_symop_operation_xyz
x,y,z
-x,-y,-z
loop_
_atom_site_type_symbol
_atom_site_label
_atom_site_fract_x
_atom_site_fract_y
_atom_site_fract_z
Si Si1 0.411988 0.132108 0.856039
Si Si2 0.724087 0.165548 0.107384
Si Si3 0.902031 0.561236 0.407703
Si Si4 0.552488 0.794384 0.665165
Si Si5 0.341691 0.385077 0.969005
Si Si6 0.892592 0.859738 0.547830
Si Si7 0.206029 0.890066 0.182573
Si Si8 0.820164 0.373190 0.705904
O O1 0.271327 0.155492 0.580644
O O2 0.321884 0.967703 0.777605
O O3 0.600953 0.204073 0.996060
O O4 0.436861 0.170406 0.103824
O O5 0.928168 0.288133 0.355601
O O6 0.701371 0.111292 0.881152
O O7 0.761292 0.565108 0.090913
O O8 0.789865 0.454218 0.470090
O O9 0.000000 0.500000 0.500000
O O10 0.349446 0.699240 0.367379
O O11 0.667141 0.945573 0.653813
O O12 0.615607 0.697485 0.793974
O O13 0.197550 0.269948 0.666292
O O14 0.500000 0.500000 0.000000
O O15 0.000000 0.000000 0.500000
O O16 0.025567 0.863045 0.878513
O O17 0.171498 0.752769 0.299053
O O18 0.000000 0.500000 0.000000
#
# Coordination Sequence:
#
# PCOD9076991 Si02
#       8
#     2   2   2   2   2   2   2   2
#     4   9  19  32  61  88 122 145 205 250 301 340
#     4  10  18  34  53  91 116 158 185 251 301 351
#     4  12  24  38  62  89 123 156 202 252 308 357
#     4  10  21  37  61  90 114 161 204 253 290 360
#     4  11  20  35  59  89 118 150 206 254 296 343
#     4  11  17  35  59  89 116 155 201 253 291 352
#     4  11  21  37  63  86 124 160 206 242 308 361
#     4  12  23  40  59  91 127 162 198 245 303 369
#
# _framework density 25.287575
#
# number of rings (size 3 to 8) (size 9 to 14) (size 15 to 20)
#    0.000    1.250    7.500    1.125    1.750    0.000 
#    0.000    0.000    2.750    2.250    0.000    0.000 
#    0.000    0.000    0.000    0.000    0.000    0.000 
#
# Total GULP energy -89352.512407 kJ/mol
# GULP energy per Si atom -5584.532025 kJ/mol
# Density = 2.523002 g / cm^3
# Si number density = 25.287575 Si / 1000 Ang^3
#
#
#
# Elastic Constant Matrix: (Units=GPa)
#
#
# Indices 1 2 3 4 5 6 
#
# 1 85.4994 25.6588 22.0455 -22.3327 26.1284 -14.1308
# 2 25.6588 156.1548 71.2262 -2.0976 28.5240 7.7025
# 3 22.0455 71.2262 98.6512 -5.4559 47.8314 -5.0541
# 4 -22.3327 -2.0976 -5.4559 53.6999 -11.1562 14.6501
# 5 26.1284 28.5240 47.8314 -11.1562 48.6290 -14.6340
# 6 -14.1308 7.7025 -5.0541 14.6501 -14.6340 41.0708
#
#
#
# Elastic Compliance Matrix: (Units=1/GPa)
#
#
# Indices 1 2 3 4 5 6 
#
# 1 0.015606 -0.002153 0.002113 0.004575 -0.007647 0.001677
# 2 -0.002153 0.010187 -0.008162 -0.000077 0.002352 -0.002790
# 3 0.002113 -0.008162 0.026924 -0.000950 -0.023825 -0.002579
# 4 0.004575 -0.000077 -0.000950 0.022416 0.001905 -0.005845
# 5 -0.007647 0.002352 -0.023825 0.001905 0.050576 0.011337
# 6 0.001677 -0.002790 -0.002579 -0.005845 0.011337 0.031256
#
#
# Mechanical properties :
#
#
# Convention : Reuss Voigt Hill
#
# Bulk Modulus (GPa) = 27.53628 64.24072 45.88850
# Shear Modulus (GPa) = 26.95831 43.43828 35.19830
#
# Velocity S-wave (km/s) = 3.26861 4.14910 3.73489
# Velocity P-wave (km/s) = 5.01578 6.95791 6.06509
#
# Compressibility (1/GPa) = 0.03631573
#
# Stress axis : x y z
#
# Youngs Moduli (GPa) = 64.07753 98.16059 37.14174
#
# Poissons Ratio (x) = 0.21131 -0.07850
# Poissons Ratio (y) = 0.13794 0.30313
# Poissons Ratio (z) = -0.13543 0.80114
#
# Static dielectric constant tensor:
#      x y z
#    x -0.090060 -1.543720 0.601980 
#    y -1.543720 1.072240 0.418420 
#    z 0.601980 0.418420 1.863570 
# 
# From -- ./inp_files/307425.got.cif
#   From: 2010.05.17/outbox.cif.g08.bks.cpg/sg2_154_cif.got.tgz:307425.got - 2010.06.03 11:33:40.
