data_PCOD9076994
_publ_section_title
;
Structure prediction by ZEFSAII (Michael W. Deem and Ramdas Pophale) SiO2 
 PCOD9076994
Probable space group: P -1
;
_chemical_formula_sum "Si O2"
_cell_formula_units_Z 14
_cell_length_a 7.835497
_cell_length_b 10.753178
_cell_length_c 10.794527
_cell_angle_alpha 62.584718
_cell_angle_beta 136.235568
_cell_angle_gamma 124.599723
_cell_volume 515.810453
_symmetry_space_group_name_H-M "P -1"
_symmetry_group_IT_number 2
_symmetry_cell_setting 'triclinic'
loop_
_space_group_symop_operation_xyz
x,y,z
-x,-y,-z
loop_
_atom_site_type_symbol
_atom_site_label
_atom_site_fract_x
_atom_site_fract_y
_atom_site_fract_z
Si Si1 0.514863 0.357819 0.194543
Si Si2 0.627821 0.188251 0.094271
Si Si3 0.954173 0.637337 0.189544
Si Si4 0.645436 0.692705 0.319627
Si Si5 0.139741 0.440755 0.208233
Si Si6 0.313162 0.059190 0.605412
Si Si7 0.768472 0.169572 0.541710
O O1 0.572650 0.280777 0.135777
O O2 0.721785 0.530859 0.209536
O O3 0.582625 0.263030 0.378748
O O4 0.209832 0.336247 0.024803
O O5 0.559778 0.022795 0.191130
O O6 0.946132 0.265755 0.198135
O O7 0.464205 0.221185 0.881053
O O8 0.097843 0.528657 0.267468
O O9 0.126253 0.792276 0.279488
O O10 0.451347 0.515958 0.304184
O O11 0.956764 0.739115 0.435135
O O12 0.598917 0.766810 0.389986
O O13 0.000000 0.500000 0.000000
O O14 0.335921 0.991543 0.512673
O O15 0.000000 0.000000 0.500000
#
# Coordination Sequence:
#
# PCOD9076994 Si02
#       7
#     2   2   2   2   2   2   2
#     4   9  18  30  54  80 105 137 191 223 261 318
#     4   9  16  33  54  81 105 145 181 224 268 325
#     4  10  18  34  54  76 108 149 177 223 272 322
#     4  10  18  34  56  83 111 146 175 231 274 318
#     4   9  20  34  56  83 115 139 176 224 286 327
#     4   9  19  32  52  81 110 139 191 225 257 322
#     4  10  19  33  55  80 106 141 192 222 259 323
#
# _framework density 27.141752
#
# number of rings (size 3 to 8) (size 9 to 14) (size 15 to 20)
#    0.000    2.571    1.429    0.857    2.000    0.000 
#    0.000   12.143    9.429    3.429    0.000    0.000 
#    0.000    0.000    0.000    0.000    0.000    0.000 
#
# Total GULP energy -78270.954729 kJ/mol
# GULP energy per Si atom -5590.782481 kJ/mol
# Density = 2.707998 g / cm^3
# Si number density = 27.141752 Si / 1000 Ang^3
#
#
#
# Elastic Constant Matrix: (Units=GPa)
#
#
# Indices 1 2 3 4 5 6 
#
# 1 75.2761 -5.9197 3.9797 -7.6024 -16.0966 -12.8552
# 2 -5.9197 92.1449 33.5489 13.9849 -3.9038 -1.4291
# 3 3.9797 33.5489 142.7274 -6.1360 -6.7819 2.6652
# 4 -7.6024 13.9849 -6.1360 42.0472 -7.8718 -7.2823
# 5 -16.0966 -3.9038 -6.7819 -7.8718 26.6115 6.3685
# 6 -12.8552 -1.4291 2.6652 -7.2823 6.3685 38.1722
#
#
#
# Elastic Compliance Matrix: (Units=1/GPa)
#
#
# Indices 1 2 3 4 5 6 
#
# 1 0.017142 0.000760 0.000019 0.005783 0.010982 0.005071
# 2 0.000760 0.012767 -0.003211 -0.004536 0.000157 0.000067
# 3 0.000019 -0.003211 0.008002 0.002603 0.002491 -0.000592
# 4 0.005783 -0.004536 0.002603 0.029715 0.010986 0.005432
# 5 0.010982 0.000157 0.002491 0.010986 0.048727 -0.002503
# 6 0.005071 0.000067 -0.000592 0.005432 -0.002503 0.029403
#
#
# Mechanical properties :
#
#
# Convention : Reuss Voigt Hill
#
# Bulk Modulus (GPa) = 30.25958 41.48513 35.87236
# Shear Modulus (GPa) = 30.93424 39.93547 35.43485
#
# Velocity S-wave (km/s) = 3.37965 3.84000 3.61716
# Velocity P-wave (km/s) = 5.13832 5.91427 5.53990
#
# Compressibility (1/GPa) = 0.03304738
#
# Stress axis : x y z
#
# Youngs Moduli (GPa) = 58.33731 78.32985 124.97031
#
# Poissons Ratio (x) = -0.05956 -0.00238
# Poissons Ratio (y) = -0.04436 0.40126
# Poissons Ratio (z) = -0.00111 0.25151
#
# Static dielectric constant tensor:
#      x y z
#    x 2.192760 0.011190 -0.013080 
#    y 0.011190 2.095450 0.039910 
#    z -0.013080 0.039910 2.119290 
# 
# From -- ./inp_files/198380.got.cif
#   From: 2010.05.17/outbox.cif.g08.bks.cpg/sg2_100_cif.got.tgz:198380.got - 2010.06.03 11:33:40.
