data_PCOD9076721
_publ_section_title
;
Structure prediction by ZEFSAII (Michael W. Deem and Ramdas Pophale) SiO2 
 PCOD9076721
Probable space group: P -1
;
_chemical_formula_sum "Si O2"
_cell_formula_units_Z 16
_cell_length_a 8.793125
_cell_length_b 15.413039
_cell_length_c 13.081017
_cell_angle_alpha 70.334188
_cell_angle_beta 139.265668
_cell_angle_gamma 133.121872
_cell_volume 780.752826
_symmetry_space_group_name_H-M "P -1"
_symmetry_group_IT_number 2
_symmetry_cell_setting 'triclinic'
loop_
_space_group_symop_operation_xyz
x,y,z
-x,-y,-z
loop_
_atom_site_type_symbol
_atom_site_label
_atom_site_fract_x
_atom_site_fract_y
_atom_site_fract_z
Si Si1 0.925773 0.912316 0.404064
Si Si2 0.198187 0.744736 0.018276
Si Si3 0.128459 0.413487 0.883074
Si Si4 0.731284 0.962662 0.672181
Si Si5 0.797874 0.361309 0.146042
Si Si6 0.948672 0.790260 0.158425
Si Si7 0.809268 0.059839 0.986114
Si Si8 0.759017 0.183462 0.343114
O O1 0.564030 0.822849 0.210779
O O2 0.971365 0.818509 0.495892
O O3 0.000000 0.000000 0.500000
O O4 0.195446 0.018007 0.417036
O O5 0.203692 0.857925 0.975307
O O6 0.947619 0.641524 0.018922
O O7 0.117248 0.670415 0.901527
O O8 0.033944 0.494413 0.800969
O O9 0.955720 0.290039 0.772399
O O10 0.500000 0.500000 0.000000
O O11 0.424112 0.849886 0.629026
O O12 0.813180 0.090090 0.694146
O O13 0.017528 0.978561 0.859826
O O14 0.843436 0.302593 0.285202
O O15 0.421007 0.289405 0.967780
O O16 0.986244 0.845948 0.043518
O O17 0.482272 0.934046 0.814723
#
# Coordination Sequence:
#
# PCOD9076721 Si02
#       8
#     2   2   2   2   2   2   2   2
#     4  12  25  37  52  86 128 160 185 226 292 360
#     4  11  22  37  59  89 121 150 186 244 296 334
#     4   9  21  37  61  89 111 145 200 247 287 331
#     4  11  20  37  59  84 118 155 193 236 288 338
#     4  11  19  36  61  89 112 145 197 247 283 329
#     4   9  16  33  58  86 109 142 185 243 287 322
#     4  10  18  33  59  84 116 146 192 238 286 333
#     4  11  21  36  56  86 119 155 193 228 284 357
#
# _framework density 20.493041000000002
#
# number of rings (size 3 to 8) (size 9 to 14) (size 15 to 20)
#    0.000    1.500    5.000    1.500    1.750    1.000 
#    0.000    0.625    0.000    0.750    0.000    0.000 
#    0.000    0.000    0.000    0.000    0.000    0.000 
#
# Total GULP energy -89251.430095 kJ/mol
# GULP energy per Si atom -5578.214381 kJ/mol
# Density = 2.044640 g / cm^3
# Si number density = 20.493041 Si / 1000 Ang^3
#
#
#
# Elastic Constant Matrix: (Units=GPa)
#
#
# Indices 1 2 3 4 5 6 
#
# 1 127.4000 54.9188 35.4483 -8.5294 -30.6207 -16.4038
# 2 54.9188 118.5654 14.5709 -17.5189 -22.1787 -15.1045
# 3 35.4483 14.5709 39.2155 -10.5307 -4.4386 0.7222
# 4 -8.5294 -17.5189 -10.5307 14.8485 4.9914 -1.4624
# 5 -30.6207 -22.1787 -4.4386 4.9914 31.0602 4.7905
# 6 -16.4038 -15.1045 0.7222 -1.4624 4.7905 31.4250
#
#
#
# Elastic Compliance Matrix: (Units=1/GPa)
#
#
# Indices 1 2 3 4 5 6 
#
# 1 0.016767 -0.004564 -0.014833 -0.009862 0.012025 0.004607
# 2 -0.004564 0.013376 0.003434 0.015201 0.002436 0.004304
# 3 -0.014833 0.003434 0.044678 0.030162 -0.009986 -0.004193
# 4 -0.009862 0.015201 0.030162 0.106172 -0.012911 0.008374
# 5 0.012025 0.002436 -0.009986 -0.012911 0.046438 -0.000002
# 6 0.004607 0.004304 -0.004193 0.008374 -0.000002 0.036782
#
#
# Mechanical properties :
#
#
# Convention : Reuss Voigt Hill
#
# Bulk Modulus (GPa) = 23.31215 55.00632 39.15924
# Shear Modulus (GPa) = 16.10626 27.48294 21.79460
#
# Velocity S-wave (km/s) = 2.80650 3.66606 3.26469
# Velocity P-wave (km/s) = 4.67998 6.69475 5.77590
#
# Compressibility (1/GPa) = 0.04289608
#
# Stress axis : x y z
#
# Youngs Moduli (GPa) = 59.64011 74.75939 22.38229
#
# Poissons Ratio (x) = 0.34123 0.33199
# Poissons Ratio (y) = 0.27222 -0.07686
# Poissons Ratio (z) = 0.88461 -0.25673
#
# Static dielectric constant tensor:
#      x y z
#    x 1.773180 0.006050 0.009260 
#    y 0.006050 1.771460 0.019070 
#    z 0.009260 0.019070 1.718400 
# 
# From -- ./inp_files/169622.got.cif
#   From: 2010.05.17/outbox.cif.g08.bks.cpg/sg2_85_cif.got.tgz:169622.got - 2010.06.03 11:33:40.
