data_PCOD9076658
_publ_section_title
;
Structure prediction by ZEFSAII (Michael W. Deem and Ramdas Pophale) SiO2 
 PCOD9076658
Probable space group: P -1
;
_chemical_formula_sum "Si O2"
_cell_formula_units_Z 16
_cell_length_a 12.374315
_cell_length_b 11.424795
_cell_length_c 19.495208
_cell_angle_alpha 130.382368
_cell_angle_beta 28.271298
_cell_angle_gamma 140.836905
_cell_volume 818.759965
_symmetry_space_group_name_H-M "P -1"
_symmetry_group_IT_number 2
_symmetry_cell_setting 'triclinic'
loop_
_space_group_symop_operation_xyz
x,y,z
-x,-y,-z
loop_
_atom_site_type_symbol
_atom_site_label
_atom_site_fract_x
_atom_site_fract_y
_atom_site_fract_z
Si Si1 0.157644 0.500060 0.978157
Si Si2 0.668662 0.732384 0.947876
Si Si3 0.049450 0.562313 0.212521
Si Si4 0.730555 0.208617 0.590155
Si Si5 0.284149 0.432088 0.279199
Si Si6 0.806594 0.150492 0.216761
Si Si7 0.869871 0.117805 0.627057
Si Si8 0.739896 0.074678 0.074909
O O1 0.473516 0.568625 0.817418
O O2 0.119436 0.589594 0.102138
O O3 0.000000 0.500000 0.000000
O O4 0.993004 0.282701 0.004244
O O5 0.705547 0.633906 0.827222
O O6 0.891594 0.772775 0.894950
O O7 0.343611 0.622734 0.105955
O O8 0.750047 0.939233 0.965364
O O9 0.982771 0.700903 0.336538
O O10 0.823857 0.341116 0.266256
O O11 0.663982 0.365331 0.681028
O O12 0.830805 0.187623 0.601511
O O13 0.989786 0.288866 0.424703
O O14 0.453675 0.003788 0.651048
O O15 0.760695 0.039013 0.129892
O O16 0.566739 0.972697 0.774865
O O17 0.000000 0.000000 0.500000
#
# Coordination Sequence:
#
# PCOD9076658 Si02
#       8
#     2   2   2   2   2   2   2   2
#     4  10  21  39  62  86 116 155 195 251 291 342
#     4  10  18  33  58  87 114 151 189 246 292 345
#     4   9  20  37  57  91 113 146 204 240 296 345
#     4  10  22  39  58  85 121 164 190 237 292 357
#     4  10  22  39  59  85 122 157 200 232 297 355
#     4  10  18  33  59  85 119 147 189 242 295 346
#     4  10  21  39  63  84 118 157 195 242 292 347
#     4   9  20  35  54  87 112 146 200 239 297 339
#
# _framework density 19.541747999999998
#
# number of rings (size 3 to 8) (size 9 to 14) (size 15 to 20)
#    0.000    2.250    0.000    2.250    1.750    7.500 
#    2.250    8.750    5.500    0.000    0.000    0.000 
#    0.000    0.000    0.000    0.000    0.000    0.000 
#
# Total GULP energy -89093.184350 kJ/mol
# GULP energy per Si atom -5568.324022 kJ/mol
# Density = 1.949727 g / cm^3
# Si number density = 19.541748 Si / 1000 Ang^3
#
#
#
# Elastic Constant Matrix: (Units=GPa)
#
#
# Indices 1 2 3 4 5 6 
#
# 1 74.6709 16.5308 24.0124 8.5715 -17.3851 -1.3495
# 2 16.5308 91.2710 50.3938 10.8871 -1.8643 13.6869
# 3 24.0124 50.3938 76.8102 25.2955 -6.5228 -8.9802
# 4 8.5715 10.8871 25.2955 33.0630 -5.6776 2.4200
# 5 -17.3851 -1.8643 -6.5228 -5.6776 12.5834 -2.0874
# 6 -1.3495 13.6869 -8.9802 2.4200 -2.0874 17.3681
#
#
#
# Elastic Compliance Matrix: (Units=1/GPa)
#
#
# Indices 1 2 3 4 5 6 
#
# 1 0.021815 -0.004204 -0.000842 0.001087 0.030921 0.008138
# 2 -0.004204 0.038538 -0.038189 0.018082 -0.020940 -0.055479
# 3 -0.000842 -0.038189 0.059131 -0.034016 0.019714 0.067712
# 4 0.001087 0.018082 -0.034016 0.053608 0.004316 -0.038704
# 5 0.030921 -0.020940 0.019714 0.004316 0.138747 0.045172
# 6 0.008138 -0.055479 0.067712 -0.038704 0.045172 0.147761
#
#
# Mechanical properties :
#
#
# Convention : Reuss Voigt Hill
#
# Bulk Modulus (GPa) = 30.29191 47.18066 38.73629
# Shear Modulus (GPa) = 8.97543 22.72391 15.84967
#
# Velocity S-wave (km/s) = 2.14544 3.41374 2.85101
# Velocity P-wave (km/s) = 4.65532 6.30350 5.54103
#
# Compressibility (1/GPa) = 0.03301211
#
# Stress axis : x y z
#
# Youngs Moduli (GPa) = 45.84009 25.94822 16.91170
#
# Poissons Ratio (x) = 0.10910 0.01424
# Poissons Ratio (y) = 0.19273 0.64584
# Poissons Ratio (z) = 0.03861 0.99094
#
# Static dielectric constant tensor:
#      x y z
#    x 1.412500 0.083270 -0.169070 
#    y 0.083270 1.677670 0.049040 
#    z -0.169070 0.049040 1.624200 
# 
# From -- ./inp_files/262121.got.cif
#   From: 2010.05.17/outbox.cif.g08.bks.cpg/sg2_132_cif.got.tgz:262121.got - 2010.06.03 11:33:40.
