data_PCOD9076544
_publ_section_title
;
Structure prediction by ZEFSAII (Michael W. Deem and Ramdas Pophale) SiO2 
 PCOD9076544
Probable space group: P -1
;
_chemical_formula_sum "Si O2"
_cell_formula_units_Z 16
_cell_length_a 13.779248
_cell_length_b 12.078238
_cell_length_c 7.810834
_cell_angle_alpha 65.370911
_cell_angle_beta 99.526407
_cell_angle_gamma 147.303642
_cell_volume 591.187497
_symmetry_space_group_name_H-M "P -1"
_symmetry_group_IT_number 2
_symmetry_cell_setting 'triclinic'
loop_
_space_group_symop_operation_xyz
x,y,z
-x,-y,-z
loop_
_atom_site_type_symbol
_atom_site_label
_atom_site_fract_x
_atom_site_fract_y
_atom_site_fract_z
Si Si1 0.123849 0.021012 0.449225
Si Si2 0.542356 0.460018 0.762639
Si Si3 0.776289 0.494974 0.665566
Si Si4 0.781612 0.317006 0.051007
Si Si5 0.128084 0.990408 0.057121
Si Si6 0.574998 0.949702 0.484289
Si Si7 0.932309 0.292307 0.613923
Si Si8 0.280556 0.491621 0.891224
O O1 0.338136 0.288631 0.397315
O O2 0.130985 0.021335 0.242820
O O3 0.000000 0.000000 0.500000
O O4 0.980752 0.761210 0.640097
O O5 0.621738 0.437098 0.677182
O O6 0.313608 0.237710 0.852422
O O7 0.610979 0.476410 0.956643
O O8 0.865977 0.559972 0.466923
O O9 0.725303 0.313179 0.854637
O O10 0.644339 0.062829 0.243816
O O11 0.764742 0.423169 0.092996
O O12 0.000000 0.500000 0.000000
O O13 0.151105 0.866388 0.145423
O O14 0.082305 0.213921 0.954736
O O15 0.764990 0.114452 0.538978
O O16 0.500000 0.000000 0.500000
O O17 0.430145 0.687733 0.660161
O O18 0.000000 0.500000 0.500000
#
# Coordination Sequence:
#
# PCOD9076544 Si02
#       8
#     2   2   2   2   2   2   2   2
#     4   9  20  40  66  85 120 158 197 256 312 354
#     4  10  20  41  66  87 118 158 201 253 308 353
#     4   9  20  36  60  86 119 162 199 248 306 356
#     4  10  18  33  57  83 120 165 201 238 295 351
#     4  11  22  38  63  91 119 156 204 248 300 364
#     4  10  19  34  54  81 122 165 198 241 297 350
#     4  11  20  35  58  85 122 167 201 242 301 360
#     4  10  22  38  57  90 126 152 205 249 292 365
#
# _framework density 27.064173
#
# number of rings (size 3 to 8) (size 9 to 14) (size 15 to 20)
#    0.000    2.000    2.500    1.875    0.000    0.500 
#    0.000    6.875    0.000    6.750    0.000    0.000 
#    0.000    0.000    0.000    0.000    0.000    0.000 
#
# Total GULP energy -89402.017537 kJ/mol
# GULP energy per Si atom -5587.626096 kJ/mol
# Density = 2.700257 g / cm^3
# Si number density = 27.064173 Si / 1000 Ang^3
#
#
#
# Elastic Constant Matrix: (Units=GPa)
#
#
# Indices 1 2 3 4 5 6 
#
# 1 130.6993 24.0940 23.5078 -1.0119 -18.6173 12.0705
# 2 24.0940 82.7006 34.3352 -20.5329 -14.0155 27.8631
# 3 23.5078 34.3352 154.0780 -30.7478 -12.5136 14.3343
# 4 -1.0119 -20.5329 -30.7478 25.4755 6.2888 -1.9589
# 5 -18.6173 -14.0155 -12.5136 6.2888 49.9866 1.2842
# 6 12.0705 27.8631 14.3343 -1.9589 1.2842 33.7314
#
#
#
# Elastic Compliance Matrix: (Units=1/GPa)
#
#
# Indices 1 2 3 4 5 6 
#
# 1 0.008743 -0.002011 -0.001253 -0.003589 0.002862 -0.001252
# 2 -0.002011 0.023524 0.000495 0.017026 0.004294 -0.018097
# 3 -0.001253 0.000495 0.009105 0.010928 0.000659 -0.003220
# 4 -0.003589 0.017026 0.010928 0.065402 -0.001707 -0.013561
# 5 0.002862 0.004294 0.000659 -0.001707 0.022805 -0.005818
# 6 -0.001252 -0.018097 -0.003220 -0.013561 -0.005818 0.045845
#
#
# Mechanical properties :
#
#
# Convention : Reuss Voigt Hill
#
# Bulk Modulus (GPa) = 27.90660 59.03910 43.47285
# Shear Modulus (GPa) = 25.91925 40.87476 33.39701
#
# Velocity S-wave (km/s) = 3.09802 3.89046 3.51663
# Velocity P-wave (km/s) = 4.80943 6.48404 5.70848
#
# Compressibility (1/GPa) = 0.03583382
#
# Stress axis : x y z
#
# Youngs Moduli (GPa) = 114.37962 42.50910 109.82931
#
# Poissons Ratio (x) = 0.08548 0.13761
# Poissons Ratio (y) = 0.23000 -0.05432
# Poissons Ratio (z) = 0.14331 -0.02102
#
# Static dielectric constant tensor:
#      x y z
#    x 2.066460 -0.039910 -0.004280 
#    y -0.039910 2.234270 0.000680 
#    z -0.004280 0.000680 2.110530 
# 
# From -- ./inp_files/388197.got.cif
#   From: 2010.05.17/outbox.cif.g08.bks.cpg/sg2_195_cif.got.tgz:388197.got - 2010.06.03 11:33:40.
