data_PCOD9076778
_publ_section_title
;
Structure prediction by ZEFSAII (Michael W. Deem and Ramdas Pophale) SiO2 
 PCOD9076778
Probable space group: P -1
;
_chemical_formula_sum "Si O2"
_cell_formula_units_Z 16
_cell_length_a 5.677015
_cell_length_b 9.639086
_cell_length_c 17.432307
_cell_angle_alpha 67.232682
_cell_angle_beta 88.712233
_cell_angle_gamma 122.952742
_cell_volume 703.829349
_symmetry_space_group_name_H-M "P -1"
_symmetry_group_IT_number 2
_symmetry_cell_setting 'triclinic'
loop_
_space_group_symop_operation_xyz
x,y,z
-x,-y,-z
loop_
_atom_site_type_symbol
_atom_site_label
_atom_site_fract_x
_atom_site_fract_y
_atom_site_fract_z
Si Si1 0.413832 0.492523 0.090296
Si Si2 0.833917 0.849585 0.197690
Si Si3 0.892918 0.585572 0.161154
Si Si4 0.206604 0.879688 0.318485
Si Si5 0.404444 0.810124 0.002616
Si Si6 0.252041 0.849638 0.839518
Si Si7 0.847419 0.602433 0.503871
Si Si8 0.825215 0.456811 0.692412
O O1 0.562592 0.447536 0.163515
O O2 0.540036 0.709998 0.057623
O O3 0.065481 0.339554 0.132825
O O4 0.500000 0.500000 0.000000
O O5 0.975847 0.779109 0.157232
O O6 0.509009 0.659916 0.252917
O O7 0.004674 0.913003 0.263383
O O8 0.800708 0.011683 0.145049
O O9 0.070112 0.657036 0.064959
O O10 0.978685 0.495527 0.243692
O O11 0.157055 0.696506 0.319165
O O12 0.063216 0.806734 0.418724
O O13 0.542826 0.046163 0.258399
O O14 0.424445 0.819845 0.908935
O O15 0.500000 0.000000 0.000000
O O16 0.500000 0.500000 0.500000
O O17 0.867751 0.600154 0.596719
O O18 0.000000 0.500000 0.500000
#
# Coordination Sequence:
#
# PCOD9076778 Si02
#       8
#     2   2   2   2   2   2   2   2
#     4  12  27  43  61  89 126 176 229 268 328 393
#     4  10  19  37  60  93 122 166 209 262 338 389
#     4  11  23  38  61  87 126 170 215 267 329 392
#     4   9  19  33  58  90 130 167 209 268 339 391
#     4  12  25  42  63  90 124 166 220 274 332 394
#     4  11  24  38  61  89 129 166 218 273 325 400
#     4  10  18  33  59  97 136 171 213 280 340 404
#     4   9  18  34  56  91 129 163 214 267 329 397
#
# _framework density 22.732782
#
# number of rings (size 3 to 8) (size 9 to 14) (size 15 to 20)
#    0.000    1.500    2.500    4.125    3.500    1.000 
#    0.000    0.000    0.000    0.750    0.000    4.375 
#    0.000    0.000    0.000    0.000    0.000    0.000 
#
# Total GULP energy -89210.191356 kJ/mol
# GULP energy per Si atom -5575.636960 kJ/mol
# Density = 2.268104 g / cm^3
# Si number density = 22.732782 Si / 1000 Ang^3
#
#
#
# Elastic Constant Matrix: (Units=GPa)
#
#
# Indices 1 2 3 4 5 6 
#
# 1 78.0193 28.5975 43.2358 -2.7054 8.5858 21.7091
# 2 28.5975 85.4889 55.4962 -4.1443 -0.8920 18.3991
# 3 43.2358 55.4962 159.4743 -9.8169 4.0269 27.2480
# 4 -2.7054 -4.1443 -9.8169 18.4720 4.9716 0.9506
# 5 8.5858 -0.8920 4.0269 4.9716 26.3777 8.1235
# 6 21.7091 18.3991 27.2480 0.9506 8.1235 44.1174
#
#
#
# Elastic Compliance Matrix: (Units=1/GPa)
#
#
# Indices 1 2 3 4 5 6 
#
# 1 0.017227 -0.002989 -0.002571 0.001857 -0.004151 -0.004918
# 2 -0.002989 0.016265 -0.004370 0.000210 0.003134 -0.003195
# 3 -0.002571 -0.004370 0.009174 0.003824 -0.000650 -0.002541
# 4 0.001857 0.000210 0.003824 0.059758 -0.011674 -0.002501
# 5 -0.004151 0.003134 -0.000650 -0.011674 0.043719 -0.006662
# 6 -0.004918 -0.003195 -0.002541 -0.002501 -0.006662 0.029270
#
#
# Mechanical properties :
#
#
# Convention : Reuss Voigt Hill
#
# Bulk Modulus (GPa) = 43.84613 64.18239 54.01426
# Shear Modulus (GPa) = 24.64572 30.83696 27.74134
#
# Velocity S-wave (km/s) = 3.29621 3.68706 3.49710
# Velocity P-wave (km/s) = 5.81517 6.81327 6.33391
#
# Compressibility (1/GPa) = 0.02280703
#
# Stress axis : x y z
#
# Youngs Moduli (GPa) = 58.04713 61.48341 108.99782
#
# Poissons Ratio (x) = 0.18374 0.28025
# Poissons Ratio (y) = 0.17347 0.47633
# Poissons Ratio (z) = 0.14925 0.26869
#
# Static dielectric constant tensor:
#      x y z
#    x 2.196400 -0.072200 -0.050430 
#    y -0.072200 1.853160 0.016390 
#    z -0.050430 0.016390 1.870370 
# 
# From -- ./inp_files/45468.got.cif
#   From: 2010.05.17/outbox.cif.g08.bks.cpg/sg2_23_cif.got.tgz:45468.got - 2010.06.03 11:33:40.
