data_PCOD9076051
_publ_section_title
;
Structure prediction by ZEFSAII (Michael W. Deem and Ramdas Pophale) SiO2 
 PCOD9076051
Probable space group: P -1
;
_chemical_formula_sum "Si O2"
_cell_formula_units_Z 16
_cell_length_a 8.012909
_cell_length_b 11.036056
_cell_length_c 9.542272
_cell_angle_alpha 127.335226
_cell_angle_beta 62.770376
_cell_angle_gamma 100.183194
_cell_volume 590.495726
_symmetry_space_group_name_H-M "P -1"
_symmetry_group_IT_number 2
_symmetry_cell_setting 'triclinic'
loop_
_space_group_symop_operation_xyz
x,y,z
-x,-y,-z
loop_
_atom_site_type_symbol
_atom_site_label
_atom_site_fract_x
_atom_site_fract_y
_atom_site_fract_z
Si Si1 0.084420 0.321289 0.504023
Si Si2 0.046469 0.698060 0.180419
Si Si3 0.695741 0.133451 0.925549
Si Si4 0.696063 0.292778 0.648057
Si Si5 0.800729 0.101740 0.155572
Si Si6 0.584535 0.889936 0.216456
Si Si7 0.439759 0.434512 0.327043
Si Si8 0.965850 0.655635 0.868903
O O1 0.272180 0.331481 0.353232
O O2 0.017114 0.501934 0.330956
O O3 0.122330 0.282853 0.627638
O O4 0.912113 0.229497 0.462822
O O5 0.226764 0.653626 0.188712
O O6 0.094698 0.858690 0.209729
O O7 0.002752 0.619110 0.994816
O O8 0.700000 0.056626 0.019394
O O9 0.603206 0.310661 0.112333
O O10 0.576722 0.069597 0.808464
O O11 0.531487 0.191479 0.679962
O O12 0.612428 0.427584 0.667559
O O13 0.862985 0.265589 0.207972
O O14 0.681343 0.046035 0.289215
O O15 0.000000 0.000000 0.000000
O O16 0.763091 0.761569 0.015475
O O17 0.500000 0.500000 0.500000
#
# Coordination Sequence:
#
# PCOD9076051 Si02
#       8
#     2   2   2   2   2   2   2   2
#     4  10  21  36  53  80 122 153 181 218 282 344
#     4   8  19  33  54  80 113 145 184 224 276 330
#     4  10  20  37  57  87 113 143 188 234 282 331
#     4   9  22  34  53  81 116 151 187 221 287 328
#     4   9  19  36  57  86 111 143 189 237 283 321
#     4  10  20  34  60  88 111 145 190 245 269 324
#     4  12  24  35  54  83 121 154 182 229 283 343
#     4  10  18  32  59  87 113 148 187 230 279 330
#
# _framework density 27.095877000000002
#
# number of rings (size 3 to 8) (size 9 to 14) (size 15 to 20)
#    0.750    1.500    0.000    3.375    3.500    1.500 
#    0.000    0.000    0.000    3.750    0.000    0.000 
#    0.000    0.000    0.000    0.000    0.000    0.000 
#
# Total GULP energy -89187.787329 kJ/mol
# GULP energy per Si atom -5574.236708 kJ/mol
# Density = 2.703421 g / cm^3
# Si number density = 27.095877 Si / 1000 Ang^3
#
#
#
# Elastic Constant Matrix: (Units=GPa)
#
#
# Indices 1 2 3 4 5 6 
#
# 1 99.0701 47.0571 42.6742 -21.6538 2.1243 15.9913
# 2 47.0571 147.4586 50.7952 -43.8495 -7.3048 25.4345
# 3 42.6742 50.7952 114.3091 -44.0599 1.5942 2.0570
# 4 -21.6538 -43.8495 -44.0599 26.1595 3.3879 -4.2206
# 5 2.1243 -7.3048 1.5942 3.3879 37.6319 -14.2484
# 6 15.9913 25.4345 2.0570 -4.2206 -14.2484 60.1148
#
#
#
# Elastic Compliance Matrix: (Units=1/GPa)
#
#
# Indices 1 2 3 4 5 6 
#
# 1 0.013484 -0.002339 -0.003380 0.001374 -0.002306 -0.002932
# 2 -0.002339 0.018401 0.010838 0.046733 -0.002827 -0.004923
# 3 -0.003380 0.010838 0.032618 0.070875 -0.005935 -0.001233
# 4 0.001374 0.046733 0.070875 0.237897 -0.019385 -0.010455
# 5 -0.002306 -0.002827 -0.005935 -0.019385 0.031198 0.008046
# 6 -0.002932 -0.004923 -0.001233 -0.010455 0.008046 0.020713
#
#
# Mechanical properties :
#
#
# Convention : Reuss Voigt Hill
#
# Bulk Modulus (GPa) = 13.37978 71.32118 42.35048
# Shear Modulus (GPa) = 13.55067 39.46867 26.50967
#
# Velocity S-wave (km/s) = 2.23872 3.82072 3.13128
# Velocity P-wave (km/s) = 3.41045 6.77073 5.36069
#
# Compressibility (1/GPa) = 0.07473964
#
# Stress axis : x y z
#
# Youngs Moduli (GPa) = 74.16443 54.34550 30.65810
#
# Poissons Ratio (x) = 0.12709 0.10363
# Poissons Ratio (y) = 0.17344 -0.33226
# Poissons Ratio (z) = 0.25069 -0.58897
#
# Static dielectric constant tensor:
#      x y z
#    x 2.170550 0.061790 0.102780 
#    y 0.061790 2.200220 -0.023020 
#    z 0.102780 -0.023020 2.188070 
# 
# From -- ./inp_files/189186.got.cif
#   From: 2010.05.17/outbox.cif.g08.bks.cpg/sg2_95_cif.got.tgz:189186.got - 2010.06.03 11:33:40.
