data_PCOD9076823
_publ_section_title
;
Structure prediction by ZEFSAII (Michael W. Deem and Ramdas Pophale) SiO2 
 PCOD9076823
Probable space group: P -1
;
_chemical_formula_sum "Si O2"
_cell_formula_units_Z 16
_cell_length_a 9.921136
_cell_length_b 9.061924
_cell_length_c 11.443970
_cell_angle_alpha 61.571954
_cell_angle_beta 127.703999
_cell_angle_gamma 84.248389
_cell_volume 591.879891
_symmetry_space_group_name_H-M "P -1"
_symmetry_group_IT_number 2
_symmetry_cell_setting 'triclinic'
loop_
_space_group_symop_operation_xyz
x,y,z
-x,-y,-z
loop_
_atom_site_type_symbol
_atom_site_label
_atom_site_fract_x
_atom_site_fract_y
_atom_site_fract_z
Si Si1 0.017917 0.852380 0.771809
Si Si2 0.299217 0.180420 0.539675
Si Si3 0.171544 0.611851 0.415342
Si Si4 0.676502 0.597981 0.942091
Si Si5 0.259290 0.033051 0.813115
Si Si6 0.008372 0.709256 0.059425
Si Si7 0.525952 0.682378 0.591280
Si Si8 0.671431 0.653256 0.189313
O O1 0.231207 0.636160 0.945001
O O2 0.065079 0.018746 0.707057
O O3 0.860391 0.837041 0.614754
O O4 0.955557 0.864094 0.868700
O O5 0.200450 0.403399 0.460615
O O6 0.475153 0.156651 0.556573
O O7 0.344268 0.040917 0.728289
O O8 0.018559 0.769798 0.173936
O O9 0.367766 0.626345 0.494664
O O10 0.206185 0.550229 0.594852
O O11 0.639373 0.619617 0.052058
O O12 0.851454 0.641078 0.996070
O O13 0.506502 0.727856 0.703207
O O14 0.210694 0.233754 0.777425
O O15 0.445210 0.830799 0.050789
O O16 0.238708 0.514547 0.223942
#
# Coordination Sequence:
#
# PCOD9076823 Si02
#       8
#     2   2   2   2   2   2   2   2
#     4  11  19  36  65  88 113 149 194 241 288 346
#     4  10  18  36  58  86 116 152 194 232 284 350
#     4  10  20  33  57  89 116 148 193 239 289 334
#     4  11  20  36  64  86 120 145 188 254 295 321
#     4  10  23  39  58  80 118 166 193 222 287 356
#     4  10  18  34  58  90 116 146 184 245 298 329
#     4  10  18  33  60  90 115 147 191 244 288 339
#     4  10  23  41  55  83 123 155 191 238 286 346
#
# _framework density 27.032509999999998
#
# number of rings (size 3 to 8) (size 9 to 14) (size 15 to 20)
#    0.000    1.750    3.750    4.125    0.000    4.500 
#    0.000    1.250    2.750    0.000    0.000    0.000 
#    0.000    0.000    0.000    0.000    0.000    0.000 
#
# Total GULP energy -89496.308839 kJ/mol
# GULP energy per Si atom -5593.519302 kJ/mol
# Density = 2.697098 g / cm^3
# Si number density = 27.032510 Si / 1000 Ang^3
#
#
#
# Elastic Constant Matrix: (Units=GPa)
#
#
# Indices 1 2 3 4 5 6 
#
# 1 84.9841 48.6433 46.8610 12.2013 -36.1264 17.7557
# 2 48.6433 126.4805 57.1139 7.3390 -17.6264 38.2860
# 3 46.8610 57.1139 119.8855 23.6374 -32.4656 -4.5265
# 4 12.2013 7.3390 23.6374 51.4760 -15.1068 8.9175
# 5 -36.1264 -17.6264 -32.4656 -15.1068 35.3322 12.9794
# 6 17.7557 38.2860 -4.5265 8.9175 12.9794 54.8793
#
#
#
# Elastic Compliance Matrix: (Units=1/GPa)
#
#
# Indices 1 2 3 4 5 6 
#
# 1 0.043218 0.004305 -0.007416 0.015680 0.058730 -0.034036
# 2 0.004305 0.017653 -0.007971 0.008445 0.016730 -0.019695
# 3 -0.007416 -0.007971 0.015733 -0.007712 -0.004668 0.011615
# 4 0.015680 0.008445 -0.007712 0.033322 0.036859 -0.025733
# 5 0.058730 0.016730 -0.004668 0.036859 0.133367 -0.068590
# 6 -0.034036 -0.019695 0.011615 -0.025733 -0.068590 0.064336
#
#
# Mechanical properties :
#
#
# Convention : Reuss Voigt Hill
#
# Bulk Modulus (GPa) = 18.36887 70.73181 44.55034
# Shear Modulus (GPa) = 14.37034 40.25296 27.31165
#
# Velocity S-wave (km/s) = 2.30813 3.86302 3.18201
# Velocity P-wave (km/s) = 3.73004 6.79113 5.47872
#
# Compressibility (1/GPa) = 0.05443992
#
# Stress axis : x y z
#
# Youngs Moduli (GPa) = 23.13855 56.64691 63.56198
#
# Poissons Ratio (x) = -0.24389 0.47140
# Poissons Ratio (y) = -0.09962 0.50665
# Poissons Ratio (z) = 0.17161 0.45153
#
# Static dielectric constant tensor:
#      x y z
#    x 2.396740 -0.162270 0.050820 
#    y -0.162270 2.141060 -0.060410 
#    z 0.050820 -0.060410 2.141320 
# 
# From -- ./inp_files/345131.got.cif
#   From: 2010.05.17/outbox.cif.g08.bks.cpg/sg2_173_cif.got.tgz:345131.got - 2010.06.03 11:33:40.
