data_PCOD9076741
_publ_section_title
;
Structure prediction by ZEFSAII (Michael W. Deem and Ramdas Pophale) SiO2 
 PCOD9076741
Probable space group: P -1
;
_chemical_formula_sum "Si O2"
_cell_formula_units_Z 16
_cell_length_a 11.325324
_cell_length_b 11.675598
_cell_length_c 8.289120
_cell_angle_alpha 125.541578
_cell_angle_beta 106.017835
_cell_angle_gamma 59.315118
_cell_volume 766.656629
_symmetry_space_group_name_H-M "P -1"
_symmetry_group_IT_number 2
_symmetry_cell_setting 'triclinic'
loop_
_space_group_symop_operation_xyz
x,y,z
-x,-y,-z
loop_
_atom_site_type_symbol
_atom_site_label
_atom_site_fract_x
_atom_site_fract_y
_atom_site_fract_z
Si Si1 0.340257 0.073389 0.559521
Si Si2 0.419523 0.661317 0.707004
Si Si3 0.774663 0.675051 0.535516
Si Si4 0.273058 0.805896 0.457073
Si Si5 0.564065 0.581180 0.267097
Si Si6 0.992221 0.554549 0.780762
Si Si7 0.090832 0.645740 0.204124
Si Si8 0.636626 0.668172 0.017313
O O1 0.253296 0.172651 0.455409
O O2 0.329718 0.193195 0.796335
O O3 0.500000 0.000000 0.500000
O O4 0.285138 0.953784 0.506158
O O5 0.500000 0.500000 0.500000
O O6 0.311284 0.782518 0.642491
O O7 0.367563 0.596708 0.787740
O O8 0.523521 0.716387 0.874595
O O9 0.629509 0.669244 0.477394
O O10 0.853809 0.657564 0.716032
O O11 0.876592 0.517623 0.346602
O O12 0.401553 0.660453 0.300203
O O13 0.137691 0.781342 0.358849
O O14 0.589987 0.614027 0.121211
O O15 0.987996 0.397191 0.720559
O O16 0.014842 0.651148 0.013155
O O17 0.229615 0.481577 0.113321
#
# Coordination Sequence:
#
# PCOD9076741 Si02
#       8
#     2   2   2   2   2   2   2   2
#     4  11  22  39  59  89 127 160 188 244 314 366
#     4  10  20  31  54  91 120 148 185 252 300 347
#     4  10  20  38  62  87 115 160 203 242 295 358
#     4  11  22  37  58  90 122 156 191 251 311 350
#     4  10  18  33  59  87 118 145 196 247 302 341
#     4  10  22  38  62  88 115 158 210 250 280 343
#     4  11  21  38  61  90 117 155 205 253 292 341
#     4  11  20  34  60  88 120 157 192 240 300 366
#
# _framework density 20.869838000000001
#
# number of rings (size 3 to 8) (size 9 to 14) (size 15 to 20)
#    0.000    1.500    7.500    1.125    1.750    0.500 
#    0.000    1.250    0.000    0.000    0.000    0.000 
#    0.000    0.000    0.000    0.000    0.000    0.000 
#
# Total GULP energy -89273.761967 kJ/mol
# GULP energy per Si atom -5579.610123 kJ/mol
# Density = 2.082234 g / cm^3
# Si number density = 20.869838 Si / 1000 Ang^3
#
#
#
# Elastic Constant Matrix: (Units=GPa)
#
#
# Indices 1 2 3 4 5 6 
#
# 1 69.8576 17.2424 33.7867 -8.7567 26.4721 12.2310
# 2 17.2424 110.2574 55.2052 -26.1025 35.8235 16.8163
# 3 33.7867 55.2052 83.6004 -23.4112 40.5046 8.2667
# 4 -8.7567 -26.1025 -23.4112 38.2117 -8.4219 9.0250
# 5 26.4721 35.8235 40.5046 -8.4219 39.8643 6.5049
# 6 12.2310 16.8163 8.2667 9.0250 6.5049 29.3222
#
#
#
# Elastic Compliance Matrix: (Units=1/GPa)
#
#
# Indices 1 2 3 4 5 6 
#
# 1 0.022313 0.005748 -0.003483 0.006484 -0.013334 -0.010659
# 2 0.005748 0.019151 -0.004661 0.012117 -0.011572 -0.013229
# 3 -0.003483 -0.004661 0.029905 0.010308 -0.021256 -0.002762
# 4 0.006484 0.012117 0.010308 0.045154 -0.012255 -0.023740
# 5 -0.013334 -0.011572 -0.021256 -0.012255 0.062007 0.008207
# 6 -0.010659 -0.013229 -0.002762 -0.023740 0.008207 0.052402
#
#
# Mechanical properties :
#
#
# Convention : Reuss Voigt Hill
#
# Bulk Modulus (GPa) = 15.02033 52.90934 33.96483
# Shear Modulus (GPa) = 19.38613 31.97840 25.68226
#
# Velocity S-wave (km/s) = 3.05110 3.91868 3.51179
# Velocity P-wave (km/s) = 4.43002 6.77361 5.72306
#
# Compressibility (1/GPa) = 0.06657642
#
# Stress axis : x y z
#
# Youngs Moduli (GPa) = 44.81792 52.21756 33.43892
#
# Poissons Ratio (x) = -0.30013 0.11646
# Poissons Ratio (y) = -0.25760 0.15586
# Poissons Ratio (z) = 0.15609 0.24338
#
# Static dielectric constant tensor:
#      x y z
#    x 1.806790 0.025160 0.007100 
#    y 0.025160 1.771500 -0.005330 
#    z 0.007100 -0.005330 1.787980 
# 
# From -- ./inp_files/263524.got.cif
#   From: 2010.05.17/outbox.cif.g08.bks.cpg/sg2_132_cif.got.tgz:263524.got - 2010.06.03 11:33:40.
