data_PCOD9076205
_publ_section_title
;
Structure prediction by ZEFSAII (Michael W. Deem and Ramdas Pophale) SiO2 
 PCOD9076205
Probable space group: P -1
;
_chemical_formula_sum "Si O2"
_cell_formula_units_Z 14
_cell_length_a 13.746220
_cell_length_b 8.294909
_cell_length_c 11.380178
_cell_angle_alpha 56.266029
_cell_angle_beta 136.103752
_cell_angle_gamma 138.021043
_cell_volume 601.232931
_symmetry_space_group_name_H-M "P -1"
_symmetry_group_IT_number 2
_symmetry_cell_setting 'triclinic'
loop_
_space_group_symop_operation_xyz
x,y,z
-x,-y,-z
loop_
_atom_site_type_symbol
_atom_site_label
_atom_site_fract_x
_atom_site_fract_y
_atom_site_fract_z
Si Si1 0.538517 0.029533 0.732483
Si Si2 0.666901 0.532692 0.573201
Si Si3 0.439448 0.335620 0.240631
Si Si4 0.369095 0.631607 0.901904
Si Si5 0.973292 0.642527 0.163417
Si Si6 0.179183 0.628481 0.531653
Si Si7 0.903908 0.863375 0.822111
O O1 0.587464 0.902284 0.734713
O O2 0.277199 0.541920 0.728221
O O3 0.334979 0.915848 0.568657
O O4 0.658271 0.311396 0.710219
O O5 0.500000 0.500000 0.500000
O O6 0.613916 0.485064 0.410418
O O7 0.843794 0.777526 0.672018
O O8 0.436210 0.490233 0.072521
O O9 0.274238 0.254438 0.210429
O O10 0.220869 0.588366 0.879299
O O11 0.518997 0.911002 0.889672
O O12 0.111740 0.602458 0.350793
O O13 0.990881 0.746545 0.006777
O O14 0.992677 0.855077 0.174965
O O15 0.000000 0.500000 0.500000
#
# Coordination Sequence:
#
# PCOD9076205 Si02
#       7
#     2   2   2   2   2   2   2
#     4  10  19  32  56  79 105 132 168 214 260 307
#     4  10  20  33  49  78 111 133 169 209 260 300
#     4  10  18  33  52  80 107 132 167 211 262 309
#     4   8  18  30  54  78  99 134 172 212 254 300
#     4   9  15  33  53  75  99 133 182 210 242 303
#     4   8  15  27  49  75  97 123 169 204 243 294
#     4   9  19  31  55  76 102 137 173 212 253 294
#
# _framework density 23.285485000000001
#
# number of rings (size 3 to 8) (size 9 to 14) (size 15 to 20)
#    0.857    2.000    0.000    2.571    0.000    0.000 
#    0.000    6.429    0.000   14.571    0.000    0.000 
#    0.000    0.000    0.000    0.000    0.000    0.000 
#
# Total GULP energy -77948.606157 kJ/mol
# GULP energy per Si atom -5567.757583 kJ/mol
# Density = 2.323249 g / cm^3
# Si number density = 23.285485 Si / 1000 Ang^3
#
#
#
# Elastic Constant Matrix: (Units=GPa)
#
#
# Indices 1 2 3 4 5 6 
#
# 1 40.5842 6.7769 17.4022 -11.7303 14.5674 2.5516
# 2 6.7769 50.1036 51.1409 -6.6428 -2.0038 -5.5619
# 3 17.4022 51.1409 121.6231 -21.7988 16.7066 -10.4606
# 4 -11.7303 -6.6428 -21.7988 39.6506 0.8653 5.7997
# 5 14.5674 -2.0038 16.7066 0.8653 28.7370 -8.5947
# 6 2.5516 -5.5619 -10.4606 5.7997 -8.5947 23.6702
#
#
#
# Elastic Compliance Matrix: (Units=1/GPa)
#
#
# Indices 1 2 3 4 5 6 
#
# 1 0.042049 -0.011393 0.004262 0.016593 -0.031295 -0.020755
# 2 -0.011393 0.044338 -0.021157 -0.010201 0.025699 0.014127
# 3 0.004262 -0.021157 0.020216 0.009968 -0.017244 -0.005200
# 4 0.016593 -0.010201 0.009968 0.036753 -0.020924 -0.016384
# 5 -0.031295 0.025699 -0.017244 -0.020924 0.073119 0.033468
# 6 -0.020755 0.014127 -0.005200 -0.016384 0.033468 0.061673
#
#
# Mechanical properties :
#
#
# Convention : Reuss Voigt Hill
#
# Bulk Modulus (GPa) = 19.98906 40.32787 30.15846
# Shear Modulus (GPa) = 14.22877 27.54429 20.88653
#
# Velocity S-wave (km/s) = 2.47464 3.44306 2.99821
# Velocity P-wave (km/s) = 4.09489 5.75870 4.99654
#
# Compressibility (1/GPa) = 0.05002737
#
# Stress axis : x y z
#
# Youngs Moduli (GPa) = 23.78168 22.55401 49.46455
#
# Poissons Ratio (x) = 0.25696 -0.21081
# Poissons Ratio (y) = 0.27095 1.04651
# Poissons Ratio (z) = -0.10135 0.47717
#
# Static dielectric constant tensor:
#      x y z
#    x 1.929730 0.023050 0.009400 
#    y 0.023050 1.882170 -0.002800 
#    z 0.009400 -0.002800 1.950520 
# 
# From -- ./inp_files/290202.got.cif
#   From: 2010.05.17/outbox.cif.g08.bks.cpg/sg2_146_cif.got.tgz:290202.got - 2010.06.03 11:33:40.
