data_PCOD9076920
_publ_section_title
;
Structure prediction by ZEFSAII (Michael W. Deem and Ramdas Pophale) SiO2 
 PCOD9076920
Probable space group: P -1
;
_chemical_formula_sum "Si O2"
_cell_formula_units_Z 14
_cell_length_a 8.748530
_cell_length_b 12.384625
_cell_length_c 10.174681
_cell_angle_alpha 53.500474
_cell_angle_beta 71.466717
_cell_angle_gamma 50.980502
_cell_volume 685.662158
_symmetry_space_group_name_H-M "P -1"
_symmetry_group_IT_number 2
_symmetry_cell_setting 'triclinic'
loop_
_space_group_symop_operation_xyz
x,y,z
-x,-y,-z
loop_
_atom_site_type_symbol
_atom_site_label
_atom_site_fract_x
_atom_site_fract_y
_atom_site_fract_z
Si Si1 0.922029 0.461900 0.173024
Si Si2 0.207152 0.660723 0.355030
Si Si3 0.870473 0.925482 0.601803
Si Si4 0.251477 0.103032 0.617777
Si Si5 0.518936 0.039929 0.813574
Si Si6 0.573928 0.642261 0.286977
Si Si7 0.853324 0.554360 0.624878
O O1 0.689050 0.595259 0.153714
O O2 0.989595 0.274300 0.293655
O O3 0.015763 0.495942 0.245651
O O4 0.000000 0.500000 0.000000
O O5 0.345948 0.722218 0.265723
O O6 0.305546 0.532204 0.543126
O O7 0.237599 0.547068 0.304798
O O8 0.977405 0.800672 0.341235
O O9 0.740691 0.976676 0.465668
O O10 0.728963 0.972905 0.733907
O O11 0.000000 0.000000 0.500000
O O12 0.399901 0.003972 0.768760
O O13 0.279430 0.248792 0.474542
O O14 0.411286 0.235233 0.715416
O O15 0.500000 0.000000 0.000000
O O16 0.000000 0.500000 0.500000
#
# Coordination Sequence:
#
# PCOD9076920 Si02
#       7
#     2   2   2   2   2   2   2
#     4  11  22  39  62  89 126 161 202 257 312 366
#     4  10  18  33  65  95 107 147 212 266 281 349
#     4  11  24  41  62  94 129 166 209 255 317 370
#     4  10  19  39  61  88 123 164 211 247 302 379
#     4  12  25  40  62  93 127 167 206 257 316 374
#     4  11  20  36  63  91 117 150 208 252 304 358
#     4   9  15  32  57  86 109 149 201 241 289 353
#
# _framework density 20.418220000000002
#
# number of rings (size 3 to 8) (size 9 to 14) (size 15 to 20)
#    0.000    1.429    5.714    3.000    2.000    0.000 
#    0.000    5.000    0.000    0.000    0.000    0.000 
#    0.000    0.000    0.000    0.000    0.000    0.000 
#
# Total GULP energy -77989.050958 kJ/mol
# GULP energy per Si atom -5570.646497 kJ/mol
# Density = 2.037175 g / cm^3
# Si number density = 20.418220 Si / 1000 Ang^3
#
#
#
# Elastic Constant Matrix: (Units=GPa)
#
#
# Indices 1 2 3 4 5 6 
#
# 1 111.1473 41.1363 49.7233 16.2841 -0.3022 1.7966
# 2 41.1363 96.7987 28.0017 25.1263 -6.6476 -5.4762
# 3 49.7233 28.0017 79.2122 33.2725 5.4069 5.8070
# 4 16.2841 25.1263 33.2725 28.0988 -1.1707 1.9733
# 5 -0.3022 -6.6476 5.4069 -1.1707 18.7664 4.8056
# 6 1.7966 -5.4762 5.8070 1.9733 4.8056 36.9879
#
#
#
# Elastic Compliance Matrix: (Units=1/GPa)
#
#
# Indices 1 2 3 4 5 6 
#
# 1 0.014830 -0.005444 -0.011968 0.010590 0.002559 -0.000545
# 2 -0.005444 0.015944 0.004185 -0.016119 0.002715 0.002475
# 3 -0.011968 0.004185 0.036494 -0.040439 -0.011524 -0.000874
# 4 0.010590 -0.016119 -0.040439 0.092499 0.012685 -0.003135
# 5 0.002559 0.002715 -0.011524 0.012685 0.060038 -0.006390
# 6 -0.000545 0.002475 -0.000874 -0.003135 -0.006390 0.028564
#
#
# Mechanical properties :
#
#
# Convention : Reuss Voigt Hill
#
# Bulk Modulus (GPa) = 24.50106 58.32008 41.41057
# Shear Modulus (GPa) = 17.33541 27.99041 22.66291
#
# Velocity S-wave (km/s) = 2.91695 3.70652 3.33518
# Velocity P-wave (km/s) = 4.83430 6.85146 5.92929
#
# Compressibility (1/GPa) = 0.04081456
#
# Stress axis : x y z
#
# Youngs Moduli (GPa) = 67.43011 62.71856 27.40178
#
# Poissons Ratio (x) = 0.34146 0.32793
# Poissons Ratio (y) = 0.36712 -0.11468
# Poissons Ratio (z) = 0.80697 -0.26248
#
# Static dielectric constant tensor:
#      x y z
#    x 1.817470 -0.008410 -0.016640 
#    y -0.008410 1.803000 0.010390 
#    z -0.016640 0.010390 1.789690 
# 
# From -- ./inp_files/185010.got.cif
#   From: 2010.05.17/outbox.cif.g08.bks.cpg/sg2_93_cif.got.tgz:185010.got - 2010.06.03 11:33:40.
