data_PCOD9076265
_publ_section_title
;
Structure prediction by ZEFSAII (Michael W. Deem and Ramdas Pophale) SiO2 
 PCOD9076265
Probable space group: P -1
;
_chemical_formula_sum "Si O2"
_cell_formula_units_Z 16
_cell_length_a 11.638052
_cell_length_b 9.229059
_cell_length_c 12.618955
_cell_angle_alpha 127.713614
_cell_angle_beta 91.335728
_cell_angle_gamma 119.896897
_cell_volume 816.162875
_symmetry_space_group_name_H-M "P -1"
_symmetry_group_IT_number 2
_symmetry_cell_setting 'triclinic'
loop_
_space_group_symop_operation_xyz
x,y,z
-x,-y,-z
loop_
_atom_site_type_symbol
_atom_site_label
_atom_site_fract_x
_atom_site_fract_y
_atom_site_fract_z
Si Si1 0.744331 0.817458 0.668147
Si Si2 0.963747 0.654524 0.125082
Si Si3 0.742572 0.970707 0.094642
Si Si4 0.301452 0.711578 0.898447
Si Si5 0.514706 0.917341 0.203465
Si Si6 0.442152 0.659802 0.676387
Si Si7 0.069115 0.224887 0.182645
Si Si8 0.262731 0.458572 0.111245
O O1 0.618187 0.790135 0.723903
O O2 0.653533 0.611844 0.486059
O O3 0.831962 0.768809 0.724280
O O4 0.875229 0.081221 0.742011
O O5 0.863714 0.519368 0.167327
O O6 0.854748 0.651086 0.038940
O O7 0.000000 0.500000 0.000000
O O8 0.706787 0.093922 0.064765
O O9 0.922339 0.167151 0.201035
O O10 0.649694 0.923654 0.176434
O O11 0.700851 0.719157 0.949675
O O12 0.376888 0.660914 0.787926
O O13 0.406151 0.816346 0.051658
O O14 0.409885 0.726165 0.205746
O O15 0.576737 0.186593 0.335235
O O16 0.176212 0.448226 0.206606
O O17 0.000000 0.000000 0.000000
#
# Coordination Sequence:
#
# PCOD9076265 Si02
#       8
#     2   2   2   2   2   2   2   2
#     4  11  22  40  58  84 118 156 195 241 286 360
#     4  11  21  36  61  91 116 145 196 249 285 337
#     4  10  18  33  53  86 112 144 185 233 297 329
#     4  10  22  35  61  89 116 153 197 246 281 339
#     4  10  21  36  57  86 118 149 196 241 278 347
#     4  10  23  39  59  81 119 161 193 233 298 338
#     4  10  20  32  58  83 111 149 190 236 291 342
#     4  10  20  32  55  89 113 144 188 242 288 335
#
# _framework density 19.603930999999999
#
# number of rings (size 3 to 8) (size 9 to 14) (size 15 to 20)
#    0.000    1.750    2.500    4.125    8.750    0.500 
#    0.000    3.125    0.000    0.000    0.000    0.000 
#    0.000    0.000    0.000    0.000    0.000    0.000 
#
# Total GULP energy -89260.266522 kJ/mol
# GULP energy per Si atom -5578.766658 kJ/mol
# Density = 1.955931 g / cm^3
# Si number density = 19.603931 Si / 1000 Ang^3
#
#
#
# Elastic Constant Matrix: (Units=GPa)
#
#
# Indices 1 2 3 4 5 6 
#
# 1 110.5264 39.4766 20.5558 5.5342 -5.0059 29.5213
# 2 39.4766 143.7501 27.0304 22.3201 -2.7355 41.8167
# 3 20.5558 27.0304 46.9589 16.5647 -9.6561 13.0667
# 4 5.5342 22.3201 16.5647 25.4493 -0.6283 11.1491
# 5 -5.0059 -2.7355 -9.6561 -0.6283 17.8150 4.2240
# 6 29.5213 41.8167 13.0667 11.1491 4.2240 44.1534
#
#
#
# Elastic Compliance Matrix: (Units=1/GPa)
#
#
# Indices 1 2 3 4 5 6 
#
# 1 0.011932 -0.001072 -0.003211 0.003698 0.003300 -0.007262
# 2 -0.001072 0.010579 -0.001270 -0.004667 0.002361 -0.007974
# 3 -0.003211 -0.001270 0.034843 -0.018680 0.018072 -0.003974
# 4 0.003698 -0.004667 -0.018680 0.057399 -0.006256 -0.006420
# 5 0.003300 0.002361 0.018072 -0.006256 0.070544 -0.014959
# 6 -0.007262 -0.007974 -0.003974 -0.006420 -0.014959 0.039284
#
#
# Mechanical properties :
#
#
# Convention : Reuss Voigt Hill
#
# Bulk Modulus (GPa) = 21.62275 52.81790 37.22032
# Shear Modulus (GPa) = 19.91225 31.76170 25.83698
#
# Velocity S-wave (km/s) = 3.19051 4.02950 3.63429
# Velocity P-wave (km/s) = 4.96248 6.97497 6.05295
#
# Compressibility (1/GPa) = 0.04624759
#
# Stress axis : x y z
#
# Youngs Moduli (GPa) = 83.81175 94.52868 28.70024
#
# Poissons Ratio (x) = 0.10132 0.09217
# Poissons Ratio (y) = 0.08983 0.03644
# Poissons Ratio (z) = 0.26916 0.12001
#
# Static dielectric constant tensor:
#      x y z
#    x 1.726850 0.007160 -0.001280 
#    y 0.007160 1.735900 0.016890 
#    z -0.001280 0.016890 1.677900 
# 
# From -- ./inp_files/387362.got.cif
#   From: 2010.05.17/outbox.cif.g08.bks.cpg/sg2_194_cif.got.tgz:387362.got - 2010.06.03 11:33:40.
