data_PCOD9076190
_publ_section_title
;
Structure prediction by ZEFSAII (Michael W. Deem and Ramdas Pophale) SiO2 
 PCOD9076190
Probable space group: P -1
;
_chemical_formula_sum "Si O2"
_cell_formula_units_Z 16
_cell_length_a 12.429232
_cell_length_b 14.669358
_cell_length_c 8.755259
_cell_angle_alpha 125.645203
_cell_angle_beta 50.191662
_cell_angle_gamma 150.085268
_cell_volume 609.946970
_symmetry_space_group_name_H-M "P -1"
_symmetry_group_IT_number 2
_symmetry_cell_setting 'triclinic'
loop_
_space_group_symop_operation_xyz
x,y,z
-x,-y,-z
loop_
_atom_site_type_symbol
_atom_site_label
_atom_site_fract_x
_atom_site_fract_y
_atom_site_fract_z
Si Si1 0.053509 0.048837 0.824613
Si Si2 0.387184 0.445686 0.886787
Si Si3 0.744532 0.045099 0.450553
Si Si4 0.226740 0.204537 0.427715
Si Si5 0.667985 0.068301 0.193990
Si Si6 0.435127 0.710130 0.948589
Si Si7 0.977190 0.472480 0.301987
Si Si8 0.774937 0.568679 0.471341
O O1 0.142839 0.229388 0.890703
O O2 0.251493 0.084093 0.642800
O O3 0.830621 0.863483 0.762109
O O4 0.000000 0.000000 0.000000
O O5 0.547201 0.474742 0.659821
O O6 0.500000 0.500000 0.000000
O O7 0.397344 0.581768 0.972600
O O8 0.694594 0.034431 0.307389
O O9 0.995984 0.248895 0.460754
O O10 0.553495 0.991429 0.661642
O O11 0.201545 0.322964 0.584295
O O12 0.478576 0.304069 0.298055
O O13 0.000000 0.000000 0.500000
O O14 0.873357 0.283195 0.186746
O O15 0.612303 0.926006 0.003336
O O16 0.200750 0.624116 0.136077
O O17 0.000000 0.500000 0.500000
O O18 0.807597 0.457230 0.366488
#
# Coordination Sequence:
#
# PCOD9076190 Si02
#       8
#     2   2   2   2   2   2   2   2
#     4  11  22  37  65  95 127 167 222 270 335 387
#     4  11  21  34  56  91 134 164 210 272 321 381
#     4  10  18  33  51  87 124 169 201 255 313 400
#     4  10  24  46  69  89 130 178 221 276 331 384
#     4  11  20  33  57  87 135 163 207 255 339 380
#     4  11  24  37  57  92 125 166 223 264 320 393
#     4  12  21  34  61  93 135 167 206 267 335 387
#     4  10  20  38  57  87 125 166 218 261 317 391
#
# _framework density 26.231788999999999
#
# number of rings (size 3 to 8) (size 9 to 14) (size 15 to 20)
#    0.000    1.250    2.500    6.000    3.500    0.000 
#    0.000    3.125    0.000    0.750    0.000    0.000 
#    0.000    0.000    0.000    0.000    0.000    0.000 
#
# Total GULP energy -89196.747926 kJ/mol
# GULP energy per Si atom -5574.796745 kJ/mol
# Density = 2.617208 g / cm^3
# Si number density = 26.231789 Si / 1000 Ang^3
#
#
#
# Elastic Constant Matrix: (Units=GPa)
#
#
# Indices 1 2 3 4 5 6 
#
# 1 95.7336 4.7282 27.5923 8.2974 -31.0642 -24.1239
# 2 4.7282 169.9222 17.8202 20.1151 -13.0844 -23.5148
# 3 27.5923 17.8202 96.7717 9.0446 -23.6773 -15.3452
# 4 8.2974 20.1151 9.0446 52.7818 -6.4697 -11.6525
# 5 -31.0642 -13.0844 -23.6773 -6.4697 51.6584 7.1336
# 6 -24.1239 -23.5148 -15.3452 -11.6525 7.1336 31.0773
#
#
#
# Elastic Compliance Matrix: (Units=1/GPa)
#
#
# Indices 1 2 3 4 5 6 
#
# 1 0.016259 0.001865 -0.001165 0.000534 0.008155 0.011786
# 2 0.001865 0.006949 -0.000360 -0.001430 0.001766 0.005587
# 3 -0.001165 -0.000360 0.012435 -0.000440 0.004327 0.003805
# 4 0.000534 -0.001430 -0.000440 0.021144 0.001480 0.006704
# 5 0.008155 0.001766 0.004327 0.001480 0.026281 0.004326
# 6 0.011786 0.005587 0.003805 0.006704 0.004326 0.048954
#
#
# Mechanical properties :
#
#
# Convention : Reuss Voigt Hill
#
# Bulk Modulus (GPa) = 27.52937 51.41208 39.47073
# Shear Modulus (GPa) = 34.85560 47.92262 41.38911
#
# Velocity S-wave (km/s) = 3.64916 4.27885 3.97649
# Velocity P-wave (km/s) = 5.31720 6.63725 6.01356
#
# Compressibility (1/GPa) = 0.03632484
#
# Stress axis : x y z
#
# Youngs Moduli (GPa) = 61.50384 143.89859 80.41572
#
# Poissons Ratio (x) = -0.26844 0.09370
# Poissons Ratio (y) = -0.11473 0.02893
# Poissons Ratio (z) = 0.07166 0.05178
#
# Static dielectric constant tensor:
#      x y z
#    x 2.278510 0.035850 0.057710 
#    y 0.035850 2.102150 -0.071760 
#    z 0.057710 -0.071760 2.298770 
# 
# From -- ./inp_files/454930.got.cif
#   From: 2010.05.17/outbox.cif.g08.bks.cpg/sg2_228_cif.got.tgz:454930.got - 2010.06.03 11:33:40.
