data_PCOD9076321
_publ_section_title
;
Structure prediction by ZEFSAII (Michael W. Deem and Ramdas Pophale) SiO2 
 PCOD9076321
Probable space group: P -1
;
_chemical_formula_sum "Si O2"
_cell_formula_units_Z 16
_cell_length_a 9.833575
_cell_length_b 14.504977
_cell_length_c 11.257150
_cell_angle_alpha 132.996066
_cell_angle_beta 113.722623
_cell_angle_gamma 44.738786
_cell_volume 816.046682
_symmetry_space_group_name_H-M "P -1"
_symmetry_group_IT_number 2
_symmetry_cell_setting 'triclinic'
loop_
_space_group_symop_operation_xyz
x,y,z
-x,-y,-z
loop_
_atom_site_type_symbol
_atom_site_label
_atom_site_fract_x
_atom_site_fract_y
_atom_site_fract_z
Si Si1 0.837133 0.587701 0.211493
Si Si2 0.234203 0.514179 0.535550
Si Si3 0.462724 0.554835 0.837448
Si Si4 0.207945 0.263621 0.410901
Si Si5 0.792018 0.467767 0.733071
Si Si6 0.572771 0.941991 0.339097
Si Si7 0.052962 0.113737 0.646582
Si Si8 0.217990 0.677900 0.067980
O O1 0.807814 0.660809 0.397759
O O2 0.693817 0.745558 0.213868
O O3 0.060806 0.495821 0.175733
O O4 0.794635 0.464558 0.085311
O O5 0.376463 0.510732 0.668873
O O6 0.256729 0.351503 0.417971
O O7 0.256987 0.531594 0.420456
O O8 0.009199 0.667008 0.627949
O O9 0.597261 0.581794 0.842338
O O10 0.611213 0.398210 0.840373
O O11 0.292511 0.698324 0.990590
O O12 0.377896 0.066762 0.303103
O O13 0.920024 0.281400 0.667351
O O14 0.726604 0.965477 0.374779
O O15 0.500000 0.000000 0.500000
O O16 0.983284 0.172286 0.809249
O O17 0.000000 0.000000 0.500000
#
# Coordination Sequence:
#
# PCOD9076321 Si02
#       8
#     2   2   2   2   2   2   2   2
#     4   9  17  36  55  85 114 138 187 230 276 328
#     4  10  18  33  54  85 116 144 192 227 261 330
#     4  10  20  33  52  86 109 145 184 227 276 322
#     4   9  18  31  57  85 106 153 184 225 272 319
#     4   9  20  33  56  89 109 144 184 232 272 320
#     4   9  19  32  56  82 110 139 181 234 274 316
#     4  10  22  37  55  83 113 142 181 236 288 329
#     4  10  21  35  58  82 112 148 183 230 282 332
#
# _framework density 19.606722000000001
#
# number of rings (size 3 to 8) (size 9 to 14) (size 15 to 20)
#    0.000    2.500    1.250    1.125    3.500    5.500 
#    0.000    0.000    0.000    3.750    0.000    0.000 
#    0.000    0.000    0.000    0.000    0.000    0.000 
#
# Total GULP energy -89226.619069 kJ/mol
# GULP energy per Si atom -5576.663692 kJ/mol
# Density = 1.956210 g / cm^3
# Si number density = 19.606722 Si / 1000 Ang^3
#
#
#
# Elastic Constant Matrix: (Units=GPa)
#
#
# Indices 1 2 3 4 5 6 
#
# 1 126.1209 22.7693 39.8238 -1.5852 -22.2701 -12.9956
# 2 22.7693 51.9292 6.2154 -12.3578 0.7752 -8.2565
# 3 39.8238 6.2154 51.4015 -9.0620 -6.8479 -11.9663
# 4 -1.5852 -12.3578 -9.0620 22.3284 1.4564 -1.4539
# 5 -22.2701 0.7752 -6.8479 1.4564 35.9604 -7.2672
# 6 -12.9956 -8.2565 -11.9663 -1.4539 -7.2672 23.0504
#
#
#
# Elastic Compliance Matrix: (Units=1/GPa)
#
#
# Indices 1 2 3 4 5 6 
#
# 1 0.013430 -0.006019 -0.009215 -0.006437 0.007475 0.002583
# 2 -0.006019 0.027079 0.006799 0.018107 -0.001635 0.010462
# 3 -0.009215 0.006799 0.033089 0.017411 0.003074 0.016485
# 4 -0.006437 0.018107 0.017411 0.062466 -0.000418 0.015704
# 5 0.007475 -0.001635 0.003074 -0.000418 0.036448 0.016689
# 6 0.002583 0.010462 0.016485 0.015704 0.016689 0.063397
#
#
# Mechanical properties :
#
#
# Convention : Reuss Voigt Hill
#
# Bulk Modulus (GPa) = 17.62806 40.78540 29.20673
# Shear Modulus (GPa) = 18.40337 26.97736 22.69037
#
# Velocity S-wave (km/s) = 3.06702 3.71337 3.40556
# Velocity P-wave (km/s) = 4.64247 6.26358 5.51293
#
# Compressibility (1/GPa) = 0.05672776
#
# Stress axis : x y z
#
# Youngs Moduli (GPa) = 74.45774 36.92879 30.22164
#
# Poissons Ratio (x) = 0.22226 0.27850
# Poissons Ratio (y) = 0.44813 -0.20547
# Poissons Ratio (z) = 0.68615 -0.25106
#
# Static dielectric constant tensor:
#      x y z
#    x 1.735650 -0.017740 -0.048660 
#    y -0.017740 1.707710 -0.001290 
#    z -0.048660 -0.001290 1.694170 
# 
# From -- ./inp_files/395511.got.cif
#   From: 2010.05.17/outbox.cif.g08.bks.cpg/sg2_198_cif.got.tgz:395511.got - 2010.06.03 11:33:40.
