data_PCOD9076713
_publ_section_title
;
Structure prediction by ZEFSAII (Michael W. Deem and Ramdas Pophale) SiO2 
 PCOD9076713
Probable space group: P -1
;
_chemical_formula_sum "Si O2"
_cell_formula_units_Z 16
_cell_length_a 8.237220
_cell_length_b 14.603793
_cell_length_c 13.807370
_cell_angle_alpha 38.960281
_cell_angle_beta 115.093207
_cell_angle_gamma 138.174665
_cell_volume 646.894692
_symmetry_space_group_name_H-M "P -1"
_symmetry_group_IT_number 2
_symmetry_cell_setting 'triclinic'
loop_
_space_group_symop_operation_xyz
x,y,z
-x,-y,-z
loop_
_atom_site_type_symbol
_atom_site_label
_atom_site_fract_x
_atom_site_fract_y
_atom_site_fract_z
Si Si1 0.226402 0.587879 0.409011
Si Si2 0.571144 0.780226 0.037098
Si Si3 0.634276 0.894423 0.566597
Si Si4 0.102093 0.805283 0.102422
Si Si5 0.076843 0.664409 0.017038
Si Si6 0.529299 0.362312 0.071937
Si Si7 0.904310 0.287356 0.411813
Si Si8 0.484313 0.573761 0.646257
O O1 0.271913 0.763795 0.214967
O O2 0.454409 0.646899 0.479513
O O3 0.000000 0.500000 0.500000
O O4 0.098146 0.394474 0.462972
O O5 0.357287 0.778186 0.960242
O O6 0.460972 0.566290 0.233893
O O7 0.643731 0.768904 0.957703
O O8 0.780938 0.983598 0.990148
O O9 0.553268 0.792809 0.736187
O O10 0.387205 0.847058 0.509452
O O11 0.655754 0.771400 0.601314
O O12 0.878180 0.140904 0.450009
O O13 0.098783 0.806503 0.984133
O O14 0.808457 0.601577 0.234666
O O15 0.842936 0.542707 0.981772
O O16 0.983614 0.476618 0.216387
O O17 0.500000 0.500000 0.000000
#
# Coordination Sequence:
#
# PCOD9076713 Si02
#       8
#     2   2   2   2   2   2   2   2
#     4   9  17  32  56  81 112 139 191 244 274 327
#     4  12  24  35  60  86 120 157 185 233 299 346
#     4  10  18  33  59  83 108 146 191 242 285 327
#     4  10  20  39  59  83 114 156 197 233 278 344
#     4  10  21  42  57  83 119 152 188 235 289 352
#     4  11  21  38  59  83 115 148 194 241 280 334
#     4   9  18  34  59  81 107 149 191 236 290 335
#     4  11  20  37  55  90 117 144 195 247 279 332
#
# _framework density 24.733547000000002
#
# number of rings (size 3 to 8) (size 9 to 14) (size 15 to 20)
#    0.000    1.750    6.250    1.125    3.500    1.000 
#    0.000    3.125    2.750    0.000    0.000    0.000 
#    0.000    0.000    0.000    0.000    0.000    0.000 
#
# Total GULP energy -89370.090123 kJ/mol
# GULP energy per Si atom -5585.630633 kJ/mol
# Density = 2.467725 g / cm^3
# Si number density = 24.733547 Si / 1000 Ang^3
#
#
#
# Elastic Constant Matrix: (Units=GPa)
#
#
# Indices 1 2 3 4 5 6 
#
# 1 78.1492 26.7520 2.5286 -14.8611 19.3643 -15.4882
# 2 26.7520 177.8633 41.1795 -23.1877 15.9555 -57.3153
# 3 2.5286 41.1795 45.3861 -2.8608 19.3652 -13.5214
# 4 -14.8611 -23.1877 -2.8608 44.3817 -6.2096 12.7079
# 5 19.3643 15.9555 19.3652 -6.2096 27.8160 -6.7824
# 6 -15.4882 -57.3153 -13.5214 12.7079 -6.7824 38.3932
#
#
#
# Elastic Compliance Matrix: (Units=1/GPa)
#
#
# Indices 1 2 3 4 5 6 
#
# 1 0.018515 -0.001626 0.009030 0.002312 -0.016625 0.004519
# 2 -0.001626 0.012618 -0.008282 0.001636 0.003778 0.015390
# 3 0.009030 -0.008282 0.042956 -0.003541 -0.031751 0.001971
# 4 0.002312 0.001636 -0.003541 0.026195 0.004357 -0.005773
# 5 -0.016625 0.003778 -0.031751 0.004357 0.068026 -0.001674
# 6 0.004519 0.015390 0.001971 -0.005773 -0.001674 0.053153
#
#
# Mechanical properties :
#
#
# Convention : Reuss Voigt Hill
#
# Bulk Modulus (GPa) = 13.82507 49.14653 31.48580
# Shear Modulus (GPa) = 20.21581 37.51407 28.86494
#
# Velocity S-wave (km/s) = 2.86202 3.89874 3.41990
# Velocity P-wave (km/s) = 4.06489 6.33881 5.32465
#
# Compressibility (1/GPa) = 0.07233236
#
# Stress axis : x y z
#
# Youngs Moduli (GPa) = 54.00905 79.25183 23.27988
#
# Poissons Ratio (x) = 0.12889 -0.21021
# Poissons Ratio (y) = 0.08784 0.19280
# Poissons Ratio (z) = -0.48769 0.65634
#
# Static dielectric constant tensor:
#      x y z
#    x 2.098700 0.034870 0.034590 
#    y 0.034870 1.993520 -0.036190 
#    z 0.034590 -0.036190 2.006960 
# 
# From -- ./inp_files/205954.got.cif
#   From: 2010.05.17/outbox.cif.g08.bks.cpg/sg2_103_cif.got.tgz:205954.got - 2010.06.03 11:33:40.
