data_PCOD9076101
_publ_section_title
;
Structure prediction by ZEFSAII (Michael W. Deem and Ramdas Pophale) SiO2 
 PCOD9076101
Probable space group: P -1
;
_chemical_formula_sum "Si O2"
_cell_formula_units_Z 12
_cell_length_a 8.263572
_cell_length_b 8.075492
_cell_length_c 12.055477
_cell_angle_alpha 131.111732
_cell_angle_beta 79.814006
_cell_angle_gamma 127.267762
_cell_volume 448.301747
_symmetry_space_group_name_H-M "P -1"
_symmetry_group_IT_number 2
_symmetry_cell_setting 'triclinic'
loop_
_space_group_symop_operation_xyz
x,y,z
-x,-y,-z
loop_
_atom_site_type_symbol
_atom_site_label
_atom_site_fract_x
_atom_site_fract_y
_atom_site_fract_z
Si Si1 0.362599 0.660626 0.392456
Si Si2 0.375233 0.514868 0.697158
Si Si3 0.467531 0.696202 0.154873
Si Si4 0.146810 0.397866 0.886393
Si Si5 0.171294 0.883970 0.019196
Si Si6 0.864302 0.289189 0.294195
O O1 0.512562 0.611728 0.416052
O O2 0.343734 0.549629 0.219784
O O3 0.116909 0.491537 0.386757
O O4 0.500000 0.000000 0.500000
O O5 0.244087 0.337328 0.748744
O O6 0.224013 0.542277 0.653104
O O7 0.579785 0.842825 0.858411
O O8 0.686808 0.027731 0.282426
O O9 0.500000 0.500000 0.000000
O O10 0.317913 0.671281 0.067953
O O11 0.976006 0.133613 0.873908
O O12 0.077783 0.552008 0.894950
O O13 0.156935 0.888623 0.890926
#
# Coordination Sequence:
#
# PCOD9076101 Si02
#       6
#     2   2   2   2   2   2
#     4  12  29  45  61  92 132 173 218 261 311 374
#     4  11  22  41  65  95 129 162 210 264 322 375
#     4  12  22  40  67 101 126 164 211 263 323 378
#     4  10  18  32  61 101 128 154 199 260 319 378
#     4  10  18  33  63 103 127 155 203 266 323 374
#     4  11  23  41  67  93 130 169 210 262 318 377
#
# _framework density 26.767683000000002
#
# number of rings (size 3 to 8) (size 9 to 14) (size 15 to 20)
#    0.000    1.000    6.667    1.000    2.333    2.667 
#    0.000    0.833    0.000    0.000    0.000    0.000 
#    0.000    0.000    0.000    0.000    0.000    0.000 
#
# Total GULP energy -66974.621158 kJ/mol
# GULP energy per Si atom -5581.218430 kJ/mol
# Density = 2.670676 g / cm^3
# Si number density = 26.767683 Si / 1000 Ang^3
#
#
#
# Elastic Constant Matrix: (Units=GPa)
#
#
# Indices 1 2 3 4 5 6 
#
# 1 176.1305 60.3276 24.3841 16.0879 -11.6339 11.3757
# 2 60.3276 130.4341 -4.2588 -14.3439 6.9057 19.3795
# 3 24.3841 -4.2588 52.8778 5.4212 2.3848 2.6570
# 4 16.0879 -14.3439 5.4212 31.2505 -1.5782 -2.5319
# 5 -11.6339 6.9057 2.3848 -1.5782 21.3653 7.2846
# 6 11.3757 19.3795 2.6570 -2.5319 7.2846 54.3561
#
#
#
# Elastic Compliance Matrix: (Units=1/GPa)
#
#
# Indices 1 2 3 4 5 6 
#
# 1 0.009176 -0.005275 -0.004294 -0.006128 0.007092 -0.001066
# 2 -0.005275 0.011593 0.003005 0.007058 -0.005725 -0.002080
# 3 -0.004294 0.003005 0.021456 -0.000453 -0.005569 -0.000496
# 4 -0.006128 0.007058 -0.000453 0.038398 -0.003068 0.000988
# 5 0.007092 -0.005725 -0.005569 -0.003068 0.055200 -0.006712
# 6 -0.001066 -0.002080 -0.000496 0.000988 -0.006712 0.020332
#
#
# Mechanical properties :
#
#
# Convention : Reuss Voigt Hill
#
# Bulk Modulus (GPa) = 34.36755 57.81648 46.09202
# Shear Modulus (GPa) = 27.93570 39.99368 33.96469
#
# Velocity S-wave (km/s) = 3.23404 3.86956 3.56598
# Velocity P-wave (km/s) = 5.17807 6.45065 5.84907
#
# Compressibility (1/GPa) = 0.02909721
#
# Stress axis : x y z
#
# Youngs Moduli (GPa) = 108.97939 86.25825 46.60605
#
# Poissons Ratio (x) = 0.45504 0.20014
# Poissons Ratio (y) = 0.57491 -0.14007
# Poissons Ratio (z) = 0.46799 -0.25925
#
# Static dielectric constant tensor:
#      x y z
#    x 21.057940 -3.737010 7.191160 
#    y -3.737010 2.848840 -1.519990 
#    z 7.191160 -1.519990 4.964310 
# 
# From -- ./inp_files/357354.got.cif
#   From: 2010.05.17/outbox.cif.g08.bks.cpg/sg2_179_cif.got.tgz:357354.got - 2010.06.03 11:33:40.
