data_PCOD9076449
_publ_section_title
;
Structure prediction by ZEFSAII (Michael W. Deem and Ramdas Pophale) SiO2 
 PCOD9076449
Probable space group: P -1
;
_chemical_formula_sum "Si O2"
_cell_formula_units_Z 16
_cell_length_a 12.161767
_cell_length_b 18.725236
_cell_length_c 23.549169
_cell_angle_alpha 163.454155
_cell_angle_beta 150.362034
_cell_angle_gamma 28.246212
_cell_volume 710.528728
_symmetry_space_group_name_H-M "P -1"
_symmetry_group_IT_number 2
_symmetry_cell_setting 'triclinic'
loop_
_space_group_symop_operation_xyz
x,y,z
-x,-y,-z
loop_
_atom_site_type_symbol
_atom_site_label
_atom_site_fract_x
_atom_site_fract_y
_atom_site_fract_z
Si Si1 0.479994 0.925111 0.308194
Si Si2 0.153226 0.662204 0.997605
Si Si3 0.371703 0.816264 0.691181
Si Si4 0.900964 0.393943 0.751719
Si Si5 0.788004 0.006400 0.013004
Si Si6 0.357302 0.636377 0.667570
Si Si7 0.893654 0.708613 0.662681
Si Si8 0.096645 0.931754 0.396837
O O1 0.649014 0.624762 0.142504
O O2 0.648359 0.086439 0.526822
O O3 0.338912 0.072653 0.301881
O O4 0.279441 0.884380 0.228128
O O5 0.000644 0.623361 0.952137
O O6 0.983736 0.745300 0.929409
O O7 0.500000 0.500000 0.500000
O O8 0.342650 0.830983 0.757060
O O9 0.118307 0.939444 0.643104
O O10 0.552706 0.949045 0.847862
O O11 0.631199 0.458460 0.660904
O O12 0.053171 0.141896 0.590018
O O13 0.912075 0.329617 0.774173
O O14 0.713607 0.199147 0.181143
O O15 0.912931 0.146335 0.131449
O O16 0.191390 0.451794 0.449440
O O17 0.000000 0.500000 0.500000
#
# Coordination Sequence:
#
# PCOD9076449 Si02
#       8
#     2   2   2   2   2   2   2   2
#     4   9  16  31  52  79 109 143 186 231 283 323
#     4   9  17  29  53  82 106 140 191 237 265 335
#     4  12  22  36  56  88 121 148 189 242 288 332
#     4  10  18  33  56  82 107 149 195 226 282 340
#     4  10  21  37  59  86 115 151 197 233 283 345
#     4  11  20  37  62  83 114 155 195 232 285 344
#     4   9  19  35  60  85 109 151 200 235 275 347
#     4  10  20  33  53  82 116 145 184 237 280 337
#
# _framework density 22.518443000000001
#
# number of rings (size 3 to 8) (size 9 to 14) (size 15 to 20)
#    0.000    2.000    3.750    1.125    0.000    0.000 
#    0.000    2.500    0.000    6.750    0.000    0.000 
#    0.000    0.000    0.000    0.000    0.000    0.000 
#
# Total GULP energy -89260.065222 kJ/mol
# GULP energy per Si atom -5578.754076 kJ/mol
# Density = 2.246719 g / cm^3
# Si number density = 22.518443 Si / 1000 Ang^3
#
#
#
# Elastic Constant Matrix: (Units=GPa)
#
#
# Indices 1 2 3 4 5 6 
#
# 1 68.5562 1.6567 37.5960 -11.1573 37.0386 -6.5361
# 2 1.6567 -44.6738 3.1896 -15.8055 67.4543 11.8296
# 3 37.5960 3.1896 71.4436 -19.0330 45.1396 -7.2611
# 4 -11.1573 -15.8055 -19.0330 34.9727 -17.5563 3.6244
# 5 37.0386 67.4543 45.1396 -17.5563 29.7000 -8.9745
# 6 -6.5361 11.8296 -7.2611 3.6244 -8.9745 21.6537
#
#
#
# Elastic Compliance Matrix: (Units=1/GPa)
#
#
# Indices 1 2 3 4 5 6 
#
# 1 0.021873 -0.004253 -0.008764 -0.002347 -0.004296 0.004599
# 2 -0.004253 0.000979 -0.007043 0.003229 0.016310 0.002039
# 3 -0.008764 -0.007043 0.024223 0.003614 -0.005852 0.006295
# 4 -0.002347 0.003229 0.003614 0.037206 0.011239 -0.002830
# 5 -0.004296 0.016310 -0.005852 0.011239 0.015178 -0.007760
# 6 0.004599 0.002039 0.006295 -0.002830 -0.007760 0.045824
#
#
# Mechanical properties :
#
#
# Convention : Reuss Voigt Hill
#
# Bulk Modulus (GPa) = 143.77666 20.02342 81.90004
# Shear Modulus (GPa) = 26.63512 20.79086 23.71299
#
# Velocity S-wave (km/s) = 3.44294 3.04185 3.24859
# Velocity P-wave (km/s) = 8.93264 4.60960 7.10776
#
# Compressibility (1/GPa) = 0.00695523
#
# Stress axis : x y z
#
# Youngs Moduli (GPa) = 45.71862 1021.58502 41.28281
#
# Poissons Ratio (x) = 4.34473 0.36180
# Poissons Ratio (y) = 0.19444 0.29076
# Poissons Ratio (z) = 0.40067 7.19506
#
# Static dielectric constant tensor:
#      x y z
#    x 1.887860 -0.019900 0.043970 
#    y -0.019900 1.817220 0.020820 
#    z 0.043970 0.020820 1.960510 
# 
# From -- ./inp_files/263588.got.cif
#   From: 2010.05.17/outbox.cif.g08.bks.cpg/sg2_132_cif.got.tgz:263588.got - 2010.06.03 11:33:40.
