data_PCOD9076446
_publ_section_title
;
Structure prediction by ZEFSAII (Michael W. Deem and Ramdas Pophale) SiO2 
 PCOD9076446
Probable space group: P -1
;
_chemical_formula_sum "Si O2"
_cell_formula_units_Z 15
_cell_length_a 14.654676
_cell_length_b 8.525694
_cell_length_c 11.497003
_cell_angle_alpha 73.852268
_cell_angle_beta 101.990425
_cell_angle_gamma 154.533024
_cell_volume 590.016485
_symmetry_space_group_name_H-M "P -1"
_symmetry_group_IT_number 2
_symmetry_cell_setting 'triclinic'
loop_
_space_group_symop_operation_xyz
x,y,z
-x,-y,-z
loop_
_atom_site_type_symbol
_atom_site_label
_atom_site_fract_x
_atom_site_fract_y
_atom_site_fract_z
Si Si1 0.330604 0.051661 0.462093
Si Si2 0.373183 0.441016 0.237851
Si Si3 0.060999 0.136196 0.355344
Si Si4 0.292743 0.554315 0.756542
Si Si5 0.016094 0.622560 0.664240
Si Si6 0.673678 0.760378 0.094519
Si Si7 0.018094 0.754788 0.116364
Si Si8 0.500000 0.000000 0.500000
O O1 0.161906 0.666969 0.427887
O O2 0.530804 0.249128 0.475281
O O3 0.234021 0.941571 0.584202
O O4 0.352465 0.249294 0.354483
O O5 0.288218 0.453514 0.291285
O O6 0.603421 0.783831 0.166670
O O7 0.202880 0.152637 0.146796
O O8 0.004295 0.237133 0.307965
O O9 0.000000 0.000000 0.500000
O O10 0.909511 0.778639 0.314683
O O11 0.356915 0.470659 0.818008
O O12 0.456551 0.907471 0.647189
O O13 0.204089 0.506896 0.856902
O O14 0.976585 0.409703 0.782423
O O15 0.500000 0.500000 0.000000
O O16 0.904779 0.139496 0.017526
#
# Coordination Sequence:
#
# PCOD9076446 Si02
#       8
#     2   2   2   2   2   2   2   1
#     4  10  18  33  56  81 117 148 190 239 282 334
#     4   9  18  34  56  84 113 148 192 238 282 341
#     4  11  21  36  57  86 122 156 182 227 304 352
#     4  11  22  36  59  91 118 146 192 240 285 350
#     4  10  19  35  57  82 110 156 193 228 285 350
#     4  10  20  38  60  85 113 152 197 243 278 325
#     4   9  19  35  60  82 106 151 200 235 277 330
#     4  12  20  32  56  90 118 136 180 252 286 326
#
# _framework density 25.423016000000001
#
# number of rings (size 3 to 8) (size 9 to 14) (size 15 to 20)
#    0.000    1.867    4.000    1.200    0.000    0.000 
#    0.000    5.333    0.000    0.000    0.000    0.000 
#    0.000    0.000    0.000    0.000    0.000    0.000 
#
# Total GULP energy -83669.142714 kJ/mol
# GULP energy per Si atom -5577.942848 kJ/mol
# Density = 2.536515 g / cm^3
# Si number density = 25.423016 Si / 1000 Ang^3
#
#
#
# Elastic Constant Matrix: (Units=GPa)
#
#
# Indices 1 2 3 4 5 6 
#
# 1 169.7439 13.1602 44.8965 -22.8948 -52.6834 10.0768
# 2 13.1602 35.1483 12.5017 7.3555 -15.0706 0.7569
# 3 44.8965 12.5017 132.6261 -20.0866 -31.8339 16.5110
# 4 -22.8948 7.3555 -20.0866 24.1222 9.9615 -11.7810
# 5 -52.6834 -15.0706 -31.8339 9.9615 58.4485 -12.1884
# 6 10.0768 0.7569 16.5110 -11.7810 -12.1884 27.6041
#
#
#
# Elastic Compliance Matrix: (Units=1/GPa)
#
#
# Indices 1 2 3 4 5 6 
#
# 1 0.009135 -0.001974 -0.000523 0.007631 0.006829 0.003304
# 2 -0.001974 0.039405 -0.003766 -0.022695 0.009442 -0.003624
# 3 -0.000523 -0.003766 0.009930 0.007182 0.002428 -0.001509
# 4 0.007631 -0.022695 0.007182 0.074514 -0.002728 0.024138
# 5 0.006829 0.009442 0.002428 -0.002728 0.029040 0.007454
# 6 0.003304 -0.003624 -0.001509 0.024138 0.007454 0.049615
#
#
# Mechanical properties :
#
#
# Convention : Reuss Voigt Hill
#
# Bulk Modulus (GPa) = 21.76543 53.18166 37.47355
# Shear Modulus (GPa) = 20.87851 39.83227 30.35539
#
# Velocity S-wave (km/s) = 2.86885 3.96255 3.45920
# Velocity P-wave (km/s) = 4.42194 6.47301 5.54317
#
# Compressibility (1/GPa) = 0.04594441
#
# Stress axis : x y z
#
# Youngs Moduli (GPa) = 109.46825 25.37727 100.70351
#
# Poissons Ratio (x) = 0.05011 0.05265
# Poissons Ratio (y) = 0.21614 0.37923
# Poissons Ratio (z) = 0.05724 0.09556
#
# Static dielectric constant tensor:
#      x y z
#    x 1.985700 0.014670 -0.067160 
#    y 0.014670 1.986640 0.019840 
#    z -0.067160 0.019840 2.008280 
# 
# From -- ./inp_files/181800.got.cif
#   From: 2010.05.17/outbox.cif.g08.bks.cpg/sg2_91_cif.got.tgz:181800.got - 2010.06.03 11:33:40.
