data_PCOD9076856
_publ_section_title
;
Structure prediction by ZEFSAII (Michael W. Deem and Ramdas Pophale) SiO2 
 PCOD9076856
Probable space group: P -1
;
_chemical_formula_sum "Si O2"
_cell_formula_units_Z 16
_cell_length_a 14.019756
_cell_length_b 7.955512
_cell_length_c 8.875142
_cell_angle_alpha 83.757567
_cell_angle_beta 135.823284
_cell_angle_gamma 106.649343
_cell_volume 653.927538
_symmetry_space_group_name_H-M "P -1"
_symmetry_group_IT_number 2
_symmetry_cell_setting 'triclinic'
loop_
_space_group_symop_operation_xyz
x,y,z
-x,-y,-z
loop_
_atom_site_type_symbol
_atom_site_label
_atom_site_fract_x
_atom_site_fract_y
_atom_site_fract_z
Si Si1 0.130030 0.740872 0.859170
Si Si2 0.384989 0.596873 0.723062
Si Si3 0.306577 0.125581 0.986916
Si Si4 0.667853 0.882545 0.622677
Si Si5 0.062713 0.199095 0.120465
Si Si6 0.798768 0.552216 0.178584
Si Si7 0.813383 0.281011 0.735579
Si Si8 0.466889 0.591653 0.302438
O O1 0.096089 0.565509 0.735208
O O2 0.202762 0.714878 0.103631
O O3 0.231065 0.919897 0.877109
O O4 0.992625 0.785130 0.774589
O O5 0.531968 0.763171 0.895508
O O6 0.272562 0.618621 0.467234
O O7 0.444748 0.445226 0.736764
O O8 0.291718 0.542107 0.770949
O O9 0.331012 0.117906 0.196044
O O10 0.193640 0.239765 0.817484
O O11 0.515914 0.796535 0.382548
O O12 0.770243 0.765763 0.702493
O O13 0.738974 0.078107 0.625244
O O14 0.985957 0.314626 0.919398
O O15 0.000000 0.000000 0.000000
O O16 0.691424 0.500441 0.921014
O O17 0.500000 0.500000 0.500000
#
# Coordination Sequence:
#
# PCOD9076856 Si02
#       8
#     2   2   2   2   2   2   2   2
#     4   9  20  36  63  83 108 147 197 233 282 328
#     4  11  22  37  51  82 125 151 180 230 287 344
#     4  10  20  34  58  84 113 150 186 234 286 327
#     4  10  18  33  61  87 107 140 193 244 283 322
#     4   8  16  35  59  87 108 139 190 248 283 319
#     4  11  23  38  53  85 124 152 185 227 285 347
#     4   8  19  34  57  84 107 142 192 235 275 335
#     4  11  20  34  58  84 113 147 188 237 285 326
#
# _framework density 24.467542999999999
#
# number of rings (size 3 to 8) (size 9 to 14) (size 15 to 20)
#    0.750    1.500    3.750    2.250    1.750    1.500 
#    2.250    2.500    0.000    7.500    0.000    0.000 
#    0.000    0.000    0.000    0.000    0.000    0.000 
#
# Total GULP energy -89145.816185 kJ/mol
# GULP energy per Si atom -5571.613512 kJ/mol
# Density = 2.441185 g / cm^3
# Si number density = 24.467543 Si / 1000 Ang^3
#
#
#
# Elastic Constant Matrix: (Units=GPa)
#
#
# Indices 1 2 3 4 5 6 
#
# 1 101.5610 15.9284 7.4554 -8.8580 -5.6798 -11.9186
# 2 15.9284 95.1370 31.2250 -3.6526 -3.1392 -3.8276
# 3 7.4554 31.2250 29.6841 3.5119 -0.6139 -3.4249
# 4 -8.8580 -3.6526 3.5119 20.5566 4.4581 5.9849
# 5 -5.6798 -3.1392 -0.6139 4.4581 24.1972 -3.3196
# 6 -11.9186 -3.8276 -3.4249 5.9849 -3.3196 32.6000
#
#
#
# Elastic Compliance Matrix: (Units=1/GPa)
#
#
# Indices 1 2 3 4 5 6 
#
# 1 0.010928 -0.000916 -0.001755 0.003400 0.002229 0.003306
# 2 -0.000916 0.016897 -0.018424 0.006118 0.000192 -0.001391
# 3 -0.001755 -0.018424 0.056175 -0.015982 0.002429 0.006278
# 4 0.003400 0.006118 -0.015982 0.059876 -0.011475 -0.011878
# 5 0.002229 0.000192 0.002429 -0.011475 0.045120 0.007794
# 6 0.003306 -0.001391 0.006278 -0.011878 0.007794 0.035354
#
#
# Mechanical properties :
#
#
# Convention : Reuss Voigt Hill
#
# Bulk Modulus (GPa) = 23.91898 37.28885 30.60392
# Shear Modulus (GPa) = 17.82674 26.92230 22.37452
#
# Velocity S-wave (km/s) = 2.70216 3.32072 3.02728
# Velocity P-wave (km/s) = 4.41957 5.47504 4.97537
#
# Compressibility (1/GPa) = 0.04180781
#
# Stress axis : x y z
#
# Youngs Moduli (GPa) = 91.50758 59.18249 17.80156
#
# Poissons Ratio (x) = 0.05423 0.03125
# Poissons Ratio (y) = 0.08386 0.32798
# Poissons Ratio (z) = 0.16063 1.09039
#
# Static dielectric constant tensor:
#      x y z
#    x 2.076520 -0.065750 0.123910 
#    y -0.065750 2.072490 -0.023990 
#    z 0.123910 -0.023990 1.987610 
# 
# From -- ./inp_files/295308.got.cif
#   From: 2010.05.17/outbox.cif.g08.bks.cpg/sg2_148_cif.got.tgz:295308.got - 2010.06.03 11:33:40.
