data_PCOD9076784
_publ_section_title
;
Structure prediction by ZEFSAII (Michael W. Deem and Ramdas Pophale) SiO2 
 PCOD9076784
Probable space group: P -1
;
_chemical_formula_sum "Si O2"
_cell_formula_units_Z 12
_cell_length_a 10.856507
_cell_length_b 9.010345
_cell_length_c 12.504979
_cell_angle_alpha 68.795072
_cell_angle_beta 118.880845
_cell_angle_gamma 61.314967
_cell_volume 596.496608
_symmetry_space_group_name_H-M "P -1"
_symmetry_group_IT_number 2
_symmetry_cell_setting 'triclinic'
loop_
_space_group_symop_operation_xyz
x,y,z
-x,-y,-z
loop_
_atom_site_type_symbol
_atom_site_label
_atom_site_fract_x
_atom_site_fract_y
_atom_site_fract_z
Si Si1 0.660452 0.243134 0.206568
Si Si2 0.019674 0.361463 0.323608
Si Si3 0.495868 0.818943 0.582475
Si Si4 0.187355 0.678395 0.573129
Si Si5 0.372900 0.312533 0.553225
Si Si6 0.657674 0.751094 0.883265
O O1 0.657369 0.333305 0.296628
O O2 0.555537 0.161274 0.181225
O O3 0.500000 0.500000 0.000000
O O4 0.934100 0.983869 0.358186
O O5 0.871941 0.405177 0.341634
O O6 0.146663 0.402928 0.413171
O O7 0.867763 0.543551 0.108490
O O8 0.230023 0.053369 0.453958
O O9 0.554639 0.679016 0.533348
O O10 0.681350 0.647460 0.802757
O O11 0.500000 0.000000 0.500000
O O12 0.310630 0.493648 0.570570
O O13 0.572278 0.008035 0.758770
#
# Coordination Sequence:
#
# PCOD9076784 Si02
#       6
#     2   2   2   2   2   2
#     4  11  22  37  56  81 109 147 182 221 271 327
#     4  10  18  33  60  81 107 145 178 220 269 320
#     4   8  18  35  53  80 112 144 176 220 268 321
#     4  11  22  37  57  81 112 141 182 228 272 317
#     4  10  22  36  55  86 113 137 178 233 272 310
#     4  10  19  35  60  81 108 144 187 216 266 327
#
# _framework density 20.117466
#
# number of rings (size 3 to 8) (size 9 to 14) (size 15 to 20)
#    0.000    2.333    5.000    0.500    0.000    8.000 
#    0.000    0.833    0.000    2.000    0.000    0.000 
#    0.000    0.000    0.000    0.000    0.000    0.000 
#
# Total GULP energy -66886.551436 kJ/mol
# GULP energy per Si atom -5573.879286 kJ/mol
# Density = 2.007168 g / cm^3
# Si number density = 20.117466 Si / 1000 Ang^3
#
#
#
# Elastic Constant Matrix: (Units=GPa)
#
#
# Indices 1 2 3 4 5 6 
#
# 1 11.2502 1.9539 -7.3918 4.3667 1.1188 -0.1688
# 2 1.9539 149.2311 44.5178 13.1029 -3.1938 -24.7454
# 3 -7.3918 44.5178 162.5850 16.7218 -14.2759 -0.9753
# 4 4.3667 13.1029 16.7218 13.7771 2.8638 -4.9767
# 5 1.1188 -3.1938 -14.2759 2.8638 20.7470 8.2690
# 6 -0.1688 -24.7454 -0.9753 -4.9767 8.2690 25.6897
#
#
#
# Elastic Compliance Matrix: (Units=1/GPa)
#
#
# Indices 1 2 3 4 5 6 
#
# 1 0.122415 -0.003374 0.014938 -0.065711 0.020707 -0.021273
# 2 -0.003374 0.009240 -0.003140 0.000895 -0.004864 0.010498
# 3 0.014938 -0.003140 0.011134 -0.022245 0.013948 -0.011302
# 4 -0.065711 0.000895 -0.022245 0.145498 -0.049073 0.043568
# 5 0.020707 -0.004864 0.013948 -0.049073 0.078118 -0.038670
# 6 -0.021273 0.010498 -0.011302 0.043568 -0.038670 0.069356
#
#
# Mechanical properties :
#
#
# Convention : Reuss Voigt Hill
#
# Bulk Modulus (GPa) = 6.26412 44.58068 25.42240
# Shear Modulus (GPa) = 10.59042 30.97518 20.78280
#
# Velocity S-wave (km/s) = 2.29689 3.92818 3.21763
# Velocity P-wave (km/s) = 3.18666 6.54083 5.14477
#
# Compressibility (1/GPa) = 0.15963937
#
# Stress axis : x y z
#
# Youngs Moduli (GPa) = 8.16890 108.22773 89.81381
#
# Poissons Ratio (x) = 0.36513 -1.34166
# Poissons Ratio (y) = 0.02756 0.28197
# Poissons Ratio (z) = -0.12203 0.33978
#
# Static dielectric constant tensor:
#      x y z
#    x 1.826310 -0.031840 -0.033120 
#    y -0.031840 1.728620 0.020750 
#    z -0.033120 0.020750 1.725810 
# 
# From -- ./inp_files/249116.got.cif
#   From: 2010.05.17/outbox.cif.g08.bks.cpg/sg2_125_cif.got.tgz:249116.got - 2010.06.03 11:33:40.
