data_PCOD9076995
_publ_section_title
;
Structure prediction by ZEFSAII (Michael W. Deem and Ramdas Pophale) SiO2 
 PCOD9076995
Probable space group: P -1
;
_chemical_formula_sum "Si O2"
_cell_formula_units_Z 16
_cell_length_a 11.615322
_cell_length_b 12.600257
_cell_length_c 5.377865
_cell_angle_alpha 70.740310
_cell_angle_beta 82.167761
_cell_angle_gamma 124.327853
_cell_volume 558.727727
_symmetry_space_group_name_H-M "P -1"
_symmetry_group_IT_number 2
_symmetry_cell_setting 'triclinic'
loop_
_space_group_symop_operation_xyz
x,y,z
-x,-y,-z
loop_
_atom_site_type_symbol
_atom_site_label
_atom_site_fract_x
_atom_site_fract_y
_atom_site_fract_z
Si Si1 0.545392 0.346788 0.949746
Si Si2 0.449793 0.096740 0.682996
Si Si3 0.970710 0.578812 0.152081
Si Si4 0.691631 0.995406 0.702457
Si Si5 0.748367 0.291174 0.760274
Si Si6 0.988127 0.090959 0.631228
Si Si7 0.257039 0.192542 0.760646
Si Si8 0.681501 0.538557 0.245416
O O1 0.648308 0.296813 0.985868
O O2 0.611952 0.444794 0.598734
O O3 0.380430 0.177352 0.122475
O O4 0.583469 0.444622 0.103230
O O5 0.386872 0.006887 0.517200
O O6 0.626372 0.205667 0.630520
O O7 0.379406 0.180102 0.629936
O O8 0.365375 0.990361 0.030803
O O9 0.867423 0.454985 0.486459
O O10 0.855200 0.605900 0.088114
O O11 0.132085 0.714038 0.124471
O O12 0.000000 0.500000 0.000000
O O13 0.875061 0.114611 0.536550
O O14 0.160100 0.211428 0.582673
O O15 0.000000 0.000000 0.500000
O O16 0.876078 0.974258 0.971277
O O17 0.316793 0.326877 0.822490
#
# Coordination Sequence:
#
# PCOD9076995 Si02
#       8
#     2   2   2   2   2   2   2   2
#     4  10  20  36  53  83 119 149 188 230 290 343
#     4  10  20  34  54  81 112 141 192 237 284 331
#     4  10  18  34  54  76 114 156 196 229 275 343
#     4  10  19  35  57  82 111 148 196 233 280 336
#     4   9  19  32  53  79 111 152 195 228 274 341
#     4  10  20  39  61  79 111 156 204 238 280 339
#     4  10  23  39  58  87 118 154 195 240 288 344
#     4  11  23  37  58  86 123 156 186 236 292 347
#
# _framework density 28.636489999999998
#
# number of rings (size 3 to 8) (size 9 to 14) (size 15 to 20)
#    0.000    2.000    2.500    2.250    3.500    0.000 
#    0.000   21.875    0.000    0.000    0.000   14.875 
#    0.000    1.500    0.000    0.000    0.000    0.000 
#
# Total GULP energy -89333.128888 kJ/mol
# GULP energy per Si atom -5583.320556 kJ/mol
# Density = 2.857131 g / cm^3
# Si number density = 28.636490 Si / 1000 Ang^3
#
#
#
# Elastic Constant Matrix: (Units=GPa)
#
#
# Indices 1 2 3 4 5 6 
#
# 1 195.2062 45.4656 10.6708 -12.9967 0.3802 28.2925
# 2 45.4656 134.9592 34.0150 23.3059 3.5920 38.4013
# 3 10.6708 34.0150 100.5786 13.0306 22.0729 6.3124
# 4 -12.9967 23.3059 13.0306 46.3456 10.6101 3.5247
# 5 0.3802 3.5920 22.0729 10.6101 27.8941 2.6513
# 6 28.2925 38.4013 6.3124 3.5247 2.6513 51.3624
#
#
#
# Elastic Compliance Matrix: (Units=1/GPa)
#
#
# Indices 1 2 3 4 5 6 
#
# 1 0.006082 -0.001944 -0.000094 0.003030 -0.000715 -0.002056
# 2 -0.001944 0.011928 -0.003532 -0.005973 0.004244 -0.007222
# 3 -0.000094 -0.003532 0.013274 0.000254 -0.010295 0.001575
# 4 0.003030 -0.005973 0.000254 0.027563 -0.010090 0.001395
# 5 -0.000715 0.004244 -0.010295 -0.010090 0.047609 -0.003279
# 6 -0.002056 -0.007222 0.001575 0.001395 -0.003279 0.025882
#
#
# Mechanical properties :
#
#
# Convention : Reuss Voigt Hill
#
# Bulk Modulus (GPa) = 49.64419 67.89408 58.76913
# Shear Modulus (GPa) = 33.29031 47.82660 40.55846
#
# Velocity S-wave (km/s) = 3.41326 4.09115 3.76749
# Velocity P-wave (km/s) = 5.73650 6.78801 6.28429
#
# Compressibility (1/GPa) = 0.02014335
#
# Stress axis : x y z
#
# Youngs Moduli (GPa) = 164.42260 83.83324 75.33306
#
# Poissons Ratio (x) = 0.16300 0.00710
# Poissons Ratio (y) = 0.31969 0.26608
# Poissons Ratio (z) = 0.01550 0.29610
#
# Static dielectric constant tensor:
#      x y z
#    x 2.609190 0.094740 0.074640 
#    y 0.094740 2.383060 0.053480 
#    z 0.074640 0.053480 2.358330 
# 
# From -- ./inp_files/77589.got.cif
#   From: 2010.05.17/outbox.cif.g08.bks.cpg/sg2_39_cif.got.tgz:77589.got - 2010.06.03 11:33:40.
