data_PCOD9076235
_publ_section_title
;
Structure prediction by ZEFSAII (Michael W. Deem and Ramdas Pophale) SiO2 
 PCOD9076235
Probable space group: P -1
;
_chemical_formula_sum "Si O2"
_cell_formula_units_Z 14
_cell_length_a 7.562713
_cell_length_b 11.468111
_cell_length_c 12.185744
_cell_angle_alpha 127.093639
_cell_angle_beta 122.118445
_cell_angle_gamma 43.134091
_cell_volume 568.197217
_symmetry_space_group_name_H-M "P -1"
_symmetry_group_IT_number 2
_symmetry_cell_setting 'triclinic'
loop_
_space_group_symop_operation_xyz
x,y,z
-x,-y,-z
loop_
_atom_site_type_symbol
_atom_site_label
_atom_site_fract_x
_atom_site_fract_y
_atom_site_fract_z
Si Si1 0.804947 0.651455 0.112841
Si Si2 0.272827 0.001663 0.485449
Si Si3 0.867771 0.253666 0.793279
Si Si4 0.672670 0.730597 0.628268
Si Si5 0.389173 0.685558 0.873378
Si Si6 0.135686 0.663353 0.582078
Si Si7 0.992893 0.700944 0.903752
O O1 0.832162 0.522320 0.145897
O O2 0.939247 0.748841 0.230831
O O3 0.527992 0.763365 0.023018
O O4 0.000000 0.500000 0.000000
O O5 0.215174 0.874078 0.331848
O O6 0.402537 0.900609 0.585295
O O7 0.500000 0.000000 0.500000
O O8 0.010826 0.204334 0.493614
O O9 0.602297 0.463594 0.829566
O O10 0.017849 0.212182 0.934875
O O11 0.693861 0.547454 0.517346
O O12 0.909568 0.695704 0.609262
O O13 0.737174 0.754943 0.786303
O O14 0.297213 0.714547 0.734281
O O15 0.145731 0.745047 0.900731
#
# Coordination Sequence:
#
# PCOD9076235 Si02
#       7
#     2   2   2   2   2   2   2
#     4   8  16  29  50  78 106 134 173 212 262 315
#     4  10  20  33  52  77 105 142 175 212 257 318
#     4  10  18  33  53  77 107 136 175 214 262 315
#     4   9  17  32  51  77 105 133 176 217 259 306
#     4   9  15  30  53  82 100 131 182 213 255 311
#     4   9  17  30  52  76 105 139 173 212 261 308
#     4   9  17  29  56  82 100 135 177 218 260 303
#
# _framework density 24.639332
#
# number of rings (size 3 to 8) (size 9 to 14) (size 15 to 20)
#    0.000    3.143    1.429    1.714    2.000    0.000 
#    0.000    7.857    0.000    0.857    0.000    0.000 
#    0.000    0.000    0.000    0.000    0.000    0.000 
#
# Total GULP energy -78165.417852 kJ/mol
# GULP energy per Si atom -5583.244132 kJ/mol
# Density = 2.458325 g / cm^3
# Si number density = 24.639332 Si / 1000 Ang^3
#
#
#
# Elastic Constant Matrix: (Units=GPa)
#
#
# Indices 1 2 3 4 5 6 
#
# 1 49.2423 1.9282 33.3072 7.2582 24.2042 16.6416
# 2 1.9282 95.1467 46.5798 -24.9229 1.3007 -5.3942
# 3 33.3072 46.5798 152.7743 -38.6826 0.3971 46.8225
# 4 7.2582 -24.9229 -38.6826 51.9909 11.3235 -1.0160
# 5 24.2042 1.3007 0.3971 11.3235 20.6283 33.0169
# 6 16.6416 -5.3942 46.8225 -1.0160 33.0169 -25.6401
#
#
#
# Elastic Compliance Matrix: (Units=1/GPa)
#
#
# Indices 1 2 3 4 5 6 
#
# 1 0.041291 0.000263 -0.006133 -0.005452 -0.023057 -0.013931
# 2 0.000263 0.012210 -0.001773 0.004004 0.001971 -0.003257
# 3 -0.006133 -0.001773 0.008846 0.007882 -0.005479 0.005179
# 4 -0.005452 0.004004 0.007882 0.029485 -0.007954 -0.001398
# 5 -0.023057 0.001971 -0.005479 -0.007954 0.039204 0.025413
# 6 -0.013931 -0.003257 0.005179 -0.001398 0.025413 -0.005120
#
#
# Mechanical properties :
#
#
# Convention : Reuss Voigt Hill
#
# Bulk Modulus (GPa) = 21.24917 51.19929 36.22423
# Shear Modulus (GPa) = 31.86954 23.75235 27.81094
#
# Velocity S-wave (km/s) = 3.60035 3.10821 3.36329
# Velocity P-wave (km/s) = 5.09177 5.80567 5.46040
#
# Compressibility (1/GPa) = 0.04706066
#
# Stress axis : x y z
#
# Youngs Moduli (GPa) = 24.21829 81.89932 113.04398
#
# Poissons Ratio (x) = -0.02155 0.69333
# Poissons Ratio (y) = -0.00637 0.20044
# Poissons Ratio (z) = 0.14854 0.14522
#
# Static dielectric constant tensor:
#      x y z
#    x 1.967200 0.059350 0.043780 
#    y 0.059350 1.940840 -0.079880 
#    z 0.043780 -0.079880 1.847920 
# 
# From -- ./inp_files/498233.got.cif
#   From: 2010.05.17/outbox.cif.g08.bks.cpg/sg2_250_cif.got.tgz:498233.got - 2010.06.03 11:33:40.
