data_PCOD9076689
_publ_section_title
;
Structure prediction by ZEFSAII (Michael W. Deem and Ramdas Pophale) SiO2 
 PCOD9076689
Probable space group: P -1
;
_chemical_formula_sum "Si O2"
_cell_formula_units_Z 14
_cell_length_a 18.892222
_cell_length_b 8.100454
_cell_length_c 15.170715
_cell_angle_alpha 152.089747
_cell_angle_beta 30.914024
_cell_angle_gamma 141.365922
_cell_volume 555.754089
_symmetry_space_group_name_H-M "P -1"
_symmetry_group_IT_number 2
_symmetry_cell_setting 'triclinic'
loop_
_space_group_symop_operation_xyz
x,y,z
-x,-y,-z
loop_
_atom_site_type_symbol
_atom_site_label
_atom_site_fract_x
_atom_site_fract_y
_atom_site_fract_z
Si Si1 0.893964 0.097297 0.882574
Si Si2 0.381099 0.309674 0.978113
Si Si3 0.722525 0.721885 0.389443
Si Si4 0.923904 0.415650 0.823021
Si Si5 0.630244 0.297924 0.996507
Si Si6 0.499000 0.637589 0.444919
Si Si7 0.081424 0.848536 0.717685
O O1 0.965678 0.185035 0.753153
O O2 0.966459 0.899324 0.789837
O O3 0.847151 0.472052 0.145770
O O4 0.749237 0.864760 0.911389
O O5 0.337167 0.575521 0.076714
O O6 0.443427 0.993405 0.707617
O O7 0.500000 0.500000 0.000000
O O8 0.619758 0.556400 0.345162
O O9 0.629506 0.662973 0.547192
O O10 0.780674 0.098569 0.465022
O O11 0.034835 0.522236 0.677418
O O12 0.777365 0.246860 0.860941
O O13 0.902315 0.801402 0.071666
O O14 0.568588 0.619026 0.267897
O O15 0.500000 0.000000 0.000000
#
# Coordination Sequence:
#
# PCOD9076689 Si02
#       7
#     2   2   2   2   2   2   2
#     4  10  18  35  57  90 123 160 210 250 309 373
#     4  11  24  39  62  92 126 168 210 257 316 374
#     4   9  18  32  60  85 123 161 202 250 314 359
#     4  10  19  33  55  89 124 158 210 253 304 367
#     4  12  23  39  62  94 128 164 211 259 310 372
#     4  10  21  39  60  90 130 162 208 257 312 373
#     4  10  18  33  58  93 122 161 210 256 305 378
#
# _framework density 25.190996999999999
#
# number of rings (size 3 to 8) (size 9 to 14) (size 15 to 20)
#    0.000    1.714    4.286    3.000    4.000    0.000 
#    0.000    0.000    0.000    3.429    0.000    8.000 
#    0.000    0.000    0.000    0.000    0.000    0.000 
#
# Total GULP energy -78198.747881 kJ/mol
# GULP energy per Si atom -5585.624849 kJ/mol
# Density = 2.513366 g / cm^3
# Si number density = 25.190997 Si / 1000 Ang^3
#
#
#
# Elastic Constant Matrix: (Units=GPa)
#
#
# Indices 1 2 3 4 5 6 
#
# 1 131.5252 57.3711 -0.1071 -8.6182 10.6963 -13.1479
# 2 57.3711 166.2559 19.8075 -28.6745 17.5699 -9.1093
# 3 -0.1071 19.8075 66.7757 12.3378 9.3665 -6.0613
# 4 -8.6182 -28.6745 12.3378 43.3059 0.0058 12.9368
# 5 10.6963 17.5699 9.3665 0.0058 18.3512 -8.7780
# 6 -13.1479 -9.1093 -6.0613 12.9368 -8.7780 51.8382
#
#
#
# Elastic Compliance Matrix: (Units=1/GPa)
#
#
# Indices 1 2 3 4 5 6 
#
# 1 0.009345 -0.003343 0.001762 -0.001446 -0.002199 0.001977
# 2 -0.003343 0.009383 -0.003454 0.007285 -0.006479 -0.002518
# 3 0.001762 -0.003454 0.018593 -0.008152 -0.005735 0.003077
# 4 -0.001446 0.007285 -0.008152 0.032728 -0.006428 -0.009296
# 5 -0.002199 -0.006479 -0.005735 -0.006428 0.070230 0.011130
# 6 0.001977 -0.002518 0.003077 -0.009296 0.011130 0.023914
#
#
# Mechanical properties :
#
#
# Convention : Reuss Voigt Hill
#
# Bulk Modulus (GPa) = 36.69867 57.63331 47.16599
# Shear Modulus (GPa) = 27.27067 41.86475 34.56771
#
# Velocity S-wave (km/s) = 3.29379 4.08106 3.70837
# Velocity P-wave (km/s) = 5.39122 6.71825 6.09098
#
# Compressibility (1/GPa) = 0.02724894
#
# Stress axis : x y z
#
# Youngs Moduli (GPa) = 107.01417 106.57343 53.78356
#
# Poissons Ratio (x) = 0.35630 -0.09476
# Poissons Ratio (y) = 0.35778 0.18579
# Poissons Ratio (z) = -0.18854 0.36816
#
# Static dielectric constant tensor:
#      x y z
#    x 1.963340 0.008150 -0.011380 
#    y 0.008150 2.047610 0.011550 
#    z -0.011380 0.011550 2.035660 
# 
# From -- ./inp_files/537701.got.cif
#   From: 2010.05.17/outbox.cif.g08.bks.cpg/sg2_269_cif.got.tgz:537701.got - 2010.06.03 11:33:40.
