data_PCOD9076608
_publ_section_title
;
Structure prediction by ZEFSAII (Michael W. Deem and Ramdas Pophale) SiO2 
 PCOD9076608
Probable space group: P -1
;
_chemical_formula_sum "Si O2"
_cell_formula_units_Z 16
_cell_length_a 23.653841
_cell_length_b 14.407038
_cell_length_c 9.252809
_cell_angle_alpha 114.286689
_cell_angle_beta 112.925088
_cell_angle_gamma 19.388698
_cell_volume 954.126302
_symmetry_space_group_name_H-M "P -1"
_symmetry_group_IT_number 2
_symmetry_cell_setting 'triclinic'
loop_
_space_group_symop_operation_xyz
x,y,z
-x,-y,-z
loop_
_atom_site_type_symbol
_atom_site_label
_atom_site_fract_x
_atom_site_fract_y
_atom_site_fract_z
Si Si1 0.820310 0.813377 0.585805
Si Si2 0.813157 0.204780 0.721392
Si Si3 0.074324 0.749297 0.145796
Si Si4 0.016944 0.237431 0.210513
Si Si5 0.215143 0.747848 0.599808
Si Si6 0.712638 0.762179 0.462420
Si Si7 0.680966 0.642330 0.595918
Si Si8 0.498207 0.619211 0.526434
O O1 0.741119 0.834326 0.589828
O O2 0.000000 0.500000 0.500000
O O3 0.864401 0.846323 0.740859
O O4 0.688510 0.051229 0.481696
O O5 0.870592 0.225779 0.846926
O O6 0.879728 0.093423 0.549313
O O7 0.610155 0.509181 0.684044
O O8 0.879816 0.009981 0.759313
O O9 0.220194 0.495821 0.244257
O O10 0.044817 0.713428 0.969709
O O11 0.902096 0.032837 0.248401
O O12 0.855195 0.516700 0.327818
O O13 0.264112 0.553624 0.534803
O O14 0.389251 0.540047 0.609553
O O15 0.725740 0.661582 0.540618
O O16 0.522941 0.045890 0.390983
O O17 0.500000 0.500000 0.500000
#
# Coordination Sequence:
#
# PCOD9076608 Si02
#       8
#     2   2   2   2   2   2   2   2
#     4  10  19  35  54  78 105 140 181 223 253 316
#     4   9  18  32  57  76 106 136 179 222 253 322
#     4  11  20  33  51  83 111 136 167 222 285 309
#     4  11  21  32  53  80 111 139 172 219 273 323
#     4   9  18  32  56  77 103 132 177 221 257 315
#     4  10  20  35  56  77  99 144 190 217 255 310
#     4  10  19  34  57  76 104 138 182 223 256 315
#     4  10  18  33  58  80 102 134 188 220 257 303
#
# _framework density 16.769269000000001
#
# number of rings (size 3 to 8) (size 9 to 14) (size 15 to 20)
#    0.750    1.250    2.500    3.375    0.000    0.500 
#    0.000    1.250    0.000    0.000    0.000    0.000 
#    0.000    0.000    0.000    0.000    0.000    0.000 
#
# Total GULP energy -89084.976216 kJ/mol
# GULP energy per Si atom -5567.811013 kJ/mol
# Density = 1.673110 g / cm^3
# Si number density = 16.769269 Si / 1000 Ang^3
#
#
#
# Elastic Constant Matrix: (Units=GPa)
#
#
# Indices 1 2 3 4 5 6 
#
# 1 139.4754 48.4567 50.7493 -8.4953 18.9786 9.7082
# 2 48.4567 110.1176 35.9496 -16.6386 4.0883 0.3449
# 3 50.7493 35.9496 86.6434 -10.8618 22.0476 2.3102
# 4 -8.4953 -16.6386 -10.8618 6.7942 -2.0412 0.0376
# 5 18.9786 4.0883 22.0476 -2.0412 17.1519 -2.6849
# 6 9.7082 0.3449 2.3102 0.0376 -2.6849 23.2808
#
#
#
# Elastic Compliance Matrix: (Units=1/GPa)
#
#
# Indices 1 2 3 4 5 6 
#
# 1 0.010952 -0.004077 -0.002754 -0.003315 -0.008822 -0.005245
# 2 -0.004077 0.016435 -0.002272 0.033892 0.007946 0.002544
# 3 -0.002754 -0.002272 0.022851 0.020343 -0.023971 -0.003883
# 4 -0.003315 0.033892 0.020343 0.258560 -0.000034 -0.001560
# 5 -0.008822 0.007946 -0.023971 -0.000034 0.099709 0.017439
# 6 -0.005245 0.002544 -0.003883 -0.001560 0.017439 0.047503
#
#
# Mechanical properties :
#
#
# Convention : Reuss Voigt Hill
#
# Bulk Modulus (GPa) = 31.21942 67.39418 49.30680
# Shear Modulus (GPa) = 10.31153 22.85075 16.58114
#
# Velocity S-wave (km/s) = 2.48242 3.69542 3.14790
# Velocity P-wave (km/s) = 5.18401 7.64752 6.53294
#
# Compressibility (1/GPa) = 0.03203135
#
# Stress axis : x y z
#
# Youngs Moduli (GPa) = 91.30846 60.84518 43.76165
#
# Poissons Ratio (x) = 0.24808 0.12052
# Poissons Ratio (y) = 0.37228 0.09944
# Poissons Ratio (z) = 0.25146 0.13825
#
# Static dielectric constant tensor:
#      x y z
#    x 1.595030 -0.016230 0.016130 
#    y -0.016230 1.589830 -0.008720 
#    z 0.016130 -0.008720 1.536260 
# 
# From -- ./inp_files/354402.got.cif
#   From: 2010.05.17/outbox.cif.g08.bks.cpg/sg2_178_cif.got.tgz:354402.got - 2010.06.03 11:33:40.
