data_PCOD9076963
_publ_section_title
;
Structure prediction by ZEFSAII (Michael W. Deem and Ramdas Pophale) SiO2 
 PCOD9076963
Probable space group: P -1
;
_chemical_formula_sum "Si O2"
_cell_formula_units_Z 16
_cell_length_a 18.694099
_cell_length_b 13.886680
_cell_length_c 10.514985
_cell_angle_alpha 59.404355
_cell_angle_beta 146.069011
_cell_angle_gamma 144.645519
_cell_volume 753.462700
_symmetry_space_group_name_H-M "P -1"
_symmetry_group_IT_number 2
_symmetry_cell_setting 'triclinic'
loop_
_space_group_symop_operation_xyz
x,y,z
-x,-y,-z
loop_
_atom_site_type_symbol
_atom_site_label
_atom_site_fract_x
_atom_site_fract_y
_atom_site_fract_z
Si Si1 0.486889 0.294056 0.397123
Si Si2 0.011358 0.017152 0.852267
Si Si3 0.652987 0.127933 0.450041
Si Si4 0.563776 0.588801 0.394516
Si Si5 0.169726 0.873805 0.532815
Si Si6 0.021183 0.474281 0.405102
Si Si7 0.597642 0.306296 0.843298
Si Si8 0.243246 0.726877 0.229910
O O1 0.560249 0.476572 0.377842
O O2 0.500930 0.271073 0.584820
O O3 0.620002 0.289606 0.532584
O O4 0.242108 0.122884 0.093321
O O5 0.986421 0.130045 0.709428
O O6 0.809595 0.813728 0.620058
O O7 0.000000 0.000000 0.000000
O O8 0.780892 0.147654 0.517976
O O9 0.751000 0.187082 0.697552
O O10 0.731014 0.310999 0.412313
O O11 0.396134 0.903812 0.232990
O O12 0.500000 0.500000 0.500000
O O13 0.400510 0.579605 0.145216
O O14 0.062128 0.711847 0.583387
O O15 0.418910 0.095371 0.785912
O O16 0.000000 0.500000 0.500000
O O17 0.833438 0.415340 0.098034
O O18 0.000000 0.500000 0.000000
#
# Coordination Sequence:
#
# PCOD9076963 Si02
#       8
#     2   2   2   2   2   2   2   2
#     4  11  21  34  57  83 115 151 186 236 293 338
#     4  11  18  32  55  85 119 144 183 232 297 343
#     4  10  22  38  56  84 113 151 195 234 289 334
#     4   9  19  28  48  82 112 148 176 229 281 345
#     4  10  20  36  58  91 120 152 186 235 295 353
#     4  10  22  34  57  84 120 156 187 238 285 352
#     4  10  18  34  52  86 122 149 187 224 294 345
#     4  11  23  39  57  81 114 157 196 242 280 337
#
# _framework density 21.235292999999999
#
# number of rings (size 3 to 8) (size 9 to 14) (size 15 to 20)
#    0.000    1.750    5.000    1.125    3.500    5.000 
#    0.000    0.000    0.000    0.750    0.000    2.625 
#    0.000    0.000    0.000    0.000    0.000    0.000 
#
# Total GULP energy -89085.815231 kJ/mol
# GULP energy per Si atom -5567.863452 kJ/mol
# Density = 2.118696 g / cm^3
# Si number density = 21.235293 Si / 1000 Ang^3
#
#
#
# Elastic Constant Matrix: (Units=GPa)
#
#
# Indices 1 2 3 4 5 6 
#
# 1 51.5747 27.7699 13.2818 4.6624 12.4034 -5.5582
# 2 27.7699 171.5087 42.3577 12.8495 15.6649 -7.6206
# 3 13.2818 42.3577 90.7188 11.6549 26.1598 -0.3507
# 4 4.6624 12.8495 11.6549 31.6197 -4.9302 4.7092
# 5 12.4034 15.6649 26.1598 -4.9302 26.4086 -0.7799
# 6 -5.5582 -7.6206 -0.3507 4.7092 -0.7799 28.9829
#
#
#
# Elastic Compliance Matrix: (Units=1/GPa)
#
#
# Indices 1 2 3 4 5 6 
#
# 1 0.024451 -0.002650 0.002248 -0.006099 -0.013140 0.004657
# 2 -0.002650 0.007168 -0.002423 -0.002021 -0.000935 0.001650
# 3 0.002248 -0.002423 0.018835 -0.009567 -0.020031 0.001037
# 4 -0.006099 -0.002021 -0.009567 0.041337 0.021022 -0.007968
# 5 -0.013140 -0.000935 -0.020031 0.021022 0.068224 -0.004588
# 6 0.004657 0.001650 0.001037 -0.007968 -0.004588 0.037014
#
#
# Mechanical properties :
#
#
# Convention : Reuss Voigt Hill
#
# Bulk Modulus (GPa) = 22.31962 53.40233 37.86098
# Shear Modulus (GPa) = 22.97649 32.76177 27.86913
#
# Velocity S-wave (km/s) = 3.29294 3.93211 3.62663
# Velocity P-wave (km/s) = 4.99914 6.76889 5.95018
#
# Compressibility (1/GPa) = 0.04480363
#
# Stress axis : x y z
#
# Youngs Moduli (GPa) = 40.89871 139.50215 53.09355
#
# Poissons Ratio (x) = 0.36970 -0.11937
# Poissons Ratio (y) = 0.10839 0.12866
# Poissons Ratio (z) = -0.09196 0.33805
#
# Static dielectric constant tensor:
#      x y z
#    x 1.813900 0.011730 -0.010850 
#    y 0.011730 1.868910 0.023960 
#    z -0.010850 0.023960 1.842380 
# 
# From -- ./inp_files/471933.got.cif
#   From: 2010.05.17/outbox.cif.g08.bks.cpg/sg2_236_cif.got.tgz:471933.got - 2010.06.03 11:33:40.
