data_PCOD9076401
_publ_section_title
;
Structure prediction by ZEFSAII (Michael W. Deem and Ramdas Pophale) SiO2 
 PCOD9076401
Probable space group: P -1
;
_chemical_formula_sum "Si O2"
_cell_formula_units_Z 16
_cell_length_a 9.431720
_cell_length_b 11.608984
_cell_length_c 10.800554
_cell_angle_alpha 118.910484
_cell_angle_beta 73.124723
_cell_angle_gamma 126.674044
_cell_volume 830.279286
_symmetry_space_group_name_H-M "P -1"
_symmetry_group_IT_number 2
_symmetry_cell_setting 'triclinic'
loop_
_space_group_symop_operation_xyz
x,y,z
-x,-y,-z
loop_
_atom_site_type_symbol
_atom_site_label
_atom_site_fract_x
_atom_site_fract_y
_atom_site_fract_z
Si Si1 0.491899 0.057340 0.169572
Si Si2 0.123457 0.678561 0.409687
Si Si3 0.190592 0.162003 0.782547
Si Si4 0.888943 0.810226 0.921679
Si Si5 0.792311 0.852643 0.721019
Si Si6 0.908738 0.811680 0.431757
Si Si7 0.510582 0.112609 0.667358
Si Si8 0.868566 0.308841 0.292080
O O1 0.329929 0.080078 0.226696
O O2 0.675806 0.220137 0.235379
O O3 0.477014 0.948026 0.231540
O O4 0.500000 0.000000 0.000000
O O5 0.308107 0.724903 0.327193
O O6 0.146866 0.722413 0.572291
O O7 0.054064 0.772918 0.404146
O O8 0.978136 0.494670 0.342795
O O9 0.186010 0.249787 0.707358
O O10 0.341969 0.125962 0.714230
O O11 0.205078 0.246096 0.951669
O O12 0.997961 0.997833 0.749019
O O13 0.761023 0.764271 0.812449
O O14 0.023723 0.758610 0.831430
O O15 0.000000 0.000000 0.000000
O O16 0.779113 0.755316 0.553046
O O17 0.000000 0.000000 0.500000
O O18 0.500000 0.000000 0.500000
#
# Coordination Sequence:
#
# PCOD9076401 Si02
#       8
#     2   2   2   2   2   2   2   2
#     4  12  23  38  64 100 129 169 219 269 318 387
#     4  11  24  43  66  96 133 173 214 272 327 383
#     4  10  20  33  57  91 121 156 208 270 310 363
#     4  10  19  37  62  87 123 171 210 253 318 387
#     4  10  18  33  55  88 121 157 208 262 307 362
#     4  10  19  35  59  90 122 161 215 259 307 373
#     4  12  21  38  66  97 128 171 225 262 313 390
#     4  11  24  44  65  95 135 173 213 268 336 381
#
# _framework density 19.270624000000002
#
# number of rings (size 3 to 8) (size 9 to 14) (size 15 to 20)
#    0.000    1.250    2.500    7.500    0.000    0.000 
#    0.000    5.000    0.000    0.000    0.000    0.000 
#    0.000    0.000    0.000    0.000    0.000    0.000 
#
# Total GULP energy -89300.041522 kJ/mol
# GULP energy per Si atom -5581.252595 kJ/mol
# Density = 1.922676 g / cm^3
# Si number density = 19.270624 Si / 1000 Ang^3
#
#
#
# Elastic Constant Matrix: (Units=GPa)
#
#
# Indices 1 2 3 4 5 6 
#
# 1 167.2841 42.5440 57.3665 -19.0276 -15.1532 2.2172
# 2 42.5440 61.3762 32.4750 -8.3212 9.3095 7.6408
# 3 57.3665 32.4750 139.4070 -35.0792 12.4970 2.0437
# 4 -19.0276 -8.3212 -35.0792 27.1742 -14.6101 2.9234
# 5 -15.1532 9.3095 12.4970 -14.6101 39.1144 -8.7403
# 6 2.2172 7.6408 2.0437 2.9234 -8.7403 24.8745
#
#
#
# Elastic Compliance Matrix: (Units=1/GPa)
#
#
# Indices 1 2 3 4 5 6 
#
# 1 0.010004 -0.007096 -0.001426 0.007854 0.009834 0.003938
# 2 -0.007096 0.025326 -0.003594 -0.007616 -0.012810 -0.010458
# 3 -0.001426 -0.003594 0.012119 0.014533 0.001661 -0.000889
# 4 0.007854 -0.007616 0.014533 0.073654 0.028095 0.001661
# 5 0.009834 -0.012810 0.001661 0.028095 0.045908 0.015751
# 6 0.003938 -0.010458 -0.000889 0.001661 0.015751 0.048476
#
#
# Mechanical properties :
#
#
# Convention : Reuss Voigt Hill
#
# Bulk Modulus (GPa) = 43.07722 70.31536 56.69629
# Shear Modulus (GPa) = 20.20545 33.94474 27.07510
#
# Velocity S-wave (km/s) = 3.24158 4.20155 3.75239
# Velocity P-wave (km/s) = 6.03431 7.75274 6.94686
#
# Compressibility (1/GPa) = 0.02321413
#
# Stress axis : x y z
#
# Youngs Moduli (GPa) = 99.96286 39.48479 82.51740
#
# Poissons Ratio (x) = 0.28020 0.11771
# Poissons Ratio (y) = 0.70939 0.29659
# Poissons Ratio (z) = 0.14259 0.14192
#
# Static dielectric constant tensor:
#      x y z
#    x 1.672970 -0.022880 0.047390 
#    y -0.022880 1.688240 -0.079190 
#    z 0.047390 -0.079190 1.771600 
# 
# From -- ./inp_files/390998.got.cif
#   From: 2010.05.17/outbox.cif.g08.bks.cpg/sg2_196_cif.got.tgz:390998.got - 2010.06.03 11:33:40.
