data_PCOD9076458
_publ_section_title
;
Structure prediction by ZEFSAII (Michael W. Deem and Ramdas Pophale) SiO2 
 PCOD9076458
Probable space group: P -1
;
_chemical_formula_sum "Si O2"
_cell_formula_units_Z 16
_cell_length_a 22.611515
_cell_length_b 14.161718
_cell_length_c 17.215721
_cell_angle_alpha 155.679626
_cell_angle_beta 16.543589
_cell_angle_gamma 152.906906
_cell_volume 639.861718
_symmetry_space_group_name_H-M "P -1"
_symmetry_group_IT_number 2
_symmetry_cell_setting 'triclinic'
loop_
_space_group_symop_operation_xyz
x,y,z
-x,-y,-z
loop_
_atom_site_type_symbol
_atom_site_label
_atom_site_fract_x
_atom_site_fract_y
_atom_site_fract_z
Si Si1 0.757660 0.239238 0.842714
Si Si2 0.402979 0.032890 0.878468
Si Si3 0.769555 0.858422 0.664114
Si Si4 0.121470 0.826780 0.668228
Si Si5 0.130004 0.569047 0.714944
Si Si6 0.281960 0.465687 0.293398
Si Si7 0.529291 0.613645 0.462777
Si Si8 0.914514 0.000695 0.316432
O O1 0.940380 0.409421 0.786853
O O2 0.698930 0.012869 0.800201
O O3 0.828893 0.138728 0.597693
O O4 0.584927 0.412047 0.185456
O O5 0.627773 0.084653 0.591224
O O6 0.359819 0.760360 0.749087
O O7 0.389801 0.134491 0.058250
O O8 0.251476 0.189849 0.142891
O O9 0.814535 0.595392 0.409354
O O10 0.000000 0.000000 0.500000
O O11 0.119301 0.587841 0.538797
O O12 0.024630 0.829666 0.706107
O O13 0.000000 0.000000 0.000000
O O14 0.300365 0.594868 0.450433
O O15 0.074311 0.816723 0.994427
O O16 0.500000 0.500000 0.000000
O O17 0.500000 0.500000 0.500000
O O18 0.722518 0.816065 0.386212
#
# Coordination Sequence:
#
# PCOD9076458 Si02
#       8
#     2   2   2   2   2   2   2   2
#     4  10  20  34  54  84 115 147 187 231 279 342
#     4   9  18  32  55  84 107 146 191 227 278 343
#     4   9  17  32  55  80 111 152 186 220 277 343
#     4  10  18  33  56  83 109 146 193 237 283 330
#     4   9  18  34  56  79 111 148 190 228 278 341
#     4   9  17  32  59  81 103 151 194 231 284 333
#     4  10  19  35  56  79 115 147 181 226 286 337
#     4  10  21  34  55  84 113 145 189 235 283 336
#
# _framework density 25.005402
#
# number of rings (size 3 to 8) (size 9 to 14) (size 15 to 20)
#    0.000    2.500    2.500    0.000    0.000    1.000 
#    0.000    0.625    0.000    1.500    0.000    0.000 
#    0.000    0.000    0.000    0.000    0.000    0.000 
#
# Total GULP energy -89239.083432 kJ/mol
# GULP energy per Si atom -5577.442715 kJ/mol
# Density = 2.494849 g / cm^3
# Si number density = 25.005402 Si / 1000 Ang^3
#
#
#
# Elastic Constant Matrix: (Units=GPa)
#
#
# Indices 1 2 3 4 5 6 
#
# 1 100.1328 60.4167 95.2925 44.7756 -14.5072 -41.3082
# 2 60.4167 72.1519 55.5713 22.2667 -0.0577 -37.4761
# 3 95.2925 55.5713 243.6777 51.1884 -4.1975 -39.1053
# 4 44.7756 22.2667 51.1884 53.8230 -11.2102 -17.8348
# 5 -14.5072 -0.0577 -4.1975 -11.2102 58.8743 16.7380
# 6 -41.3082 -37.4761 -39.1053 -17.8348 16.7380 61.4932
#
#
#
# Elastic Compliance Matrix: (Units=1/GPa)
#
#
# Indices 1 2 3 4 5 6 
#
# 1 0.035346 -0.019204 -0.005995 -0.013790 0.004808 0.002920
# 2 -0.019204 0.034264 0.000678 0.003418 -0.007233 0.011373
# 3 -0.005995 0.000678 0.006741 -0.001836 -0.001502 0.000550
# 4 -0.013790 0.003418 -0.001836 0.030862 0.002362 -0.000040
# 5 0.004808 -0.007233 -0.001502 0.002362 0.020504 -0.007029
# 6 0.002920 0.011373 0.000550 -0.000040 -0.007029 0.027406
#
#
# Mechanical properties :
#
#
# Convention : Reuss Voigt Hill
#
# Bulk Modulus (GPa) = 36.61497 93.16926 64.89212
# Shear Modulus (GPa) = 23.44470 48.48355 35.96413
#
# Velocity S-wave (km/s) = 3.06532 4.40810 3.79655
# Velocity P-wave (km/s) = 5.21564 7.95292 6.72502
#
# Compressibility (1/GPa) = 0.02731124
#
# Stress axis : x y z
#
# Youngs Moduli (GPa) = 28.29166 29.18487 148.33882
#
# Poissons Ratio (x) = 0.56046 0.88926
# Poissons Ratio (y) = 0.54331 -0.10064
# Poissons Ratio (z) = 0.16960 -0.01980
#
# Static dielectric constant tensor:
#      x y z
#    x 2.100900 0.001170 -0.082460 
#    y 0.001170 2.071160 -0.043700 
#    z -0.082460 -0.043700 2.001990 
# 
# From -- ./inp_files/579865.got.cif
#   From: 2010.05.17/outbox.cif.g08.bks.cpg/sg2_290_cif.got.tgz:579865.got - 2010.06.03 11:33:40.
