data_PCOD9076460
_publ_section_title
;
Structure prediction by ZEFSAII (Michael W. Deem and Ramdas Pophale) SiO2 
 PCOD9076460
Probable space group: P -1
;
_chemical_formula_sum "Si O2"
_cell_formula_units_Z 16
_cell_length_a 20.295203
_cell_length_b 17.685054
_cell_length_c 10.692640
_cell_angle_alpha 27.087580
_cell_angle_beta 145.490289
_cell_angle_gamma 158.125274
_cell_volume 651.049213
_symmetry_space_group_name_H-M "P -1"
_symmetry_group_IT_number 2
_symmetry_cell_setting 'triclinic'
loop_
_space_group_symop_operation_xyz
x,y,z
-x,-y,-z
loop_
_atom_site_type_symbol
_atom_site_label
_atom_site_fract_x
_atom_site_fract_y
_atom_site_fract_z
Si Si1 0.847797 0.552784 0.301332
Si Si2 0.053945 0.739074 0.105115
Si Si3 0.363774 0.285097 0.421543
Si Si4 0.975151 0.171686 0.571010
Si Si5 0.407704 0.184414 0.899495
Si Si6 0.202235 0.691347 0.835663
Si Si7 0.669188 0.400200 0.623680
Si Si8 0.513642 0.108846 0.553901
O O1 0.886555 0.393007 0.601120
O O2 0.635060 0.339195 0.305177
O O3 0.942231 0.690109 0.116676
O O4 0.948170 0.752332 0.279262
O O5 0.922113 0.583088 0.012355
O O6 0.233897 0.030554 0.936185
O O7 0.342684 0.138203 0.722949
O O8 0.432924 0.523871 0.245877
O O9 0.523795 0.382324 0.448148
O O10 0.193844 0.113306 0.320009
O O11 0.905148 0.287041 0.287959
O O12 0.135726 0.320504 0.507788
O O13 0.470995 0.066884 0.194621
O O14 0.308616 0.903885 0.577701
O O15 0.329662 0.730229 0.070282
O O16 0.619403 0.257063 0.628106
#
# Coordination Sequence:
#
# PCOD9076460 Si02
#       8
#     2   2   2   2   2   2   2   2
#     4   8  18  34  56  78 105 142 185 233 267 311
#     4   9  18  35  53  77 110 144 181 228 274 312
#     4  11  21  37  55  82 116 149 175 219 274 333
#     4  10  20  34  56  83 107 146 184 222 274 321
#     4  10  21  36  53  79 117 145 176 224 272 323
#     4  11  18  30  56  86 109 143 182 224 277 321
#     4  11  20  34  57  83 115 141 180 227 270 326
#     4  10  18  33  56  83 112 139 181 228 270 320
#
# _framework density 24.575714999999999
#
# number of rings (size 3 to 8) (size 9 to 14) (size 15 to 20)
#    0.000    2.000    2.500    3.000    0.000    0.500 
#    2.250    2.500    0.000    3.000    0.000    0.000 
#    0.000    0.000    0.000    0.000    0.000    0.000 
#
# Total GULP energy -89427.645339 kJ/mol
# GULP energy per Si atom -5589.227834 kJ/mol
# Density = 2.451978 g / cm^3
# Si number density = 24.575715 Si / 1000 Ang^3
#
#
#
# Elastic Constant Matrix: (Units=GPa)
#
#
# Indices 1 2 3 4 5 6 
#
# 1 111.0643 37.0991 20.5443 -11.7467 -12.6135 16.8868
# 2 37.0991 98.4502 20.2958 -19.6855 0.4491 8.6861
# 3 20.5443 20.2958 19.8731 -10.3957 2.6970 2.7477
# 4 -11.7467 -19.6855 -10.3957 31.8033 3.2532 -4.5013
# 5 -12.6135 0.4491 2.6970 3.2532 27.9951 -9.7062
# 6 16.8868 8.6861 2.7477 -4.5013 -9.7062 50.0266
#
#
#
# Elastic Compliance Matrix: (Units=1/GPa)
#
#
# Indices 1 2 3 4 5 6 
#
# 1 0.013035 -0.002555 -0.012399 -0.001797 0.006568 -0.002163
# 2 -0.002555 0.013991 -0.008787 0.004858 -0.001413 -0.000921
# 3 -0.012399 -0.008787 0.084311 0.019126 -0.015888 -0.000281
# 4 -0.001797 0.004858 0.019126 0.040911 -0.007134 0.001010
# 5 0.006568 -0.001413 -0.015888 -0.007134 0.043376 0.006675
# 6 -0.002163 -0.000921 -0.000281 0.001010 0.006675 0.022281
#
#
# Mechanical properties :
#
#
# Convention : Reuss Voigt Hill
#
# Bulk Modulus (GPa) = 15.66031 42.80732 29.23382
# Shear Modulus (GPa) = 17.44156 32.06158 24.75157
#
# Velocity S-wave (km/s) = 2.66692 3.61585 3.17701
# Velocity P-wave (km/s) = 3.98364 5.90668 5.03777
#
# Compressibility (1/GPa) = 0.06385568
#
# Stress axis : x y z
#
# Youngs Moduli (GPa) = 76.71480 71.47639 11.86085
#
# Poissons Ratio (x) = 0.18259 0.14707
# Poissons Ratio (y) = 0.19597 0.10422
# Poissons Ratio (z) = 0.95120 0.62806
#
# Static dielectric constant tensor:
#      x y z
#    x 1.927390 0.027480 -0.053970 
#    y 0.027480 1.971320 -0.019920 
#    z -0.053970 -0.019920 2.027140 
# 
# From -- ./inp_files/278272.got.cif
#   From: 2010.05.17/outbox.cif.g08.bks.cpg/sg2_140_cif.got.tgz:278272.got - 2010.06.03 11:33:40.
