data_PCOD9076433
_publ_section_title
;
Structure prediction by ZEFSAII (Michael W. Deem and Ramdas Pophale) SiO2 
 PCOD9076433
Probable space group: P -1
;
_chemical_formula_sum "Si O2"
_cell_formula_units_Z 16
_cell_length_a 6.864101
_cell_length_b 19.820475
_cell_length_c 10.087176
_cell_angle_alpha 47.894566
_cell_angle_beta 123.287577
_cell_angle_gamma 104.713353
_cell_volume 836.608433
_symmetry_space_group_name_H-M "P -1"
_symmetry_group_IT_number 2
_symmetry_cell_setting 'triclinic'
loop_
_space_group_symop_operation_xyz
x,y,z
-x,-y,-z
loop_
_atom_site_type_symbol
_atom_site_label
_atom_site_fract_x
_atom_site_fract_y
_atom_site_fract_z
Si Si1 0.041608 0.305432 0.737818
Si Si2 0.167806 0.263494 0.542220
Si Si3 0.021054 0.082520 0.298268
Si Si4 0.387982 0.117086 0.198185
Si Si5 0.543432 0.595237 0.224413
Si Si6 0.527590 0.080497 0.004849
Si Si7 0.188616 0.775542 0.760617
Si Si8 0.514502 0.390532 0.498027
O O1 0.773642 0.330451 0.651404
O O2 0.048081 0.300889 0.586555
O O3 0.199923 0.380232 0.745083
O O4 0.185811 0.207442 0.971282
O O5 0.368639 0.175498 0.770892
O O6 0.307714 0.339910 0.434342
O O7 0.978133 0.233495 0.413007
O O8 0.973666 0.176771 0.241750
O O9 0.266903 0.066338 0.333362
O O10 0.801979 0.088296 0.108235
O O11 0.000000 0.000000 0.500000
O O12 0.618642 0.157727 0.275083
O O13 0.446595 0.066603 0.145000
O O14 0.512835 0.493071 0.307108
O O15 0.523890 0.601698 0.368154
O O16 0.341760 0.676138 0.986161
O O17 0.500000 0.000000 0.000000
#
# Coordination Sequence:
#
# PCOD9076433 Si02
#       8
#     2   2   2   2   2   2   2   2
#     4   9  17  34  55  78 106 140 184 221 265 324
#     4  10  21  35  53  80 110 143 181 225 271 323
#     4  11  22  38  60  83 108 142 183 225 273 327
#     4   9  20  37  58  79 108 146 179 222 272 321
#     4   9  19  33  54  80 106 143 183 223 270 325
#     4  10  21  38  57  82 111 141 182 226 271 327
#     4  10  21  37  53  78 114 143 182 225 269 327
#     4  10  18  33  56  79 107 142 182 227 273 317
#
# _framework density 19.124835999999998
#
# number of rings (size 3 to 8) (size 9 to 14) (size 15 to 20)
#    0.000    2.250    0.000    4.875    0.000    4.000 
#    0.000    4.375    0.000    0.000    0.000    0.000 
#    0.000    0.000    0.000    0.000    0.000    0.000 
#
# Total GULP energy -89325.305364 kJ/mol
# GULP energy per Si atom -5582.831585 kJ/mol
# Density = 1.908131 g / cm^3
# Si number density = 19.124836 Si / 1000 Ang^3
#
#
#
# Elastic Constant Matrix: (Units=GPa)
#
#
# Indices 1 2 3 4 5 6 
#
# 1 111.6338 37.0393 16.3895 6.5307 0.5196 7.4790
# 2 37.0393 100.2680 33.4001 15.5994 -1.8080 8.1265
# 3 16.3895 33.4001 69.9605 13.4686 7.5663 16.1600
# 4 6.5307 15.5994 13.4686 28.8272 4.7390 6.6454
# 5 0.5196 -1.8080 7.5663 4.7390 24.6343 -7.2203
# 6 7.4790 8.1265 16.1600 6.6454 -7.2203 14.2214
#
#
#
# Elastic Compliance Matrix: (Units=1/GPa)
#
#
# Indices 1 2 3 4 5 6 
#
# 1 0.010491 -0.003932 0.000999 0.001273 -0.002969 -0.006507
# 2 -0.003932 0.014402 -0.007699 -0.006780 0.007631 0.009629
# 3 0.000999 -0.007699 0.029412 0.003898 -0.022984 -0.043038
# 4 0.001273 -0.006780 0.003898 0.047510 -0.020826 -0.033999
# 5 -0.002969 0.007631 -0.022984 -0.020826 0.072803 0.070012
# 6 -0.006507 0.009629 -0.043038 -0.033999 0.070012 0.168574
#
#
# Mechanical properties :
#
#
# Convention : Reuss Voigt Hill
#
# Bulk Modulus (GPa) = 30.26599 50.61332 40.43966
# Shear Modulus (GPa) = 13.31658 26.53879 19.92769
#
# Velocity S-wave (km/s) = 2.64161 3.72917 3.23147
# Velocity P-wave (km/s) = 5.01637 6.71301 5.92573
#
# Compressibility (1/GPa) = 0.03304039
#
# Stress axis : x y z
#
# Youngs Moduli (GPa) = 95.31744 69.43253 33.99974
#
# Poissons Ratio (x) = 0.27303 -0.03395
# Poissons Ratio (y) = 0.37482 0.26176
# Poissons Ratio (z) = -0.09519 0.53456
#
# Static dielectric constant tensor:
#      x y z
#    x 1.671760 0.012570 -0.020280 
#    y 0.012570 1.662510 -0.036640 
#    z -0.020280 -0.036640 1.668710 
# 
# From -- ./inp_files/107482.got.cif
#   From: 2010.05.17/outbox.cif.g08.bks.cpg/sg2_54_cif.got.tgz:107482.got - 2010.06.03 11:33:40.
