data_PCOD9076395
_publ_section_title
;
Structure prediction by ZEFSAII (Michael W. Deem and Ramdas Pophale) SiO2 
 PCOD9076395
Probable space group: P -1
;
_chemical_formula_sum "Si O2"
_cell_formula_units_Z 15
_cell_length_a 19.453387
_cell_length_b 8.783842
_cell_length_c 9.101849
_cell_angle_alpha 48.755527
_cell_angle_beta 142.778892
_cell_angle_gamma 142.138621
_cell_volume 575.442608
_symmetry_space_group_name_H-M "P -1"
_symmetry_group_IT_number 2
_symmetry_cell_setting 'triclinic'
loop_
_space_group_symop_operation_xyz
x,y,z
-x,-y,-z
loop_
_atom_site_type_symbol
_atom_site_label
_atom_site_fract_x
_atom_site_fract_y
_atom_site_fract_z
Si Si1 0.824857 0.041740 0.585200
Si Si2 0.401222 0.956409 0.643651
Si Si3 0.227077 0.637781 0.301524
Si Si4 0.943544 0.191830 0.206240
Si Si5 0.500000 0.500000 0.500000
Si Si6 0.609026 0.487527 0.998796
Si Si7 0.258647 0.226069 0.668661
Si Si8 0.120347 0.181494 0.920514
O O1 0.747910 0.142024 0.471539
O O2 0.990136 0.188317 0.739052
O O3 0.741818 0.931401 0.363228
O O4 0.803349 0.830288 0.797094
O O5 0.354981 0.875878 0.448415
O O6 0.454426 0.794687 0.889532
O O7 0.496503 0.245755 0.655135
O O8 0.264434 0.446184 0.452986
O O9 0.094900 0.449797 0.304425
O O10 0.164087 0.730169 0.021373
O O11 0.888516 0.983123 0.369639
O O12 0.929660 0.066871 0.102040
O O13 0.532917 0.531044 0.715234
O O14 0.641188 0.646221 0.102062
O O15 0.762435 0.601562 0.119027
#
# Coordination Sequence:
#
# PCOD9076395 Si02
#       8
#     2   2   2   2   1   2   2   2
#     4  11  21  37  59  96 140 156 186 250 317 360
#     4  11  23  39  64  93 115 162 211 254 304 357
#     4  10  19  34  57  83 120 159 214 233 278 376
#     4  10  18  33  55  86 121 174 195 228 287 376
#     4  12  22  48  68  82 118 160 216 278 286 350
#     4  10  23  41  69  90 113 167 219 236 303 372
#     4  10  21  36  59  90 125 159 197 244 301 365
#     4  10  20  37  61  93 136 169 183 238 319 369
#
# _framework density 26.066890999999998
#
# number of rings (size 3 to 8) (size 9 to 14) (size 15 to 20)
#    0.000    1.600    4.000    1.600    3.733    0.533 
#    2.400    0.667    0.000    4.000    0.000    0.000 
#    0.000    0.000    0.000    0.000    0.000    0.000 
#
# Total GULP energy -83558.548159 kJ/mol
# GULP energy per Si atom -5570.569877 kJ/mol
# Density = 2.600756 g / cm^3
# Si number density = 26.066891 Si / 1000 Ang^3
#
#
#
# Elastic Constant Matrix: (Units=GPa)
#
#
# Indices 1 2 3 4 5 6 
#
# 1 63.9168 3.0683 20.8404 11.8376 3.5600 14.5878
# 2 3.0683 115.1650 15.6855 -6.1201 -14.7151 -7.1243
# 3 20.8404 15.6855 136.4626 6.1480 -20.4714 -12.9642
# 4 11.8376 -6.1201 6.1480 12.3793 -6.4640 -4.7510
# 5 3.5600 -14.7151 -20.4714 -6.4640 31.6193 18.1023
# 6 14.5878 -7.1243 -12.9642 -4.7510 18.1023 30.2754
#
#
#
# Elastic Compliance Matrix: (Units=1/GPa)
#
#
# Indices 1 2 3 4 5 6 
#
# 1 0.029333 -0.003926 -0.004921 -0.037649 -0.004262 -0.020525
# 2 -0.003926 0.010498 0.000025 0.013360 0.006647 0.002495
# 3 -0.004921 0.000025 0.009009 0.004384 0.005065 0.003894
# 4 -0.037649 0.013360 0.004384 0.146397 0.025560 0.030852
# 5 -0.004262 0.006647 0.005065 0.025560 0.057923 -0.024835
# 6 -0.020525 0.002495 0.003894 0.030852 -0.024835 0.064866
#
#
# Mechanical properties :
#
#
# Convention : Reuss Voigt Hill
#
# Bulk Modulus (GPa) = 32.05653 43.85920 37.95786
# Shear Modulus (GPa) = 14.44801 33.25146 23.84974
#
# Velocity S-wave (km/s) = 2.35684 3.57546 3.02809
# Velocity P-wave (km/s) = 4.44193 5.82300 5.17871
#
# Compressibility (1/GPa) = 0.03119490
#
# Stress axis : x y z
#
# Youngs Moduli (GPa) = 34.09130 95.25623 110.99941
#
# Poissons Ratio (x) = 0.37400 0.54628
# Poissons Ratio (y) = 0.13385 -0.00279
# Poissons Ratio (z) = 0.16778 -0.00240
#
# Static dielectric constant tensor:
#      x y z
#    x 2.127670 0.086120 0.106000 
#    y 0.086120 2.015960 0.055900 
#    z 0.106000 0.055900 2.057000 
# 
# From -- ./inp_files/342505.got.cif
#   From: 2010.05.17/outbox.cif.g08.bks.cpg/sg2_172_cif.got.tgz:342505.got - 2010.06.03 11:33:40.
