data_PCOD9076257
_publ_section_title
;
Structure prediction by ZEFSAII (Michael W. Deem and Ramdas Pophale) SiO2 
 PCOD9076257
Probable space group: P -1
;
_chemical_formula_sum "Si O2"
_cell_formula_units_Z 16
_cell_length_a 7.264024
_cell_length_b 16.787158
_cell_length_c 11.379143
_cell_angle_alpha 122.229963
_cell_angle_beta 81.529461
_cell_angle_gamma 52.976229
_cell_volume 675.072642
_symmetry_space_group_name_H-M "P -1"
_symmetry_group_IT_number 2
_symmetry_cell_setting 'triclinic'
loop_
_space_group_symop_operation_xyz
x,y,z
-x,-y,-z
loop_
_atom_site_type_symbol
_atom_site_label
_atom_site_fract_x
_atom_site_fract_y
_atom_site_fract_z
Si Si1 0.193848 0.834196 0.041686
Si Si2 0.395997 0.009862 0.320058
Si Si3 0.287563 0.225514 0.114927
Si Si4 0.745077 0.717686 0.205445
Si Si5 0.150113 0.895417 0.521876
Si Si6 0.266727 0.452351 0.103067
Si Si7 0.154712 0.442167 0.568591
Si Si8 0.449725 0.887765 0.753223
O O1 0.470636 0.784169 0.922241
O O2 0.376862 0.681238 0.983076
O O3 0.993112 0.979741 0.266047
O O4 0.918224 0.929001 0.047871
O O5 0.435127 0.103154 0.366109
O O6 0.026461 0.130884 0.460651
O O7 0.583534 0.881141 0.307298
O O8 0.572361 0.895351 0.097132
O O9 0.339154 0.168934 0.198197
O O10 0.930280 0.414720 0.276982
O O11 0.523254 0.751134 0.345656
O O12 0.092543 0.587319 0.128194
O O13 0.742053 0.647431 0.038914
O O14 0.000000 0.000000 0.500000
O O15 0.045270 0.538064 0.305579
O O16 0.490890 0.249218 0.376590
O O17 0.000000 0.500000 0.500000
#
# Coordination Sequence:
#
# PCOD9076257 Si02
#       8
#     2   2   2   2   2   2   2   2
#     4  10  18  33  53  83 111 141 192 226 268 340
#     4  10  19  35  56  87 113 139 188 238 277 325
#     4   9  18  37  58  77 109 154 194 217 266 350
#     4  10  18  33  61  79 102 147 198 227 259 330
#     4   9  16  33  54  76 103 143 188 226 261 331
#     4  10  18  33  58  78 103 146 196 221 259 326
#     4   9  18  34  54  80 109 145 182 218 272 337
#     4  11  21  31  57  86 117 144 174 241 292 310
#
# _framework density 23.701153000000001
#
# number of rings (size 3 to 8) (size 9 to 14) (size 15 to 20)
#    0.000    2.250    5.000    1.500    0.000    0.000 
#    0.000    6.250   11.000    0.000    0.000   21.875 
#    0.000    0.000    0.000    0.000    0.000    0.000 
#
# Total GULP energy -89093.657421 kJ/mol
# GULP energy per Si atom -5568.353589 kJ/mol
# Density = 2.364721 g / cm^3
# Si number density = 23.701153 Si / 1000 Ang^3
#
#
#
# Elastic Constant Matrix: (Units=GPa)
#
#
# Indices 1 2 3 4 5 6 
#
# 1 44.5680 25.8228 11.3534 13.6744 -9.7621 8.4700
# 2 25.8228 140.4713 33.1562 31.2866 -11.6862 -6.6093
# 3 11.3534 33.1562 92.6675 3.6308 -4.6450 -4.5524
# 4 13.6744 31.2866 3.6308 46.5063 -6.2287 -11.1888
# 5 -9.7621 -11.6862 -4.6450 -6.2287 20.6182 1.2537
# 6 8.4700 -6.6093 -4.5524 -11.1888 1.2537 26.9765
#
#
#
# Elastic Compliance Matrix: (Units=1/GPa)
#
#
# Indices 1 2 3 4 5 6 
#
# 1 0.033709 -0.003106 -0.002859 -0.010030 0.011530 -0.016523
# 2 -0.003106 0.009620 -0.002740 -0.004920 0.001833 0.000744
# 3 -0.002859 -0.002740 0.012206 0.002592 0.000423 0.003342
# 4 -0.010030 -0.004920 0.002592 0.031471 0.001620 0.015359
# 5 0.011530 0.001833 0.000423 0.001620 0.055889 -0.005025
# 6 -0.016523 0.000744 0.003342 0.015359 -0.005025 0.049607
#
#
# Mechanical properties :
#
#
# Convention : Reuss Voigt Hill
#
# Bulk Modulus (GPa) = 26.23073 46.48573 36.35823
# Shear Modulus (GPa) = 22.45965 32.64514 27.55240
#
# Velocity S-wave (km/s) = 3.08168 3.71531 3.41323
# Velocity P-wave (km/s) = 4.87377 6.16933 5.55942
#
# Compressibility (1/GPa) = 0.03812322
#
# Stress axis : x y z
#
# Youngs Moduli (GPa) = 29.66584 103.95012 81.92797
#
# Poissons Ratio (x) = 0.32288 0.23426
# Poissons Ratio (y) = 0.09214 0.22450
# Poissons Ratio (z) = 0.08483 0.28485
#
# Static dielectric constant tensor:
#      x y z
#    x 1.989500 -0.087170 -0.001140 
#    y -0.087170 2.029290 0.049770 
#    z -0.001140 0.049770 1.972290 
# 
# From -- ./inp_files/212218.got.cif
#   From: 2010.05.17/outbox.cif.g08.bks.cpg/sg2_107_cif.got.tgz:212218.got - 2010.06.03 11:33:40.
