data_PCOD9076326
_publ_section_title
;
Structure prediction by ZEFSAII (Michael W. Deem and Ramdas Pophale) SiO2 
 PCOD9076326
Probable space group: P -1
;
_chemical_formula_sum "Si O2"
_cell_formula_units_Z 16
_cell_length_a 9.370246
_cell_length_b 10.954880
_cell_length_c 9.323539
_cell_angle_alpha 57.478531
_cell_angle_beta 67.655018
_cell_angle_gamma 78.682231
_cell_volume 746.348065
_symmetry_space_group_name_H-M "P -1"
_symmetry_group_IT_number 2
_symmetry_cell_setting 'triclinic'
loop_
_space_group_symop_operation_xyz
x,y,z
-x,-y,-z
loop_
_atom_site_type_symbol
_atom_site_label
_atom_site_fract_x
_atom_site_fract_y
_atom_site_fract_z
Si Si1 0.453832 0.652822 0.246768
Si Si2 0.344856 0.088853 0.976613
Si Si3 0.457354 0.215656 0.334555
Si Si4 0.229568 0.465013 0.326785
Si Si5 0.314810 0.977277 0.741412
Si Si6 0.978506 0.891772 0.942007
Si Si7 0.353190 0.630788 0.603389
Si Si8 0.906245 0.566722 0.281476
O O1 0.599319 0.752789 0.097386
O O2 0.319139 0.620004 0.206521
O O3 0.379638 0.704946 0.391758
O O4 0.519028 0.493530 0.349487
O O5 0.314476 0.069132 0.830532
O O6 0.172565 0.055757 0.122314
O O7 0.500000 0.000000 0.000000
O O8 0.340788 0.349417 0.280782
O O9 0.549032 0.140266 0.219108
O O10 0.598435 0.263047 0.356028
O O11 0.361341 0.089988 0.529497
O O12 0.184498 0.421835 0.536978
O O13 0.068331 0.490313 0.296264
O O14 0.151457 0.904495 0.808193
O O15 0.938245 0.727128 0.107773
O O16 0.000000 0.000000 0.000000
O O17 0.194939 0.540512 0.711781
#
# Coordination Sequence:
#
# PCOD9076326 Si02
#       8
#     2   2   2   2   2   2   2   2
#     4   9  16  29  52  81 105 134 183 223 268 310
#     4  11  21  35  56  83 112 141 180 230 271 324
#     4  10  19  39  59  78 110 146 190 221 268 337
#     4   9  19  30  56  86 109 141 179 234 277 313
#     4  10  22  38  58  79 109 153 182 219 279 332
#     4  10  21  35  54  78 114 143 181 227 275 326
#     4   9  16  31  57  76 104 139 182 228 260 315
#     4  10  18  33  54  87 111 138 184 234 279 311
#
# _framework density 21.437718
#
# number of rings (size 3 to 8) (size 9 to 14) (size 15 to 20)
#    0.000    2.250    2.500    2.250    3.500    0.000 
#    2.250    2.500    0.000    3.000    0.000    0.000 
#    0.000    0.000    0.000    0.000    0.000    0.000 
#
# Total GULP energy -89093.060442 kJ/mol
# GULP energy per Si atom -5568.316278 kJ/mol
# Density = 2.138892 g / cm^3
# Si number density = 21.437718 Si / 1000 Ang^3
#
#
#
# Elastic Constant Matrix: (Units=GPa)
#
#
# Indices 1 2 3 4 5 6 
#
# 1 151.0092 25.4402 39.2225 -11.4312 -45.8415 -10.8591
# 2 25.4402 73.3436 11.3536 -1.0694 -15.5353 -13.5267
# 3 39.2225 11.3536 51.0150 -16.2327 -27.1695 8.3117
# 4 -11.4312 -1.0694 -16.2327 18.1677 4.3386 -9.2224
# 5 -45.8415 -15.5353 -27.1695 4.3386 32.3884 -7.0998
# 6 -10.8591 -13.5267 8.3117 -9.2224 -7.0998 32.9389
#
#
#
# Elastic Compliance Matrix: (Units=1/GPa)
#
#
# Indices 1 2 3 4 5 6 
#
# 1 0.016560 0.003357 0.005904 0.016949 0.031428 0.016868
# 2 0.003357 0.018707 0.004168 0.009783 0.019110 0.014595
# 3 0.005904 0.004168 0.055948 0.048549 0.054024 0.014778
# 4 0.016949 0.009783 0.048549 0.116710 0.063351 0.043686
# 5 0.031428 0.019110 0.054024 0.063351 0.132508 0.050875
# 6 0.016868 0.014595 0.014778 0.043686 0.050875 0.061382
#
#
# Mechanical properties :
#
#
# Convention : Reuss Voigt Hill
#
# Bulk Modulus (GPa) = 8.46939 47.48892 27.97915
# Shear Modulus (GPa) = 12.06815 29.98908 21.02862
#
# Velocity S-wave (km/s) = 2.37521 3.74424 3.13536
# Velocity P-wave (km/s) = 3.38843 6.39473 5.11732
#
# Compressibility (1/GPa) = 0.11807232
#
# Stress axis : x y z
#
# Youngs Moduli (GPa) = 60.38804 53.45597 17.87380
#
# Poissons Ratio (x) = -0.17946 -0.10553
# Poissons Ratio (y) = -0.20273 -0.07450
# Poissons Ratio (z) = -0.35653 -0.22280
#
# Static dielectric constant tensor:
#      x y z
#    x 1.817150 -0.024410 0.003820 
#    y -0.024410 1.812910 0.002300 
#    z 0.003820 0.002300 1.827740 
# 
# From -- ./inp_files/254924.got.cif
#   From: 2010.05.17/outbox.cif.g08.bks.cpg/sg2_128_cif.got.tgz:254924.got - 2010.06.03 11:33:40.
