data_PCOD9076450
_publ_section_title
;
Structure prediction by ZEFSAII (Michael W. Deem and Ramdas Pophale) SiO2 
 PCOD9076450
Probable space group: P -1
;
_chemical_formula_sum "Si O2"
_cell_formula_units_Z 16
_cell_length_a 12.291890
_cell_length_b 7.695274
_cell_length_c 11.458651
_cell_angle_alpha 104.720209
_cell_angle_beta 60.087102
_cell_angle_gamma 140.183767
_cell_volume 585.115945
_symmetry_space_group_name_H-M "P -1"
_symmetry_group_IT_number 2
_symmetry_cell_setting 'triclinic'
loop_
_space_group_symop_operation_xyz
x,y,z
-x,-y,-z
loop_
_atom_site_type_symbol
_atom_site_label
_atom_site_fract_x
_atom_site_fract_y
_atom_site_fract_z
Si Si1 0.095215 0.705801 0.114502
Si Si2 0.084798 0.228022 0.224841
Si Si3 0.255027 0.715780 0.357320
Si Si4 0.475299 0.769408 0.425140
Si Si5 0.586005 0.203286 0.096898
Si Si6 0.726556 0.877918 0.503349
Si Si7 0.848614 0.126043 0.137820
Si Si8 0.660765 0.758972 0.780525
O O1 0.894667 0.387216 0.194377
O O2 0.192485 0.916471 0.205093
O O3 0.201089 0.642663 0.994834
O O4 0.129364 0.871077 0.012342
O O5 0.147845 0.499258 0.272543
O O6 0.987400 0.142419 0.136941
O O7 0.272687 0.320182 0.179381
O O8 0.899433 0.965399 0.358618
O O9 0.182277 0.824586 0.464656
O O10 0.280684 0.595630 0.424443
O O11 0.465467 0.008387 0.240785
O O12 0.539364 0.721162 0.495506
O O13 0.631313 0.870571 0.262126
O O14 0.500000 0.000000 0.500000
O O15 0.547923 0.370490 0.122215
O O16 0.500000 0.000000 0.000000
O O17 0.685075 0.745748 0.628295
#
# Coordination Sequence:
#
# PCOD9076450 Si02
#       8
#     2   2   2   2   2   2   2   2
#     4  10  20  37  60  81 110 148 191 233 265 332
#     4  11  21  34  55  85 116 146 182 229 283 335
#     4  10  18  33  56  82 108 142 190 226 273 326
#     4   9  18  33  58  86 107 139 184 241 271 315
#     4   9  17  33  55  76 104 142 183 226 265 316
#     4   9  19  35  56  78 110 148 191 229 274 326
#     4  10  20  36  60  84 110 143 191 230 276 324
#     4  10  21  35  55  82 116 148 182 228 287 329
#
# _framework density 27.345006000000001
#
# number of rings (size 3 to 8) (size 9 to 14) (size 15 to 20)
#    0.000    2.250    1.250    3.000    0.000    2.500 
#    0.000    6.250   11.000    0.000    0.000    0.000 
#    0.000    0.000    0.000    0.000    0.000    0.000 
#
# Total GULP energy -89300.741478 kJ/mol
# GULP energy per Si atom -5581.296342 kJ/mol
# Density = 2.728277 g / cm^3
# Si number density = 27.345006 Si / 1000 Ang^3
#
#
#
# Elastic Constant Matrix: (Units=GPa)
#
#
# Indices 1 2 3 4 5 6 
#
# 1 200.6971 -1.3035 48.9591 -0.4197 17.2645 -11.6534
# 2 -1.3035 36.1609 6.4362 3.3037 6.4879 -5.2207
# 3 48.9591 6.4362 85.9329 -5.0300 23.1330 0.7853
# 4 -0.4197 3.3037 -5.0300 36.1316 7.9058 8.0543
# 5 17.2645 6.4879 23.1330 7.9058 43.9045 8.8022
# 6 -11.6534 -5.2207 0.7853 8.0543 8.8022 44.4749
#
#
#
# Elastic Compliance Matrix: (Units=1/GPa)
#
#
# Indices 1 2 3 4 5 6 
#
# 1 0.006015 0.001385 -0.003289 -0.000747 -0.001135 0.002157
# 2 0.001385 0.029930 -0.002100 -0.003257 -0.004350 0.005364
# 3 -0.003289 -0.002100 0.015904 0.004135 -0.007385 -0.000676
# 4 -0.000747 -0.003257 0.004135 0.030979 -0.005963 -0.005081
# 5 -0.001135 -0.004350 -0.007385 -0.005963 0.029938 -0.005523
# 6 0.002157 0.005364 -0.000676 -0.005081 -0.005523 0.025705
#
#
# Mechanical properties :
#
#
# Convention : Reuss Voigt Hill
#
# Bulk Modulus (GPa) = 22.80800 47.88602 35.34701
# Shear Modulus (GPa) = 31.03820 42.81549 36.92684
#
# Velocity S-wave (km/s) = 3.37272 3.96125 3.67877
# Velocity P-wave (km/s) = 4.85035 6.20257 5.56766
#
# Compressibility (1/GPa) = 0.04384426
#
# Stress axis : x y z
#
# Youngs Moduli (GPa) = 166.24503 33.41082 62.87624
#
# Poissons Ratio (x) = -0.04629 0.20678
# Poissons Ratio (y) = -0.23033 0.13202
# Poissons Ratio (z) = 0.54673 0.07015
#
# Static dielectric constant tensor:
#      x y z
#    x 2.239460 -0.034360 -0.003870 
#    y -0.034360 2.366160 -0.112060 
#    z -0.003870 -0.112060 2.155720 
# 
# From -- ./inp_files/243611.got.cif
#   From: 2010.05.17/outbox.cif.g08.bks.cpg/sg2_122_cif.got.tgz:243611.got - 2010.06.03 11:33:40.
