data_PCOD9076975
_publ_section_title
;
Structure prediction by ZEFSAII (Michael W. Deem and Ramdas Pophale) SiO2 
 PCOD9076975
Probable space group: P -1
;
_chemical_formula_sum "Si O2"
_cell_formula_units_Z 16
_cell_length_a 8.437996
_cell_length_b 11.857823
_cell_length_c 18.896093
_cell_angle_alpha 157.788815
_cell_angle_beta 104.888837
_cell_angle_gamma 83.715602
_cell_volume 646.641978
_symmetry_space_group_name_H-M "P -1"
_symmetry_group_IT_number 2
_symmetry_cell_setting 'triclinic'
loop_
_space_group_symop_operation_xyz
x,y,z
-x,-y,-z
loop_
_atom_site_type_symbol
_atom_site_label
_atom_site_fract_x
_atom_site_fract_y
_atom_site_fract_z
Si Si1 0.235221 0.267708 0.348918
Si Si2 0.991285 0.674774 0.768925
Si Si3 0.286881 0.039805 0.915455
Si Si4 0.448561 0.860791 0.277246
Si Si5 0.719102 0.401407 0.679263
Si Si6 0.073869 0.877860 0.233166
Si Si7 0.451919 0.228846 0.234745
Si Si8 0.281755 0.102635 0.790732
O O1 0.141809 0.412846 0.363926
O O2 0.317956 0.077691 0.194998
O O3 0.388257 0.499949 0.549795
O O4 0.096783 0.037169 0.251187
O O5 0.902101 0.431565 0.680411
O O6 0.172371 0.776044 0.805484
O O7 0.000000 0.000000 0.000000
O O8 0.251766 0.955112 0.779962
O O9 0.482253 0.038662 0.944247
O O10 0.256958 0.371085 0.118599
O O11 0.277112 0.960718 0.327259
O O12 0.576997 0.973169 0.287393
O O13 0.588574 0.040780 0.457876
O O14 0.373936 0.481590 0.038923
O O15 0.626760 0.589735 0.725330
O O16 0.914355 0.957959 0.297875
O O17 0.000000 0.500000 0.000000
#
# Coordination Sequence:
#
# PCOD9076975 Si02
#       8
#     2   2   2   2   2   2   2   2
#     4  10  18  34  53  80 108 145 186 232 287 329
#     4   9  20  34  50  77 115 148 176 226 288 338
#     4  11  21  35  55  83 114 148 195 231 285 353
#     4  10  21  40  59  83 118 145 193 245 287 333
#     4  10  21  38  55  77 118 156 179 237 296 337
#     4  10  19  35  58  83 114 145 186 241 286 334
#     4  10  21  32  56  83 109 146 191 234 286 341
#     4  10  22  36  61  88 108 151 194 240 287 340
#
# _framework density 24.743214999999999
#
# number of rings (size 3 to 8) (size 9 to 14) (size 15 to 20)
#    0.000    2.000    2.500    1.125    3.500    2.000 
#    0.000    0.000    0.000    0.000    0.000    8.750 
#    0.000    0.000    0.000    0.000    0.000    0.000 
#
# Total GULP energy -89127.178618 kJ/mol
# GULP energy per Si atom -5570.448664 kJ/mol
# Density = 2.468690 g / cm^3
# Si number density = 24.743215 Si / 1000 Ang^3
#
#
#
# Elastic Constant Matrix: (Units=GPa)
#
#
# Indices 1 2 3 4 5 6 
#
# 1 127.1742 19.6995 27.4581 4.7529 2.1439 35.0591
# 2 19.6995 44.0422 8.3511 -11.8383 -1.5443 23.5582
# 3 27.4581 8.3511 82.9379 -17.4029 3.8976 17.6287
# 4 4.7529 -11.8383 -17.4029 32.9432 4.9049 4.1061
# 5 2.1439 -1.5443 3.8976 4.9049 42.0584 0.3237
# 6 35.0591 23.5582 17.6287 4.1061 0.3237 40.4362
#
#
#
# Elastic Compliance Matrix: (Units=1/GPa)
#
#
# Indices 1 2 3 4 5 6 
#
# 1 0.010640 -0.000885 -0.002280 -0.002114 -0.000059 -0.007501
# 2 -0.000885 0.044770 0.007570 0.024328 -0.001611 -0.031074
# 3 -0.002280 0.007570 0.017615 0.014210 -0.002807 -0.011534
# 4 -0.002114 0.024328 0.014210 0.050758 -0.006053 -0.023642
# 5 -0.000059 -0.001611 -0.002807 -0.006053 0.024666 0.002631
# 6 -0.007501 -0.031074 -0.011534 -0.023642 0.002631 0.056745
#
#
# Mechanical properties :
#
#
# Convention : Reuss Voigt Hill
#
# Bulk Modulus (GPa) = 12.21962 40.57461 26.39711
# Shear Modulus (GPa) = 22.35510 36.33060 29.34285
#
# Velocity S-wave (km/s) = 3.00906 3.83600 3.44742
# Velocity P-wave (km/s) = 4.12576 6.00448 5.15149
#
# Compressibility (1/GPa) = 0.08183561
#
# Stress axis : x y z
#
# Youngs Moduli (GPa) = 93.98155 22.33631 56.76985
#
# Poissons Ratio (x) = 0.01977 0.12944
# Poissons Ratio (y) = 0.08320 -0.42977
# Poissons Ratio (z) = 0.21429 -0.16910
#
# Static dielectric constant tensor:
#      x y z
#    x 2.066680 -0.043150 -0.008290 
#    y -0.043150 2.043840 0.060750 
#    z -0.008290 0.060750 2.040090 
# 
# From -- ./inp_files/177553.got.cif
#   From: 2010.05.17/outbox.cif.g08.bks.cpg/sg2_89_cif.got.tgz:177553.got - 2010.06.03 11:33:40.
