data_PCOD9076170
_publ_section_title
;
Structure prediction by ZEFSAII (Michael W. Deem and Ramdas Pophale) SiO2 
 PCOD9076170
Probable space group: P -1
;
_chemical_formula_sum "Si O2"
_cell_formula_units_Z 16
_cell_length_a 10.886638
_cell_length_b 10.533806
_cell_length_c 14.073505
_cell_angle_alpha 121.802848
_cell_angle_beta 58.472198
_cell_angle_gamma 153.586134
_cell_volume 604.603433
_symmetry_space_group_name_H-M "P -1"
_symmetry_group_IT_number 2
_symmetry_cell_setting 'triclinic'
loop_
_space_group_symop_operation_xyz
x,y,z
-x,-y,-z
loop_
_atom_site_type_symbol
_atom_site_label
_atom_site_fract_x
_atom_site_fract_y
_atom_site_fract_z
Si Si1 0.540448 0.442915 0.557208
Si Si2 0.628098 0.310573 0.903683
Si Si3 0.125650 0.853698 0.425424
Si Si4 0.562532 0.471555 0.768493
Si Si5 0.369968 0.047211 0.205963
Si Si6 0.891779 0.571389 0.092000
Si Si7 0.938134 0.109351 0.146725
Si Si8 0.273969 0.718846 0.417226
O O1 0.500000 0.500000 0.500000
O O2 0.568003 0.546739 0.689589
O O3 0.805752 0.577594 0.473838
O O4 0.275496 0.099210 0.533907
O O5 0.611764 0.118148 0.854930
O O6 0.890291 0.591023 0.841450
O O7 0.720261 0.469644 0.029157
O O8 0.333140 0.105060 0.899484
O O9 0.215062 0.976661 0.332142
O O10 0.250585 0.800603 0.366993
O O11 0.766609 0.709011 0.864287
O O12 0.690318 0.421514 0.671332
O O13 0.255017 0.148488 0.798618
O O14 0.168931 0.901742 0.140673
O O15 0.681512 0.375191 0.188206
O O16 0.000000 0.500000 0.000000
O O17 0.000000 0.500000 0.500000
O O18 0.500000 0.000000 0.500000
#
# Coordination Sequence:
#
# PCOD9076170 Si02
#       8
#     2   2   2   2   2   2   2   2
#     4  12  26  44  61  78 112 160 208 255 294 342
#     4  10  18  33  50  79 118 155 183 211 286 346
#     4  12  23  40  59  86 117 155 205 244 295 344
#     4  11  21  37  54  81 112 144 194 229 300 337
#     4  11  21  32  52  80 115 156 197 234 270 341
#     4  10  19  32  51  76 117 162 192 218 267 355
#     4  10  20  30  52  76 108 142 180 234 262 340
#     4  12  21  34  54  80 113 147 182 233 285 354
#
# _framework density 26.463629000000001
#
# number of rings (size 3 to 8) (size 9 to 14) (size 15 to 20)
#    0.000    1.000    2.500    7.875    0.000    2.000 
#    0.000    0.000    0.000    0.000    0.000    0.000 
#    0.000   70.000    0.000    0.000    0.000    0.000 
#
# Total GULP energy -89133.827431 kJ/mol
# GULP energy per Si atom -5570.864214 kJ/mol
# Density = 2.640340 g / cm^3
# Si number density = 26.463629 Si / 1000 Ang^3
#
#
#
# Elastic Constant Matrix: (Units=GPa)
#
#
# Indices 1 2 3 4 5 6 
#
# 1 108.6762 25.3549 26.2244 11.5990 24.3499 -0.7109
# 2 25.3549 149.1989 29.4370 -8.3351 2.5000 16.8991
# 3 26.2244 29.4370 59.0143 16.3517 22.4316 9.7157
# 4 11.5990 -8.3351 16.3517 34.2772 2.8544 15.8631
# 5 24.3499 2.5000 22.4316 2.8544 47.1676 6.4256
# 6 -0.7109 16.8991 9.7157 15.8631 6.4256 20.3948
#
#
#
# Elastic Compliance Matrix: (Units=1/GPa)
#
#
# Indices 1 2 3 4 5 6 
#
# 1 0.013786 -0.005106 0.000606 -0.013732 -0.008736 0.017855
# 2 -0.005106 0.013155 -0.008916 0.020101 0.008382 -0.025107
# 3 0.000606 -0.008916 0.030683 -0.022844 -0.015138 0.015329
# 4 -0.013732 0.020101 -0.022844 0.084226 0.022534 -0.078863
# 5 -0.008736 0.008382 -0.015138 0.022534 0.034997 -0.028592
# 6 0.017855 -0.025107 0.015329 -0.078863 -0.028592 0.133503
#
#
# Mechanical properties :
#
#
# Convention : Reuss Voigt Hill
#
# Bulk Modulus (GPa) = 32.47305 53.21353 42.84329
# Shear Modulus (GPa) = 14.39077 36.09281 25.24179
#
# Velocity S-wave (km/s) = 2.33447 3.69706 3.09176
# Velocity P-wave (km/s) = 4.42310 6.19485 5.38238
#
# Compressibility (1/GPa) = 0.03079477
#
# Stress axis : x y z
#
# Youngs Moduli (GPa) = 72.53574 76.01472 32.59170
#
# Poissons Ratio (x) = 0.38810 -0.01976
# Poissons Ratio (y) = 0.37034 0.29057
# Poissons Ratio (z) = -0.04398 0.67771
#
# Static dielectric constant tensor:
#      x y z
#    x 2.121110 -0.046770 0.040850 
#    y -0.046770 1.947850 0.075480 
#    z 0.040850 0.075480 2.184360 
# 
# From -- ./inp_files/437364.got.cif
#   From: 2010.05.17/outbox.cif.g08.bks.cpg/sg2_219_cif.got.tgz:437364.got - 2010.06.03 11:33:40.
