data_PCOD9076834
_publ_section_title
;
Structure prediction by ZEFSAII (Michael W. Deem and Ramdas Pophale) SiO2 
 PCOD9076834
Probable space group: P -1
;
_chemical_formula_sum "Si O2"
_cell_formula_units_Z 14
_cell_length_a 18.626102
_cell_length_b 12.168697
_cell_length_c 13.032923
_cell_angle_alpha 59.451623
_cell_angle_beta 40.312752
_cell_angle_gamma 28.000824
_cell_volume 753.305682
_symmetry_space_group_name_H-M "P -1"
_symmetry_group_IT_number 2
_symmetry_cell_setting 'triclinic'
loop_
_space_group_symop_operation_xyz
x,y,z
-x,-y,-z
loop_
_atom_site_type_symbol
_atom_site_label
_atom_site_fract_x
_atom_site_fract_y
_atom_site_fract_z
Si Si1 0.545357 0.304277 0.543980
Si Si2 0.357579 0.196720 0.162729
Si Si3 0.767013 0.627857 0.481009
Si Si4 0.173737 0.215435 0.058419
Si Si5 0.939599 0.734482 0.463805
Si Si6 0.911939 0.401415 0.061627
Si Si7 0.339488 0.976677 0.643958
O O1 0.500000 0.500000 0.500000
O O2 0.307945 0.471398 0.762068
O O3 0.782849 0.021011 0.484556
O O4 0.593806 0.196420 0.429737
O O5 0.260428 0.171479 0.341334
O O6 0.105941 0.533533 0.277957
O O7 0.500000 0.000000 0.000000
O O8 0.555037 0.082617 0.057793
O O9 0.673991 0.869843 0.468536
O O10 0.985953 0.400575 0.268593
O O11 0.879325 0.462134 0.543119
O O12 0.545037 0.777906 0.602207
O O13 0.073118 0.230736 0.070298
O O14 0.180730 0.357218 0.949608
O O15 0.088205 0.208349 0.864906
#
# Coordination Sequence:
#
# PCOD9076834 Si02
#       7
#     2   2   2   2   2   2   2
#     4  12  26  42  57  82 124 169 208 237 277 355
#     4  11  20  32  56  90 124 145 179 248 315 361
#     4  10  19  36  64  95 121 144 188 257 311 357
#     4  10  18  33  60  93 118 144 184 248 310 357
#     4  11  23  35  56  87 123 157 193 242 305 345
#     4  10  21  36  60  85 119 154 195 242 294 350
#     4  10  21  38  63  91 117 154 197 241 307 358
#
# _framework density 18.584752000000002
#
# number of rings (size 3 to 8) (size 9 to 14) (size 15 to 20)
#    0.000    1.429    4.286    2.571    4.000    0.571 
#    0.000    0.714    0.000    1.714    0.000    0.000 
#    0.000    0.000    0.000    0.000    0.000    0.000 
#
# Total GULP energy -78114.353775 kJ/mol
# GULP energy per Si atom -5579.596698 kJ/mol
# Density = 1.854245 g / cm^3
# Si number density = 18.584752 Si / 1000 Ang^3
#
#
#
# Elastic Constant Matrix: (Units=GPa)
#
#
# Indices 1 2 3 4 5 6 
#
# 1 95.6961 55.5573 38.5853 3.0331 9.5131 -11.6715
# 2 55.5573 113.5020 40.5446 8.4599 -3.0324 0.1404
# 3 38.5853 40.5446 118.0731 23.3704 5.2376 3.5259
# 4 3.0331 8.4599 23.3704 20.6330 -2.9505 -2.0333
# 5 9.5131 -3.0324 5.2376 -2.9505 27.9951 2.9853
# 6 -11.6715 0.1404 3.5259 -2.0333 2.9853 36.7415
#
#
#
# Elastic Compliance Matrix: (Units=1/GPa)
#
#
# Indices 1 2 3 4 5 6 
#
# 1 0.018017 -0.007914 -0.004078 0.004980 -0.006432 0.006943
# 2 -0.007914 0.013605 -0.001810 -0.001991 0.004598 -0.002876
# 3 -0.004078 -0.001810 0.013535 -0.014668 -0.002548 -0.003192
# 4 0.004980 -0.001991 -0.014668 0.066800 0.007226 0.006107
# 5 -0.006432 0.004598 -0.002548 0.007226 0.040141 -0.004678
# 6 0.006943 -0.002876 -0.003192 0.006107 -0.004678 0.030458
#
#
# Mechanical properties :
#
#
# Convention : Reuss Voigt Hill
#
# Bulk Modulus (GPa) = 56.96580 66.29395 61.62988
# Shear Modulus (GPa) = 23.14702 29.91288 26.52995
#
# Velocity S-wave (km/s) = 3.53297 4.01626 3.78234
# Velocity P-wave (km/s) = 6.88193 7.56675 7.23245
#
# Compressibility (1/GPa) = 0.01755439
#
# Stress axis : x y z
#
# Youngs Moduli (GPa) = 55.50372 73.50047 73.88246
#
# Poissons Ratio (x) = 0.58167 0.30128
# Poissons Ratio (y) = 0.43925 0.13370
# Poissons Ratio (z) = 0.22634 0.13301
#
# Static dielectric constant tensor:
#      x y z
#    x 1.690180 -0.068660 0.039150 
#    y -0.068660 1.668040 0.009250 
#    z 0.039150 0.009250 1.651090 
# 
# From -- ./inp_files/422721.got.cif
#   From: 2010.05.17/outbox.cif.g08.bks.cpg/sg2_212_cif.got.tgz:422721.got - 2010.06.03 11:33:40.
