data_PCOD9076156
_publ_section_title
;
Structure prediction by ZEFSAII (Michael W. Deem and Ramdas Pophale) SiO2 
 PCOD9076156
Probable space group: P -1
;
_chemical_formula_sum "Si O2"
_cell_formula_units_Z 16
_cell_length_a 12.841828
_cell_length_b 14.750518
_cell_length_c 5.292296
_cell_angle_alpha 109.848534
_cell_angle_beta 108.221108
_cell_angle_gamma 65.398386
_cell_volume 839.954884
_symmetry_space_group_name_H-M "P -1"
_symmetry_group_IT_number 2
_symmetry_cell_setting 'triclinic'
loop_
_space_group_symop_operation_xyz
x,y,z
-x,-y,-z
loop_
_atom_site_type_symbol
_atom_site_label
_atom_site_fract_x
_atom_site_fract_y
_atom_site_fract_z
Si Si1 0.933920 0.951960 0.710983
Si Si2 0.613038 0.822417 0.907024
Si Si3 0.253507 0.054180 0.144755
Si Si4 0.361887 0.520902 0.887459
Si Si5 0.825876 0.108353 0.392270
Si Si6 0.460670 0.872943 0.333962
Si Si7 0.623237 0.599239 0.725393
Si Si8 0.365335 0.713299 0.841678
O O1 0.858982 0.889463 0.714402
O O2 0.042095 0.892511 0.556388
O O3 0.838208 0.053961 0.618241
O O4 0.000000 0.000000 0.000000
O O5 0.705675 0.873470 0.938076
O O6 0.515368 0.852991 0.635993
O O7 0.660560 0.699268 0.845805
O O8 0.554794 0.861541 0.170123
O O9 0.364097 0.984553 0.325173
O O10 0.211468 0.973190 0.880525
O O11 0.349438 0.456355 0.574349
O O12 0.312576 0.640499 0.889729
O O13 0.500000 0.500000 0.000000
O O14 0.325743 0.478790 0.077516
O O15 0.728963 0.215788 0.357005
O O16 0.406788 0.785436 0.131198
O O17 0.482266 0.645523 0.714694
#
# Coordination Sequence:
#
# PCOD9076156 Si02
#       8
#     2   2   2   2   2   2   2   2
#     4   9  19  36  51  73 104 128 167 225 258 300
#     4  11  21  34  48  75 106 146 173 206 242 304
#     4  10  21  31  52  72 101 144 169 206 257 301
#     4  10  18  33  48  73 102 138 168 211 251 298
#     4   9  19  36  52  76 104 127 174 216 259 307
#     4  10  22  32  47  77 110 135 178 208 240 303
#     4  10  20  32  47  73 111 133 172 208 242 297
#     4   9  18  32  53  76  99 144 166 207 262 306
#
# _framework density 19.048643999999999
#
# number of rings (size 3 to 8) (size 9 to 14) (size 15 to 20)
#    0.000    2.250    0.000    4.500    7.000    1.000 
#    9.000    0.000    0.000    0.000    0.000    1.750 
#    0.000    0.000    0.000    0.000    0.000    0.000 
#
# Total GULP energy -89223.901640 kJ/mol
# GULP energy per Si atom -5576.493853 kJ/mol
# Density = 1.900529 g / cm^3
# Si number density = 19.048644 Si / 1000 Ang^3
#
#
#
# Elastic Constant Matrix: (Units=GPa)
#
#
# Indices 1 2 3 4 5 6 
#
# 1 82.1197 43.4735 -0.7549 1.1079 -8.8889 24.5068
# 2 43.4735 87.6541 23.1608 -16.4129 3.7659 21.4322
# 3 -0.7549 23.1608 78.9652 -9.7298 -4.9611 3.6337
# 4 1.1079 -16.4129 -9.7298 30.1602 1.9116 0.2669
# 5 -8.8889 3.7659 -4.9611 1.9116 17.5600 -4.8640
# 6 24.5068 21.4322 3.6337 0.2669 -4.8640 21.5949
#
#
#
# Elastic Compliance Matrix: (Units=1/GPa)
#
#
# Indices 1 2 3 4 5 6 
#
# 1 0.023620 -0.011243 0.004149 -0.006321 0.012502 -0.013451
# 2 -0.011243 0.026236 -0.006527 0.013956 -0.019308 -0.016702
# 3 0.004149 -0.006527 0.015156 0.000670 0.007989 0.001011
# 4 -0.006321 0.013956 0.000670 0.042144 -0.013456 -0.010342
# 5 0.012502 -0.019308 0.007989 -0.013456 0.076994 0.021138
# 6 -0.013451 -0.016702 0.001011 -0.010342 0.021138 0.082867
#
#
# Mechanical properties :
#
#
# Convention : Reuss Voigt Hill
#
# Bulk Modulus (GPa) = 26.47653 42.27755 34.37704
# Shear Modulus (GPa) = 16.29464 26.05364 21.17414
#
# Velocity S-wave (km/s) = 2.92793 3.70231 3.33766
# Velocity P-wave (km/s) = 5.03587 6.36544 5.73929
#
# Compressibility (1/GPa) = 0.03776931
#
# Stress axis : x y z
#
# Youngs Moduli (GPa) = 42.33696 38.11570 65.98091
#
# Poissons Ratio (x) = 0.42853 -0.27375
# Poissons Ratio (y) = 0.47599 0.43068
# Poissons Ratio (z) = -0.17566 0.24880
#
# Static dielectric constant tensor:
#      x y z
#    x 1.732160 0.018260 -0.034740 
#    y 0.018260 1.696490 0.003920 
#    z -0.034740 0.003920 1.715390 
# 
# From -- ./inp_files/74855.got.cif
#   From: 2010.05.17/outbox.cif.g08.bks.cpg/sg2_38_cif.got.tgz:74855.got - 2010.06.03 11:33:40.
