data_PCOD9076148
_publ_section_title
;
Structure prediction by ZEFSAII (Michael W. Deem and Ramdas Pophale) SiO2 
 PCOD9076148
Probable space group: P -1
;
_chemical_formula_sum "Si O2"
_cell_formula_units_Z 16
_cell_length_a 11.920863
_cell_length_b 14.663875
_cell_length_c 23.715302
_cell_angle_alpha 29.517604
_cell_angle_beta 30.493127
_cell_angle_gamma 50.417197
_cell_volume 925.248596
_symmetry_space_group_name_H-M "P -1"
_symmetry_group_IT_number 2
_symmetry_cell_setting 'triclinic'
loop_
_space_group_symop_operation_xyz
x,y,z
-x,-y,-z
loop_
_atom_site_type_symbol
_atom_site_label
_atom_site_fract_x
_atom_site_fract_y
_atom_site_fract_z
Si Si1 0.365775 0.250280 0.193747
Si Si2 0.721478 0.947659 0.452164
Si Si3 0.553540 0.331319 0.471944
Si Si4 0.421353 0.706411 0.803846
Si Si5 0.997503 0.263710 0.262250
Si Si6 0.810767 0.814876 0.102090
Si Si7 0.664548 0.013769 0.154440
Si Si8 0.137893 0.995067 0.762008
O O1 0.388561 0.205375 0.273698
O O2 0.110959 0.185840 0.305991
O O3 0.520041 0.151043 0.147900
O O4 0.500000 0.500000 0.000000
O O5 0.574319 0.734466 0.665094
O O6 0.873812 0.962986 0.321560
O O7 0.500000 0.000000 0.500000
O O8 0.885315 0.109479 0.341532
O O9 0.629371 0.572177 0.316401
O O10 0.481299 0.197370 0.632711
O O11 0.319531 0.209538 0.598165
O O12 0.786011 0.315495 0.351394
O O13 0.274140 0.845920 0.789167
O O14 0.220987 0.474703 0.028422
O O15 0.706355 0.951177 0.107696
O O16 0.068794 0.862580 0.997013
O O17 0.890732 0.886358 0.964817
#
# Coordination Sequence:
#
# PCOD9076148 Si02
#       8
#     2   2   2   2   2   2   2   2
#     4  10  19  34  53  78 107 136 166 203 257 317
#     4  10  20  32  47  76 105 134 172 215 247 306
#     4  11  18  31  49  77 101 134 168 206 256 309
#     4  10  18  33  46  75 108 132 165 208 250 310
#     4  11  20  30  54  74 106 141 161 202 270 304
#     4  10  19  33  53  71 102 138 168 209 262 288
#     4  10  20  34  49  76 105 131 170 214 243 309
#     4  10  19  33  50  72 107 131 170 216 252 296
#
# _framework density 17.292650999999999
#
# number of rings (size 3 to 8) (size 9 to 14) (size 15 to 20)
#    0.000    1.750    6.250    1.125    0.000    5.000 
#    0.000    0.000    0.000    0.750    0.000    4.375 
#    0.000    0.000    0.000    0.000    0.000    0.000 
#
# Total GULP energy -89185.060890 kJ/mol
# GULP energy per Si atom -5574.066306 kJ/mol
# Density = 1.725329 g / cm^3
# Si number density = 17.292651 Si / 1000 Ang^3
#
#
#
# Elastic Constant Matrix: (Units=GPa)
#
#
# Indices 1 2 3 4 5 6 
#
# 1 73.7889 14.6396 27.1830 7.7183 11.4737 14.9898
# 2 14.6396 58.5025 15.4432 -3.1118 11.9049 12.7946
# 3 27.1830 15.4432 97.8777 -11.1922 8.0702 11.7344
# 4 7.7183 -3.1118 -11.1922 14.7712 8.8209 6.2658
# 5 11.4737 11.9049 8.0702 8.8209 31.4695 8.5654
# 6 14.9898 12.7946 11.7344 6.2658 8.5654 21.5766
#
#
#
# Elastic Compliance Matrix: (Units=1/GPa)
#
#
# Indices 1 2 3 4 5 6 
#
# 1 0.018382 -0.002992 -0.005666 -0.013112 0.000758 -0.004408
# 2 -0.002992 0.023740 0.002077 0.020561 -0.010076 -0.015099
# 3 -0.005666 0.002077 0.015972 0.023856 -0.006714 -0.010244
# 4 -0.013112 0.020561 0.023856 0.135949 -0.035995 -0.041247
# 5 0.000758 -0.010076 -0.006714 -0.035995 0.046865 0.000949
# 6 -0.004408 -0.015099 -0.010244 -0.041247 0.000949 0.075535
#
#
# Mechanical properties :
#
#
# Convention : Reuss Voigt Hill
#
# Bulk Modulus (GPa) = 22.25538 38.30006 30.27772
# Shear Modulus (GPa) = 14.51024 25.09035 19.80029
#
# Velocity S-wave (km/s) = 2.89986 3.81323 3.38747
# Velocity P-wave (km/s) = 4.91020 6.44856 5.73123
#
# Compressibility (1/GPa) = 0.04493296
#
# Stress axis : x y z
#
# Youngs Moduli (GPa) = 54.40001 42.12315 62.60789
#
# Poissons Ratio (x) = 0.12602 0.35477
# Poissons Ratio (y) = 0.16275 -0.13006
# Poissons Ratio (z) = 0.30826 -0.08750
#
# Static dielectric constant tensor:
#      x y z
#    x 1.598400 0.014070 0.017880 
#    y 0.014070 1.572080 0.005250 
#    z 0.017880 0.005250 1.640610 
# 
# From -- ./inp_files/431310.got.cif
#   From: 2010.05.17/outbox.cif.g08.bks.cpg/sg2_216_cif.got.tgz:431310.got - 2010.06.03 11:33:40.
