data_PCOD9076079
_publ_section_title
;
Structure prediction by ZEFSAII (Michael W. Deem and Ramdas Pophale) SiO2 
 PCOD9076079
Probable space group: P -1
;
_chemical_formula_sum "Si O2"
_cell_formula_units_Z 12
_cell_length_a 12.261003
_cell_length_b 11.890348
_cell_length_c 11.860154
_cell_angle_alpha 34.327835
_cell_angle_beta 47.521886
_cell_angle_gamma 32.607108
_cell_volume 524.259050
_symmetry_space_group_name_H-M "P -1"
_symmetry_group_IT_number 2
_symmetry_cell_setting 'triclinic'
loop_
_space_group_symop_operation_xyz
x,y,z
-x,-y,-z
loop_
_atom_site_type_symbol
_atom_site_label
_atom_site_fract_x
_atom_site_fract_y
_atom_site_fract_z
Si Si1 0.766253 0.234162 0.074249
Si Si2 0.753880 0.846506 0.061026
Si Si3 0.481753 0.479485 0.779524
Si Si4 0.968879 0.689940 0.269018
Si Si5 0.023142 0.904766 0.728545
Si Si6 0.335822 0.501018 0.562375
O O1 0.946128 0.065138 0.185288
O O2 0.803145 0.002736 0.169232
O O3 0.431406 0.566638 0.873889
O O4 0.827499 0.371887 0.846971
O O5 0.892657 0.673705 0.217066
O O6 0.650860 0.731128 0.204767
O O7 0.897278 0.815225 0.892580
O O8 0.599205 0.165441 0.937879
O O9 0.602020 0.541695 0.578747
O O10 0.255748 0.671000 0.725244
O O11 0.000000 0.500000 0.500000
O O12 0.888423 0.197705 0.522392
O O13 0.500000 0.500000 0.500000
#
# Coordination Sequence:
#
# PCOD9076079 Si02
#       6
#     2   2   2   2   2   2
#     4   8  18  36  55  80 117 149 179 220 285 331
#     4  10  21  37  59  83 113 152 192 229 278 338
#     4   9  21  40  58  82 119 151 180 233 286 335
#     4  10  18  32  60  85 110 149 188 226 273 333
#     4   8  19  40  58  77 119 150 176 233 286 330
#     4  11  23  38  59  86 112 146 193 241 282 328
#
# _framework density 22.889448000000002
#
# number of rings (size 3 to 8) (size 9 to 14) (size 15 to 20)
#    1.000    1.667    0.000    1.000    0.000    8.000 
#    0.000    3.333    0.000    0.000    0.000    0.000 
#    0.000    0.000    0.000    0.000    0.000    0.000 
#
# Total GULP energy -66993.176026 kJ/mol
# GULP energy per Si atom -5582.764669 kJ/mol
# Density = 2.283735 g / cm^3
# Si number density = 22.889448 Si / 1000 Ang^3
#
#
#
# Elastic Constant Matrix: (Units=GPa)
#
#
# Indices 1 2 3 4 5 6 
#
# 1 44.3040 -3.3260 7.8320 3.4432 -6.1674 -0.0307
# 2 -3.3260 131.9913 33.7744 8.9041 -6.6706 -7.0966
# 3 7.8320 33.7744 116.6233 2.5825 -7.3640 -2.1655
# 4 3.4432 8.9041 2.5825 23.0990 -3.4072 11.8814
# 5 -6.1674 -6.6706 -7.3640 -3.4072 38.1195 1.9731
# 6 -0.0307 -7.0966 -2.1655 11.8814 1.9731 25.7776
#
#
#
# Elastic Compliance Matrix: (Units=1/GPa)
#
#
# Indices 1 2 3 4 5 6 
#
# 1 0.023818 0.001641 -0.001723 -0.004654 0.003276 0.002229
# 2 0.001641 0.008930 -0.002439 -0.005854 0.000580 0.004909
# 3 -0.001723 -0.002439 0.009459 0.000386 0.001164 -0.000146
# 4 -0.004654 -0.005854 0.000386 0.062979 0.005533 -0.031036
# 5 0.003276 0.000580 0.001164 0.005533 0.027813 -0.004418
# 6 0.002229 0.004909 -0.000146 -0.031036 -0.004418 0.054779
#
#
# Mechanical properties :
#
#
# Convention : Reuss Voigt Hill
#
# Bulk Modulus (GPa) = 26.90794 41.05327 33.98060
# Shear Modulus (GPa) = 24.36538 34.37511 29.37024
#
# Velocity S-wave (km/s) = 3.26618 3.87950 3.58597
# Velocity P-wave (km/s) = 5.09951 6.16780 5.65892
#
# Compressibility (1/GPa) = 0.03716376
#
# Stress axis : x y z
#
# Youngs Moduli (GPa) = 41.98425 111.98460 105.72080
#
# Poissons Ratio (x) = -0.18372 0.18219
# Poissons Ratio (y) = -0.06888 0.25784
# Poissons Ratio (z) = 0.07235 0.27312
#
# Static dielectric constant tensor:
#      x y z
#    x 1.996270 -0.030280 0.078490 
#    y -0.030280 1.853440 0.030740 
#    z 0.078490 0.030740 1.852970 
# 
# From -- ./inp_files/415886.got.cif
#   From: 2010.05.17/outbox.cif.g08.bks.cpg/sg2_208_cif.got.tgz:415886.got - 2010.06.03 11:33:40.
