data_PCOD9076882
_publ_section_title
;
Structure prediction by ZEFSAII (Michael W. Deem and Ramdas Pophale) SiO2 
 PCOD9076882
Probable space group: P -1
;
_chemical_formula_sum "Si O2"
_cell_formula_units_Z 16
_cell_length_a 7.302018
_cell_length_b 18.597781
_cell_length_c 15.858462
_cell_angle_alpha 155.662809
_cell_angle_beta 39.629754
_cell_angle_gamma 139.159447
_cell_volume 553.640854
_symmetry_space_group_name_H-M "P -1"
_symmetry_group_IT_number 2
_symmetry_cell_setting 'triclinic'
loop_
_space_group_symop_operation_xyz
x,y,z
-x,-y,-z
loop_
_atom_site_type_symbol
_atom_site_label
_atom_site_fract_x
_atom_site_fract_y
_atom_site_fract_z
Si Si1 0.629448 0.838053 0.139572
Si Si2 0.785728 0.899045 0.629629
Si Si3 0.234397 0.108831 0.601183
Si Si4 0.769429 0.410706 0.712334
Si Si5 0.716174 0.357624 0.496074
Si Si6 0.855722 0.410928 0.868063
Si Si7 0.810150 0.873593 0.773823
Si Si8 0.641967 0.688264 0.803040
O O1 0.484565 0.678777 0.084738
O O2 0.483766 0.994290 0.395215
O O3 0.960497 0.936473 0.104492
O O4 0.506337 0.770541 0.018255
O O5 0.499837 0.826398 0.597566
O O6 0.983468 0.755010 0.382769
O O7 0.645985 0.884059 0.755846
O O8 0.016054 0.082637 0.730539
O O9 0.426755 0.305414 0.729102
O O10 0.000000 0.000000 0.500000
O O11 0.794920 0.483784 0.685314
O O12 0.872160 0.492633 0.854705
O O13 0.984894 0.269973 0.470285
O O14 0.556100 0.473073 0.612958
O O15 0.007721 0.302241 0.302774
O O16 0.000000 0.500000 0.000000
O O17 0.622309 0.793612 0.836291
#
# Coordination Sequence:
#
# PCOD9076882 Si02
#       8
#     2   2   2   2   2   2   2   2
#     4  10  20  36  58  82 115 146 187 234 286 337
#     4  10  19  34  58  85 110 142 196 232 284 338
#     4  10  18  33  62  89 112 145 186 236 290 338
#     4   9  18  35  59  85 113 148 187 227 288 344
#     4  10  20  36  59  80 112 154 189 233 273 342
#     4  10  20  35  58  87 115 146 183 234 287 346
#     4   9  19  35  58  82 106 152 193 235 275 337
#     4  10  21  37  56  79 112 157 194 225 286 328
#
# _framework density 28.899602000000002
#
# number of rings (size 3 to 8) (size 9 to 14) (size 15 to 20)
#    0.000    2.250    1.250    1.875    0.000    3.500 
#    0.000    5.625    5.500    0.000    0.000    0.000 
#    0.000    0.000    0.000    0.000    0.000    0.000 
#
# Total GULP energy -89267.306871 kJ/mol
# GULP energy per Si atom -5579.206679 kJ/mol
# Density = 2.883383 g / cm^3
# Si number density = 28.899602 Si / 1000 Ang^3
#
#
#
# Elastic Constant Matrix: (Units=GPa)
#
#
# Indices 1 2 3 4 5 6 
#
# 1 105.0110 30.4367 23.1299 -5.6395 27.1393 -17.7070
# 2 30.4367 151.0827 41.9787 -16.0522 22.4588 -20.1069
# 3 23.1299 41.9787 104.5469 -16.8000 19.1524 -18.5446
# 4 -5.6395 -16.0522 -16.8000 46.8186 -6.8319 10.8361
# 5 27.1393 22.4588 19.1524 -6.8319 50.3626 -14.3240
# 6 -17.7070 -20.1069 -18.5446 10.8361 -14.3240 50.8416
#
#
#
# Elastic Compliance Matrix: (Units=1/GPa)
#
#
# Indices 1 2 3 4 5 6 
#
# 1 0.011637 -0.001142 -0.000947 -0.000504 -0.004907 0.001981
# 2 -0.001142 0.008009 -0.002249 0.001286 -0.001576 0.001231
# 3 -0.000947 -0.002249 0.011822 0.002602 -0.002074 0.001954
# 4 -0.000504 0.001286 0.002602 0.023615 0.000919 -0.003492
# 5 -0.004907 -0.001576 -0.002074 0.000919 0.025202 0.003816
# 6 0.001981 0.001231 0.001954 -0.003492 0.003816 0.023378
#
#
# Mechanical properties :
#
#
# Convention : Reuss Voigt Hill
#
# Bulk Modulus (GPa) = 43.87413 61.30346 52.58879
# Shear Modulus (GPa) = 41.68862 47.27759 44.48310
#
# Velocity S-wave (km/s) = 3.80219 4.04905 3.92756
# Velocity P-wave (km/s) = 5.87282 6.56645 6.22930
#
# Compressibility (1/GPa) = 0.02279248
#
# Stress axis : x y z
#
# Youngs Moduli (GPa) = 85.92957 124.86444 84.58514
#
# Poissons Ratio (x) = 0.14258 0.08009
# Poissons Ratio (y) = 0.09812 0.19026
# Poissons Ratio (z) = 0.08136 0.28086
#
# Static dielectric constant tensor:
#      x y z
#    x 2.375780 -0.162580 0.009170 
#    y -0.162580 2.416300 0.081190 
#    z 0.009170 0.081190 2.364790 
# 
# From -- ./inp_files/306668.got.cif
#   From: 2010.05.17/outbox.cif.g08.bks.cpg/sg2_154_cif.got.tgz:306668.got - 2010.06.03 11:33:40.
