data_PCOD9076739
_publ_section_title
;
Structure prediction by ZEFSAII (Michael W. Deem and Ramdas Pophale) SiO2 
 PCOD9076739
Probable space group: P -1
;
_chemical_formula_sum "Si O2"
_cell_formula_units_Z 14
_cell_length_a 6.911173
_cell_length_b 14.916230
_cell_length_c 9.496822
_cell_angle_alpha 36.307660
_cell_angle_beta 98.440662
_cell_angle_gamma 94.907952
_cell_volume 572.519880
_symmetry_space_group_name_H-M "P -1"
_symmetry_group_IT_number 2
_symmetry_cell_setting 'triclinic'
loop_
_space_group_symop_operation_xyz
x,y,z
-x,-y,-z
loop_
_atom_site_type_symbol
_atom_site_label
_atom_site_fract_x
_atom_site_fract_y
_atom_site_fract_z
Si Si1 0.489128 0.662981 0.369577
Si Si2 0.795271 0.947889 0.611293
Si Si3 0.947488 0.379103 0.533112
Si Si4 0.946019 0.916822 0.956696
Si Si5 0.669615 0.484186 0.839453
Si Si6 0.312870 0.832119 0.903703
Si Si7 0.228154 0.414408 0.975820
O O1 0.500000 0.500000 0.500000
O O2 0.271507 0.679201 0.394046
O O3 0.644542 0.631053 0.549907
O O4 0.486044 0.786789 0.089499
O O5 0.791490 0.765906 0.819794
O O6 0.796464 0.981017 0.738203
O O7 0.649838 0.050840 0.364933
O O8 0.000000 0.000000 0.500000
O O9 0.000000 0.500000 0.500000
O O10 0.093465 0.243239 0.774055
O O11 0.925520 0.473945 0.266940
O O12 0.138249 0.894859 0.906066
O O13 0.000000 0.000000 0.000000
O O14 0.772372 0.531922 0.931628
O O15 0.744397 0.327304 0.971183
O O16 0.445546 0.445731 0.902757
#
# Coordination Sequence:
#
# PCOD9076739 Si02
#       7
#     2   2   2   2   2   2   2
#     4   8  16  34  57  79 113 149 189 240 292 347
#     4  10  21  38  57  84 126 155 192 246 301 350
#     4  10  18  33  59  87 110 152 202 243 294 345
#     4  10  21  37  57  82 119 159 194 240 293 358
#     4   9  19  36  63  88 115 152 202 245 292 358
#     4   9  19  37  60  82 117 156 190 244 298 347
#     4  10  20  36  60  92 119 152 199 247 296 355
#
# _framework density 24.453296999999999
#
# number of rings (size 3 to 8) (size 9 to 14) (size 15 to 20)
#    0.000    2.571    1.429    0.000    2.000    0.571 
#    0.000   12.143    0.000    0.000    0.000    0.000 
#    0.000    0.000    0.000    0.000    0.000    0.000 
#
# Total GULP energy -78084.610969 kJ/mol
# GULP energy per Si atom -5577.472212 kJ/mol
# Density = 2.439764 g / cm^3
# Si number density = 24.453297 Si / 1000 Ang^3
#
#
#
# Elastic Constant Matrix: (Units=GPa)
#
#
# Indices 1 2 3 4 5 6 
#
# 1 73.3543 12.5674 47.2408 12.0736 -7.0617 -3.5718
# 2 12.5674 140.5735 81.2328 43.6966 -1.1245 -2.8208
# 3 47.2408 81.2328 296.2932 54.6435 7.9432 16.1915
# 4 12.0736 43.6966 54.6435 51.5225 8.3170 0.4380
# 5 -7.0617 -1.1245 7.9432 8.3170 51.7497 6.1704
# 6 -3.5718 -2.8208 16.1915 0.4380 6.1704 28.0624
#
#
#
# Elastic Compliance Matrix: (Units=1/GPa)
#
#
# Indices 1 2 3 4 5 6 
#
# 1 0.015916 0.000821 -0.002614 -0.002093 0.002559 0.003086
# 2 0.000821 0.010421 -0.001766 -0.007428 0.001572 0.001942
# 3 -0.002614 -0.001766 0.005050 -0.003174 -0.000265 -0.003316
# 4 -0.002093 -0.007428 -0.003174 0.030362 -0.005012 0.001447
# 5 0.002559 0.001572 -0.000265 -0.005012 0.021019 -0.003907
# 6 0.003086 0.001942 -0.003316 0.001447 -0.003907 0.038973
#
#
# Mechanical properties :
#
#
# Convention : Reuss Voigt Hill
#
# Bulk Modulus (GPa) = 41.20658 88.03365 64.62012
# Shear Modulus (GPa) = 36.50951 50.87892 43.69421
#
# Velocity S-wave (km/s) = 3.86817 4.56637 4.23169
# Velocity P-wave (km/s) = 6.06943 7.99257 7.09645
#
# Compressibility (1/GPa) = 0.02426797
#
# Stress axis : x y z
#
# Youngs Moduli (GPa) = 62.82808 95.95550 198.02816
#
# Poissons Ratio (x) = -0.07873 0.51764
# Poissons Ratio (y) = -0.05155 0.34980
# Poissons Ratio (z) = 0.16423 0.16950
#
# Static dielectric constant tensor:
#      x y z
#    x 2.096680 -0.004330 0.043410 
#    y -0.004330 1.881730 0.041140 
#    z 0.043410 0.041140 2.007630 
# 
# From -- ./inp_files/205378.got.cif
#   From: 2010.05.17/outbox.cif.g08.bks.cpg/sg2_103_cif.got.tgz:205378.got - 2010.06.03 11:33:40.
