data_PCOD9076964
_publ_section_title
;
Structure prediction by ZEFSAII (Michael W. Deem and Ramdas Pophale) SiO2 
 PCOD9076964
Probable space group: P -1
;
_chemical_formula_sum "Si O2"
_cell_formula_units_Z 16
_cell_length_a 5.031351
_cell_length_b 14.096938
_cell_length_c 8.873788
_cell_angle_alpha 75.832171
_cell_angle_beta 76.395310
_cell_angle_gamma 84.373397
_cell_volume 592.574266
_symmetry_space_group_name_H-M "P -1"
_symmetry_group_IT_number 2
_symmetry_cell_setting 'triclinic'
loop_
_space_group_symop_operation_xyz
x,y,z
-x,-y,-z
loop_
_atom_site_type_symbol
_atom_site_label
_atom_site_fract_x
_atom_site_fract_y
_atom_site_fract_z
Si Si1 0.917187 0.139498 0.353323
Si Si2 0.654193 0.426064 0.286481
Si Si3 0.143543 0.005832 0.141859
Si Si4 0.301778 0.182785 0.527062
Si Si5 0.919017 0.744731 0.168603
Si Si6 0.191969 0.334290 0.247571
Si Si7 0.441010 0.834258 0.055440
Si Si8 0.782940 0.419335 0.606252
O O1 0.057826 0.238498 0.233367
O O2 0.616145 0.164316 0.447392
O O3 0.926078 0.052823 0.267065
O O4 0.123539 0.114457 0.472574
O O5 0.497595 0.371152 0.194056
O O6 0.476906 0.525075 0.301294
O O7 0.975228 0.422283 0.208588
O O8 0.302819 0.901159 0.182398
O O9 0.379786 0.085920 0.080100
O O10 0.000000 0.000000 0.000000
O O11 0.208248 0.184026 0.710007
O O12 0.206189 0.291266 0.434427
O O13 0.647413 0.743508 0.105438
O O14 0.172569 0.792995 0.032924
O O15 0.062072 0.653946 0.270992
O O16 0.670851 0.380209 0.474909
O O17 0.000000 0.500000 0.500000
#
# Coordination Sequence:
#
# PCOD9076964 Si02
#       8
#     2   2   2   2   2   2   2   2
#     4  10  22  36  68  91 120 173 209 272 311 392
#     4  11  19  32  50  88 129 177 206 249 292 370
#     4  11  25  51  71  94 121 157 247 272 329 361
#     4  10  20  35  58  94 133 163 202 251 319 403
#     4  12  24  41  62  98 139 172 206 251 344 380
#     4  10  18  34  52  87 126 167 210 244 313 364
#     4  11  27  43  70  89 127 176 205 293 309 382
#     4  11  23  32  59  91 137 179 210 248 300 396
#
# _framework density 27.000834999999999
#
# number of rings (size 3 to 8) (size 9 to 14) (size 15 to 20)
#    0.750    0.500    5.000    0.750    8.750    0.000 
#    0.000    3.750    0.000    0.000    0.000    5.250 
#    0.000    0.000    0.000    0.000    0.000    0.000 
#
# Total GULP energy -89254.758668 kJ/mol
# GULP energy per Si atom -5578.422417 kJ/mol
# Density = 2.693938 g / cm^3
# Si number density = 27.000835 Si / 1000 Ang^3
#
#
#
# Elastic Constant Matrix: (Units=GPa)
#
#
# Indices 1 2 3 4 5 6 
#
# 1 233.2764 74.3408 42.3206 5.0971 -7.4982 -20.5243
# 2 74.3408 110.8714 34.3319 -0.9780 -0.5080 -28.1589
# 3 42.3206 34.3319 44.8306 6.2671 -5.4086 -2.6468
# 4 5.0971 -0.9780 6.2671 39.6124 -3.9915 5.3955
# 5 -7.4982 -0.5080 -5.4086 -3.9915 29.1255 1.4013
# 6 -20.5243 -28.1589 -2.6468 5.3955 1.4013 42.4953
#
#
#
# Elastic Compliance Matrix: (Units=1/GPa)
#
#
# Indices 1 2 3 4 5 6 
#
# 1 0.005844 -0.002689 -0.003267 -0.000341 0.000763 0.000855
# 2 -0.002689 0.016003 -0.009623 0.000828 -0.002504 0.008684
# 3 -0.003267 -0.009623 0.033573 -0.003875 0.004961 -0.005535
# 4 -0.000341 0.000828 -0.003875 0.026682 0.003025 -0.003345
# 5 0.000763 -0.002504 0.004961 0.003025 0.035945 -0.002551
# 6 0.000855 0.008684 -0.005535 -0.003345 -0.002551 0.029863
#
#
# Mechanical properties :
#
#
# Convention : Reuss Voigt Hill
#
# Bulk Modulus (GPa) = 41.21513 76.77389 58.99451
# Shear Modulus (GPa) = 26.71577 38.11232 32.41404
#
# Velocity S-wave (km/s) = 3.14895 3.76110 3.46856
# Velocity P-wave (km/s) = 5.34029 6.88163 6.15936
#
# Compressibility (1/GPa) = 0.02426294
#
# Stress axis : x y z
#
# Youngs Moduli (GPa) = 171.12845 62.48683 29.78598
#
# Poissons Ratio (x) = 0.16802 0.09731
# Poissons Ratio (y) = 0.46014 0.28662
# Poissons Ratio (z) = 0.55908 0.60128
#
# Static dielectric constant tensor:
#      x y z
#    x 2.106310 0.038500 0.010560 
#    y 0.038500 2.218080 -0.024870 
#    z 0.010560 -0.024870 2.225780 
# 
# From -- ./inp_files/367661.got.cif
#   From: 2010.05.17/outbox.cif.g08.bks.cpg/sg2_184_cif.got.tgz:367661.got - 2010.06.03 11:33:40.
