data_PCOD9076716
_publ_section_title
;
Structure prediction by ZEFSAII (Michael W. Deem and Ramdas Pophale) SiO2 
 PCOD9076716
Probable space group: P -1
;
_chemical_formula_sum "Si O2"
_cell_formula_units_Z 16
_cell_length_a 11.351437
_cell_length_b 7.528883
_cell_length_c 9.109927
_cell_angle_alpha 102.586831
_cell_angle_beta 121.542582
_cell_angle_gamma 80.461592
_cell_volume 646.336024
_symmetry_space_group_name_H-M "P -1"
_symmetry_group_IT_number 2
_symmetry_cell_setting 'triclinic'
loop_
_space_group_symop_operation_xyz
x,y,z
-x,-y,-z
loop_
_atom_site_type_symbol
_atom_site_label
_atom_site_fract_x
_atom_site_fract_y
_atom_site_fract_z
Si Si1 0.390642 0.263172 0.631220
Si Si2 0.316461 0.809243 0.241247
Si Si3 0.337400 0.396069 0.303072
Si Si4 0.709834 0.787097 0.151077
Si Si5 0.910341 0.649960 0.059887
Si Si6 0.798476 0.170498 0.159599
Si Si7 0.446110 0.654335 0.798561
Si Si8 0.940773 0.001814 0.794772
O O1 0.526972 0.137713 0.664243
O O2 0.330375 0.352262 0.460371
O O3 0.291032 0.185074 0.671091
O O4 0.452374 0.437889 0.785365
O O5 0.316126 0.610748 0.284454
O O6 0.223338 0.964774 0.293502
O O7 0.254948 0.787322 0.033011
O O8 0.214524 0.297896 0.125413
O O9 0.485146 0.326848 0.315095
O O10 0.757702 0.966409 0.135753
O O11 0.817571 0.621234 0.139123
O O12 0.556067 0.753580 0.987685
O O13 0.012590 0.803322 0.196070
O O14 0.000000 0.500000 0.000000
O O15 0.709268 0.283208 0.244010
O O16 0.966787 0.155289 0.257305
O O17 0.000000 0.000000 0.000000
#
# Coordination Sequence:
#
# PCOD9076716 Si02
#       8
#     2   2   2   2   2   2   2   2
#     4  11  22  36  57  87 118 148 183 236 292 330
#     4  10  18  33  59  83 114 142 188 232 282 321
#     4  10  22  36  58  86 116 146 189 235 285 334
#     4  10  21  34  57  87 116 143 192 236 282 329
#     4  10  19  36  63  84 105 148 195 239 268 329
#     4  10  20  33  57  86 114 146 192 239 277 325
#     4  10  19  33  57  84 111 148 191 234 273 332
#     4   9  19  33  56  88 110 141 185 239 277 321
#
# _framework density 24.754923999999999
#
# number of rings (size 3 to 8) (size 9 to 14) (size 15 to 20)
#    0.000    2.000    2.500    2.250    3.500    0.000 
#    0.000    1.250   11.000    3.000    0.000    0.000 
#    0.000    0.000    0.000    0.000    0.000    0.000 
#
# Total GULP energy -89297.626815 kJ/mol
# GULP energy per Si atom -5581.101676 kJ/mol
# Density = 2.469858 g / cm^3
# Si number density = 24.754924 Si / 1000 Ang^3
#
#
#
# Elastic Constant Matrix: (Units=GPa)
#
#
# Indices 1 2 3 4 5 6 
#
# 1 149.9574 53.6255 40.8340 -11.9773 -15.7456 -60.0863
# 2 53.6255 74.2712 20.3467 -4.1152 -13.8484 -29.1755
# 3 40.8340 20.3467 89.6675 -18.0464 -34.3313 -2.4920
# 4 -11.9773 -4.1152 -18.0464 20.8012 7.2710 -3.7371
# 5 -15.7456 -13.8484 -34.3313 7.2710 25.9747 -1.5814
# 6 -60.0863 -29.1755 -2.4920 -3.7371 -1.5814 58.7544
#
#
#
# Elastic Compliance Matrix: (Units=1/GPa)
#
#
# Indices 1 2 3 4 5 6 
#
# 1 0.015519 -0.003981 -0.004055 0.006876 0.000864 0.014183
# 2 -0.003981 0.020518 0.001628 0.000531 0.010926 0.006514
# 3 -0.004055 0.001628 0.026162 0.010009 0.030139 -0.000781
# 4 0.006876 0.000531 0.010009 0.062627 0.000863 0.011727
# 5 0.000864 0.010926 0.030139 0.000863 0.085046 0.009932
# 6 0.014183 0.006514 -0.000781 0.011727 0.009932 0.035739
#
#
# Mechanical properties :
#
#
# Convention : Reuss Voigt Hill
#
# Bulk Modulus (GPa) = 20.24969 60.38983 40.31976
# Shear Modulus (GPa) = 18.18924 34.37872 26.28398
#
# Velocity S-wave (km/s) = 2.71361 3.73065 3.26201
# Velocity P-wave (km/s) = 4.24453 6.55783 5.52364
#
# Compressibility (1/GPa) = 0.04938348
#
# Stress axis : x y z
#
# Youngs Moduli (GPa) = 64.43611 48.73756 38.22406
#
# Poissons Ratio (x) = 0.19402 0.15500
# Poissons Ratio (y) = 0.25651 -0.06224
# Poissons Ratio (z) = 0.26129 -0.07936
#
# Static dielectric constant tensor:
#      x y z
#    x 2.116820 -0.043290 -0.024770 
#    y -0.043290 2.098580 0.008120 
#    z -0.024770 0.008120 1.952330 
# 
# From -- ./inp_files/185854.got.cif
#   From: 2010.05.17/outbox.cif.g08.bks.cpg/sg2_93_cif.got.tgz:185854.got - 2010.06.03 11:33:40.
