data_PCOD9076845
_publ_section_title
;
Structure prediction by ZEFSAII (Michael W. Deem and Ramdas Pophale) SiO2 
 PCOD9076845
Probable space group: P -1
;
_chemical_formula_sum "Si O2"
_cell_formula_units_Z 14
_cell_length_a 7.015926
_cell_length_b 16.015848
_cell_length_c 10.552112
_cell_angle_alpha 33.574260
_cell_angle_beta 111.109240
_cell_angle_gamma 116.909786
_cell_volume 584.366688
_symmetry_space_group_name_H-M "P -1"
_symmetry_group_IT_number 2
_symmetry_cell_setting 'triclinic'
loop_
_space_group_symop_operation_xyz
x,y,z
-x,-y,-z
loop_
_atom_site_type_symbol
_atom_site_label
_atom_site_fract_x
_atom_site_fract_y
_atom_site_fract_z
Si Si1 0.183675 0.455369 0.278716
Si Si2 0.204191 0.992580 0.982521
Si Si3 0.501157 0.612693 0.978503
Si Si4 0.312772 0.063115 0.437322
Si Si5 0.492623 0.155177 0.637487
Si Si6 0.922809 0.347082 0.590794
Si Si7 0.091153 0.717431 0.792899
O O1 0.102533 0.366583 0.500633
O O2 0.091851 0.348181 0.269896
O O3 0.430574 0.528561 0.204390
O O4 0.078107 0.601720 0.056394
O O5 0.391175 0.981667 0.137420
O O6 0.313205 0.125105 0.740702
O O7 0.127055 0.813568 0.135447
O O8 0.000000 0.000000 0.000000
O O9 0.696307 0.773463 0.835792
O O10 0.298882 0.683453 0.819830
O O11 0.500000 0.500000 0.000000
O O12 0.381304 0.123400 0.518025
O O13 0.500000 0.000000 0.500000
O O14 0.123543 0.899703 0.596649
O O15 0.694341 0.310560 0.508301
O O16 0.000000 0.500000 0.500000
#
# Coordination Sequence:
#
# PCOD9076845 Si02
#       7
#     2   2   2   2   2   2   2
#     4   9  18  33  54  78 109 145 182 227 274 333
#     4   9  21  40  61  83 112 149 198 240 283 334
#     4   9  18  31  51  80 114 138 178 231 284 327
#     4  10  18  33  61  81 106 155 190 215 284 357
#     4   9  21  38  64  79 116 154 189 238 289 334
#     4  10  20  34  59  80 110 151 194 229 289 336
#     4   8  18  32  57  71 109 145 187 214 276 341
#
# _framework density 23.957560000000001
#
# number of rings (size 3 to 8) (size 9 to 14) (size 15 to 20)
#    1.714    1.143    0.000    1.714    2.000    1.143 
#    0.000    1.429   18.857    0.000    0.000    0.000 
#    0.000    0.000    0.000    0.000    0.000    0.000 
#
# Total GULP energy -77946.338154 kJ/mol
# GULP energy per Si atom -5567.595582 kJ/mol
# Density = 2.390303 g / cm^3
# Si number density = 23.957560 Si / 1000 Ang^3
#
#
#
# Elastic Constant Matrix: (Units=GPa)
#
#
# Indices 1 2 3 4 5 6 
#
# 1 73.2667 32.4002 28.1326 3.6909 -8.1296 -25.6342
# 2 32.4002 83.5421 38.3513 -21.2673 -19.3452 -7.4951
# 3 28.1326 38.3513 116.2546 -25.0442 -34.9013 -3.9639
# 4 3.6909 -21.2673 -25.0442 51.5111 -5.4126 -6.3379
# 5 -8.1296 -19.3452 -34.9013 -5.4126 39.7410 -0.9784
# 6 -25.6342 -7.4951 -3.9639 -6.3379 -0.9784 29.4809
#
#
#
# Elastic Compliance Matrix: (Units=1/GPa)
#
#
# Indices 1 2 3 4 5 6 
#
# 1 0.025474 -0.008261 -0.005259 -0.005987 -0.003803 0.017930
# 2 -0.008261 0.019806 0.000656 0.010188 0.009926 0.000460
# 3 -0.005259 0.000656 0.016413 0.010273 0.015069 0.000509
# 4 -0.005987 0.010188 0.010273 0.031606 0.017212 0.006132
# 5 -0.003803 0.009926 0.015069 0.017212 0.044953 0.006435
# 6 0.017930 0.000460 0.000509 0.006132 0.006435 0.051228
#
#
# Mechanical properties :
#
#
# Convention : Reuss Voigt Hill
#
# Bulk Modulus (GPa) = 27.80662 52.31462 40.06062
# Shear Modulus (GPa) = 22.00724 35.75856 28.88290
#
# Velocity S-wave (km/s) = 3.03412 3.86758 3.47592
# Velocity P-wave (km/s) = 4.88941 6.46746 5.73299
#
# Compressibility (1/GPa) = 0.03596266
#
# Stress axis : x y z
#
# Youngs Moduli (GPa) = 39.25512 50.48902 60.92893
#
# Poissons Ratio (x) = 0.41711 0.32044
# Poissons Ratio (y) = 0.32431 -0.03994
# Poissons Ratio (z) = 0.20646 -0.03310
#
# Static dielectric constant tensor:
#      x y z
#    x 2.031440 -0.031430 -0.025440 
#    y -0.031430 1.830910 0.012520 
#    z -0.025440 0.012520 2.167050 
# 
# From -- ./inp_files/388762.got.cif
#   From: 2010.05.17/outbox.cif.g08.bks.cpg/sg2_195_cif.got.tgz:388762.got - 2010.06.03 11:33:40.
