data_PCOD9076628
_publ_section_title
;
Structure prediction by ZEFSAII (Michael W. Deem and Ramdas Pophale) SiO2 
 PCOD9076628
Probable space group: P -1
;
_chemical_formula_sum "Si O2"
_cell_formula_units_Z 16
_cell_length_a 7.599237
_cell_length_b 8.333437
_cell_length_c 17.057773
_cell_angle_alpha 103.320234
_cell_angle_beta 75.302930
_cell_angle_gamma 51.709579
_cell_volume 705.174022
_symmetry_space_group_name_H-M "P -1"
_symmetry_group_IT_number 2
_symmetry_cell_setting 'triclinic'
loop_
_space_group_symop_operation_xyz
x,y,z
-x,-y,-z
loop_
_atom_site_type_symbol
_atom_site_label
_atom_site_fract_x
_atom_site_fract_y
_atom_site_fract_z
Si Si1 0.858063 0.060997 0.603347
Si Si2 0.121653 0.778737 0.014754
Si Si3 0.938289 0.186586 0.290556
Si Si4 0.141446 0.411777 0.599853
Si Si5 0.616543 0.289721 0.868749
Si Si6 0.208927 0.578616 0.263718
Si Si7 0.321446 0.927864 0.791678
Si Si8 0.627001 0.857944 0.608798
O O1 0.717867 0.319206 0.674676
O O2 0.068418 0.884156 0.628859
O O3 0.679249 0.017263 0.611156
O O4 0.000000 0.000000 0.500000
O O5 0.310053 0.747300 0.052723
O O6 0.309334 0.526954 0.921055
O O7 0.886188 0.857223 0.101549
O O8 0.000000 0.000000 0.000000
O O9 0.827015 0.441213 0.338646
O O10 0.803003 0.160261 0.238847
O O11 0.250374 0.961468 0.209779
O O12 0.059120 0.320348 0.658461
O O13 0.879696 0.617069 0.599829
O O14 0.360982 0.229094 0.489256
O O15 0.765729 0.344466 0.813308
O O16 0.422234 0.295346 0.214259
O O17 0.399737 0.972908 0.709642
#
# Coordination Sequence:
#
# PCOD9076628 Si02
#       8
#     2   2   2   2   2   2   2   2
#     4  10  18  34  54  76 110 154 197 234 275 338
#     4  10  18  35  61  87 111 149 191 241 294 348
#     4   9  20  34  52  81 116 148 191 237 280 343
#     4   9  17  32  54  78 114 157 192 223 285 344
#     4   9  19  34  59  88 111 146 195 235 292 348
#     4  10  18  33  58  83 111 152 190 235 287 339
#     4  10  20  34  54  82 113 147 190 239 290 336
#     4   9  18  32  52  80 112 153 195 231 279 341
#
# _framework density 22.689437000000002
#
# number of rings (size 3 to 8) (size 9 to 14) (size 15 to 20)
#    0.000    2.500    2.500    0.000    1.750    0.500 
#    0.000    4.375    0.000   20.250    0.000    0.000 
#    0.000    0.000    0.000    0.000    0.000    0.000 
#
# Total GULP energy -89260.234492 kJ/mol
# GULP energy per Si atom -5578.764656 kJ/mol
# Density = 2.263779 g / cm^3
# Si number density = 22.689437 Si / 1000 Ang^3
#
#
#
# Elastic Constant Matrix: (Units=GPa)
#
#
# Indices 1 2 3 4 5 6 
#
# 1 35.0116 7.9307 26.3360 -1.5817 -9.2774 19.8534
# 2 7.9307 101.4177 39.9292 -1.4892 -8.2190 1.1822
# 3 26.3360 39.9292 126.2187 -10.1620 -27.9900 12.2615
# 4 -1.5817 -1.4892 -10.1620 16.3203 -4.5788 2.1707
# 5 -9.2774 -8.2190 -27.9900 -4.5788 33.7130 -4.8625
# 6 19.8534 1.1822 12.2615 2.1707 -4.8625 31.8325
#
#
#
# Elastic Compliance Matrix: (Units=1/GPa)
#
#
# Indices 1 2 3 4 5 6 
#
# 1 0.051770 -0.000842 -0.005794 0.006925 0.005903 -0.029596
# 2 -0.000842 0.011350 -0.003880 -0.001875 -0.000707 0.001618
# 3 -0.005794 -0.003880 0.013456 0.010335 0.009947 -0.000611
# 4 0.006925 -0.001875 0.010335 0.074844 0.018683 -0.010481
# 5 0.005903 -0.000707 0.009947 0.018683 0.041562 -0.002412
# 6 -0.029596 0.001618 -0.000611 -0.010481 -0.002412 0.050394
#
#
# Mechanical properties :
#
#
# Convention : Reuss Voigt Hill
#
# Bulk Modulus (GPa) = 18.00355 45.67108 31.83731
# Shear Modulus (GPa) = 17.67255 28.93665 23.30460
#
# Velocity S-wave (km/s) = 2.79389 3.57506 3.20834
# Velocity P-wave (km/s) = 4.28483 6.10032 5.27132
#
# Compressibility (1/GPa) = 0.05554461
#
# Stress axis : x y z
#
# Youngs Moduli (GPa) = 19.31606 88.10662 74.31368
#
# Poissons Ratio (x) = 0.07420 0.43058
# Poissons Ratio (y) = 0.01627 0.28832
# Poissons Ratio (z) = 0.11192 0.34184
#
# Static dielectric constant tensor:
#      x y z
#    x 1.876580 -0.068380 -0.039420 
#    y -0.068380 1.895540 0.036460 
#    z -0.039420 0.036460 1.880590 
# 
# From -- ./inp_files/215303.got.cif
#   From: 2010.05.17/outbox.cif.g08.bks.cpg/sg2_108_cif.got.tgz:215303.got - 2010.06.03 11:33:40.
