data_PCOD9076480
_publ_section_title
;
Structure prediction by ZEFSAII (Michael W. Deem and Ramdas Pophale) SiO2 
 PCOD9076480
Probable space group: P -1
;
_chemical_formula_sum "Si O2"
_cell_formula_units_Z 16
_cell_length_a 24.413868
_cell_length_b 10.957292
_cell_length_c 7.633688
_cell_angle_alpha 53.039117
_cell_angle_beta 35.658783
_cell_angle_gamma 31.578491
_cell_volume 595.106577
_symmetry_space_group_name_H-M "P -1"
_symmetry_group_IT_number 2
_symmetry_cell_setting 'triclinic'
loop_
_space_group_symop_operation_xyz
x,y,z
-x,-y,-z
loop_
_atom_site_type_symbol
_atom_site_label
_atom_site_fract_x
_atom_site_fract_y
_atom_site_fract_z
Si Si1 0.277924 0.020987 0.821300
Si Si2 0.022643 0.637850 0.396068
Si Si3 0.514381 0.313928 0.728678
Si Si4 0.199471 0.455065 0.753093
Si Si5 0.414902 0.362331 0.458769
Si Si6 0.734097 0.137433 0.586355
Si Si7 0.769744 0.457798 0.854638
Si Si8 0.921265 0.953349 0.898560
O O1 0.196567 0.281361 0.858418
O O2 0.169664 0.022991 0.033925
O O3 0.373962 0.926165 0.474218
O O4 0.411492 0.824496 0.786039
O O5 0.134015 0.512864 0.378984
O O6 0.000000 0.500000 0.500000
O O7 0.113562 0.599660 0.033790
O O8 0.855058 0.916788 0.597093
O O9 0.500000 0.500000 0.500000
O O10 0.589634 0.239934 0.785956
O O11 0.355984 0.429340 0.056357
O O12 0.368680 0.287000 0.510892
O O13 0.092300 0.680567 0.702966
O O14 0.326509 0.624004 0.398198
O O15 0.339247 0.425862 0.791179
O O16 0.834188 0.025919 0.244266
O O17 0.896065 0.165779 0.773808
#
# Coordination Sequence:
#
# PCOD9076480 Si02
#       8
#     2   2   2   2   2   2   2   2
#     4  10  16  25  42  69 101 111 126 172 234 288
#     4  10  21  33  44  60  88 126 161 187 206 240
#     4  10  14  28  48  75  93 105 137 180 230 280
#     4  10  19  26  41  66  94 120 140 174 224 269
#     4   9  15  26  43  69  91 111 137 175 230 273
#     4   9  15  28  48  67  89 112 149 185 215 262
#     4   9  15  28  48  67  89 112 149 185 215 262
#     4   9  15  26  43  69  91 111 137 175 230 273
#
# _framework density 26.885940999999999
#
# number of rings (size 3 to 8) (size 9 to 14) (size 15 to 20)
#    0.000    2.500    5.000    1.500    0.000    3.000 
#    0.000    0.625    0.000    1.500    0.000    0.000 
#    0.000    0.000    0.000    0.000    0.000    0.000 
#
# Total GULP energy -89417.949043 kJ/mol
# GULP energy per Si atom -5588.621815 kJ/mol
# Density = 2.682475 g / cm^3
# Si number density = 26.885941 Si / 1000 Ang^3
#
#
#
# Elastic Constant Matrix: (Units=GPa)
#
#
# Indices 1 2 3 4 5 6 
#
# 1 146.8610 24.6552 43.5809 -3.4962 -28.9884 -0.4851
# 2 24.6552 65.9659 20.6734 19.9960 -13.8143 -4.0780
# 3 43.5809 20.6734 131.6866 24.0200 -39.9016 2.7400
# 4 -3.4962 19.9960 24.0200 29.1703 9.6951 -1.7628
# 5 -28.9884 -13.8143 -39.9016 9.6951 61.1815 -0.8816
# 6 -0.4851 -4.0780 2.7400 -1.7628 -0.8816 39.2623
#
#
#
# Elastic Compliance Matrix: (Units=1/GPa)
#
#
# Indices 1 2 3 4 5 6 
#
# 1 0.008711 -0.004332 -0.003598 0.007096 -0.000319 0.000220
# 2 -0.004332 0.025588 0.005827 -0.026694 0.011773 0.001263
# 3 -0.003598 0.005827 0.016081 -0.022266 0.013609 -0.001256
# 4 0.007096 -0.026694 -0.022266 0.081895 -0.030137 0.001869
# 5 -0.000319 0.011773 0.013609 -0.030137 0.032498 -0.000354
# 6 0.000220 0.001263 -0.001256 0.001869 -0.000354 0.025767
#
#
# Mechanical properties :
#
#
# Convention : Reuss Voigt Hill
#
# Bulk Modulus (GPa) = 21.65793 58.03696 39.84744
# Shear Modulus (GPa) = 23.79390 42.96309 33.37850
#
# Velocity S-wave (km/s) = 2.97811 4.00181 3.52729
# Velocity P-wave (km/s) = 4.46077 6.55636 5.60733
#
# Compressibility (1/GPa) = 0.04617247
#
# Stress axis : x y z
#
# Youngs Moduli (GPa) = 114.79793 39.08110 62.18567
#
# Poissons Ratio (x) = 0.16931 0.22376
# Poissons Ratio (y) = 0.49733 -0.36235
# Poissons Ratio (z) = 0.41307 -0.22772
#
# Static dielectric constant tensor:
#      x y z
#    x 2.127340 -0.076620 0.069210 
#    y -0.076620 2.054040 -0.061070 
#    z 0.069210 -0.061070 2.298410 
# 
# From -- ./inp_files/358756.got.cif
#   From: 2010.05.17/outbox.cif.g08.bks.cpg/sg2_180_cif.got.tgz:358756.got - 2010.06.03 11:33:40.
