data_PCOD9076279
_publ_section_title
;
Structure prediction by ZEFSAII (Michael W. Deem and Ramdas Pophale) SiO2 
 PCOD9076279
Probable space group: P -1
;
_chemical_formula_sum "Si O2"
_cell_formula_units_Z 16
_cell_length_a 8.988310
_cell_length_b 20.145732
_cell_length_c 8.776414
_cell_angle_alpha 46.371226
_cell_angle_beta 129.045479
_cell_angle_gamma 143.672708
_cell_volume 671.196121
_symmetry_space_group_name_H-M "P -1"
_symmetry_group_IT_number 2
_symmetry_cell_setting 'triclinic'
loop_
_space_group_symop_operation_xyz
x,y,z
-x,-y,-z
loop_
_atom_site_type_symbol
_atom_site_label
_atom_site_fract_x
_atom_site_fract_y
_atom_site_fract_z
Si Si1 0.720044 0.009206 0.760998
Si Si2 0.535104 0.780133 0.804986
Si Si3 0.315349 0.648907 0.160690
Si Si4 0.153159 0.239954 0.499958
Si Si5 0.364851 0.849594 0.032601
Si Si6 0.020567 0.202453 0.888911
Si Si7 0.727807 0.874275 0.469064
Si Si8 0.194713 0.412437 0.436887
O O1 0.924389 0.087807 0.903215
O O2 0.871578 0.119209 0.563653
O O3 0.655083 0.898877 0.797918
O O4 0.469166 0.942035 0.811492
O O5 0.525895 0.813409 0.574654
O O6 0.317366 0.674617 0.942425
O O7 0.716143 0.749731 0.952087
O O8 0.610699 0.719830 0.298532
O O9 0.152139 0.505268 0.299886
O O10 0.245839 0.717516 0.100648
O O11 0.220091 0.210282 0.433934
O O12 0.141530 0.345444 0.347181
O O13 0.397958 0.108257 0.776472
O O14 0.172766 0.839032 0.035732
O O15 0.063862 0.304652 0.647880
O O16 0.000000 0.000000 0.500000
O O17 0.500000 0.500000 0.500000
#
# Coordination Sequence:
#
# PCOD9076279 Si02
#       8
#     2   2   2   2   2   2   2   2
#     4  10  18  33  54  77 104 147 181 208 258 325
#     4  11  19  32  58  78 106 141 184 216 259 323
#     4   9  18  34  58  77 101 144 189 215 257 322
#     4   9  17  31  55  80 102 139 184 222 248 311
#     4  10  23  34  53  84 113 138 172 227 275 309
#     4  11  20  33  58  83 108 134 182 233 261 303
#     4  11  21  32  53  81 115 142 177 214 269 322
#     4   9  16  33  59  83  97 135 196 223 248 311
#
# _framework density 23.838041
#
# number of rings (size 3 to 8) (size 9 to 14) (size 15 to 20)
#    0.000    2.000    5.000    1.500    1.750    0.500 
#    0.000    1.250   11.000    0.750    0.000    0.000 
#    0.000    0.000    0.000    0.000    0.000    0.000 
#
# Total GULP energy -89165.317235 kJ/mol
# GULP energy per Si atom -5572.832327 kJ/mol
# Density = 2.378378 g / cm^3
# Si number density = 23.838041 Si / 1000 Ang^3
#
#
#
# Elastic Constant Matrix: (Units=GPa)
#
#
# Indices 1 2 3 4 5 6 
#
# 1 94.7259 41.8286 23.3434 19.9523 -19.5423 -16.6560
# 2 41.8286 80.5375 41.0387 -4.3175 -1.0540 -21.2465
# 3 23.3434 41.0387 65.1941 7.2065 -22.7616 -2.7851
# 4 19.9523 -4.3175 7.2065 34.8974 -2.2954 1.0422
# 5 -19.5423 -1.0540 -22.7616 -2.2954 33.7174 7.0144
# 6 -16.6560 -21.2465 -2.7851 1.0422 7.0144 32.4654
#
#
#
# Elastic Compliance Matrix: (Units=1/GPa)
#
#
# Indices 1 2 3 4 5 6 
#
# 1 0.024877 -0.023438 0.016253 -0.018684 0.024613 -0.005900
# 2 -0.023438 0.056031 -0.044654 0.025600 -0.046483 0.030034
# 3 0.016253 -0.044654 0.056464 -0.022404 0.050053 -0.026136
# 4 -0.018684 0.025600 -0.022404 0.045290 -0.023935 0.008963
# 5 0.024613 -0.046483 0.050053 -0.023935 0.080916 -0.030213
# 6 -0.005900 0.030034 -0.026136 0.008963 -0.030213 0.051429
#
#
# Mechanical properties :
#
#
# Convention : Reuss Voigt Hill
#
# Bulk Modulus (GPa) = 29.67907 50.31988 39.99948
# Shear Modulus (GPa) = 11.63018 29.16581 20.39799
#
# Velocity S-wave (km/s) = 2.21120 3.50165 2.92839
# Velocity P-wave (km/s) = 4.35850 6.12402 5.31508
#
# Compressibility (1/GPa) = 0.03369377
#
# Stress axis : x y z
#
# Youngs Moduli (GPa) = 40.19732 17.84726 17.71053
#
# Poissons Ratio (x) = 0.41831 -0.28786
# Poissons Ratio (y) = 0.94216 0.79085
# Poissons Ratio (z) = -0.65334 0.79695
#
# Static dielectric constant tensor:
#      x y z
#    x 1.930650 0.024240 0.044330 
#    y 0.024240 1.919150 0.021520 
#    z 0.044330 0.021520 1.972540 
# 
# From -- ./inp_files/214503.got.cif
#   From: 2010.05.17/outbox.cif.g08.bks.cpg/sg2_108_cif.got.tgz:214503.got - 2010.06.03 11:33:40.
