data_PCOD9076863
_publ_section_title
;
Structure prediction by ZEFSAII (Michael W. Deem and Ramdas Pophale) SiO2 
 PCOD9076863
Probable space group: P -1
;
_chemical_formula_sum "Si O2"
_cell_formula_units_Z 16
_cell_length_a 14.481293
_cell_length_b 20.135383
_cell_length_c 8.033140
_cell_angle_alpha 67.154734
_cell_angle_beta 61.167825
_cell_angle_gamma 18.545837
_cell_volume 632.357873
_symmetry_space_group_name_H-M "P -1"
_symmetry_group_IT_number 2
_symmetry_cell_setting 'triclinic'
loop_
_space_group_symop_operation_xyz
x,y,z
-x,-y,-z
loop_
_atom_site_type_symbol
_atom_site_label
_atom_site_fract_x
_atom_site_fract_y
_atom_site_fract_z
Si Si1 0.973691 0.764021 0.099550
Si Si2 0.758279 0.232785 0.597116
Si Si3 0.889566 0.639139 0.618029
Si Si4 0.544663 0.449077 0.250791
Si Si5 0.029962 0.567386 0.191008
Si Si6 0.545880 0.236971 0.608759
Si Si7 0.105047 0.204020 0.504270
Si Si8 0.424545 0.938226 0.159382
O O1 0.144664 0.575479 0.114013
O O2 0.784062 0.888088 0.317057
O O3 0.749816 0.915215 0.987180
O O4 0.210045 0.680104 0.971973
O O5 0.745795 0.291053 0.386667
O O6 0.637301 0.361343 0.721704
O O7 0.522882 0.319480 0.671735
O O8 0.110477 0.976671 0.567438
O O9 0.782766 0.629773 0.789371
O O10 0.266972 0.400776 0.564108
O O11 0.803959 0.772521 0.635051
O O12 0.849738 0.669276 0.424873
O O13 0.270890 0.566038 0.360564
O O14 0.780858 0.731444 0.096894
O O15 0.558928 0.157491 0.784760
O O16 0.224587 0.082136 0.362392
#
# Coordination Sequence:
#
# PCOD9076863 Si02
#       8
#     2   2   2   2   2   2   2   2
#     4  11  23  37  62  91 129 153 200 250 301 360
#     4  10  19  32  62  91 119 164 201 238 304 363
#     4   9  19  36  62  85 117 158 204 247 297 351
#     4  11  19  37  58  92 125 154 198 247 304 366
#     4   9  21  40  61  86 119 164 200 252 301 347
#     4  10  18  33  61  89 120 157 199 247 295 356
#     4  11  22  39  65  92 118 161 202 249 303 357
#     4  11  21  40  66  87 120 160 206 251 297 354
#
# _framework density 25.302128
#
# number of rings (size 3 to 8) (size 9 to 14) (size 15 to 20)
#    0.000    1.750    3.750    1.500    0.000    2.000 
#    0.000    0.625   16.500    4.500    0.000    0.000 
#    0.000    0.000    0.000    0.000    0.000    0.000 
#
# Total GULP energy -89349.739805 kJ/mol
# GULP energy per Si atom -5584.358738 kJ/mol
# Density = 2.524454 g / cm^3
# Si number density = 25.302128 Si / 1000 Ang^3
#
#
#
# Elastic Constant Matrix: (Units=GPa)
#
#
# Indices 1 2 3 4 5 6 
#
# 1 137.4894 10.5759 41.3929 -4.5824 -17.6357 6.6240
# 2 10.5759 34.1878 37.0918 0.7360 5.8669 -19.7279
# 3 41.3929 37.0918 126.7766 -7.2483 2.4686 10.7918
# 4 -4.5824 0.7360 -7.2483 33.1320 -2.8480 -1.3590
# 5 -17.6357 5.8669 2.4686 -2.8480 43.9663 -9.1766
# 6 6.6240 -19.7279 10.7918 -1.3590 -9.1766 46.2671
#
#
#
# Elastic Compliance Matrix: (Units=1/GPa)
#
#
# Indices 1 2 3 4 5 6 
#
# 1 0.008632 -0.000345 -0.002739 0.000924 0.003727 0.000022
# 2 -0.000345 0.086305 -0.029168 -0.006699 -0.001441 0.043170
# 3 -0.002739 -0.029168 0.018970 0.003605 -0.001516 -0.016664
# 4 0.000924 -0.006699 0.003605 0.031372 0.002595 -0.002393
# 5 0.003727 -0.001441 -0.001516 0.002595 0.025595 0.004358
# 6 0.000022 0.043170 -0.016664 -0.002393 0.004358 0.044699
#
#
# Mechanical properties :
#
#
# Convention : Reuss Voigt Hill
#
# Bulk Modulus (GPa) = 20.24163 52.95277 36.59720
# Shear Modulus (GPa) = 16.86079 38.63262 27.74670
#
# Velocity S-wave (km/s) = 2.58423 3.91174 3.31511
# Velocity P-wave (km/s) = 4.11360 6.43241 5.39896
#
# Compressibility (1/GPa) = 0.04940313
#
# Stress axis : x y z
#
# Youngs Moduli (GPa) = 115.84478 11.58679 52.71430
#
# Poissons Ratio (x) = 0.00400 0.14439
# Poissons Ratio (y) = 0.04001 1.53756
# Poissons Ratio (z) = 0.31730 0.33796
#
# Static dielectric constant tensor:
#      x y z
#    x 2.002970 -0.011080 -0.005740 
#    y -0.011080 2.118980 -0.015150 
#    z -0.005740 -0.015150 1.994250 
# 
# From -- ./inp_files/304685.got.cif
#   From: 2010.05.17/outbox.cif.g08.bks.cpg/sg2_153_cif.got.tgz:304685.got - 2010.06.03 11:33:40.
