data_PCOD9076783
_publ_section_title
;
Structure prediction by ZEFSAII (Michael W. Deem and Ramdas Pophale) SiO2 
 PCOD9076783
Probable space group: P -1
;
_chemical_formula_sum "Si O2"
_cell_formula_units_Z 14
_cell_length_a 20.493706
_cell_length_b 17.566906
_cell_length_c 9.524639
_cell_angle_alpha 53.765003
_cell_angle_beta 44.520304
_cell_angle_gamma 15.488627
_cell_volume 551.224724
_symmetry_space_group_name_H-M "P -1"
_symmetry_group_IT_number 2
_symmetry_cell_setting 'triclinic'
loop_
_space_group_symop_operation_xyz
x,y,z
-x,-y,-z
loop_
_atom_site_type_symbol
_atom_site_label
_atom_site_fract_x
_atom_site_fract_y
_atom_site_fract_z
Si Si1 0.494665 0.969783 0.199123
Si Si2 0.235077 0.646595 0.146420
Si Si3 0.727491 0.304752 0.235899
Si Si4 0.315997 0.473759 0.481421
Si Si5 0.023679 0.279940 0.690317
Si Si6 0.909788 0.310449 0.097813
Si Si7 0.148321 0.204838 0.056227
O O1 0.804397 0.597150 0.138337
O O2 0.157858 0.246622 0.457765
O O3 0.584380 0.974730 0.146074
O O4 0.500000 0.000000 0.000000
O O5 0.128998 0.644938 0.266143
O O6 0.333412 0.542962 0.270956
O O7 0.933460 0.012030 0.204537
O O8 0.443077 0.484868 0.871231
O O9 0.500000 0.500000 0.500000
O O10 0.945074 0.178443 0.105255
O O11 0.304785 0.502133 0.636901
O O12 0.970939 0.752120 0.687197
O O13 0.632108 0.103107 0.373089
O O14 0.804552 0.485303 0.944410
O O15 0.198488 0.087586 0.974695
#
# Coordination Sequence:
#
# PCOD9076783 Si02
#       7
#     2   2   2   2   2   2   2
#     4  10  18  33  60  81 106 149 181 218 281 328
#     4  10  21  37  57  83 110 148 190 220 273 334
#     4  10  21  37  57  82 115 146 183 235 273 321
#     4   9  19  37  57  77 114 147 180 227 272 321
#     4  10  20  36  59  80 114 148 180 229 276 321
#     4   9  20  38  54  82 114 143 183 233 273 322
#     4   8  19  36  52  80 116 136 180 233 264 324
#
# _framework density 25.39799
#
# number of rings (size 3 to 8) (size 9 to 14) (size 15 to 20)
#    0.857    1.714    0.000    1.714    0.000    2.286 
#    0.000   12.143    0.000    0.000    0.000    0.000 
#    0.000    0.000    0.000    0.000    0.000    0.000 
#
# Total GULP energy -78002.660668 kJ/mol
# GULP energy per Si atom -5571.618619 kJ/mol
# Density = 2.534018 g / cm^3
# Si number density = 25.397990 Si / 1000 Ang^3
#
#
#
# Elastic Constant Matrix: (Units=GPa)
#
#
# Indices 1 2 3 4 5 6 
#
# 1 148.2779 0.4331 54.8613 -3.8033 -15.5403 8.2243
# 2 0.4331 57.1058 35.8547 -2.3363 0.9224 9.3742
# 3 54.8613 35.8547 211.5439 -19.4990 21.4555 -4.7867
# 4 -3.8033 -2.3363 -19.4990 37.7186 -11.4467 2.8902
# 5 -15.5403 0.9224 21.4555 -11.4467 57.0476 -7.7257
# 6 8.2243 9.3742 -4.7867 2.8902 -7.7257 5.2654
#
#
#
# Elastic Compliance Matrix: (Units=1/GPa)
#
#
# Indices 1 2 3 4 5 6 
#
# 1 0.011021 0.010256 -0.005311 0.002091 -0.000449 -0.042109
# 2 0.010256 0.045576 -0.011833 0.004393 -0.009425 -0.124157
# 3 -0.005311 -0.011833 0.008965 0.000646 0.000667 0.038136
# 4 0.002091 0.004393 0.000646 0.030023 0.003277 -0.022172
# 5 -0.000449 -0.009425 0.000667 0.003277 0.025174 0.053225
# 6 -0.042109 -0.124157 0.038136 -0.022172 0.053225 0.601661
#
#
# Mechanical properties :
#
#
# Convention : Reuss Voigt Hill
#
# Bulk Modulus (GPa) = 19.30997 66.58065 42.94531
# Shear Modulus (GPa) = 6.63607 41.72490 24.18048
#
# Velocity S-wave (km/s) = 1.61818 4.05760 3.08890
# Velocity P-wave (km/s) = 3.33329 6.94435 5.44678
#
# Compressibility (1/GPa) = 0.05178671
#
# Stress axis : x y z
#
# Youngs Moduli (GPa) = 90.73289 21.94131 111.54570
#
# Poissons Ratio (x) = -0.22504 0.59243
# Poissons Ratio (y) = -0.93058 1.31992
# Poissons Ratio (z) = 0.48189 0.25963
#
# Static dielectric constant tensor:
#      x y z
#    x 2.085000 -0.035980 -0.009340 
#    y -0.035980 2.053410 0.019810 
#    z -0.009340 0.019810 2.100930 
# 
# From -- ./inp_files/348316.got.cif
#   From: 2010.05.17/outbox.cif.g08.bks.cpg/sg2_175_cif.got.tgz:348316.got - 2010.06.03 11:33:40.
