data_PCOD9076846
_publ_section_title
;
Structure prediction by ZEFSAII (Michael W. Deem and Ramdas Pophale) SiO2 
 PCOD9076846
Probable space group: P -1
;
_chemical_formula_sum "Si O2"
_cell_formula_units_Z 14
_cell_length_a 12.327095
_cell_length_b 20.550777
_cell_length_c 9.060619
_cell_angle_alpha 148.144849
_cell_angle_beta 130.320354
_cell_angle_gamma 38.031052
_cell_volume 744.634305
_symmetry_space_group_name_H-M "P -1"
_symmetry_group_IT_number 2
_symmetry_cell_setting 'triclinic'
loop_
_space_group_symop_operation_xyz
x,y,z
-x,-y,-z
loop_
_atom_site_type_symbol
_atom_site_label
_atom_site_fract_x
_atom_site_fract_y
_atom_site_fract_z
Si Si1 0.291230 0.330989 0.477863
Si Si2 0.533633 0.898386 0.062033
Si Si3 0.293329 0.873381 0.015107
Si Si4 0.858097 0.676788 0.109358
Si Si5 0.416343 0.224662 0.681092
Si Si6 0.950522 0.224508 0.361412
Si Si7 0.933505 0.414597 0.451830
O O1 0.373711 0.328334 0.700962
O O2 0.222695 0.476013 0.590967
O O3 0.116234 0.341925 0.386498
O O4 0.422427 0.175901 0.202895
O O5 0.426434 0.846646 0.952736
O O6 0.720151 0.819034 0.157561
O O7 0.433437 0.077280 0.346430
O O8 0.406340 0.832922 0.185925
O O9 0.214781 0.777068 0.751327
O O10 0.126667 0.050933 0.197758
O O11 0.740939 0.697728 0.188255
O O12 0.014802 0.682290 0.314681
O O13 0.917998 0.531788 0.784782
O O14 0.932352 0.291603 0.310819
#
# Coordination Sequence:
#
# PCOD9076846 Si02
#       7
#     2   2   2   2   2   2   2
#     4  10  21  33  58  78 112 144 183 217 269 317
#     4  10  18  35  56  85 108 140 181 228 264 324
#     4  10  21  34  59  83 109 136 186 225 281 305
#     4  10  18  33  61  81 107 136 188 227 263 308
#     4  11  18  35  56  87 106 141 183 229 263 319
#     4  11  19  35  58  83 110 139 175 240 265 316
#     4  10  21  36  55  87 106 144 185 220 263 328
#
# _framework density 18.801176000000002
#
# number of rings (size 3 to 8) (size 9 to 14) (size 15 to 20)
#    0.000    1.714    4.286    1.714    0.000    0.000 
#    0.000    7.143    9.429    2.571    0.000    0.000 
#    0.000    0.000    0.000    0.000    0.000    0.000 
#
# Total GULP energy -78086.674373 kJ/mol
# GULP energy per Si atom -5577.619598 kJ/mol
# Density = 1.875838 g / cm^3
# Si number density = 18.801176 Si / 1000 Ang^3
#
#
#
# Elastic Constant Matrix: (Units=GPa)
#
#
# Indices 1 2 3 4 5 6 
#
# 1 85.3876 37.4492 45.5609 -17.6897 1.9063 3.6854
# 2 37.4492 90.5119 30.0735 -13.2993 10.5707 19.4887
# 3 45.5609 30.0735 57.2227 -12.4524 -6.4164 0.8563
# 4 -17.6897 -13.2993 -12.4524 23.6808 0.1363 -4.5500
# 5 1.9063 10.5707 -6.4164 0.1363 35.9358 -1.5773
# 6 3.6854 19.4887 0.8563 -4.5500 -1.5773 30.0421
#
#
#
# Elastic Compliance Matrix: (Units=1/GPa)
#
#
# Indices 1 2 3 4 5 6 
#
# 1 0.022765 -0.003020 -0.015278 0.007401 -0.003051 0.000563
# 2 -0.003020 0.018329 -0.007417 0.001993 -0.007063 -0.011378
# 3 -0.015278 -0.007417 0.035454 0.004322 0.009606 0.006834
# 4 0.007401 0.001993 0.004322 0.052222 -0.000160 0.005577
# 5 -0.003051 -0.007063 0.009606 -0.000160 0.032061 0.006341
# 6 0.000563 -0.011378 0.006834 0.005577 0.006341 0.041581
#
#
# Mechanical properties :
#
#
# Convention : Reuss Voigt Hill
#
# Bulk Modulus (GPa) = 39.81181 51.03215 45.42198
# Shear Modulus (GPa) = 19.06832 25.93430 22.50131
#
# Velocity S-wave (km/s) = 3.18812 3.71805 3.46324
# Velocity P-wave (km/s) = 5.89689 6.75529 6.34063
#
# Compressibility (1/GPa) = 0.02511818
#
# Stress axis : x y z
#
# Youngs Moduli (GPa) = 43.92662 54.55692 28.20584
#
# Poissons Ratio (x) = 0.16476 0.43094
# Poissons Ratio (y) = 0.13266 0.20919
# Poissons Ratio (z) = 0.67113 0.40463
#
# Static dielectric constant tensor:
#      x y z
#    x 1.634950 0.027810 -0.008200 
#    y 0.027810 1.734880 0.024890 
#    z -0.008200 0.024890 1.634150 
# 
# From -- ./inp_files/170380.got.cif
#   From: 2010.05.17/outbox.cif.g08.bks.cpg/sg2_86_cif.got.tgz:170380.got - 2010.06.03 11:33:40.
