data_PCOD9076084
_publ_section_title
;
Structure prediction by ZEFSAII (Michael W. Deem and Ramdas Pophale) SiO2 
 PCOD9076084
Probable space group: P -1
;
_chemical_formula_sum "Si O2"
_cell_formula_units_Z 16
_cell_length_a 16.937317
_cell_length_b 18.356462
_cell_length_c 11.244403
_cell_angle_alpha 146.685551
_cell_angle_beta 22.998279
_cell_angle_gamma 148.015906
_cell_volume 697.578745
_symmetry_space_group_name_H-M "P -1"
_symmetry_group_IT_number 2
_symmetry_cell_setting 'triclinic'
loop_
_space_group_symop_operation_xyz
x,y,z
-x,-y,-z
loop_
_atom_site_type_symbol
_atom_site_label
_atom_site_fract_x
_atom_site_fract_y
_atom_site_fract_z
Si Si1 0.069911 0.725045 0.324069
Si Si2 0.872973 0.873232 0.170133
Si Si3 0.979626 0.064923 0.490108
Si Si4 0.472003 0.187365 0.889886
Si Si5 0.738589 0.023626 0.396300
Si Si6 0.313631 0.558721 0.870519
Si Si7 0.562975 0.587100 0.907772
Si Si8 0.140909 0.418402 0.134453
O O1 0.161917 0.850021 0.468776
O O2 0.093627 0.805303 0.273280
O O3 0.817724 0.636439 0.588996
O O4 0.205476 0.621932 0.005136
O O5 0.686297 0.879202 0.348136
O O6 0.932056 0.736570 0.921771
O O7 0.837362 0.931517 0.425159
O O8 0.086946 0.974503 0.942560
O O9 0.222442 0.124530 0.184538
O O10 0.000000 0.000000 0.500000
O O11 0.591726 0.311590 0.989412
O O12 0.493790 0.270251 0.846912
O O13 0.562298 0.064090 0.624251
O O14 0.500000 0.500000 0.500000
O O15 0.132493 0.434566 0.027127
O O16 0.500000 0.500000 0.000000
O O17 0.395500 0.479319 0.900913
O O18 0.000000 0.500000 0.500000
#
# Coordination Sequence:
#
# PCOD9076084 Si02
#       8
#     2   2   2   2   2   2   2   2
#     4   9  19  39  61  87 119 157 197 253 305 348
#     4  10  20  35  60  87 118 151 201 242 295 358
#     4  10  22  39  59  84 120 163 194 249 292 348
#     4   9  20  38  58  83 118 152 199 241 300 350
#     4   9  18  37  60  87 113 150 196 254 301 345
#     4  10  21  38  63  86 116 162 200 246 298 362
#     4  10  18  32  60  88 117 156 189 240 308 362
#     4  11  22  38  60  90 123 157 199 249 300 360
#
# _framework density 22.936478000000001
#
# number of rings (size 3 to 8) (size 9 to 14) (size 15 to 20)
#    0.000    2.250    0.000    3.750    1.750    1.500 
#    2.250   12.500    5.500    0.000    0.000    0.000 
#    0.000    0.000    0.000    0.000    0.000    0.000 
#
# Total GULP energy -89116.114757 kJ/mol
# GULP energy per Si atom -5569.757172 kJ/mol
# Density = 2.288427 g / cm^3
# Si number density = 22.936478 Si / 1000 Ang^3
#
#
#
# Elastic Constant Matrix: (Units=GPa)
#
#
# Indices 1 2 3 4 5 6 
#
# 1 135.1342 56.8960 28.3004 19.4509 -15.3685 -58.0756
# 2 56.8960 99.7293 32.3059 24.6992 -11.5421 -62.0033
# 3 28.3004 32.3059 93.9773 37.2359 -26.9329 -43.1592
# 4 19.4509 24.6992 37.2359 38.0983 -15.8611 -22.9915
# 5 -15.3685 -11.5421 -26.9329 -15.8611 32.4702 4.8652
# 6 -58.0756 -62.0033 -43.1592 -22.9915 4.8652 57.2734
#
#
#
# Elastic Compliance Matrix: (Units=1/GPa)
#
#
# Indices 1 2 3 4 5 6 
#
# 1 0.021260 0.016132 0.017323 0.002423 0.023702 0.051035
# 2 0.016132 0.055301 0.032055 -0.000797 0.038996 0.096749
# 3 0.017323 0.032055 0.047205 -0.009837 0.041907 0.080331
# 4 0.002423 -0.000797 -0.009837 0.048810 0.014669 0.012529
# 5 0.023702 0.038996 0.041907 0.014669 0.083323 0.096641
# 6 0.051035 0.096749 0.080331 0.012529 0.096641 0.231304
#
#
# Mechanical properties :
#
#
# Convention : Reuss Voigt Hill
#
# Bulk Modulus (GPa) = 3.92485 62.64949 33.28717
# Shear Modulus (GPa) = 11.33502 39.65763 25.49633
#
# Velocity S-wave (km/s) = 2.22545 4.16266 3.33769
# Velocity P-wave (km/s) = 2.88417 7.10474 5.42198
#
# Compressibility (1/GPa) = 0.25478697
#
# Stress axis : x y z
#
# Youngs Moduli (GPa) = 47.03676 18.08291 21.18427
#
# Poissons Ratio (x) = -0.29172 -0.36698
# Poissons Ratio (y) = -0.75880 -0.67907
# Poissons Ratio (z) = -0.81482 -0.57966
#
# Static dielectric constant tensor:
#      x y z
#    x 2.068040 0.046340 -0.045070 
#    y 0.046340 2.028540 0.062720 
#    z -0.045070 0.062720 1.882400 
# 
# From -- ./inp_files/466604.got.cif
#   From: 2010.05.17/outbox.cif.g08.bks.cpg/sg2_234_cif.got.tgz:466604.got - 2010.06.03 11:33:40.
