data_PCOD9076936
_publ_section_title
;
Structure prediction by ZEFSAII (Michael W. Deem and Ramdas Pophale) SiO2 
 PCOD9076936
Probable space group: P -1
;
_chemical_formula_sum "Si O2"
_cell_formula_units_Z 14
_cell_length_a 5.274443
_cell_length_b 18.737634
_cell_length_c 9.419688
_cell_angle_alpha 49.815777
_cell_angle_beta 106.812109
_cell_angle_gamma 107.469318
_cell_volume 672.565730
_symmetry_space_group_name_H-M "P -1"
_symmetry_group_IT_number 2
_symmetry_cell_setting 'triclinic'
loop_
_space_group_symop_operation_xyz
x,y,z
-x,-y,-z
loop_
_atom_site_type_symbol
_atom_site_label
_atom_site_fract_x
_atom_site_fract_y
_atom_site_fract_z
Si Si1 0.594860 0.605694 0.929922
Si Si2 0.149457 0.824067 0.998755
Si Si3 0.007879 0.149076 0.779157
Si Si4 0.770391 0.920611 0.629283
Si Si5 0.819749 0.305168 0.068601
Si Si6 0.615562 0.977036 0.831789
Si Si7 0.781794 0.781111 0.573741
O O1 0.396896 0.639589 0.968946
O O2 0.603201 0.680587 0.705170
O O3 0.903161 0.624776 0.008960
O O4 0.500000 0.500000 0.000000
O O5 0.086802 0.786924 0.193917
O O6 0.286471 0.755351 0.008494
O O7 0.324855 0.929075 0.899518
O O8 0.893947 0.841238 0.843193
O O9 0.171715 0.193201 0.614445
O O10 0.748969 0.080405 0.766845
O O11 0.191166 0.087458 0.977318
O O12 0.618902 0.965315 0.676322
O O13 0.672049 0.860403 0.550570
O O14 0.000000 0.000000 0.500000
O O15 0.927858 0.233938 0.292139
#
# Coordination Sequence:
#
# PCOD9076936 Si02
#       7
#     2   2   2   2   2   2   2
#     4  10  20  39  66  91 114 141 187 245 300 350
#     4  10  21  34  51  78 111 158 195 233 284 341
#     4  10  20  35  48  80 112 158 194 239 274 336
#     4  10  18  34  50  75 110 147 192 241 277 332
#     4   9  21  37  62  89 113 146 190 236 296 346
#     4  10  20  33  52  70 115 158 203 229 279 329
#     4   9  20  34  55  86 116 147 196 239 289 335
#
# _framework density 20.815811
#
# number of rings (size 3 to 8) (size 9 to 14) (size 15 to 20)
#    0.857    1.429    1.429    1.714    2.000    1.714 
#    2.571    0.000    0.000    1.714    0.000    0.000 
#    0.000    0.000    0.000    0.000    0.000    0.000 
#
# Total GULP energy -78058.741059 kJ/mol
# GULP energy per Si atom -5575.624361 kJ/mol
# Density = 2.076843 g / cm^3
# Si number density = 20.815811 Si / 1000 Ang^3
#
#
#
# Elastic Constant Matrix: (Units=GPa)
#
#
# Indices 1 2 3 4 5 6 
#
# 1 82.4005 33.3485 30.4536 17.8123 -15.9680 -10.6233
# 2 33.3485 111.0024 73.4671 7.0237 -23.1246 -17.1998
# 3 30.4536 73.4671 94.2859 26.6406 -22.2029 -10.4119
# 4 17.8123 7.0237 26.6406 31.5122 -0.8793 -13.2164
# 5 -15.9680 -23.1246 -22.2029 -0.8793 29.3048 7.8632
# 6 -10.6233 -17.1998 -10.4119 -13.2164 7.8632 37.9701
#
#
#
# Elastic Compliance Matrix: (Units=1/GPa)
#
#
# Indices 1 2 3 4 5 6 
#
# 1 0.016949 -0.005988 0.004531 -0.013111 0.008361 -0.003023
# 2 -0.005988 0.027791 -0.026193 0.024745 -0.003968 0.013166
# 3 0.004531 -0.026193 0.043029 -0.039379 0.017550 -0.016139
# 4 -0.013111 0.024745 -0.039379 0.078335 -0.022813 0.028733
# 5 0.008361 -0.003968 0.017550 -0.022813 0.051729 -0.013299
# 6 -0.003023 0.013166 -0.016139 0.028733 -0.013299 0.039784
#
#
# Mechanical properties :
#
#
# Convention : Reuss Voigt Hill
#
# Bulk Modulus (GPa) = 30.79801 62.46968 46.63384
# Shear Modulus (GPa) = 15.44437 29.78541 22.61489
#
# Velocity S-wave (km/s) = 2.72684 3.78683 3.29968
# Velocity P-wave (km/s) = 4.97411 7.01398 6.08020
#
# Compressibility (1/GPa) = 0.03246963
#
# Stress axis : x y z
#
# Youngs Moduli (GPa) = 58.99928 35.98244 23.23994
#
# Poissons Ratio (x) = 0.21545 -0.10529
# Poissons Ratio (y) = 0.35327 0.60873
# Poissons Ratio (z) = -0.26730 0.94249
#
# Static dielectric constant tensor:
#      x y z
#    x 1.847240 -0.018200 0.037790 
#    y -0.018200 1.757050 0.018710 
#    z 0.037790 0.018710 1.763580 
# 
# From -- ./inp_files/32531.got.cif
#   From: 2010.05.17/outbox.cif.g08.bks.cpg/sg2_17_cif.got.tgz:32531.got - 2010.06.03 11:33:40.
