data_PCOD9076573
_publ_section_title
;
Structure prediction by ZEFSAII (Michael W. Deem and Ramdas Pophale) SiO2 
 PCOD9076573
Probable space group: P -1
;
_chemical_formula_sum "Si O2"
_cell_formula_units_Z 16
_cell_length_a 14.077109
_cell_length_b 12.813389
_cell_length_c 11.939195
_cell_angle_alpha 120.291825
_cell_angle_beta 83.194325
_cell_angle_gamma 44.688463
_cell_volume 808.956217
_symmetry_space_group_name_H-M "P -1"
_symmetry_group_IT_number 2
_symmetry_cell_setting 'triclinic'
loop_
_space_group_symop_operation_xyz
x,y,z
-x,-y,-z
loop_
_atom_site_type_symbol
_atom_site_label
_atom_site_fract_x
_atom_site_fract_y
_atom_site_fract_z
Si Si1 0.646306 0.469390 0.163992
Si Si2 0.758876 0.924341 0.463851
Si Si3 0.549139 0.958648 0.626628
Si Si4 0.218878 0.140659 0.825975
Si Si5 0.908617 0.380418 0.161965
Si Si6 0.864599 0.753686 0.589830
Si Si7 0.934815 0.917099 0.804256
Si Si8 0.408234 0.474034 0.530770
O O1 0.403795 0.779489 0.325755
O O2 0.629555 0.477613 0.304842
O O3 0.808671 0.400079 0.096745
O O4 0.758997 0.221025 0.971059
O O5 0.841788 0.836483 0.278320
O O6 0.589757 0.001948 0.538902
O O7 0.923416 0.713315 0.428710
O O8 0.325587 0.149893 0.794923
O O9 0.630090 0.955773 0.713060
O O10 0.727850 0.649747 0.412051
O O11 0.408808 0.835962 0.679706
O O12 0.032076 0.341863 0.052831
O O13 0.058459 0.134618 0.094407
O O14 0.881383 0.859457 0.709360
O O15 0.000000 0.500000 0.500000
O O16 0.176893 0.697773 0.630962
O O17 0.500000 0.500000 0.500000
#
# Coordination Sequence:
#
# PCOD9076573 Si02
#       8
#     2   2   2   2   2   2   2   2
#     4  10  20  34  55  86 117 143 194 242 287 330
#     4   9  21  36  56  81 119 151 191 238 287 337
#     4  10  20  39  57  83 118 151 192 236 289 331
#     4  11  19  34  60  89 115 147 191 248 288 325
#     4  11  20  34  62  92 112 146 196 241 288 336
#     4  10  20  38  61  75 114 164 188 224 297 345
#     4  11  19  36  58  85 120 153 187 236 281 350
#     4  10  18  33  57  87 116 146 188 243 288 329
#
# _framework density 19.778575
#
# number of rings (size 3 to 8) (size 9 to 14) (size 15 to 20)
#    0.750    1.000    5.000    3.375    0.000    1.000 
#    0.000    0.625    2.750    6.750    0.000    0.000 
#    0.000    0.000    0.000    0.000    0.000    0.000 
#
# Total GULP energy -89109.193971 kJ/mol
# GULP energy per Si atom -5569.324623 kJ/mol
# Density = 1.973356 g / cm^3
# Si number density = 19.778575 Si / 1000 Ang^3
#
#
#
# Elastic Constant Matrix: (Units=GPa)
#
#
# Indices 1 2 3 4 5 6 
#
# 1 106.3352 17.6695 38.8550 0.3457 5.9239 8.6468
# 2 17.6695 73.0205 21.2634 5.4460 -0.8678 1.5434
# 3 38.8550 21.2634 59.7061 1.8928 -5.3602 5.9873
# 4 0.3457 5.4460 1.8928 26.3098 17.7775 6.4561
# 5 5.9239 -0.8678 -5.3602 17.7775 31.2495 -2.9360
# 6 8.6468 1.5434 5.9873 6.4561 -2.9360 28.9398
#
#
#
# Elastic Compliance Matrix: (Units=1/GPa)
#
#
# Indices 1 2 3 4 5 6 
#
# 1 0.013889 -0.001319 -0.009184 0.008396 -0.009492 -0.005015
# 2 -0.001319 0.015738 -0.004474 -0.005703 0.003361 0.002094
# 3 -0.009184 -0.004474 0.025474 -0.008157 0.010684 0.000616
# 4 0.008396 -0.005703 -0.008157 0.079642 -0.050657 -0.023423
# 5 -0.009492 0.003361 0.010684 -0.050657 0.066280 0.018472
# 6 -0.005015 0.002094 0.000616 -0.023423 0.018472 0.042913
#
#
# Mechanical properties :
#
#
# Convention : Reuss Voigt Hill
#
# Bulk Modulus (GPa) = 39.76570 43.84862 41.80716
# Shear Modulus (GPa) = 17.71338 28.05143 22.88241
#
# Velocity S-wave (km/s) = 2.99588 3.77008 3.40506
# Velocity P-wave (km/s) = 5.66711 6.41633 6.05332
#
# Compressibility (1/GPa) = 0.02514730
#
# Stress axis : x y z
#
# Youngs Moduli (GPa) = 72.00146 63.54134 39.25500
#
# Poissons Ratio (x) = 0.08384 0.36051
# Poissons Ratio (y) = 0.09500 0.17561
# Poissons Ratio (z) = 0.66125 0.28425
#
# Static dielectric constant tensor:
#      x y z
#    x 1.758580 0.005650 -0.005000 
#    y 0.005650 1.776700 0.035270 
#    z -0.005000 0.035270 1.714630 
# 
# From -- ./inp_files/451531.got.cif
#   From: 2010.05.17/outbox.cif.g08.bks.cpg/sg2_226_cif.got.tgz:451531.got - 2010.06.03 11:33:40.
