data_PCOD9076035
_publ_section_title
;
Structure prediction by ZEFSAII (Michael W. Deem and Ramdas Pophale) SiO2 
 PCOD9076035
Probable space group: P -1
;
_chemical_formula_sum "Si O2"
_cell_formula_units_Z 16
_cell_length_a 9.883464
_cell_length_b 9.009586
_cell_length_c 22.997769
_cell_angle_alpha 51.604602
_cell_angle_beta 122.492681
_cell_angle_gamma 79.217783
_cell_volume 833.978313
_symmetry_space_group_name_H-M "P -1"
_symmetry_group_IT_number 2
_symmetry_cell_setting 'triclinic'
loop_
_space_group_symop_operation_xyz
x,y,z
-x,-y,-z
loop_
_atom_site_type_symbol
_atom_site_label
_atom_site_fract_x
_atom_site_fract_y
_atom_site_fract_z
Si Si1 0.268645 0.681197 0.672415
Si Si2 0.799702 0.332209 0.817452
Si Si3 0.060894 0.884505 0.415847
Si Si4 0.847875 0.542431 0.369033
Si Si5 0.969860 0.288477 0.980771
Si Si6 0.503907 0.776313 0.537986
Si Si7 0.685580 0.619784 0.488032
Si Si8 0.413046 0.076162 0.209802
O O1 0.528090 0.525621 0.740779
O O2 0.270782 0.454647 0.714517
O O3 0.000000 0.000000 0.500000
O O4 0.215192 0.792104 0.699568
O O5 0.724159 0.481767 0.701500
O O6 0.979894 0.981220 0.936582
O O7 0.939583 0.346090 0.890536
O O8 0.135706 0.637371 0.534823
O O9 0.245309 0.896056 0.463238
O O10 0.140472 0.717862 0.413073
O O11 0.124529 0.376112 0.461627
O O12 0.669677 0.862158 0.282327
O O13 0.210497 0.163030 0.098840
O O14 0.716499 0.613333 0.872610
O O15 0.560150 0.698384 0.501943
O O16 0.500000 0.000000 0.500000
O O17 0.480032 0.878461 0.328354
#
# Coordination Sequence:
#
# PCOD9076035 Si02
#       8
#     2   2   2   2   2   2   2   2
#     4  10  18  32  59  82 121 145 188 253 290 340
#     4  11  21  39  56  89 120 153 206 235 290 351
#     4  10  20  34  54  87 122 154 182 237 307 347
#     4  10  19  35  59  91 119 149 192 255 297 344
#     4  10  22  34  59  83 114 168 194 250 268 338
#     4  12  23  37  58  90 128 155 186 242 313 362
#     4  11  23  35  62  96 126 147 183 252 318 354
#     4  10  19  37  55  90 120 147 205 239 293 344
#
# _framework density 19.185151999999999
#
# number of rings (size 3 to 8) (size 9 to 14) (size 15 to 20)
#    0.000    1.500    3.750    4.125    7.000    0.000 
#    0.000    0.000    0.000    1.500   13.000    0.000 
#    0.000    0.000    0.000    0.000    0.000    0.000 
#
# Total GULP energy -89126.315205 kJ/mol
# GULP energy per Si atom -5570.394700 kJ/mol
# Density = 1.914149 g / cm^3
# Si number density = 19.185152 Si / 1000 Ang^3
#
#
#
# Elastic Constant Matrix: (Units=GPa)
#
#
# Indices 1 2 3 4 5 6 
#
# 1 74.6259 22.4846 16.7296 2.4027 7.4785 -2.4472
# 2 22.4846 121.7988 28.6732 -13.3944 3.5250 -9.4705
# 3 16.7296 28.6732 59.4250 0.2829 -2.0847 -12.3839
# 4 2.4027 -13.3944 0.2829 42.3338 2.3449 6.0413
# 5 7.4785 3.5250 -2.0847 2.3449 11.1832 0.3512
# 6 -2.4472 -9.4705 -12.3839 6.0413 0.3512 31.5167
#
#
#
# Elastic Compliance Matrix: (Units=1/GPa)
#
#
# Indices 1 2 3 4 5 6 
#
# 1 0.015941 -0.001796 -0.004130 -0.000759 -0.010684 -0.000660
# 2 -0.001796 0.010100 -0.004394 0.003445 -0.003541 0.000548
# 3 -0.004130 -0.004394 0.021977 -0.002842 0.008606 0.007443
# 4 -0.000759 0.003445 -0.002842 0.025843 -0.006369 -0.005023
# 5 -0.010684 -0.003541 0.008606 -0.006369 0.100570 0.001588
# 6 -0.000660 0.000548 0.007443 -0.005023 0.001588 0.035713
#
#
# Mechanical properties :
#
#
# Convention : Reuss Voigt Hill
#
# Bulk Modulus (GPa) = 36.52566 43.51384 40.01975
# Shear Modulus (GPa) = 20.84110 29.53757 25.18934
#
# Velocity S-wave (km/s) = 3.29950 3.92804 3.62741
# Velocity P-wave (km/s) = 5.79616 6.58049 6.20074
#
# Compressibility (1/GPa) = 0.02737801
#
# Stress axis : x y z
#
# Youngs Moduli (GPa) = 62.73282 99.00742 45.50127
#
# Poissons Ratio (x) = 0.17783 0.18791
# Poissons Ratio (y) = 0.11268 0.19994
# Poissons Ratio (z) = 0.25907 0.43506
#
# Static dielectric constant tensor:
#      x y z
#    x 1.650070 -0.009060 0.011050 
#    y -0.009060 1.787510 -0.001610 
#    z 0.011050 -0.001610 1.706720 
# 
# From -- ./inp_files/606672.got.cif
#   From: 2010.05.17/outbox.cif.g08.bks.cpg/sg2_304_cif.got.tgz:606672.got - 2010.06.03 11:33:40.
