data_PCOD9076069
_publ_section_title
;
Structure prediction by ZEFSAII (Michael W. Deem and Ramdas Pophale) SiO2 
 PCOD9076069
Probable space group: P -1
;
_chemical_formula_sum "Si O2"
_cell_formula_units_Z 16
_cell_length_a 8.912207
_cell_length_b 6.891819
_cell_length_c 14.980215
_cell_angle_alpha 117.780804
_cell_angle_beta 50.197099
_cell_angle_gamma 98.672923
_cell_volume 610.477148
_symmetry_space_group_name_H-M "P -1"
_symmetry_group_IT_number 2
_symmetry_cell_setting 'triclinic'
loop_
_space_group_symop_operation_xyz
x,y,z
-x,-y,-z
loop_
_atom_site_type_symbol
_atom_site_label
_atom_site_fract_x
_atom_site_fract_y
_atom_site_fract_z
Si Si1 0.315297 0.652991 0.481733
Si Si2 0.656965 0.731559 0.756391
Si Si3 0.493821 0.770974 0.161197
Si Si4 0.157750 0.142246 0.880064
Si Si5 0.968223 0.952616 0.751456
Si Si6 0.248907 0.755062 0.890421
Si Si7 0.806446 0.428635 0.846155
Si Si8 0.269865 0.450108 0.649891
O O1 0.291686 0.481422 0.374472
O O2 0.128042 0.864745 0.594111
O O3 0.286369 0.521035 0.556600
O O4 0.525812 0.726834 0.437901
O O5 0.437321 0.729350 0.876536
O O6 0.823627 0.776225 0.771247
O O7 0.606360 0.968027 0.768550
O O8 0.639261 0.772960 0.191583
O O9 0.313421 0.640695 0.208084
O O10 0.653563 0.629216 0.998023
O O11 0.104312 0.981055 0.789954
O O12 0.192833 0.011516 0.933315
O O13 0.946086 0.309836 0.010979
O O14 0.831337 0.197158 0.843103
O O15 0.304200 0.629783 0.749697
O O16 0.040022 0.433715 0.747984
#
# Coordination Sequence:
#
# PCOD9076069 Si02
#       8
#     2   2   2   2   2   2   2   2
#     4  10  21  37  63  83 112 151 201 237 273 330
#     4   9  20  36  58  84 116 150 191 239 284 324
#     4   9  19  37  58  81 114 156 184 227 282 355
#     4  10  18  32  60  83 113 150 188 233 285 335
#     4  11  22  36  57  86 119 151 181 242 292 331
#     4   9  17  33  56  85 110 146 193 235 275 341
#     4  10  21  38  60  84 120 149 184 236 295 339
#     4  10  19  37  60  87 105 156 199 230 275 343
#
# _framework density 26.209005000000001
#
# number of rings (size 3 to 8) (size 9 to 14) (size 15 to 20)
#    0.000    2.250    2.500    0.375    1.750    1.500 
#    0.000    5.000    5.500    0.000    0.000    0.000 
#    0.000    0.000    0.000    0.000    0.000    0.000 
#
# Total GULP energy -89194.310182 kJ/mol
# GULP energy per Si atom -5574.644386 kJ/mol
# Density = 2.614935 g / cm^3
# Si number density = 26.209005 Si / 1000 Ang^3
#
#
#
# Elastic Constant Matrix: (Units=GPa)
#
#
# Indices 1 2 3 4 5 6 
#
# 1 171.5921 45.4962 32.9213 0.4378 -3.3847 56.1969
# 2 45.4962 75.1719 26.6417 6.1871 4.0783 20.0621
# 3 32.9213 26.6417 112.0884 11.6392 4.0175 3.7762
# 4 0.4378 6.1871 11.6392 34.3463 2.6954 -15.7776
# 5 -3.3847 4.0783 4.0175 2.6954 38.2427 0.4113
# 6 56.1969 20.0621 3.7762 -15.7776 0.4113 53.5076
#
#
#
# Elastic Compliance Matrix: (Units=1/GPa)
#
#
# Indices 1 2 3 4 5 6 
#
# 1 0.010610 -0.002485 -0.001740 -0.004491 0.001826 -0.011428
# 2 -0.002485 0.017585 -0.002768 -0.004419 -0.001438 -0.005080
# 3 -0.001740 -0.002768 0.010300 -0.002223 -0.000800 0.001489
# 4 -0.004491 -0.004419 -0.002223 0.039257 -0.002654 0.018126
# 5 0.001826 -0.001438 -0.000800 -0.002654 0.026760 -0.002311
# 6 -0.011428 -0.005080 0.001489 0.018126 -0.002311 0.037853
#
#
# Mechanical properties :
#
#
# Convention : Reuss Voigt Hill
#
# Bulk Modulus (GPa) = 40.80043 63.21898 52.00970
# Shear Modulus (GPa) = 30.39120 42.13887 36.26504
#
# Velocity S-wave (km/s) = 3.40894 4.01409 3.72383
# Velocity P-wave (km/s) = 5.57635 6.75702 6.19488
#
# Compressibility (1/GPa) = 0.02450955
#
# Stress axis : x y z
#
# Youngs Moduli (GPa) = 94.24686 56.86510 97.08853
#
# Poissons Ratio (x) = 0.14129 0.16893
# Poissons Ratio (y) = 0.23418 0.26878
# Poissons Ratio (z) = 0.16398 0.15743
#
# Static dielectric constant tensor:
#      x y z
#    x 2.186230 0.008070 -0.086940 
#    y 0.008070 2.154360 0.007480 
#    z -0.086940 0.007480 2.101000 
# 
# From -- ./inp_files/556482.got.cif
#   From: 2010.05.17/outbox.cif.g08.bks.cpg/sg2_279_cif.got.tgz:556482.got - 2010.06.03 11:33:40.
