data_PCOD9076414
_publ_section_title
;
Structure prediction by ZEFSAII (Michael W. Deem and Ramdas Pophale) SiO2 
 PCOD9076414
Probable space group: P -1
;
_chemical_formula_sum "Si O2"
_cell_formula_units_Z 16
_cell_length_a 8.773804
_cell_length_b 23.896644
_cell_length_c 6.133394
_cell_angle_alpha 70.625435
_cell_angle_beta 64.869148
_cell_angle_gamma 34.433152
_cell_volume 657.873775
_symmetry_space_group_name_H-M "P -1"
_symmetry_group_IT_number 2
_symmetry_cell_setting 'triclinic'
loop_
_space_group_symop_operation_xyz
x,y,z
-x,-y,-z
loop_
_atom_site_type_symbol
_atom_site_label
_atom_site_fract_x
_atom_site_fract_y
_atom_site_fract_z
Si Si1 0.065014 0.768341 0.130802
Si Si2 0.304122 0.081258 0.201822
Si Si3 0.469115 0.923205 0.544007
Si Si4 0.077192 0.371452 0.150858
Si Si5 0.234445 0.479537 0.476966
Si Si6 0.467134 0.212375 0.503782
Si Si7 0.878436 0.367022 0.893261
Si Si8 0.554459 0.287191 0.676773
O O1 0.238577 0.659278 0.113582
O O2 0.239671 0.763510 0.180135
O O3 0.779551 0.839824 0.352848
O O4 0.964990 0.820380 0.890256
O O5 0.463019 0.088701 0.226669
O O6 0.284737 0.031615 0.444175
O O7 0.500000 0.000000 0.000000
O O8 0.358904 0.892422 0.555842
O O9 0.304403 0.283828 0.299806
O O10 0.869038 0.470237 0.288268
O O11 0.254052 0.356092 0.880996
O O12 0.905227 0.368870 0.132888
O O13 0.245284 0.536972 0.254777
O O14 0.511171 0.362235 0.487019
O O15 0.000000 0.500000 0.500000
O O16 0.618744 0.218759 0.548797
O O17 0.205231 0.268469 0.745864
#
# Coordination Sequence:
#
# PCOD9076414 Si02
#       8
#     2   2   2   2   2   2   2   2
#     4  10  21  36  52  83 113 133 173 219 275 317
#     4   9  18  35  60  83 104 138 173 212 261 323
#     4   9  18  36  62  80 104 138 176 216 257 318
#     4  10  18  33  56  73 101 145 185 221 255 304
#     4  11  19  35  54  76 102 144 193 217 255 309
#     4   9  18  33  53  81 102 138 183 214 256 314
#     4   9  19  33  54  75 102 140 182 224 254 313
#     4  11  22  33  52  80 111 142 173 225 269 307
#
# _framework density 24.320775999999999
#
# number of rings (size 3 to 8) (size 9 to 14) (size 15 to 20)
#    0.000    2.250    3.750    1.125    0.000    2.500 
#    0.000    1.250    0.000    7.500    0.000    0.000 
#    0.000    0.000    0.000    0.000    0.000    0.000 
#
# Total GULP energy -89369.915031 kJ/mol
# GULP energy per Si atom -5585.619689 kJ/mol
# Density = 2.426542 g / cm^3
# Si number density = 24.320776 Si / 1000 Ang^3
#
#
#
# Elastic Constant Matrix: (Units=GPa)
#
#
# Indices 1 2 3 4 5 6 
#
# 1 124.8311 48.6923 57.0398 -1.8415 50.7412 33.2757
# 2 48.6923 80.0205 25.9236 -4.7079 23.1720 30.8760
# 3 57.0398 25.9236 87.0219 4.0114 44.0283 13.5471
# 4 -1.8415 -4.7079 4.0114 39.4230 -4.3730 5.8366
# 5 50.7412 23.1720 44.0283 -4.3730 46.8492 14.5986
# 6 33.2757 30.8760 13.5471 5.8366 14.5986 45.5105
#
#
#
# Elastic Compliance Matrix: (Units=1/GPa)
#
#
# Indices 1 2 3 4 5 6 
#
# 1 0.017375 -0.004018 -0.003226 0.000064 -0.012200 -0.005112
# 2 -0.004018 0.019808 -0.001703 0.003866 -0.000239 -0.010413
# 3 -0.003226 -0.001703 0.023704 -0.005436 -0.019512 0.003414
# 4 0.000064 0.003866 -0.005436 0.028351 0.008038 -0.007266
# 5 -0.012200 -0.000239 -0.019512 0.008038 0.054936 -0.003763
# 6 -0.005112 -0.010413 0.003414 -0.007266 -0.003763 0.033898
#
#
# Mechanical properties :
#
#
# Convention : Reuss Voigt Hill
#
# Bulk Modulus (GPa) = 23.26031 61.68722 42.47376
# Shear Modulus (GPa) = 23.77563 37.03773 30.40668
#
# Velocity S-wave (km/s) = 3.13003 3.90665 3.53970
# Velocity P-wave (km/s) = 4.75894 6.76522 5.84875
#
# Compressibility (1/GPa) = 0.04299169
#
# Stress axis : x y z
#
# Youngs Moduli (GPa) = 57.55292 50.48433 42.18637
#
# Poissons Ratio (x) = 0.20287 0.13610
# Poissons Ratio (y) = 0.23128 0.07186
# Poissons Ratio (z) = 0.18568 0.08599
#
# Static dielectric constant tensor:
#      x y z
#    x 2.036900 0.026950 -0.059590 
#    y 0.026950 1.939530 -0.013270 
#    z -0.059590 -0.013270 1.971390 
# 
# From -- ./inp_files/37438.got.cif
#   From: 2010.05.17/outbox.cif.g08.bks.cpg/sg2_19_cif.got.tgz:37438.got - 2010.06.03 11:33:40.
