data_PCOD9076117
_publ_section_title
;
Structure prediction by ZEFSAII (Michael W. Deem and Ramdas Pophale) SiO2 
 PCOD9076117
Probable space group: P -1
;
_chemical_formula_sum "Si O2"
_cell_formula_units_Z 14
_cell_length_a 11.441457
_cell_length_b 15.196093
_cell_length_c 17.076297
_cell_angle_alpha 24.753426
_cell_angle_beta 33.286540
_cell_angle_gamma 24.807193
_cell_volume 520.443464
_symmetry_space_group_name_H-M "P -1"
_symmetry_group_IT_number 2
_symmetry_cell_setting 'triclinic'
loop_
_space_group_symop_operation_xyz
x,y,z
-x,-y,-z
loop_
_atom_site_type_symbol
_atom_site_label
_atom_site_fract_x
_atom_site_fract_y
_atom_site_fract_z
Si Si1 0.754941 0.222138 0.015568
Si Si2 0.203828 0.435146 0.785659
Si Si3 0.487958 0.568674 0.172872
Si Si4 0.357618 0.770820 0.504866
Si Si5 0.257568 0.329187 0.270414
Si Si6 0.055062 0.595075 0.471275
Si Si7 0.316069 0.119146 0.127674
O O1 0.582545 0.143729 0.215191
O O2 0.537257 0.457334 0.882966
O O3 0.826821 0.372543 0.907835
O O4 0.000000 0.000000 0.000000
O O5 0.348276 0.558619 0.633668
O O6 0.932434 0.636447 0.721019
O O7 0.437211 0.166963 0.820925
O O8 0.145342 0.327280 0.982212
O O9 0.684844 0.275319 0.344060
O O10 0.190650 0.723194 0.259715
O O11 0.566078 0.755112 0.995264
O O12 0.672043 0.664447 0.423885
O O13 0.808101 0.956894 0.675072
O O14 0.183988 0.257007 0.449994
O O15 0.000000 0.500000 0.500000
#
# Coordination Sequence:
#
# PCOD9076117 Si02
#       7
#     2   2   2   2   2   2   2
#     4  11  24  41  66 100 133 175 231 287 341 411
#     4  10  19  33  58  98 131 177 223 272 333 410
#     4   9  20  36  62  92 127 177 219 271 339 388
#     4   9  19  34  60  95 134 179 215 273 345 386
#     4  11  22  40  67  97 135 181 224 281 350 402
#     4  10  19  37  64  95 132 182 216 271 345 397
#     4  10  18  32  61  94 131 177 223 270 330 405
#
# _framework density 26.900137000000001
#
# number of rings (size 3 to 8) (size 9 to 14) (size 15 to 20)
#    0.857    1.143    2.857    1.286    0.000    0.000 
#    0.000    3.571    0.000   10.286    0.000    0.000 
#    0.000    0.000    0.000    0.000    0.000    0.000 
#
# Total GULP energy -78333.049701 kJ/mol
# GULP energy per Si atom -5595.217836 kJ/mol
# Density = 2.683891 g / cm^3
# Si number density = 26.900137 Si / 1000 Ang^3
#
#
#
# Elastic Constant Matrix: (Units=GPa)
#
#
# Indices 1 2 3 4 5 6 
#
# 1 169.1474 29.3969 56.0591 2.2820 9.8627 6.5911
# 2 29.3969 94.6521 40.4812 18.7087 -10.8801 3.2316
# 3 56.0591 40.4812 171.2458 -2.3027 35.1149 5.6756
# 4 2.2820 18.7087 -2.3027 48.9268 -3.1340 3.4580
# 5 9.8627 -10.8801 35.1149 -3.1340 57.6141 0.8735
# 6 6.5911 3.2316 5.6756 3.4580 0.8735 35.9274
#
#
#
# Elastic Compliance Matrix: (Units=1/GPa)
#
#
# Indices 1 2 3 4 5 6 
#
# 1 0.006799 -0.001376 -0.001809 0.000165 -0.000300 -0.000846
# 2 -0.001376 0.014372 -0.004073 -0.005293 0.005144 -0.000013
# 3 -0.001809 -0.004073 0.008586 0.001737 -0.005588 -0.000690
# 4 0.000165 -0.005293 0.001737 0.022624 -0.000825 -0.001986
# 5 -0.000300 0.005144 -0.005588 -0.000825 0.021740 0.000026
# 6 -0.000846 -0.000013 -0.000690 -0.001986 0.000026 0.028290
#
#
# Mechanical properties :
#
#
# Convention : Reuss Voigt Hill
#
# Bulk Modulus (GPa) = 65.60552 76.32441 70.96497
# Shear Modulus (GPa) = 40.98142 49.10086 45.04114
#
# Velocity S-wave (km/s) = 3.90739 4.27699 4.09636
# Velocity P-wave (km/s) = 6.69316 7.26808 6.98654
#
# Compressibility (1/GPa) = 0.01524262
#
# Stress axis : x y z
#
# Youngs Moduli (GPa) = 147.08432 69.57965 116.46351
#
# Poissons Ratio (x) = 0.09575 0.21064
# Poissons Ratio (y) = 0.20240 0.47430
# Poissons Ratio (z) = 0.26603 0.28337
#
# Static dielectric constant tensor:
#      x y z
#    x 2.098530 -0.160630 0.028310 
#    y -0.160630 2.200650 0.020460 
#    z 0.028310 0.020460 2.102470 
# 
# From -- ./inp_files/569509.got.cif
#   From: 2010.05.17/outbox.cif.g08.bks.cpg/sg2_285_cif.got.tgz:569509.got - 2010.06.03 11:33:40.
