data_PCOD9076344
_publ_section_title
;
Structure prediction by ZEFSAII (Michael W. Deem and Ramdas Pophale) SiO2 
 PCOD9076344
Probable space group: P -1
;
_chemical_formula_sum "Si O2"
_cell_formula_units_Z 16
_cell_length_a 16.365673
_cell_length_b 27.545808
_cell_length_c 23.676682
_cell_angle_alpha 166.510898
_cell_angle_beta 25.856200
_cell_angle_gamma 162.915116
_cell_volume 659.645200
_symmetry_space_group_name_H-M "P -1"
_symmetry_group_IT_number 2
_symmetry_cell_setting 'triclinic'
loop_
_space_group_symop_operation_xyz
x,y,z
-x,-y,-z
loop_
_atom_site_type_symbol
_atom_site_label
_atom_site_fract_x
_atom_site_fract_y
_atom_site_fract_z
Si Si1 0.807474 0.520056 0.667018
Si Si2 0.359418 0.402177 0.756067
Si Si3 0.484445 0.713327 0.807966
Si Si4 0.310097 0.330271 0.265452
Si Si5 0.937179 0.385240 0.975052
Si Si6 0.442333 0.126887 0.560015
Si Si7 0.239997 0.950870 0.677443
Si Si8 0.019216 0.955700 0.704691
O O1 0.485822 0.294600 0.580452
O O2 0.693828 0.387583 0.651029
O O3 0.000000 0.500000 0.500000
O O4 0.050025 0.921068 0.964875
O O5 0.504910 0.538114 0.757319
O O6 0.031997 0.231795 0.759097
O O7 0.536880 0.714355 0.042653
O O8 0.816058 0.978422 0.871788
O O9 0.234704 0.436191 0.602414
O O10 0.381800 0.821759 0.031309
O O11 0.488159 0.533727 0.650562
O O12 0.100645 0.350579 0.422822
O O13 0.183954 0.754463 0.270310
O O14 0.000000 0.500000 0.000000
O O15 0.605034 0.136809 0.518975
O O16 0.266325 0.171014 0.744218
O O17 0.178369 0.006757 0.719524
#
# Coordination Sequence:
#
# PCOD9076344 Si02
#       8
#     2   2   2   2   2   2   2   2
#     4  11  21  33  52  81 116 139 170 227 280 316
#     4  10  19  33  54  83 107 141 182 216 269 326
#     4   9  18  32  56  79 101 140 182 218 262 310
#     4  10  18  33  55  78 110 140 180 215 269 329
#     4  10  18  33  58  77 104 139 181 220 261 320
#     4  10  20  33  53  81 109 138 178 226 276 307
#     4   9  17  31  53  78 102 138 182 224 256 313
#     4   9  18  33  54  80 106 137 186 226 257 313
#
# _framework density 24.255462999999999
#
# number of rings (size 3 to 8) (size 9 to 14) (size 15 to 20)
#    0.000    2.250    1.250    4.125    0.000    0.000 
#    0.000    6.250    0.000    1.500    0.000    0.000 
#    0.000    0.000    0.000    0.000    0.000    0.000 
#
# Total GULP energy -89295.470932 kJ/mol
# GULP energy per Si atom -5580.966933 kJ/mol
# Density = 2.420026 g / cm^3
# Si number density = 24.255463 Si / 1000 Ang^3
#
#
#
# Elastic Constant Matrix: (Units=GPa)
#
#
# Indices 1 2 3 4 5 6 
#
# 1 120.8551 44.7112 17.0817 -16.3502 16.8288 13.4117
# 2 44.7112 195.1330 50.3563 -58.4124 -12.1102 -1.2137
# 3 17.0817 50.3563 55.4013 -23.9474 -2.6232 2.3072
# 4 -16.3502 -58.4124 -23.9474 46.6174 4.9022 -5.0270
# 5 16.8288 -12.1102 -2.6232 4.9022 31.9238 -3.1901
# 6 13.4117 -1.2137 2.3072 -5.0270 -3.1901 39.1389
#
#
#
# Elastic Compliance Matrix: (Units=1/GPa)
#
#
# Indices 1 2 3 4 5 6 
#
# 1 0.010934 -0.002629 -0.001007 0.000328 -0.007326 -0.004324
# 2 -0.002629 0.009756 -0.004049 0.009154 0.003640 0.002915
# 3 -0.001007 -0.004049 0.025315 0.007556 -0.000117 -0.000312
# 4 0.000328 0.009154 0.007556 0.037543 -0.001401 0.004434
# 5 -0.007326 0.003640 -0.000117 -0.001401 0.037322 0.005492
# 6 -0.004324 0.002915 -0.000312 0.004434 0.005492 0.028158
#
#
# Mechanical properties :
#
#
# Convention : Reuss Voigt Hill
#
# Bulk Modulus (GPa) = 32.64322 66.18752 49.41537
# Shear Modulus (GPa) = 28.63544 40.81872 34.72708
#
# Velocity S-wave (km/s) = 3.43968 4.10673 3.78792
# Velocity P-wave (km/s) = 5.40948 7.05931 6.28873
#
# Compressibility (1/GPa) = 0.03063423
#
# Stress axis : x y z
#
# Youngs Moduli (GPa) = 91.46178 102.49704 39.50282
#
# Poissons Ratio (x) = 0.26945 0.03977
# Poissons Ratio (y) = 0.24044 0.15997
# Poissons Ratio (z) = 0.09208 0.41506
#
# Static dielectric constant tensor:
#      x y z
#    x 1.949880 0.057580 0.013580 
#    y 0.057580 2.014040 -0.040760 
#    z 0.013580 -0.040760 2.037480 
# 
# From -- ./inp_files/318977.got.cif
#   From: 2010.05.17/outbox.cif.g08.bks.cpg/sg2_160_cif.got.tgz:318977.got - 2010.06.03 11:33:40.
