data_PCOD9076428
_publ_section_title
;
Structure prediction by ZEFSAII (Michael W. Deem and Ramdas Pophale) SiO2 
 PCOD9076428
Probable space group: P -1
;
_chemical_formula_sum "Si O2"
_cell_formula_units_Z 14
_cell_length_a 23.663487
_cell_length_b 9.273297
_cell_length_c 8.809982
_cell_angle_alpha 129.300010
_cell_angle_beta 35.734509
_cell_angle_gamma 149.230133
_cell_volume 564.183288
_symmetry_space_group_name_H-M "P -1"
_symmetry_group_IT_number 2
_symmetry_cell_setting 'triclinic'
loop_
_space_group_symop_operation_xyz
x,y,z
-x,-y,-z
loop_
_atom_site_type_symbol
_atom_site_label
_atom_site_fract_x
_atom_site_fract_y
_atom_site_fract_z
Si Si1 0.596231 0.517385 0.181358
Si Si2 0.171270 0.261111 0.954358
Si Si3 0.043299 0.348019 0.838674
Si Si4 0.837247 0.408109 0.954815
Si Si5 0.426208 0.135268 0.015132
Si Si6 0.291128 0.350700 0.425782
Si Si7 0.123905 0.944912 0.271878
O O1 0.500000 0.500000 0.500000
O O2 0.706304 0.542537 0.049495
O O3 0.484060 0.237641 0.130299
O O4 0.717227 0.814980 0.012395
O O5 0.255185 0.343943 0.670120
O O6 0.078794 0.308283 0.135508
O O7 0.080425 0.944113 0.988045
O O8 0.017470 0.230312 0.646740
O O9 0.000000 0.500000 0.000000
O O10 0.175659 0.553311 0.812596
O O11 0.690627 0.173992 0.014213
O O12 0.900853 0.293438 0.756312
O O13 0.351953 0.228302 0.211898
O O14 0.575041 0.335586 0.726009
O O15 0.156390 0.148097 0.463026
#
# Coordination Sequence:
#
# PCOD9076428 Si02
#       7
#     2   2   2   2   2   2   2
#     4  10  18  33  56  78 106 145 185 214 253 333
#     4  11  21  32  59  85 105 137 190 228 263 314
#     4   9  19  39  59  74 106 150 183 217 271 327
#     4  10  20  34  55  81 112 142 175 229 275 311
#     4   9  18  34  53  76 116 148 170 215 278 317
#     4   9  17  33  55  81 105 143 183 220 257 326
#     4   8  18  36  58  73 105 147 179 215 273 313
#
# _framework density 24.814633000000001
#
# number of rings (size 3 to 8) (size 9 to 14) (size 15 to 20)
#    0.000    2.571    1.429    1.286    0.000    1.143 
#    0.000    7.143    0.000    0.000    0.000    0.000 
#    0.000    0.000    0.000    0.000    0.000    0.000 
#
# Total GULP energy -78033.920144 kJ/mol
# GULP energy per Si atom -5573.851439 kJ/mol
# Density = 2.475815 g / cm^3
# Si number density = 24.814633 Si / 1000 Ang^3
#
#
#
# Elastic Constant Matrix: (Units=GPa)
#
#
# Indices 1 2 3 4 5 6 
#
# 1 214.7566 65.7986 15.6174 8.3656 10.0695 15.3980
# 2 65.7986 90.5077 21.0239 12.6818 16.8036 13.4878
# 3 15.6174 21.0239 97.2168 -5.5587 21.5416 0.9745
# 4 8.3656 12.6818 -5.5587 20.3285 1.7811 12.3744
# 5 10.0695 16.8036 21.5416 1.7811 33.7073 11.6923
# 6 15.3980 13.4878 0.9745 12.3744 11.6923 64.9632
#
#
#
# Elastic Compliance Matrix: (Units=1/GPa)
#
#
# Indices 1 2 3 4 5 6 
#
# 1 0.006029 -0.004473 -0.000117 0.000675 0.000731 -0.000759
# 2 -0.004473 0.017065 -0.002324 -0.009124 -0.005287 0.000242
# 3 -0.000117 -0.002324 0.012754 0.005235 -0.007465 0.000665
# 4 0.000675 -0.009124 0.005235 0.062280 0.001335 -0.010448
# 5 0.000731 -0.005287 -0.007465 0.001335 0.038945 -0.006227
# 6 -0.000759 0.000242 0.000665 -0.010448 -0.006227 0.018624
#
#
# Mechanical properties :
#
#
# Convention : Reuss Voigt Hill
#
# Bulk Modulus (GPa) = 45.41512 67.48453 56.44983
# Shear Modulus (GPa) = 28.26982 43.80256 36.03619
#
# Velocity S-wave (km/s) = 3.37892 4.20598 3.81493
# Velocity P-wave (km/s) = 5.79347 7.13032 6.49638
#
# Compressibility (1/GPa) = 0.02201910
#
# Stress axis : x y z
#
# Youngs Moduli (GPa) = 165.85518 58.59969 78.40380
#
# Poissons Ratio (x) = 0.26214 0.00917
# Poissons Ratio (y) = 0.74194 0.18224
# Poissons Ratio (z) = 0.01940 0.13621
#
# Static dielectric constant tensor:
#      x y z
#    x 2.037440 0.041510 -0.033380 
#    y 0.041510 2.026540 0.039500 
#    z -0.033380 0.039500 1.999500 
# 
# From -- ./inp_files/171752.got.cif
#   From: 2010.05.17/outbox.cif.g08.bks.cpg/sg2_86_cif.got.tgz:171752.got - 2010.06.03 11:33:40.
