data_PCOD9076114
_publ_section_title
;
Structure prediction by ZEFSAII (Michael W. Deem and Ramdas Pophale) SiO2 
 PCOD9076114
Probable space group: P -1
;
_chemical_formula_sum "Si O2"
_cell_formula_units_Z 16
_cell_length_a 15.707080
_cell_length_b 11.724045
_cell_length_c 7.403041
_cell_angle_alpha 60.511264
_cell_angle_beta 125.119317
_cell_angle_gamma 146.840047
_cell_volume 609.761102
_symmetry_space_group_name_H-M "P -1"
_symmetry_group_IT_number 2
_symmetry_cell_setting 'triclinic'
loop_
_space_group_symop_operation_xyz
x,y,z
-x,-y,-z
loop_
_atom_site_type_symbol
_atom_site_label
_atom_site_fract_x
_atom_site_fract_y
_atom_site_fract_z
Si Si1 0.192812 0.223043 0.526573
Si Si2 0.201379 0.483107 0.818825
Si Si3 0.203720 0.202615 0.132769
Si Si4 0.500209 0.029936 0.192113
Si Si5 0.640729 0.912414 0.546598
Si Si6 0.935390 0.367794 0.710477
Si Si7 0.276971 0.036597 0.821860
Si Si8 0.094038 0.390623 0.372745
O O1 0.214418 0.222398 0.344168
O O2 0.293827 0.206244 0.760909
O O3 0.223012 0.405628 0.457376
O O4 0.000000 0.000000 0.500000
O O5 0.332843 0.725237 0.751945
O O6 0.084890 0.347774 0.608788
O O7 0.092702 0.428411 0.898266
O O8 0.273444 0.410262 0.990745
O O9 0.325268 0.198852 0.242762
O O10 0.000000 0.000000 0.000000
O O11 0.498057 0.887013 0.400864
O O12 0.366618 0.013459 0.064275
O O13 0.500000 0.000000 0.000000
O O14 0.789344 0.134892 0.649199
O O15 0.668306 0.925571 0.351996
O O16 0.887181 0.434535 0.737983
O O17 0.000000 0.500000 0.500000
O O18 0.083414 0.812997 0.769085
#
# Coordination Sequence:
#
# PCOD9076114 Si02
#       8
#     2   2   2   2   2   2   2   2
#     4   9  19  33  51  77 110 145 172 218 270 320
#     4  11  19  32  56  85 106 137 179 228 268 310
#     4  11  20  32  55  85 112 135 177 229 272 309
#     4  10  19  31  52  82 107 139 181 223 264 316
#     4  10  16  29  48  76 103 135 170 220 259 309
#     4  10  14  26  51  74  99 128 177 214 254 298
#     4   9  16  30  48  75 107 134 173 220 258 307
#     4  10  17  32  57  80 105 136 181 220 264 315
#
# _framework density 26.239787
#
# number of rings (size 3 to 8) (size 9 to 14) (size 15 to 20)
#    0.000    2.000    6.250    2.250    0.000    0.000 
#    0.000    6.875    0.000    0.000    0.000    8.750 
#    0.000    0.000    0.000    0.000    0.000    0.000 
#
# Total GULP energy -89239.959248 kJ/mol
# GULP energy per Si atom -5577.497453 kJ/mol
# Density = 2.618006 g / cm^3
# Si number density = 26.239787 Si / 1000 Ang^3
#
#
#
# Elastic Constant Matrix: (Units=GPa)
#
#
# Indices 1 2 3 4 5 6 
#
# 1 114.8507 41.0634 66.6348 -13.1819 53.7399 -40.2742
# 2 41.0634 84.3409 32.4429 -21.0727 29.3317 -34.7114
# 3 66.6348 32.4429 126.3807 -25.2709 55.9554 -14.8207
# 4 -13.1819 -21.0727 -25.2709 32.3069 -15.8010 16.2802
# 5 53.7399 29.3317 55.9554 -15.8010 67.0521 -24.6856
# 6 -40.2742 -34.7114 -14.8207 16.2802 -24.6856 41.8932
#
#
#
# Elastic Compliance Matrix: (Units=1/GPa)
#
#
# Indices 1 2 3 4 5 6 
#
# 1 0.021777 -0.000300 -0.008774 -0.010109 -0.005699 0.018153
# 2 -0.000300 0.019477 -0.002231 0.003881 -0.000656 0.013165
# 3 -0.008774 -0.002231 0.017907 0.011393 -0.009366 -0.013895
# 4 -0.010109 0.003881 0.011393 0.049309 0.000704 -0.021218
# 5 -0.005699 -0.000656 -0.009366 0.000704 0.030920 0.008610
# 6 0.018153 0.013165 -0.013895 -0.021218 0.008610 0.060633
#
#
# Mechanical properties :
#
#
# Convention : Reuss Voigt Hill
#
# Bulk Modulus (GPa) = 27.35941 67.31716 47.33828
# Shear Modulus (GPa) = 21.29303 40.61252 30.95277
#
# Velocity S-wave (km/s) = 2.85174 3.93841 3.43827
# Velocity P-wave (km/s) = 4.61438 6.81115 5.81740
#
# Compressibility (1/GPa) = 0.03655050
#
# Stress axis : x y z
#
# Youngs Moduli (GPa) = 45.92015 51.34155 55.84385
#
# Poissons Ratio (x) = 0.01542 0.48998
# Poissons Ratio (y) = 0.01379 0.12459
# Poissons Ratio (z) = 0.40291 0.11455
#
# Static dielectric constant tensor:
#      x y z
#    x 2.233060 -0.008760 0.078090 
#    y -0.008760 2.038690 0.044020 
#    z 0.078090 0.044020 2.254860 
# 
# From -- ./inp_files/331780.got.cif
#   From: 2010.05.17/outbox.cif.g08.bks.cpg/sg2_166_cif.got.tgz:331780.got - 2010.06.03 11:33:40.
