data_PCOD9076844
_publ_section_title
;
Structure prediction by ZEFSAII (Michael W. Deem and Ramdas Pophale) SiO2 
 PCOD9076844
Probable space group: P -1
;
_chemical_formula_sum "Si O2"
_cell_formula_units_Z 10
_cell_length_a 11.463229
_cell_length_b 10.623816
_cell_length_c 6.242011
_cell_angle_alpha 47.221105
_cell_angle_beta 125.475600
_cell_angle_gamma 125.399652
_cell_volume 432.035287
_symmetry_space_group_name_H-M "P -1"
_symmetry_group_IT_number 2
_symmetry_cell_setting 'triclinic'
loop_
_space_group_symop_operation_xyz
x,y,z
-x,-y,-z
loop_
_atom_site_type_symbol
_atom_site_label
_atom_site_fract_x
_atom_site_fract_y
_atom_site_fract_z
Si Si1 0.245930 0.246702 0.941158
Si Si2 0.960320 0.614197 0.138637
Si Si3 0.151300 0.967568 0.792160
Si Si4 0.704304 0.469837 0.714116
Si Si5 0.582626 0.759641 0.485395
O O1 0.128820 0.264722 0.975745
O O2 0.264752 0.412807 0.606888
O O3 0.187656 0.070586 0.937943
O O4 0.395683 0.244683 0.231154
O O5 0.893507 0.245027 0.972664
O O6 0.000000 0.500000 0.500000
O O7 0.853249 0.491076 0.987436
O O8 0.293166 0.065747 0.680413
O O9 0.000000 0.000000 0.500000
O O10 0.626584 0.585636 0.649460
O O11 0.583309 0.280254 0.743016
#
# Coordination Sequence:
#
# PCOD9076844 Si02
#       5
#     2   2   2   2   2
#     4  10  18  33  61  79 106 139 186 215 271 309
#     4  11  23  36  54  81 114 143 174 222 272 317
#     4  11  19  36  56  84 106 138 185 225 257 316
#     4   9  18  34  51  83 109 138 178 222 263 318
#     4   9  18  31  57  80 108 135 181 227 260 309
#
# _framework density 23.146259000000001
#
# number of rings (size 3 to 8) (size 9 to 14) (size 15 to 20)
#    0.000    2.000    6.000    1.200    0.000    2.400 
#    0.000    1.000    0.000    2.400    0.000    0.000 
#    0.000    0.000    0.000    0.000    0.000    0.000 
#
# Total GULP energy -55851.116183 kJ/mol
# GULP energy per Si atom -5585.111618 kJ/mol
# Density = 2.309358 g / cm^3
# Si number density = 23.146259 Si / 1000 Ang^3
#
#
#
# Elastic Constant Matrix: (Units=GPa)
#
#
# Indices 1 2 3 4 5 6 
#
# 1 58.8019 48.5173 42.5919 20.6990 -0.6766 24.5279
# 2 48.5173 130.9512 105.6419 31.7931 -9.4132 43.8513
# 3 42.5919 105.6419 171.8160 29.9393 -13.5632 44.1487
# 4 20.6990 31.7931 29.9393 43.7840 -3.9650 -0.8857
# 5 -0.6766 -9.4132 -13.5632 -3.9650 24.4234 0.0744
# 6 24.5279 43.8513 44.1487 -0.8857 0.0744 58.2240
#
#
#
# Elastic Compliance Matrix: (Units=1/GPa)
#
#
# Indices 1 2 3 4 5 6 
#
# 1 0.028370 -0.005749 -0.000082 -0.009610 -0.003012 -0.007701
# 2 -0.005749 0.020185 -0.007919 -0.006465 0.002194 -0.006877
# 3 -0.000082 -0.007919 0.012236 -0.002340 0.003371 -0.003319
# 4 -0.009610 -0.006465 -0.002340 0.034033 0.001434 0.011207
# 5 -0.003012 0.002194 0.003371 0.001434 0.043820 -0.002974
# 6 -0.007701 -0.006877 -0.003319 0.011207 -0.002974 0.028290
#
#
# Mechanical properties :
#
#
# Convention : Reuss Voigt Hill
#
# Bulk Modulus (GPa) = 30.03850 83.89679 56.96765
# Shear Modulus (GPa) = 24.32704 36.27415 30.30059
#
# Velocity S-wave (km/s) = 3.24545 3.96305 3.62206
# Velocity P-wave (km/s) = 5.20094 7.56743 6.49291
#
# Compressibility (1/GPa) = 0.03329061
#
# Stress axis : x y z
#
# Youngs Moduli (GPa) = 35.24853 49.54154 81.72369
#
# Poissons Ratio (x) = 0.28483 0.00671
# Poissons Ratio (y) = 0.20266 0.64717
# Poissons Ratio (z) = 0.00289 0.39232
#
# Static dielectric constant tensor:
#      x y z
#    x 2.032580 0.012610 0.073560 
#    y 0.012610 1.855340 -0.009420 
#    z 0.073560 -0.009420 1.888590 
# 
# From -- ./inp_files/29325.got.cif
#   From: 2010.05.17/outbox.cif.g08.bks.cpg/sg2_15_cif.got.tgz:29325.got - 2010.06.03 11:33:40.
