data_PCOD9076890
_publ_section_title
;
Structure prediction by ZEFSAII (Michael W. Deem and Ramdas Pophale) SiO2 
 PCOD9076890
Probable space group: P -1
;
_chemical_formula_sum "Si O2"
_cell_formula_units_Z 14
_cell_length_a 8.550086
_cell_length_b 12.523989
_cell_length_c 12.881323
_cell_angle_alpha 39.905010
_cell_angle_beta 117.226792
_cell_angle_gamma 130.527352
_cell_volume 670.211924
_symmetry_space_group_name_H-M "P -1"
_symmetry_group_IT_number 2
_symmetry_cell_setting 'triclinic'
loop_
_space_group_symop_operation_xyz
x,y,z
-x,-y,-z
loop_
_atom_site_type_symbol
_atom_site_label
_atom_site_fract_x
_atom_site_fract_y
_atom_site_fract_z
Si Si1 0.056112 0.493999 0.403806
Si Si2 0.330436 0.773105 0.115371
Si Si3 0.630796 0.072097 0.351036
Si Si4 0.074407 0.784329 0.853496
Si Si5 0.960817 0.845284 0.463733
Si Si6 0.385695 0.676703 0.676518
Si Si7 0.316600 0.443004 0.229333
O O1 0.255771 0.680290 0.275771
O O2 0.076062 0.307787 0.522944
O O3 0.000000 0.500000 0.500000
O O4 0.857800 0.461280 0.304461
O O5 0.396102 0.641641 0.168556
O O6 0.134408 0.742329 0.013471
O O7 0.500000 0.000000 0.000000
O O8 0.725312 0.140871 0.215451
O O9 0.565323 0.211398 0.282184
O O10 0.823505 0.096545 0.459394
O O11 0.454180 0.848759 0.482711
O O12 0.873225 0.608472 0.867315
O O13 0.037201 0.964174 0.712159
O O14 0.789162 0.728530 0.587593
O O15 0.511222 0.573521 0.767224
#
# Coordination Sequence:
#
# PCOD9076890 Si02
#       7
#     2   2   2   2   2   2   2
#     4  10  24  42  61  85 125 163 204 251 303 365
#     4  11  27  44  59  85 126 169 209 245 304 366
#     4   9  17  31  60  98 122 145 191 252 303 358
#     4  11  19  38  65  92 120 158 203 255 304 357
#     4   9  17  35  63  94 118 154 206 247 297 369
#     4  10  18  33  62  94 121 146 203 249 299 349
#     4  10  19  38  64  93 122 163 201 249 301 372
#
# _framework density 20.888915999999998
#
# number of rings (size 3 to 8) (size 9 to 14) (size 15 to 20)
#    0.000    2.000    2.857    2.143    2.000    1.143 
#    0.000    8.571    0.000    0.000    0.000    0.000 
#    0.000    0.000    0.000    0.000    0.000    0.000 
#
# Total GULP energy -78217.413056 kJ/mol
# GULP energy per Si atom -5586.958075 kJ/mol
# Density = 2.084137 g / cm^3
# Si number density = 20.888916 Si / 1000 Ang^3
#
#
#
# Elastic Constant Matrix: (Units=GPa)
#
#
# Indices 1 2 3 4 5 6 
#
# 1 118.4855 38.4181 33.6073 -18.8947 -1.7972 -26.0841
# 2 38.4181 87.0898 31.4616 -22.9950 -14.1715 -17.8886
# 3 33.6073 31.4616 61.0125 -8.6623 -9.9323 -21.3431
# 4 -18.8947 -22.9950 -8.6623 31.6386 -0.5879 -5.3483
# 5 -1.7972 -14.1715 -9.9323 -0.5879 30.5365 -3.6053
# 6 -26.0841 -17.8886 -21.3431 -5.3483 -3.6053 31.4256
#
#
#
# Elastic Compliance Matrix: (Units=1/GPa)
#
#
# Indices 1 2 3 4 5 6 
#
# 1 0.012893 -0.000102 -0.001466 0.009186 0.001759 0.011413
# 2 -0.000102 0.022276 -0.000927 0.018912 0.012355 0.016603
# 3 -0.001466 -0.000927 0.027909 0.009703 0.011126 0.020138
# 4 0.009186 0.018912 0.009703 0.060133 0.018033 0.037283
# 5 0.001759 0.012355 0.011126 0.018033 0.045423 0.024330
# 6 0.011413 0.016603 0.020138 0.037283 0.024330 0.073559
#
#
# Mechanical properties :
#
#
# Convention : Reuss Voigt Hill
#
# Bulk Modulus (GPa) = 17.21501 52.61797 34.91649
# Shear Modulus (GPa) = 18.75854 29.59351 24.17603
#
# Velocity S-wave (km/s) = 2.99994 3.76800 3.40569
# Velocity P-wave (km/s) = 4.50096 6.64639 5.67597
#
# Compressibility (1/GPa) = 0.05808885
#
# Stress axis : x y z
#
# Youngs Moduli (GPa) = 77.56247 44.89058 35.83089
#
# Poissons Ratio (x) = 0.00457 0.05254
# Poissons Ratio (y) = 0.00789 0.03320
# Poissons Ratio (z) = 0.11373 0.04159
#
# Static dielectric constant tensor:
#      x y z
#    x 1.763330 -0.012080 -0.011420 
#    y -0.012080 1.765690 -0.004130 
#    z -0.011420 -0.004130 1.756550 
# 
# From -- ./inp_files/153807.got.cif
#   From: 2010.05.17/outbox.cif.g08.bks.cpg/sg2_77_cif.got.tgz:153807.got - 2010.06.03 11:33:40.
