data_PCOD9076198
_publ_section_title
;
Structure prediction by ZEFSAII (Michael W. Deem and Ramdas Pophale) SiO2 
 PCOD9076198
Probable space group: P -1
;
_chemical_formula_sum "Si O2"
_cell_formula_units_Z 14
_cell_length_a 9.801242
_cell_length_b 17.065750
_cell_length_c 16.637820
_cell_angle_alpha 152.739677
_cell_angle_beta 39.770122
_cell_angle_gamma 149.921620
_cell_volume 638.846566
_symmetry_space_group_name_H-M "P -1"
_symmetry_group_IT_number 2
_symmetry_cell_setting 'triclinic'
loop_
_space_group_symop_operation_xyz
x,y,z
-x,-y,-z
loop_
_atom_site_type_symbol
_atom_site_label
_atom_site_fract_x
_atom_site_fract_y
_atom_site_fract_z
Si Si1 0.309334 0.589647 0.931552
Si Si2 0.471587 0.826345 0.462181
Si Si3 0.307160 0.200971 0.516754
Si Si4 0.347202 0.242004 0.348519
Si Si5 0.265632 0.721317 0.913113
Si Si6 0.688761 0.589255 0.074549
Si Si7 0.896899 0.252750 0.572390
O O1 0.340157 0.417517 0.720621
O O2 0.404233 0.765670 0.978484
O O3 0.400506 0.600476 0.992254
O O4 0.000000 0.500000 0.000000
O O5 0.484883 0.811962 0.538066
O O6 0.632671 0.739304 0.280691
O O7 0.193249 0.691845 0.415956
O O8 0.640189 0.072465 0.578472
O O9 0.351043 0.198527 0.400647
O O10 0.000000 0.000000 0.500000
O O11 0.500000 0.500000 0.500000
O O12 0.497522 0.175946 0.167009
O O13 0.042386 0.151786 0.385591
O O14 0.086269 0.462692 0.734041
O O15 0.012301 0.727608 0.036842
O O16 0.500000 0.500000 0.000000
#
# Coordination Sequence:
#
# PCOD9076198 Si02
#       7
#     2   2   2   2   2   2   2
#     4   9  18  30  51  73 101 135 177 204 253 311
#     4  10  20  31  53  81 102 133 177 220 259 299
#     4  11  18  33  54  80 106 132 179 221 251 312
#     4  10  19  33  55  77 110 140 170 212 271 313
#     4  10  18  35  52  76 104 142 170 212 261 318
#     4  10  19  32  50  77 107 134 176 220 255 304
#     4  10  18  33  52  77 104 137 169 216 265 305
#
# _framework density 21.914494999999999
#
# number of rings (size 3 to 8) (size 9 to 14) (size 15 to 20)
#    0.000    2.000    5.714    0.000    0.000    0.000 
#    0.000    5.000    0.000    0.000    0.000    3.000 
#    0.000    0.000    0.000    0.000    0.000    0.000 
#
# Total GULP energy -77991.075428 kJ/mol
# GULP energy per Si atom -5570.791102 kJ/mol
# Density = 2.186462 g / cm^3
# Si number density = 21.914495 Si / 1000 Ang^3
#
#
#
# Elastic Constant Matrix: (Units=GPa)
#
#
# Indices 1 2 3 4 5 6 
#
# 1 199.8060 34.0276 28.6751 -27.1705 4.9096 -36.4079
# 2 34.0276 56.9985 14.5418 -29.4587 11.2754 -20.8519
# 3 28.6751 14.5418 81.2443 -26.2609 -11.3254 -8.4690
# 4 -27.1705 -29.4587 -26.2609 38.2208 -2.2558 12.3175
# 5 4.9096 11.2754 -11.3254 -2.2558 27.9937 -7.2939
# 6 -36.4079 -20.8519 -8.4690 12.3175 -7.2939 25.6266
#
#
#
# Elastic Compliance Matrix: (Units=1/GPa)
#
#
# Indices 1 2 3 4 5 6 
#
# 1 0.006983 -0.000034 -0.000920 0.001402 0.000921 0.009177
# 2 -0.000034 0.037347 0.001760 0.023978 -0.007927 0.017140
# 3 -0.000920 0.001760 0.017812 0.012700 0.008271 0.002261
# 4 0.001402 0.023978 0.012700 0.054554 -0.000546 -0.000677
# 5 0.000921 -0.007927 0.008271 -0.000546 0.044821 0.010611
# 6 0.009177 0.017140 0.002261 -0.000677 0.010611 0.070099
#
#
# Mechanical properties :
#
#
# Convention : Reuss Voigt Hill
#
# Bulk Modulus (GPa) = 15.68555 54.72642 35.20599
# Shear Modulus (GPa) = 19.89996 35.75517 27.82756
#
# Velocity S-wave (km/s) = 3.01669 4.04366 3.56733
# Velocity P-wave (km/s) = 4.39398 6.84313 5.75046
#
# Compressibility (1/GPa) = 0.06375294
#
# Stress axis : x y z
#
# Youngs Moduli (GPa) = 143.20502 26.77582 56.14123
#
# Poissons Ratio (x) = 0.00092 0.05166
# Poissons Ratio (y) = 0.00490 -0.09879
# Poissons Ratio (z) = 0.13179 -0.04712
#
# Static dielectric constant tensor:
#      x y z
#    x 1.908290 -0.042090 -0.006330 
#    y -0.042090 1.956240 0.017600 
#    z -0.006330 0.017600 1.883250 
# 
# From -- ./inp_files/204716.got.cif
#   From: 2010.05.17/outbox.cif.g08.bks.cpg/sg2_103_cif.got.tgz:204716.got - 2010.06.03 11:33:40.
