data_PCOD9076794
_publ_section_title
;
Structure prediction by ZEFSAII (Michael W. Deem and Ramdas Pophale) SiO2 
 PCOD9076794
Probable space group: P -1
;
_chemical_formula_sum "Si O2"
_cell_formula_units_Z 16
_cell_length_a 6.539017
_cell_length_b 7.463808
_cell_length_c 20.631629
_cell_angle_alpha 74.707689
_cell_angle_beta 44.669331
_cell_angle_gamma 91.766479
_cell_volume 646.451875
_symmetry_space_group_name_H-M "P -1"
_symmetry_group_IT_number 2
_symmetry_cell_setting 'triclinic'
loop_
_space_group_symop_operation_xyz
x,y,z
-x,-y,-z
loop_
_atom_site_type_symbol
_atom_site_label
_atom_site_fract_x
_atom_site_fract_y
_atom_site_fract_z
Si Si1 0.821101 0.643281 0.497873
Si Si2 0.902413 0.552658 0.353174
Si Si3 0.351391 0.275668 0.104997
Si Si4 0.039693 0.436740 0.804958
Si Si5 0.470886 0.068310 0.214176
Si Si6 0.731201 0.722222 0.646717
Si Si7 0.177338 0.181350 0.895913
Si Si8 0.835431 0.662073 0.985837
O O1 0.947681 0.697530 0.391095
O O2 0.461689 0.536986 0.572586
O O3 0.833605 0.782317 0.543516
O O4 0.000000 0.500000 0.500000
O O5 0.027779 0.632345 0.247183
O O6 0.042397 0.381823 0.360301
O O7 0.298985 0.107773 0.185378
O O8 0.687105 0.437456 0.019726
O O9 0.128423 0.402579 0.160281
O O10 0.296244 0.218560 0.048055
O O11 0.400597 0.553638 0.727093
O O12 0.974968 0.252336 0.884280
O O13 0.321874 0.114286 0.309267
O O14 0.573498 0.878600 0.196261
O O15 0.804169 0.241734 0.116950
O O16 0.284609 0.337586 0.914358
O O17 0.000000 0.000000 0.000000
#
# Coordination Sequence:
#
# PCOD9076794 Si02
#       8
#     2   2   2   2   2   2   2   2
#     4   8  16  30  55  92 118 136 168 233 281 331
#     4   9  17  32  56  87 115 141 178 226 284 333
#     4  11  22  34  62  77  98 146 203 242 282 325
#     4  11  21  36  55  84 107 149 194 237 275 333
#     4  11  21  39  52  80 112 150 186 238 285 333
#     4  10  18  33  60  84 116 141 187 231 276 337
#     4  10  25  40  51  73 120 154 192 240 290 321
#     4  10  23  37  53  77 106 146 196 246 282 328
#
# _framework density 24.750492000000001
#
# number of rings (size 3 to 8) (size 9 to 14) (size 15 to 20)
#    0.000    2.000    2.500    1.125    7.000    0.500 
#    2.250    0.000    0.000    0.750    0.000   29.750 
#    0.000    0.000    0.000    0.000    0.000    0.000 
#
# Total GULP energy -89291.882642 kJ/mol
# GULP energy per Si atom -5580.742665 kJ/mol
# Density = 2.469416 g / cm^3
# Si number density = 24.750492 Si / 1000 Ang^3
#
#
#
# Elastic Constant Matrix: (Units=GPa)
#
#
# Indices 1 2 3 4 5 6 
#
# 1 149.2553 52.2910 72.5130 26.5903 37.8175 -14.7077
# 2 52.2910 90.0992 42.7282 37.3699 15.7109 -7.1660
# 3 72.5130 42.7282 135.0599 42.5873 31.9423 -7.0453
# 4 26.5903 37.3699 42.5873 43.1277 14.1909 -0.0377
# 5 37.8175 15.7109 31.9423 14.1909 79.8872 5.9386
# 6 -14.7077 -7.1660 -7.0453 -0.0377 5.9386 33.1831
#
#
#
# Elastic Compliance Matrix: (Units=1/GPa)
#
#
# Indices 1 2 3 4 5 6 
#
# 1 0.011192 -0.004582 -0.004355 0.002481 -0.003368 0.003652
# 2 -0.004582 0.019804 0.001139 -0.015594 0.000410 0.002397
# 3 -0.004355 0.001139 0.013270 -0.010864 -0.001644 0.001415
# 4 0.002481 -0.015594 -0.010864 0.046453 -0.001702 -0.004217
# 5 -0.003368 0.000410 -0.001644 -0.001702 0.015325 -0.004498
# 6 0.003652 0.002397 0.001415 -0.004217 -0.004498 0.033373
#
#
# Mechanical properties :
#
#
# Convention : Reuss Voigt Hill
#
# Bulk Modulus (GPa) = 34.87683 78.83096 56.85390
# Shear Modulus (GPa) = 30.38239 45.03177 37.70708
#
# Velocity S-wave (km/s) = 3.50744 4.27010 3.90742
# Velocity P-wave (km/s) = 5.52492 7.49874 6.58619
#
# Compressibility (1/GPa) = 0.02867233
#
# Stress axis : x y z
#
# Youngs Moduli (GPa) = 89.34923 50.49407 75.35849
#
# Poissons Ratio (x) = 0.23135 0.32817
# Poissons Ratio (y) = 0.40937 -0.08587
# Poissons Ratio (z) = 0.38909 -0.05754
#
# Static dielectric constant tensor:
#      x y z
#    x 2.055700 0.054060 0.019290 
#    y 0.054060 2.029640 0.022130 
#    z 0.019290 0.022130 2.080130 
# 
# From -- ./inp_files/582035.got.cif
#   From: 2010.05.17/outbox.cif.g08.bks.cpg/sg2_292_cif.got.tgz:582035.got - 2010.06.03 11:33:40.
