data_PCOD9076030
_publ_section_title
;
Structure prediction by ZEFSAII (Michael W. Deem and Ramdas Pophale) SiO2 
 PCOD9076030
Probable space group: P -1
;
_chemical_formula_sum "Si O2"
_cell_formula_units_Z 14
_cell_length_a 7.814472
_cell_length_b 12.928393
_cell_length_c 9.335593
_cell_angle_alpha 129.962298
_cell_angle_beta 45.844134
_cell_angle_gamma 124.311765
_cell_volume 506.918022
_symmetry_space_group_name_H-M "P -1"
_symmetry_group_IT_number 2
_symmetry_cell_setting 'triclinic'
loop_
_space_group_symop_operation_xyz
x,y,z
-x,-y,-z
loop_
_atom_site_type_symbol
_atom_site_label
_atom_site_fract_x
_atom_site_fract_y
_atom_site_fract_z
Si Si1 0.682938 0.343854 0.952424
Si Si2 0.779734 0.574535 0.660446
Si Si3 0.005905 0.173671 0.081462
Si Si4 0.092497 0.220419 0.530165
Si Si5 0.338503 0.640768 0.705326
Si Si6 0.181317 0.085657 0.634264
Si Si7 0.541981 0.973408 0.121708
O O1 0.469219 0.422362 0.100796
O O2 0.759607 0.402718 0.117954
O O3 0.556477 0.185193 0.923672
O O4 0.907797 0.323923 0.704738
O O5 0.673368 0.488005 0.506677
O O6 0.000000 0.500000 0.500000
O O7 0.908989 0.736936 0.747365
O O8 0.835868 0.265545 0.178644
O O9 0.817178 0.028057 0.059491
O O10 0.216700 0.156295 0.830222
O O11 0.377638 0.276368 0.381826
O O12 0.070720 0.185352 0.682411
O O13 0.990778 0.066954 0.391030
O O14 0.595704 0.942336 0.613582
O O15 0.500000 0.000000 0.000000
#
# Coordination Sequence:
#
# PCOD9076030 Si02
#       7
#     2   2   2   2   2   2   2
#     4  11  21  39  65  92 115 155 208 254 300 350
#     4  10  26  43  58  82 127 169 206 243 294 359
#     4  11  20  38  59  89 129 160 190 247 304 365
#     4  10  19  32  63  95 115 144 204 258 296 354
#     4  11  20  39  63  87 117 164 207 247 291 353
#     4  10  18  32  58  97 122 150 186 251 316 351
#     4  11  19  35  66 100 119 149 198 254 306 362
#
# _framework density 27.617878999999999
#
# number of rings (size 3 to 8) (size 9 to 14) (size 15 to 20)
#    0.000    1.429    4.286    3.000    0.000    1.143 
#    0.000    6.429    0.000    0.000    0.000    0.000 
#    0.000    0.000    0.000    0.000    0.000    0.000 
#
# Total GULP energy -78238.295338 kJ/mol
# GULP energy per Si atom -5588.449667 kJ/mol
# Density = 2.755502 g / cm^3
# Si number density = 27.617879 Si / 1000 Ang^3
#
#
#
# Elastic Constant Matrix: (Units=GPa)
#
#
# Indices 1 2 3 4 5 6 
#
# 1 95.9621 15.4834 55.5437 -17.0873 -7.4156 20.6100
# 2 15.4834 82.5139 39.8076 -10.1521 22.6867 15.5408
# 3 55.5437 39.8076 240.1350 -9.5769 0.5085 20.7277
# 4 -17.0873 -10.1521 -9.5769 32.0199 18.0496 3.9103
# 5 -7.4156 22.6867 0.5085 18.0496 65.2140 14.3567
# 6 20.6100 15.5408 20.7277 3.9103 14.3567 49.5999
#
#
#
# Elastic Compliance Matrix: (Units=1/GPa)
#
#
# Indices 1 2 3 4 5 6 
#
# 1 0.014503 0.000311 -0.002612 0.007305 0.000827 -0.005848
# 2 0.000311 0.017089 -0.002238 0.009752 -0.007925 -0.003023
# 3 -0.002612 -0.002238 0.005145 -0.000965 0.000824 -0.000526
# 4 0.007305 0.009752 -0.000965 0.046638 -0.014313 -0.005221
# 5 0.000827 -0.007925 0.000824 -0.014313 0.022960 -0.003722
# 6 -0.005848 -0.003023 -0.000526 -0.005221 -0.003722 0.025247
#
#
# Mechanical properties :
#
#
# Convention : Reuss Voigt Hill
#
# Bulk Modulus (GPa) = 36.15453 71.14227 53.64840
# Shear Modulus (GPa) = 33.36052 49.88518 41.62285
#
# Velocity S-wave (km/s) = 3.47930 4.25463 3.88635
# Velocity P-wave (km/s) = 5.40926 7.06762 6.29330
#
# Compressibility (1/GPa) = 0.02765905
#
# Stress axis : x y z
#
# Youngs Moduli (GPa) = 68.95209 58.51802 194.37722
#
# Poissons Ratio (x) = -0.01823 0.50768
# Poissons Ratio (y) = -0.02148 0.43506
# Poissons Ratio (z) = 0.18009 0.13098
#
# Static dielectric constant tensor:
#      x y z
#    x 2.279470 -0.065870 -0.119440 
#    y -0.065870 2.209020 0.005420 
#    z -0.119440 0.005420 2.132760 
# 
# From -- ./inp_files/401400.got.cif
#   From: 2010.05.17/outbox.cif.g08.bks.cpg/sg2_201_cif.got.tgz:401400.got - 2010.06.03 11:33:40.
