data_PCOD9076726
_publ_section_title
;
Structure prediction by ZEFSAII (Michael W. Deem and Ramdas Pophale) SiO2 
 PCOD9076726
Probable space group: P -1
;
_chemical_formula_sum "Si O2"
_cell_formula_units_Z 14
_cell_length_a 12.492315
_cell_length_b 12.505838
_cell_length_c 9.300469
_cell_angle_alpha 48.843490
_cell_angle_beta 125.072441
_cell_angle_gamma 94.782849
_cell_volume 786.239507
_symmetry_space_group_name_H-M "P -1"
_symmetry_group_IT_number 2
_symmetry_cell_setting 'triclinic'
loop_
_space_group_symop_operation_xyz
x,y,z
-x,-y,-z
loop_
_atom_site_type_symbol
_atom_site_label
_atom_site_fract_x
_atom_site_fract_y
_atom_site_fract_z
Si Si1 0.143624 0.288888 0.561141
Si Si2 0.876982 0.531165 0.000890
Si Si3 0.348996 0.750618 0.232022
Si Si4 0.306930 0.468857 0.381490
Si Si5 0.313364 0.085135 0.434473
Si Si6 0.845464 0.996113 0.376316
Si Si7 0.654777 0.974349 0.826275
O O1 0.240222 0.368681 0.501802
O O2 0.140012 0.159915 0.560418
O O3 0.972085 0.431273 0.299994
O O4 0.226467 0.186296 0.856334
O O5 0.774138 0.473502 0.887128
O O6 0.776797 0.720568 0.787354
O O7 0.000000 0.500000 0.000000
O O8 0.290637 0.621353 0.324483
O O9 0.522237 0.648523 0.418506
O O10 0.327247 0.876012 0.230158
O O11 0.267006 0.853813 0.937881
O O12 0.225370 0.010977 0.520341
O O13 0.482777 0.016117 0.684564
O O14 0.322136 0.045075 0.308730
O O15 0.000000 0.000000 0.500000
#
# Coordination Sequence:
#
# PCOD9076726 Si02
#       7
#     2   2   2   2   2   2   2
#     4  10  20  36  59  84 114 148 197 232 285 333
#     4  10  18  33  59  85 109 149 187 242 272 333
#     4  10  20  33  57  87 112 148 195 235 282 330
#     4  10  18  33  60  83 114 147 193 242 274 333
#     4  11  21  38  63  82 120 151 190 233 291 340
#     4  11  21  35  59  87 112 150 195 241 274 333
#     4  10  22  39  59  88 115 154 187 232 289 350
#
# _framework density 17.806277999999999
#
# number of rings (size 3 to 8) (size 9 to 14) (size 15 to 20)
#    0.000    1.714    4.286    1.714    2.000    2.857 
#    0.000    2.857    6.286    3.429    0.000    0.000 
#    0.000    0.000    0.000    0.000    0.000    0.000 
#
# Total GULP energy -78032.427680 kJ/mol
# GULP energy per Si atom -5573.744834 kJ/mol
# Density = 1.776575 g / cm^3
# Si number density = 17.806278 Si / 1000 Ang^3
#
#
#
# Elastic Constant Matrix: (Units=GPa)
#
#
# Indices 1 2 3 4 5 6 
#
# 1 76.0385 41.8634 31.8620 11.5400 4.4205 13.8056
# 2 41.8634 108.0562 39.3068 7.9205 -5.2198 19.4616
# 3 31.8620 39.3068 137.0603 15.6389 18.8316 6.0300
# 4 11.5400 7.9205 15.6389 23.0043 1.6066 1.2927
# 5 4.4205 -5.2198 18.8316 1.6066 23.6908 -0.2357
# 6 13.8056 19.4616 6.0300 1.2927 -0.2357 29.7203
#
#
#
# Elastic Compliance Matrix: (Units=1/GPa)
#
#
# Indices 1 2 3 4 5 6 
#
# 1 0.018785 -0.005674 -0.001403 -0.006034 -0.003275 -0.004489
# 2 -0.005674 0.014059 -0.003410 0.000177 0.006797 -0.005832
# 3 -0.001403 -0.003410 0.010216 -0.004541 -0.008293 0.000944
# 4 -0.006034 0.000177 -0.004541 0.049340 0.001443 0.001474
# 5 -0.003275 0.006797 -0.008293 0.001443 0.050804 -0.000907
# 6 -0.004489 -0.005832 0.000944 0.001474 -0.000907 0.039288
#
#
# Mechanical properties :
#
#
# Convention : Reuss Voigt Hill
#
# Bulk Modulus (GPa) = 45.28252 60.80216 53.04234
# Shear Modulus (GPa) = 23.71573 29.15794 26.43684
#
# Velocity S-wave (km/s) = 3.65344 4.05100 3.85735
# Velocity P-wave (km/s) = 6.57896 7.49009 7.04926
#
# Compressibility (1/GPa) = 0.02208357
#
# Stress axis : x y z
#
# Youngs Moduli (GPa) = 53.23504 71.12769 97.88164
#
# Poissons Ratio (x) = 0.40361 0.13737
# Poissons Ratio (y) = 0.30208 0.33382
# Poissons Ratio (z) = 0.07471 0.24258
#
# Static dielectric constant tensor:
#      x y z
#    x 1.592410 0.022640 0.016140 
#    y 0.022640 1.628580 0.001320 
#    z 0.016140 0.001320 1.662890 
# 
# From -- ./inp_files/174475.got.cif
#   From: 2010.05.17/outbox.cif.g08.bks.cpg/sg2_88_cif.got.tgz:174475.got - 2010.06.03 11:33:40.
