data_PCOD9076941
_publ_section_title
;
Structure prediction by ZEFSAII (Michael W. Deem and Ramdas Pophale) SiO2 
 PCOD9076941
Probable space group: P -1
;
_chemical_formula_sum "Si O2"
_cell_formula_units_Z 14
_cell_length_a 5.699975
_cell_length_b 18.275475
_cell_length_c 11.926415
_cell_angle_alpha 147.901638
_cell_angle_beta 107.394873
_cell_angle_gamma 67.154072
_cell_volume 607.237133
_symmetry_space_group_name_H-M "P -1"
_symmetry_group_IT_number 2
_symmetry_cell_setting 'triclinic'
loop_
_space_group_symop_operation_xyz
x,y,z
-x,-y,-z
loop_
_atom_site_type_symbol
_atom_site_label
_atom_site_fract_x
_atom_site_fract_y
_atom_site_fract_z
Si Si1 0.490917 0.661248 0.245737
Si Si2 0.779229 0.419898 0.479909
Si Si3 0.934480 0.978084 0.330972
Si Si4 0.442343 0.976222 0.331333
Si Si5 0.085139 0.629488 0.322926
Si Si6 0.073044 0.661670 0.840835
Si Si7 0.446113 0.333708 0.983738
O O1 0.248820 0.692137 0.335597
O O2 0.458124 0.729644 0.205994
O O3 0.776571 0.668230 0.329937
O O4 0.500000 0.500000 0.000000
O O5 0.500000 0.500000 0.500000
O O6 0.813659 0.342706 0.503729
O O7 0.907172 0.318953 0.264585
O O8 0.910233 0.549148 0.683561
O O9 0.137584 0.029493 0.350250
O O10 0.627871 0.034778 0.353518
O O11 0.991655 0.811268 0.088017
O O12 0.000000 0.000000 0.500000
O O13 0.529610 0.802834 0.111048
O O14 0.500000 0.000000 0.500000
O O15 0.181874 0.454650 0.091878
O O16 0.352299 0.588560 0.836617
#
# Coordination Sequence:
#
# PCOD9076941 Si02
#       7
#     2   2   2   2   2   2   2
#     4  10  21  32  49  70  99 138 180 211 250 302
#     4  11  21  33  49  71 108 146 181 209 251 315
#     4   9  18  32  48  72 104 130 162 213 262 316
#     4   9  18  30  48  73 103 130 157 208 267 319
#     4  11  21  34  47  70 102 141 180 208 242 309
#     4  10  21  32  50  76 104 144 174 209 270 312
#     4  10  18  34  51  73 104 138 172 216 264 313
#
# _framework density 23.055246
#
# number of rings (size 3 to 8) (size 9 to 14) (size 15 to 20)
#    0.000    2.000    1.429    4.286    4.000    4.571 
#    0.000    0.000    0.000    0.000    0.000    0.000 
#    0.000   61.714    0.000    0.000    0.000    0.000 
#
# Total GULP energy -78031.466346 kJ/mol
# GULP energy per Si atom -5573.676168 kJ/mol
# Density = 2.300277 g / cm^3
# Si number density = 23.055246 Si / 1000 Ang^3
#
#
#
# Elastic Constant Matrix: (Units=GPa)
#
#
# Indices 1 2 3 4 5 6 
#
# 1 226.0017 48.4095 32.1437 -8.8242 5.8406 -10.1001
# 2 48.4095 53.8912 26.7322 -11.1707 -3.6294 0.4599
# 3 32.1437 26.7322 117.0748 -7.5455 -8.3220 -6.7287
# 4 -8.8242 -11.1707 -7.5455 42.8130 0.8217 -7.2840
# 5 5.8406 -3.6294 -8.3220 0.8217 43.9819 -7.1802
# 6 -10.1001 0.4599 -6.7287 -7.2840 -7.1802 38.3195
#
#
#
# Elastic Compliance Matrix: (Units=1/GPa)
#
#
# Indices 1 2 3 4 5 6 
#
# 1 0.005622 -0.004914 -0.000418 0.000041 -0.001022 0.001284
# 2 -0.004914 0.026219 -0.004265 0.004854 0.001737 -0.001111
# 3 -0.000418 -0.004265 0.009953 0.000896 0.001933 0.002221
# 4 0.000041 0.004854 0.000896 0.025650 0.000928 0.005159
# 5 -0.001022 0.001737 0.001933 0.000928 0.024139 0.004749
# 6 0.001284 -0.001111 0.002221 0.005159 0.004749 0.028709
#
#
# Mechanical properties :
#
#
# Convention : Reuss Voigt Hill
#
# Bulk Modulus (GPa) = 44.24847 67.94874 56.09860
# Shear Modulus (GPa) = 34.00917 44.33503 39.17210
#
# Velocity S-wave (km/s) = 3.84489 4.38995 4.12643
# Velocity P-wave (km/s) = 6.24059 7.43180 6.86209
#
# Compressibility (1/GPa) = 0.02259965
#
# Stress axis : x y z
#
# Youngs Moduli (GPa) = 177.86552 38.14080 100.47381
#
# Poissons Ratio (x) = 0.18744 0.04197
# Poissons Ratio (y) = 0.87411 0.42850
# Poissons Ratio (z) = 0.07430 0.16266
#
# Static dielectric constant tensor:
#      x y z
#    x 2.034540 0.037510 -0.027940 
#    y 0.037510 2.033460 0.066810 
#    z -0.027940 0.066810 1.912010 
# 
# From -- ./inp_files/79517.got.cif
#   From: 2010.05.17/outbox.cif.g08.bks.cpg/sg2_40_cif.got.tgz:79517.got - 2010.06.03 11:33:40.
