data_PCOD9076727
_publ_section_title
;
Structure prediction by ZEFSAII (Michael W. Deem and Ramdas Pophale) SiO2 
 PCOD9076727
Probable space group: P -1
;
_chemical_formula_sum "Si O2"
_cell_formula_units_Z 16
_cell_length_a 16.978028
_cell_length_b 9.199336
_cell_length_c 16.242601
_cell_angle_alpha 131.907109
_cell_angle_beta 156.500029
_cell_angle_gamma 44.225586
_cell_volume 705.030952
_symmetry_space_group_name_H-M "P -1"
_symmetry_group_IT_number 2
_symmetry_cell_setting 'triclinic'
loop_
_space_group_symop_operation_xyz
x,y,z
-x,-y,-z
loop_
_atom_site_type_symbol
_atom_site_label
_atom_site_fract_x
_atom_site_fract_y
_atom_site_fract_z
Si Si1 0.741297 0.364448 0.662627
Si Si2 0.140228 0.020565 0.467610
Si Si3 0.066498 0.526562 0.953596
Si Si4 0.299824 0.056362 0.974048
Si Si5 0.674007 0.167218 0.252069
Si Si6 0.060270 0.596957 0.488287
Si Si7 0.500809 0.681452 0.134643
Si Si8 0.754674 0.439844 0.030124
O O1 0.500000 0.500000 0.500000
O O2 0.743603 0.136267 0.552406
O O3 0.849891 0.477075 0.742049
O O4 0.884287 0.355515 0.876652
O O5 0.269752 0.931184 0.641632
O O6 0.049618 0.269549 0.486563
O O7 0.920188 0.978660 0.237100
O O8 0.246677 0.295361 0.035327
O O9 0.106914 0.628449 0.945845
O O10 0.344161 0.988607 0.896023
O O11 0.464429 0.889340 0.126968
O O12 0.465173 0.372813 0.128997
O O13 0.863769 0.245827 0.435544
O O14 0.723923 0.589540 0.358010
O O15 0.891824 0.530507 0.253939
O O16 0.319486 0.713831 0.041725
O O17 0.500000 0.500000 0.000000
#
# Coordination Sequence:
#
# PCOD9076727 Si02
#       8
#     2   2   2   2   2   2   2   2
#     4  10  21  38  58  85 119 148 201 255 304 338
#     4  10  18  33  59  85 118 156 188 244 301 343
#     4  10  22  38  61  90 113 154 202 252 291 347
#     4  10  19  38  59  86 129 156 193 235 296 360
#     4  10  19  33  53  87 127 151 183 237 299 354
#     4  10  20  34  56  85 122 158 192 228 288 368
#     4  11  21  42  54  89 133 164 185 232 295 366
#     4  11  22  36  60  89 124 158 196 238 295 357
#
# _framework density 22.694039
#
# number of rings (size 3 to 8) (size 9 to 14) (size 15 to 20)
#    0.000    1.750    3.750    4.500    0.000    4.500 
#    0.000    1.250    0.000    6.750    0.000   31.500 
#    0.000    0.000    0.000    0.000    0.000    0.000 
#
# Total GULP energy -89431.784212 kJ/mol
# GULP energy per Si atom -5589.486513 kJ/mol
# Density = 2.264239 g / cm^3
# Si number density = 22.694039 Si / 1000 Ang^3
#
#
#
# Elastic Constant Matrix: (Units=GPa)
#
#
# Indices 1 2 3 4 5 6 
#
# 1 137.6640 31.2517 26.2424 15.4351 19.5409 7.0208
# 2 31.2517 66.2060 28.9409 -3.7244 -6.2832 4.8067
# 3 26.2424 28.9409 98.4047 -3.3411 4.3620 -0.5930
# 4 15.4351 -3.7244 -3.3411 31.3459 -6.3144 3.8765
# 5 19.5409 -6.2832 4.3620 -6.3144 44.9270 5.2871
# 6 7.0208 4.8067 -0.5930 3.8765 5.2871 39.3359
#
#
#
# Elastic Compliance Matrix: (Units=1/GPa)
#
#
# Indices 1 2 3 4 5 6 
#
# 1 0.010379 -0.005417 -0.001141 -0.007168 -0.006208 0.000333
# 2 -0.005417 0.021059 -0.004862 0.006480 0.007069 -0.003268
# 3 -0.001141 -0.004862 0.011992 0.000856 -0.001354 0.001076
# 4 -0.007168 0.006480 0.000856 0.038875 0.009954 -0.004668
# 5 -0.006208 0.007069 -0.001354 0.009954 0.028010 -0.004522
# 6 0.000333 -0.003268 0.001076 -0.004668 -0.004522 0.026846
#
#
# Mechanical properties :
#
#
# Convention : Reuss Voigt Hill
#
# Bulk Modulus (GPa) = 48.56633 52.79388 50.68011
# Shear Modulus (GPa) = 29.96435 37.51108 33.73771
#
# Velocity S-wave (km/s) = 3.63762 4.07000 3.85987
# Velocity P-wave (km/s) = 6.25220 6.73798 6.49963
#
# Compressibility (1/GPa) = 0.02059039
#
# Stress axis : x y z
#
# Youngs Moduli (GPa) = 96.34684 47.48462 83.38976
#
# Poissons Ratio (x) = 0.25723 0.09514
# Poissons Ratio (y) = 0.52193 0.40544
# Poissons Ratio (z) = 0.10992 0.23087
#
# Static dielectric constant tensor:
#      x y z
#    x 1.943060 0.025780 0.080020 
#    y 0.025780 1.897800 -0.002290 
#    z 0.080020 -0.002290 1.865450 
# 
# From -- ./inp_files/528993.got.cif
#   From: 2010.05.17/outbox.cif.g08.bks.cpg/sg2_265_cif.got.tgz:528993.got - 2010.06.03 11:33:40.
