data_PCOD9076348
_publ_section_title
;
Structure prediction by ZEFSAII (Michael W. Deem and Ramdas Pophale) SiO2 
 PCOD9076348
Probable space group: P -1
;
_chemical_formula_sum "Si O2"
_cell_formula_units_Z 13
_cell_length_a 24.255069
_cell_length_b 11.082199
_cell_length_c 16.608543
_cell_angle_alpha 22.074135
_cell_angle_beta 163.267719
_cell_angle_gamma 150.736691
_cell_volume 478.305830
_symmetry_space_group_name_H-M "P -1"
_symmetry_group_IT_number 2
_symmetry_cell_setting 'triclinic'
loop_
_space_group_symop_operation_xyz
x,y,z
-x,-y,-z
loop_
_atom_site_type_symbol
_atom_site_label
_atom_site_fract_x
_atom_site_fract_y
_atom_site_fract_z
Si Si1 0.500000 0.500000 0.500000
Si Si2 0.175111 0.131592 0.966800
Si Si3 0.373073 0.368751 0.242228
Si Si4 0.182859 0.173566 0.361043
Si Si5 0.899812 0.689545 0.545753
Si Si6 0.652634 0.707493 0.047381
Si Si7 0.656658 0.602175 0.391085
O O1 0.336650 0.501613 0.197743
O O2 0.375227 0.261545 0.530293
O O3 0.289865 0.777071 0.323098
O O4 0.223127 0.201852 0.082860
O O5 0.282682 0.341381 0.923964
O O6 0.947541 0.125732 0.635585
O O7 0.449633 0.628645 0.128313
O O8 0.555473 0.082308 0.692894
O O9 0.207387 0.284681 0.418954
O O10 0.025199 0.417601 0.939972
O O11 0.695290 0.764537 0.260684
O O12 0.846617 0.623636 0.421754
O O13 0.000000 0.000000 0.500000
O O14 0.500000 0.500000 0.000000
#
# Coordination Sequence:
#
# PCOD9076348 Si02
#       7
#     1   2   2   2   2   2   2
#     4  10  22  38  56  74 100 146 198 220 238 310
#     4  10  18  33  55  79 106 140 178 218 266 316
#     4  10  20  36  56  78 108 144 179 214 261 322
#     4  10  20  35  54  77 108 144 182 218 259 317
#     4  11  18  28  52  83 110 132 167 222 273 314
#     4  11  20  32  56  89 113 128 164 228 285 316
#     4   9  17  32  51  78 109 137 171 216 272 317
#
# _framework density 27.179262000000001
#
# number of rings (size 3 to 8) (size 9 to 14) (size 15 to 20)
#    0.000    1.846    0.000   10.154    0.000    0.615 
#    0.000    0.000    0.000   35.077    0.000    0.000 
#    0.000    0.000    0.000    0.000    0.000    0.000 
#
# Total GULP energy -72391.985390 kJ/mol
# GULP energy per Si atom -5568.614261 kJ/mol
# Density = 2.711740 g / cm^3
# Si number density = 27.179262 Si / 1000 Ang^3
#
#
#
# Elastic Constant Matrix: (Units=GPa)
#
#
# Indices 1 2 3 4 5 6 
#
# 1 125.1671 40.2184 22.9432 10.3312 -27.2820 18.3218
# 2 40.2184 95.0677 11.3204 32.6339 -10.9709 25.6421
# 3 22.9432 11.3204 91.8250 35.7518 -14.0818 -32.9378
# 4 10.3312 32.6339 35.7518 58.6953 -22.0470 -5.7761
# 5 -27.2820 -10.9709 -14.0818 -22.0470 55.3683 9.1383
# 6 18.3218 25.6421 -32.9378 -5.7761 9.1383 60.0510
#
#
#
# Elastic Compliance Matrix: (Units=1/GPa)
#
#
# Indices 1 2 3 4 5 6 
#
# 1 0.012225 -0.004127 -0.005699 0.005669 0.006939 -0.005604
# 2 -0.004127 0.017466 0.000227 -0.010364 -0.001513 -0.006841
# 3 -0.005699 0.000227 0.020910 -0.012277 -0.004414 0.012601
# 4 0.005669 -0.010364 -0.012277 0.033268 0.011286 -0.002555
# 5 0.006939 -0.001513 -0.004414 0.011286 0.025659 -0.006711
# 6 -0.005604 -0.006841 0.012601 -0.002555 -0.006711 0.028971
#
#
# Mechanical properties :
#
#
# Convention : Reuss Voigt Hill
#
# Bulk Modulus (GPa) = 31.84352 51.22486 41.53419
# Shear Modulus (GPa) = 29.73325 50.66145 40.19735
#
# Velocity S-wave (km/s) = 3.31111 4.32206 3.84991
# Velocity P-wave (km/s) = 5.13415 6.61777 5.92260
#
# Compressibility (1/GPa) = 0.03140357
#
# Stress axis : x y z
#
# Youngs Moduli (GPa) = 81.80143 57.25428 47.82515
#
# Poissons Ratio (x) = 0.23627 0.27255
# Poissons Ratio (y) = 0.33756 -0.01087
# Poissons Ratio (z) = 0.46618 -0.01301
#
# Static dielectric constant tensor:
#      x y z
#    x 2.799180 0.161710 0.986250 
#    y 0.161710 2.282110 0.153820 
#    z 0.986250 0.153820 3.255430 
# 
# From -- ./inp_files/162351.got.cif
#   From: 2010.05.17/outbox.cif.g08.bks.cpg/sg2_82_cif.got.tgz:162351.got - 2010.06.03 11:33:40.
