data_PCOD9076484
_publ_section_title
;
Structure prediction by ZEFSAII (Michael W. Deem and Ramdas Pophale) SiO2 
 PCOD9076484
Probable space group: P -1
;
_chemical_formula_sum "Si O2"
_cell_formula_units_Z 16
_cell_length_a 19.589910
_cell_length_b 8.273424
_cell_length_c 12.988643
_cell_angle_alpha 98.321691
_cell_angle_beta 45.250495
_cell_angle_gamma 58.543640
_cell_volume 681.345695
_symmetry_space_group_name_H-M "P -1"
_symmetry_group_IT_number 2
_symmetry_cell_setting 'triclinic'
loop_
_space_group_symop_operation_xyz
x,y,z
-x,-y,-z
loop_
_atom_site_type_symbol
_atom_site_label
_atom_site_fract_x
_atom_site_fract_y
_atom_site_fract_z
Si Si1 0.840924 0.944655 0.925300
Si Si2 0.518130 0.788415 0.163811
Si Si3 0.598917 0.022625 0.085488
Si Si4 0.093187 0.016542 0.347083
Si Si5 0.678982 0.556163 0.384403
Si Si6 0.937825 0.829796 0.039289
Si Si7 0.551072 0.213111 0.543064
Si Si8 0.657661 0.114538 0.822170
O O1 0.764522 0.887493 0.955760
O O2 0.627833 0.373239 0.216155
O O3 0.957870 0.752232 0.891082
O O4 0.974743 0.829374 0.681464
O O5 0.464327 0.876716 0.348933
O O6 0.342943 0.003236 0.286658
O O7 0.637839 0.772425 0.002824
O O8 0.674547 0.400111 0.959855
O O9 0.406350 0.307887 0.396195
O O10 0.570028 0.150036 0.017413
O O11 0.126971 0.123834 0.393140
O O12 0.000000 0.000000 0.500000
O O13 0.503697 0.795013 0.505822
O O14 0.810209 0.191432 0.207895
O O15 0.840752 0.455675 0.175203
O O16 0.781957 0.940081 0.269326
O O17 0.500000 0.500000 0.000000
#
# Coordination Sequence:
#
# PCOD9076484 Si02
#       8
#     2   2   2   2   2   2   2   2
#     4   9  17  34  57  79 113 150 184 238 285 329
#     4  10  22  36  56  82 111 155 180 230 300 335
#     4  11  19  36  58  81 116 147 188 232 292 347
#     4   9  19  37  58  82 107 143 195 237 276 341
#     4  10  20  32  58  87 108 153 189 236 284 328
#     4  10  18  33  56  86 109 147 201 233 272 334
#     4  10  18  38  56  79 119 147 195 234 273 339
#     4   9  20  37  59  82 107 147 191 229 279 341
#
# _framework density 23.482937
#
# number of rings (size 3 to 8) (size 9 to 14) (size 15 to 20)
#    0.000    2.250    2.500    1.875    0.000    2.500 
#    6.750    4.375    0.000    0.000    0.000    0.000 
#    0.000    0.000    0.000    0.000    0.000    0.000 
#
# Total GULP energy -89297.955161 kJ/mol
# GULP energy per Si atom -5581.122198 kJ/mol
# Density = 2.342949 g / cm^3
# Si number density = 23.482937 Si / 1000 Ang^3
#
#
#
# Elastic Constant Matrix: (Units=GPa)
#
#
# Indices 1 2 3 4 5 6 
#
# 1 49.2243 32.4372 4.8776 -3.1167 -4.8555 -5.6091
# 2 32.4372 91.7150 18.8923 -27.1125 0.0282 5.7024
# 3 4.8776 18.8923 62.7763 -19.5610 -11.9440 -9.2851
# 4 -3.1167 -27.1125 -19.5610 45.1469 15.3008 7.6132
# 5 -4.8555 0.0282 -11.9440 15.3008 36.3681 -9.1056
# 6 -5.6091 5.7024 -9.2851 7.6132 -9.1056 30.7821
#
#
#
# Elastic Compliance Matrix: (Units=1/GPa)
#
#
# Indices 1 2 3 4 5 6 
#
# 1 0.037039 -0.020983 0.004803 -0.018550 0.019999 0.022589
# 2 -0.020983 0.028057 -0.006878 0.023282 -0.020625 -0.022955
# 3 0.004803 -0.006878 0.021353 -0.000152 0.010674 0.011785
# 4 -0.018550 0.023282 -0.000152 0.050252 -0.031035 -0.029348
# 5 0.019999 -0.020625 0.010674 -0.031035 0.055449 0.034762
# 6 0.022589 -0.022955 0.011785 -0.029348 0.034762 0.061951
#
#
# Mechanical properties :
#
#
# Convention : Reuss Voigt Hill
#
# Bulk Modulus (GPa) = 24.79440 35.12555 29.95997
# Shear Modulus (GPa) = 15.94069 32.29333 24.11701
#
# Velocity S-wave (km/s) = 2.60824 3.71237 3.20816
# Velocity P-wave (km/s) = 4.43306 5.77633 5.14869
#
# Compressibility (1/GPa) = 0.04033169
#
# Stress axis : x y z
#
# Youngs Moduli (GPa) = 26.99869 35.64110 46.83193
#
# Poissons Ratio (x) = 0.74787 -0.22493
# Poissons Ratio (y) = 0.56653 0.32212
# Poissons Ratio (z) = -0.12967 0.24515
#
# Static dielectric constant tensor:
#      x y z
#    x 1.932370 0.002100 0.031540 
#    y 0.002100 1.898100 0.051720 
#    z 0.031540 0.051720 1.922520 
# 
# From -- ./inp_files/317166.got.cif
#   From: 2010.05.17/outbox.cif.g08.bks.cpg/sg2_159_cif.got.tgz:317166.got - 2010.06.03 11:33:40.
