data_PCOD9076620
_publ_section_title
;
Structure prediction by ZEFSAII (Michael W. Deem and Ramdas Pophale) SiO2 
 PCOD9076620
Probable space group: P -1
;
_chemical_formula_sum "Si O2"
_cell_formula_units_Z 14
_cell_length_a 7.363282
_cell_length_b 10.733040
_cell_length_c 17.084360
_cell_angle_alpha 46.925391
_cell_angle_beta 82.209667
_cell_angle_gamma 119.390824
_cell_volume 578.366464
_symmetry_space_group_name_H-M "P -1"
_symmetry_group_IT_number 2
_symmetry_cell_setting 'triclinic'
loop_
_space_group_symop_operation_xyz
x,y,z
-x,-y,-z
loop_
_atom_site_type_symbol
_atom_site_label
_atom_site_fract_x
_atom_site_fract_y
_atom_site_fract_z
Si Si1 0.410409 0.122704 0.771042
Si Si2 0.817433 0.781583 0.029792
Si Si3 0.772046 0.043312 0.423934
Si Si4 0.909025 0.761184 0.511825
Si Si5 0.777379 0.569031 0.446131
Si Si6 0.705105 0.048368 0.877524
Si Si7 0.157637 0.542199 0.755327
O O1 0.594435 0.411234 0.684135
O O2 0.580828 0.256692 0.619540
O O3 0.477136 0.996431 0.864480
O O4 0.056646 0.910542 0.891554
O O5 0.605838 0.779838 0.016141
O O6 0.700128 0.510970 0.182759
O O7 0.000000 0.000000 0.000000
O O8 0.864352 0.929858 0.433736
O O9 0.404223 0.762897 0.577564
O O10 0.866583 0.292900 0.272602
O O11 0.913363 0.146574 0.459343
O O12 0.019839 0.782489 0.411469
O O13 0.500000 0.500000 0.500000
O O14 0.979297 0.727493 0.289563
O O15 0.836372 0.241268 0.864577
#
# Coordination Sequence:
#
# PCOD9076620 Si02
#       7
#     2   2   2   2   2   2   2
#     4  10  20  34  53  87 108 137 177 222 279 317
#     4  10  21  34  51  81 116 141 173 221 277 323
#     4  10  18  35  52  73 112 138 183 220 248 326
#     4   9  19  32  52  83 101 137 180 220 266 309
#     4  10  18  33  58  82 110 137 177 228 275 310
#     4  11  19  36  55  86 110 137 177 227 277 316
#     4  10  20  33  54  79 104 145 176 215 274 313
#
# _framework density 24.206104
#
# number of rings (size 3 to 8) (size 9 to 14) (size 15 to 20)
#    0.857    1.143    2.857    3.000    0.000    2.286 
#    5.143    0.000    0.000    1.714    0.000    0.000 
#    0.000    0.000    0.000    0.000    0.000    0.000 
#
# Total GULP energy -78059.599432 kJ/mol
# GULP energy per Si atom -5575.685674 kJ/mol
# Density = 2.415101 g / cm^3
# Si number density = 24.206104 Si / 1000 Ang^3
#
#
#
# Elastic Constant Matrix: (Units=GPa)
#
#
# Indices 1 2 3 4 5 6 
#
# 1 116.7725 0.3437 38.3577 -16.9356 49.2216 -22.6155
# 2 0.3437 33.1328 12.7221 -2.6971 5.0627 -5.0458
# 3 38.3577 12.7221 99.1105 -5.5061 37.9505 -19.5747
# 4 -16.9356 -2.6971 -5.5061 31.0166 -11.7412 3.1206
# 5 49.2216 5.0627 37.9505 -11.7412 63.9550 -9.0049
# 6 -22.6155 -5.0458 -19.5747 3.1206 -9.0049 24.3730
#
#
#
# Elastic Compliance Matrix: (Units=1/GPa)
#
#
# Indices 1 2 3 4 5 6 
#
# 1 0.015367 0.003391 -0.000372 0.003894 -0.009668 0.010592
# 2 0.003391 0.032922 -0.003494 0.002809 -0.001762 0.006145
# 3 -0.000372 -0.003494 0.015157 -0.001517 -0.007509 0.008524
# 4 0.003894 0.002809 -0.001517 0.035966 0.004277 -0.000048
# 5 -0.009668 -0.001762 -0.007509 0.004277 0.027655 -0.005697
# 6 0.010592 0.006145 0.008524 -0.000048 -0.005697 0.056876
#
#
# Mechanical properties :
#
#
# Convention : Reuss Voigt Hill
#
# Bulk Modulus (GPa) = 16.00125 39.09588 27.54857
# Shear Modulus (GPa) = 24.30412 37.04173 30.67293
#
# Velocity S-wave (km/s) = 3.17211 3.91610 3.56358
# Velocity P-wave (km/s) = 4.47673 6.05261 5.32331
#
# Compressibility (1/GPa) = 0.06249511
#
# Stress axis : x y z
#
# Youngs Moduli (GPa) = 65.07248 30.37510 65.97640
#
# Poissons Ratio (x) = -0.10300 0.02457
# Poissons Ratio (y) = -0.22065 0.23052
# Poissons Ratio (z) = 0.02423 0.10613
#
# Static dielectric constant tensor:
#      x y z
#    x 2.015490 -0.020650 0.038470 
#    y -0.020650 1.946760 0.027450 
#    z 0.038470 0.027450 1.990830 
# 
# From -- ./inp_files/515965.got.cif
#   From: 2010.05.17/outbox.cif.g08.bks.cpg/sg2_258_cif.got.tgz:515965.got - 2010.06.03 11:33:40.
