data_PCOD9076812
_publ_section_title
;
Structure prediction by ZEFSAII (Michael W. Deem and Ramdas Pophale) SiO2 
 PCOD9076812
Probable space group: P -1
;
_chemical_formula_sum "Si O2"
_cell_formula_units_Z 11
_cell_length_a 7.631148
_cell_length_b 7.803718
_cell_length_c 11.655800
_cell_angle_alpha 52.268227
_cell_angle_beta 86.604887
_cell_angle_gamma 54.826757
_cell_volume 399.893014
_symmetry_space_group_name_H-M "P -1"
_symmetry_group_IT_number 2
_symmetry_cell_setting 'triclinic'
loop_
_space_group_symop_operation_xyz
x,y,z
-x,-y,-z
loop_
_atom_site_type_symbol
_atom_site_label
_atom_site_fract_x
_atom_site_fract_y
_atom_site_fract_z
Si Si1 0.164514 0.035025 0.550718
Si Si2 0.440989 0.796997 0.426542
Si Si3 0.500000 0.500000 0.000000
Si Si4 0.746928 0.701795 0.266324
Si Si5 0.675411 0.163121 0.915435
Si Si6 0.031480 0.840822 0.829463
O O1 0.008949 0.381764 0.402085
O O2 0.408170 0.834215 0.549077
O O3 0.000000 0.000000 0.500000
O O4 0.144780 0.959666 0.712954
O O5 0.500000 0.500000 0.500000
O O6 0.628041 0.798272 0.358222
O O7 0.176742 0.080997 0.272128
O O8 0.610930 0.403096 0.907703
O O9 0.280894 0.505413 0.969105
O O10 0.559549 0.706608 0.201738
O O11 0.750117 0.910378 0.103940
O O12 0.886888 0.023185 0.874139
#
# Coordination Sequence:
#
# PCOD9076812 Si02
#       6
#     2   2   1   2   2   2
#     4  10  18  33  60  89 112 153 196 246 295 345
#     4  10  18  33  64  93 117 145 200 255 300 340
#     4  12  24  40  58  84 130 166 200 224 312 364
#     4  10  20  38  63  93 122 144 205 257 298 341
#     4  10  23  39  60  90 122 161 193 253 296 358
#     4  10  22  36  61  86 117 162 200 241 291 366
#
# _framework density 27.507359000000001
#
# number of rings (size 3 to 8) (size 9 to 14) (size 15 to 20)
#    0.000    1.818    3.636    2.727    2.545    1.455 
#    0.000    9.091    0.000    3.273    0.000    0.000 
#    0.000    0.000    0.000    0.000    0.000    0.000 
#
# Total GULP energy -61292.039533 kJ/mol
# GULP energy per Si atom -5572.003594 kJ/mol
# Density = 2.744475 g / cm^3
# Si number density = 27.507359 Si / 1000 Ang^3
#
#
#
# Elastic Constant Matrix: (Units=GPa)
#
#
# Indices 1 2 3 4 5 6 
#
# 1 94.0436 34.7270 21.1778 6.7528 2.8003 -15.3714
# 2 34.7270 178.2089 99.7396 62.8827 -7.0780 -64.3785
# 3 21.1778 99.7396 49.0807 16.3266 -94.6379 -7.3794
# 4 6.7528 62.8827 16.3266 64.7127 -23.2171 -8.9831
# 5 2.8003 -7.0780 -94.6379 -23.2171 8.2509 11.2694
# 6 -15.3714 -64.3785 -7.3794 -8.9831 11.2694 31.6384
#
#
#
# Elastic Compliance Matrix: (Units=1/GPa)
#
#
# Indices 1 2 3 4 5 6 
#
# 1 0.011559 -0.002714 0.000256 0.001467 0.000070 0.000545
# 2 -0.002714 0.014988 0.004532 -0.007009 0.014531 0.023071
# 3 0.000256 0.004532 0.001761 -0.005802 -0.006637 0.010474
# 4 0.001467 -0.007009 -0.005802 0.020457 -0.005996 -0.006958
# 5 0.000070 0.014531 -0.006637 -0.005996 0.009051 0.023129
# 6 0.000545 0.023071 0.010474 -0.006958 0.023129 0.071047
#
#
# Mechanical properties :
#
#
# Convention : Reuss Voigt Hill
#
# Bulk Modulus (GPa) = 30.80899 70.29133 50.55016
# Shear Modulus (GPa) = 36.89126 31.96631 34.42879
#
# Velocity S-wave (km/s) = 3.66613 3.41266 3.54166
# Velocity P-wave (km/s) = 5.39864 6.41385 5.92801
#
# Compressibility (1/GPa) = 0.03245806
#
# Stress axis : x y z
#
# Youngs Moduli (GPa) = 86.50894 66.71853 567.95859
#
# Poissons Ratio (x) = 0.18106 -0.14549
# Poissons Ratio (y) = 0.23476 -2.57418
# Poissons Ratio (z) = -0.02216 -0.30239
#
# Static dielectric constant tensor:
#      x y z
#    x 1.684760 0.720750 -0.707020 
#    y 0.720750 1.262130 0.959540 
#    z -0.707020 0.959540 1.368640 
# 
# From -- ./inp_files/375408.got.cif
#   From: 2010.05.17/outbox.cif.g08.bks.cpg/sg2_188_cif.got.tgz:375408.got - 2010.06.03 11:33:40.
