data_PCOD9076637
_publ_section_title
;
Structure prediction by ZEFSAII (Michael W. Deem and Ramdas Pophale) SiO2 
 PCOD9076637
Probable space group: P -1
;
_chemical_formula_sum "Si O2"
_cell_formula_units_Z 16
_cell_length_a 26.948276
_cell_length_b 8.511880
_cell_length_c 9.559272
_cell_angle_alpha 96.454946
_cell_angle_beta 123.656181
_cell_angle_gamma 132.005865
_cell_volume 846.361393
_symmetry_space_group_name_H-M "P -1"
_symmetry_group_IT_number 2
_symmetry_cell_setting 'triclinic'
loop_
_space_group_symop_operation_xyz
x,y,z
-x,-y,-z
loop_
_atom_site_type_symbol
_atom_site_label
_atom_site_fract_x
_atom_site_fract_y
_atom_site_fract_z
Si Si1 0.951386 0.797762 0.266737
Si Si2 0.580441 0.340414 0.120770
Si Si3 0.160706 0.031084 0.542737
Si Si4 0.441829 0.101908 0.620440
Si Si5 0.200073 0.024509 0.313296
Si Si6 0.295336 0.290262 0.054461
Si Si7 0.729901 0.051717 0.807552
Si Si8 0.801114 0.694705 0.864247
O O1 0.821616 0.397093 0.053693
O O2 0.912322 0.833589 0.091716
O O3 0.000000 0.000000 0.500000
O O4 0.054808 0.912439 0.391930
O O5 0.498720 0.256330 0.880092
O O6 0.706277 0.575630 0.257771
O O7 0.647795 0.593497 0.376450
O O8 0.500000 0.000000 0.000000
O O9 0.134630 0.862533 0.347581
O O10 0.201305 0.039698 0.750196
O O11 0.564047 0.334461 0.743678
O O12 0.384470 0.123499 0.462733
O O13 0.326983 0.705641 0.410188
O O14 0.163449 0.098473 0.181191
O O15 0.191029 0.855292 0.180426
O O16 0.233554 0.282734 0.051043
O O17 0.307963 0.167242 0.160268
#
# Coordination Sequence:
#
# PCOD9076637 Si02
#       8
#     2   2   2   2   2   2   2   2
#     4  11  22  40  59  81 114 146 193 240 280 331
#     4   9  17  35  59  82 117 144 182 224 283 333
#     4   9  20  36  60  80 113 149 194 219 286 333
#     4  10  18  33  58  84 116 148 188 227 277 336
#     4   9  20  38  56  87 112 146 189 223 289 332
#     4  10  19  36  54  85 112 151 189 228 279 340
#     4  10  23  36  57  83 114 149 188 236 282 324
#     4  10  19  34  60  83 112 150 187 235 277 325
#
# _framework density 18.904454000000001
#
# number of rings (size 3 to 8) (size 9 to 14) (size 15 to 20)
#    0.750    1.500    2.500    0.750    0.000    2.000 
#    0.000    1.250    5.500    0.000    0.000    0.000 
#    0.000    0.000    0.000    0.000    0.000    0.000 
#
# Total GULP energy -89096.330940 kJ/mol
# GULP energy per Si atom -5568.520684 kJ/mol
# Density = 1.886143 g / cm^3
# Si number density = 18.904454 Si / 1000 Ang^3
#
#
#
# Elastic Constant Matrix: (Units=GPa)
#
#
# Indices 1 2 3 4 5 6 
#
# 1 40.8131 3.3349 20.0729 -9.9877 3.0101 -1.8520
# 2 3.3349 26.4645 17.1883 -16.0316 6.2562 -5.9414
# 3 20.0729 17.1883 96.9937 -17.3753 3.5018 -7.2812
# 4 -9.9877 -16.0316 -17.3753 26.8694 -4.5720 -0.0606
# 5 3.0101 6.2562 3.5018 -4.5720 37.8298 -1.9072
# 6 -1.8520 -5.9414 -7.2812 -0.0606 -1.9072 19.2446
#
#
#
# Elastic Compliance Matrix: (Units=1/GPa)
#
#
# Indices 1 2 3 4 5 6 
#
# 1 0.029609 0.008147 -0.005054 0.012338 -0.001576 0.003335
# 2 0.008147 0.070931 -0.005167 0.041046 -0.005918 0.020270
# 3 -0.005054 -0.005167 0.013122 0.003638 0.000631 0.002957
# 4 0.012338 0.041046 0.003638 0.068851 0.000998 0.015552
# 5 -0.001576 -0.005918 0.000631 0.000998 0.027651 0.001003
# 6 0.003335 0.020270 0.002957 0.015552 0.001003 0.059809
#
#
# Mechanical properties :
#
#
# Convention : Reuss Voigt Hill
#
# Bulk Modulus (GPa) = 9.13135 27.27372 18.20253
# Shear Modulus (GPa) = 16.09651 25.03378 20.56514
#
# Velocity S-wave (km/s) = 2.92116 3.64294 3.30183
# Velocity P-wave (km/s) = 4.02719 5.67037 4.91790
#
# Compressibility (1/GPa) = 0.10951288
#
# Stress axis : x y z
#
# Youngs Moduli (GPa) = 33.77390 14.09824 76.20513
#
# Poissons Ratio (x) = -0.11485 0.38512
# Poissons Ratio (y) = -0.27514 0.39378
# Poissons Ratio (z) = 0.17068 0.07285
#
# Static dielectric constant tensor:
#      x y z
#    x 1.640990 0.016230 -0.012400 
#    y 0.016230 1.644350 -0.013830 
#    z -0.012400 -0.013830 1.701110 
# 
# From -- ./inp_files/264664.got.cif
#   From: 2010.05.17/outbox.cif.g08.bks.cpg/sg2_133_cif.got.tgz:264664.got - 2010.06.03 11:33:40.
