data_PCOD9076876
_publ_section_title
;
Structure prediction by ZEFSAII (Michael W. Deem and Ramdas Pophale) SiO2 
 PCOD9076876
Probable space group: P -1
;
_chemical_formula_sum "Si O2"
_cell_formula_units_Z 16
_cell_length_a 7.273755
_cell_length_b 11.628704
_cell_length_c 17.827837
_cell_angle_alpha 50.548578
_cell_angle_beta 105.670710
_cell_angle_gamma 66.827976
_cell_volume 728.466606
_symmetry_space_group_name_H-M "P -1"
_symmetry_group_IT_number 2
_symmetry_cell_setting 'triclinic'
loop_
_space_group_symop_operation_xyz
x,y,z
-x,-y,-z
loop_
_atom_site_type_symbol
_atom_site_label
_atom_site_fract_x
_atom_site_fract_y
_atom_site_fract_z
Si Si1 0.994969 0.069260 0.584624
Si Si2 0.018299 0.825755 0.815491
Si Si3 0.609523 0.605685 0.046138
Si Si4 0.654507 0.926475 0.139508
Si Si5 0.588210 0.371151 0.269310
Si Si6 0.586757 0.179393 0.747730
Si Si7 0.081991 0.792701 0.130045
Si Si8 0.192064 0.601991 0.447993
O O1 0.798321 0.224391 0.425908
O O2 0.965660 0.225296 0.570939
O O3 0.895821 0.992574 0.661465
O O4 0.312826 0.825043 0.691255
O O5 0.114992 0.607501 0.885967
O O6 0.318630 0.726774 0.918089
O O7 0.814294 0.960362 0.809594
O O8 0.631762 0.492170 0.171678
O O9 0.551040 0.811203 0.972427
O O10 0.501679 0.866168 0.172540
O O11 0.805358 0.867899 0.100710
O O12 0.948397 0.751345 0.296043
O O13 0.266027 0.582357 0.180569
O O14 0.709130 0.264193 0.757311
O O15 0.309845 0.375095 0.583533
O O16 0.000000 0.000000 0.000000
O O17 0.500000 0.500000 0.500000
#
# Coordination Sequence:
#
# PCOD9076876 Si02
#       8
#     2   2   2   2   2   2   2   2
#     4  10  18  33  62  87 113 157 199 238 301 355
#     4  10  19  36  62  87 117 157 196 251 300 355
#     4  10  19  37  60  87 120 155 201 240 303 364
#     4  12  24  38  62  92 118 158 203 252 304 356
#     4  10  20  33  59  88 114 158 200 238 295 362
#     4  12  24  38  62  92 120 154 204 255 300 354
#     4  12  22  41  60  85 121 162 196 246 302 358
#     4  12  19  39  64  88 121 156 197 253 306 353
#
# _framework density 21.963943
#
# number of rings (size 3 to 8) (size 9 to 14) (size 15 to 20)
#    0.000    1.000    7.500    0.375    0.000    1.000 
#    0.000    0.000    0.000    0.750    0.000    0.000 
#    0.000    0.000    0.000    0.000    0.000    0.000 
#
# Total GULP energy -89239.850968 kJ/mol
# GULP energy per Si atom -5577.490685 kJ/mol
# Density = 2.191395 g / cm^3
# Si number density = 21.963943 Si / 1000 Ang^3
#
#
#
# Elastic Constant Matrix: (Units=GPa)
#
#
# Indices 1 2 3 4 5 6 
#
# 1 78.3802 41.4514 13.1082 -11.5053 -10.3700 -16.2063
# 2 41.4514 113.0783 22.6166 -24.1943 6.6345 -35.3452
# 3 13.1082 22.6166 126.5874 7.5181 -14.0078 -6.9092
# 4 -11.5053 -24.1943 7.5181 58.7025 -8.6539 5.7552
# 5 -10.3700 6.6345 -14.0078 -8.6539 21.3881 1.4521
# 6 -16.2063 -35.3452 -6.9092 5.7552 1.4521 29.0617
#
#
#
# Elastic Compliance Matrix: (Units=1/GPa)
#
#
# Indices 1 2 3 4 5 6 
#
# 1 0.018442 -0.006703 0.000567 0.002481 0.012317 0.001160
# 2 -0.006703 0.019181 -0.003151 0.003525 -0.011107 0.018698
# 3 0.000567 -0.003151 0.009156 -0.001208 0.006858 -0.001443
# 4 0.002481 0.003525 -0.001208 0.020117 0.007388 0.001031
# 5 0.012317 -0.011107 0.006858 0.007388 0.064311 -0.009685
# 6 0.001160 0.018698 -0.001443 0.001031 -0.009685 0.057734
#
#
# Mechanical properties :
#
#
# Convention : Reuss Voigt Hill
#
# Bulk Modulus (GPa) = 35.45420 52.48867 43.97144
# Shear Modulus (GPa) = 23.05036 37.88845 30.46941
#
# Velocity S-wave (km/s) = 3.24306 4.15785 3.72862
# Velocity P-wave (km/s) = 5.49548 6.85564 6.21290
#
# Compressibility (1/GPa) = 0.02820540
#
# Stress axis : x y z
#
# Youngs Moduli (GPa) = 54.22379 52.13474 109.22093
#
# Poissons Ratio (x) = 0.34945 -0.06191
# Poissons Ratio (y) = 0.36346 0.34412
# Poissons Ratio (z) = -0.03073 0.16426
#
# Static dielectric constant tensor:
#      x y z
#    x 1.859420 0.016400 0.067690 
#    y 0.016400 1.846490 0.090300 
#    z 0.067690 0.090300 1.972390 
# 
# From -- ./inp_files/517776.got.cif
#   From: 2010.05.17/outbox.cif.g08.bks.cpg/sg2_259_cif.got.tgz:517776.got - 2010.06.03 11:33:40.
