data_PCOD9076546
_publ_section_title
;
Structure prediction by ZEFSAII (Michael W. Deem and Ramdas Pophale) SiO2 
 PCOD9076546
Probable space group: P -1
;
_chemical_formula_sum "Si O2"
_cell_formula_units_Z 14
_cell_length_a 8.932569
_cell_length_b 9.416115
_cell_length_c 9.908500
_cell_angle_alpha 60.516959
_cell_angle_beta 105.706142
_cell_angle_gamma 135.171347
_cell_volume 507.270197
_symmetry_space_group_name_H-M "P -1"
_symmetry_group_IT_number 2
_symmetry_cell_setting 'triclinic'
loop_
_space_group_symop_operation_xyz
x,y,z
-x,-y,-z
loop_
_atom_site_type_symbol
_atom_site_label
_atom_site_fract_x
_atom_site_fract_y
_atom_site_fract_z
Si Si1 0.438953 0.724642 0.255523
Si Si2 0.248292 0.799181 0.579055
Si Si3 0.325770 0.378539 0.195373
Si Si4 0.317640 0.998031 0.080473
Si Si5 0.049767 0.886843 0.295669
Si Si6 0.313217 0.545614 0.872886
Si Si7 0.801784 0.924906 0.399125
O O1 0.320269 0.485774 0.273355
O O2 0.542994 0.737330 0.414015
O O3 0.308592 0.797480 0.197412
O O4 0.618089 0.913519 0.098431
O O5 0.215223 0.591991 0.717459
O O6 0.500000 0.000000 0.500000
O O7 0.092225 0.748398 0.446579
O O8 0.188568 0.874374 0.656601
O O9 0.242847 0.136229 0.292052
O O10 0.567152 0.519648 0.138927
O O11 0.192251 0.375907 0.048100
O O12 0.107098 0.918327 0.137857
O O13 0.516554 0.215457 0.115325
O O14 0.850128 0.847227 0.314532
O O15 0.000000 0.000000 0.500000
#
# Coordination Sequence:
#
# PCOD9076546 Si02
#       7
#     2   2   2   2   2   2   2
#     4  10  18  33  57  84 110 140 194 235 266 317
#     4  11  17  33  61  78 101 153 198 212 256 348
#     4   9  18  31  56  87 110 135 185 246 269 308
#     4   9  17  31  58  80 106 145 193 221 267 331
#     4  10  20  36  56  83 114 148 184 221 287 336
#     4   9  16  31  55  83 107 142 189 221 273 326
#     4  10  22  35  55  81 114 152 186 220 277 349
#
# _framework density 27.598703
#
# number of rings (size 3 to 8) (size 9 to 14) (size 15 to 20)
#    0.000    2.286    4.286    0.857    0.000    0.571 
#    0.000    3.571    3.143    1.714    0.000    0.000 
#    0.000    0.000    0.000    0.000    0.000    0.000 
#
# Total GULP energy -78016.931648 kJ/mol
# GULP energy per Si atom -5572.637975 kJ/mol
# Density = 2.753589 g / cm^3
# Si number density = 27.598703 Si / 1000 Ang^3
#
#
#
# Elastic Constant Matrix: (Units=GPa)
#
#
# Indices 1 2 3 4 5 6 
#
# 1 135.5691 12.6750 49.1308 0.5416 10.8296 -29.6152
# 2 12.6750 99.2765 26.9028 3.6164 15.5890 -17.7079
# 3 49.1308 26.9028 119.9323 -2.7517 34.0162 -5.1393
# 4 0.5416 3.6164 -2.7517 34.8855 -8.7988 3.3287
# 5 10.8296 15.5890 34.0162 -8.7988 54.1676 -0.4587
# 6 -29.6152 -17.7079 -5.1393 3.3287 -0.4587 39.3772
#
#
#
# Elastic Compliance Matrix: (Units=1/GPa)
#
#
# Indices 1 2 3 4 5 6 
#
# 1 0.010599 0.001310 -0.004340 -0.001399 0.000071 0.008113
# 2 0.001310 0.012191 -0.002288 -0.002760 -0.002728 0.006370
# 3 -0.004340 -0.002288 0.012271 -0.000030 -0.006208 -0.002761
# 4 -0.001399 -0.002760 -0.000030 0.030967 0.006082 -0.004844
# 5 0.000071 -0.002728 -0.006208 0.006082 0.024100 -0.002217
# 6 0.008113 0.006370 -0.002761 -0.004844 -0.002217 0.034385
#
#
# Mechanical properties :
#
#
# Convention : Reuss Voigt Hill
#
# Bulk Modulus (GPa) = 40.94283 59.13280 50.03782
# Shear Modulus (GPa) = 34.89404 43.42401 39.15903
#
# Velocity S-wave (km/s) = 3.55961 3.97092 3.77088
# Velocity P-wave (km/s) = 5.63575 6.51895 6.09338
#
# Compressibility (1/GPa) = 0.02442430
#
# Stress axis : x y z
#
# Youngs Moduli (GPa) = 94.34812 82.02892 81.49265
#
# Poissons Ratio (x) = -0.10745 0.35371
# Poissons Ratio (y) = -0.12359 0.18644
# Poissons Ratio (z) = 0.40951 0.18767
#
# Static dielectric constant tensor:
#      x y z
#    x 2.172960 0.050600 -0.229460 
#    y 0.050600 2.176720 0.041350 
#    z -0.229460 0.041350 2.423860 
# 
# From -- ./inp_files/378058.got.cif
#   From: 2010.05.17/outbox.cif.g08.bks.cpg/sg2_190_cif.got.tgz:378058.got - 2010.06.03 11:33:40.
