data_PCOD9076600
_publ_section_title
;
Structure prediction by ZEFSAII (Michael W. Deem and Ramdas Pophale) SiO2 
 PCOD9076600
Probable space group: P -1
;
_chemical_formula_sum "Si O2"
_cell_formula_units_Z 15
_cell_length_a 8.922193
_cell_length_b 12.546242
_cell_length_c 7.827756
_cell_angle_alpha 116.300431
_cell_angle_beta 119.996021
_cell_angle_gamma 105.434794
_cell_volume 529.384321
_symmetry_space_group_name_H-M "P -1"
_symmetry_group_IT_number 2
_symmetry_cell_setting 'triclinic'
loop_
_space_group_symop_operation_xyz
x,y,z
-x,-y,-z
loop_
_atom_site_type_symbol
_atom_site_label
_atom_site_fract_x
_atom_site_fract_y
_atom_site_fract_z
Si Si1 0.450193 0.828235 0.720618
Si Si2 0.446317 0.634462 0.015265
Si Si3 0.973667 0.044545 0.253497
Si Si4 0.065558 0.343203 0.150600
Si Si5 0.391515 0.311816 0.492375
Si Si6 0.100798 0.223671 0.779277
Si Si7 0.000000 0.500000 0.500000
Si Si8 0.613218 0.129597 0.909269
O O1 0.438259 0.703433 0.516277
O O2 0.329550 0.790416 0.809986
O O3 0.713781 0.944065 0.997499
O O4 0.437567 0.947833 0.696494
O O5 0.466484 0.786397 0.170726
O O6 0.207444 0.510757 0.710752
O O7 0.502919 0.601951 0.206642
O O8 0.638106 0.692537 0.029089
O O9 0.167277 0.142280 0.295836
O O10 0.018983 0.169872 0.503507
O O11 0.000256 0.929025 0.278295
O O12 0.283697 0.365939 0.350992
O O13 0.047337 0.461418 0.311852
O O14 0.841615 0.187564 0.994511
O O15 0.054361 0.322679 0.926803
#
# Coordination Sequence:
#
# PCOD9076600 Si02
#       8
#     2   2   2   2   2   2   1   2
#     4  11  19  35  56  90 128 165 181 224 282 368
#     4  10  22  42  58  86 111 158 195 255 279 352
#     4  10  18  33  57  98 121 153 185 226 266 375
#     4  11  21  41  61  84 112 158 197 256 281 343
#     4  11  21  35  64  88 119 151 205 224 291 349
#     4  10  20  35  64  87 124 154 197 219 292 352
#     4  10  26  44  60  78 116 146 208 256 316 312
#     4  10  21  35  53  85 131 159 182 228 296 334
#
# _framework density 28.334800999999999
#
# number of rings (size 3 to 8) (size 9 to 14) (size 15 to 20)
#    0.000    1.600    4.000    1.200    0.000    1.600 
#    9.600    0.000    0.000   10.400    0.000    0.000 
#    0.000    0.000    0.000    0.000    0.000    0.000 
#
# Total GULP energy -83843.813342 kJ/mol
# GULP energy per Si atom -5589.587556 kJ/mol
# Density = 2.827031 g / cm^3
# Si number density = 28.334801 Si / 1000 Ang^3
#
#
#
# Elastic Constant Matrix: (Units=GPa)
#
#
# Indices 1 2 3 4 5 6 
#
# 1 176.0925 18.8759 56.8164 0.8560 -39.4924 11.0325
# 2 18.8759 72.3614 -21.1519 12.9092 5.2843 0.7994
# 3 56.8164 -21.1519 117.2831 1.3770 -25.5967 0.3462
# 4 0.8560 12.9092 1.3770 24.7117 -11.8780 -5.1435
# 5 -39.4924 5.2843 -25.5967 -11.8780 69.5985 2.0450
# 6 11.0325 0.7994 0.3462 -5.1435 2.0450 35.8581
#
#
#
# Elastic Compliance Matrix: (Units=1/GPa)
#
#
# Indices 1 2 3 4 5 6 
#
# 1 0.008560 -0.004403 -0.004010 0.003910 0.004449 -0.002190
# 2 -0.004403 0.018833 0.004750 -0.012110 -0.004230 -0.000607
# 3 -0.004010 0.004750 0.011619 -0.002269 0.001232 0.000620
# 4 0.003910 -0.012110 -0.002269 0.053463 0.011248 0.006116
# 5 0.004449 -0.004230 0.001232 0.011248 0.019610 -0.000791
# 6 -0.002190 -0.000607 0.000620 0.006116 -0.000791 0.029491
#
#
# Mechanical properties :
#
#
# Convention : Reuss Voigt Hill
#
# Bulk Modulus (GPa) = 31.55859 52.75753 42.15806
# Shear Modulus (GPa) = 31.35496 46.78011 39.06754
#
# Velocity S-wave (km/s) = 3.33015 4.06763 3.71722
# Velocity P-wave (km/s) = 5.09396 6.38127 5.77361
#
# Compressibility (1/GPa) = 0.03168710
#
# Stress axis : x y z
#
# Youngs Moduli (GPa) = 116.81595 53.09909 86.06442
#
# Poissons Ratio (x) = 0.23381 0.34509
# Poissons Ratio (y) = 0.51437 -0.40883
# Poissons Ratio (z) = 0.46839 -0.25224
#
# Static dielectric constant tensor:
#      x y z
#    x 2.213690 0.106570 0.153290 
#    y 0.106570 2.483330 0.273260 
#    z 0.153290 0.273260 2.446640 
# 
# From -- ./inp_files/213920.got.cif
#   From: 2010.05.17/outbox.cif.g08.bks.cpg/sg2_107_cif.got.tgz:213920.got - 2010.06.03 11:33:40.
