data_PCOD9076692
_publ_section_title
;
Structure prediction by ZEFSAII (Michael W. Deem and Ramdas Pophale) SiO2 
 PCOD9076692
Probable space group: P -1
;
_chemical_formula_sum "Si O2"
_cell_formula_units_Z 16
_cell_length_a 7.559621
_cell_length_b 17.265187
_cell_length_c 5.609524
_cell_angle_alpha 99.714655
_cell_angle_beta 68.029795
_cell_angle_gamma 117.891956
_cell_volume 600.082569
_symmetry_space_group_name_H-M "P -1"
_symmetry_group_IT_number 2
_symmetry_cell_setting 'triclinic'
loop_
_space_group_symop_operation_xyz
x,y,z
-x,-y,-z
loop_
_atom_site_type_symbol
_atom_site_label
_atom_site_fract_x
_atom_site_fract_y
_atom_site_fract_z
Si Si1 0.432227 0.169238 0.443265
Si Si2 0.415319 0.596986 0.086549
Si Si3 0.010582 0.410254 0.215359
Si Si4 0.828080 0.156543 0.420495
Si Si5 0.294801 0.986365 0.246286
Si Si6 0.897842 0.320515 0.729290
Si Si7 0.520192 0.364850 0.422946
Si Si8 0.916836 0.898503 0.058379
O O1 0.668918 0.176846 0.342942
O O2 0.442265 0.260516 0.405734
O O3 0.320116 0.144944 0.745627
O O4 0.299565 0.081482 0.313532
O O5 0.206596 0.504849 0.147320
O O6 0.539701 0.610369 0.278100
O O7 0.321765 0.669064 0.161110
O O8 0.537230 0.605878 0.782542
O O9 0.011185 0.369580 0.452861
O O10 0.779612 0.411573 0.324306
O O11 0.000656 0.357382 0.951223
O O12 0.707319 0.057045 0.521513
O O13 0.867924 0.223495 0.649774
O O14 0.032348 0.160366 0.185230
O O15 0.080065 0.914893 0.201959
O O16 0.500000 0.000000 0.000000
O O17 0.000000 0.000000 0.000000
#
# Coordination Sequence:
#
# PCOD9076692 Si02
#       8
#     2   2   2   2   2   2   2   2
#     4  12  24  45  66  99 135 179 230 292 338 411
#     4  10  18  33  58  93 138 170 222 276 342 416
#     4  10  18  34  56  97 134 173 219 280 339 417
#     4  12  25  45  65  98 135 178 230 288 338 410
#     4  12  26  42  72  94 134 183 226 284 349 408
#     4  10  20  32  59  91 134 167 225 277 334 400
#     4  10  20  33  57  95 130 173 222 279 336 400
#     4  12  27  47  66  96 132 185 238 277 351 411
#
# _framework density 26.662997000000001
#
# number of rings (size 3 to 8) (size 9 to 14) (size 15 to 20)
#    0.000    1.000    5.000    5.250    5.250    1.000 
#    0.000    0.000    0.000    0.000    0.000    9.625 
#    0.000    0.000    0.000    0.000    0.000    0.000 
#
# Total GULP energy -89650.136008 kJ/mol
# GULP energy per Si atom -5603.133500 kJ/mol
# Density = 2.660231 g / cm^3
# Si number density = 26.662997 Si / 1000 Ang^3
#
#
#
# Elastic Constant Matrix: (Units=GPa)
#
#
# Indices 1 2 3 4 5 6 
#
# 1 58.4020 14.1969 48.4313 11.9866 -19.7153 -1.0158
# 2 14.1969 116.1993 30.0497 12.1713 17.3113 6.3788
# 3 48.4313 30.0497 160.4273 9.7350 26.1381 9.1404
# 4 11.9866 12.1713 9.7350 56.8493 -0.4994 14.8943
# 5 -19.7153 17.3113 26.1381 -0.4994 44.0453 8.6470
# 6 -1.0158 6.3788 9.1404 14.8943 8.6470 15.2369
#
#
#
# Elastic Compliance Matrix: (Units=1/GPa)
#
#
# Indices 1 2 3 4 5 6 
#
# 1 0.045242 -0.005286 -0.017732 -0.006015 0.032089 0.003536
# 2 -0.005286 0.010185 0.000892 -0.001289 -0.006920 0.000036
# 3 -0.017732 0.000892 0.014091 0.001631 -0.016153 -0.002436
# 4 -0.006015 -0.001289 0.001631 0.026199 0.002628 -0.027942
# 5 0.032089 -0.006920 -0.016153 0.002628 0.052911 -0.017870
# 6 0.003536 0.000036 -0.002436 -0.027942 -0.017870 0.104767
#
#
# Mechanical properties :
#
#
# Convention : Reuss Voigt Hill
#
# Bulk Modulus (GPa) = 39.58235 57.82048 48.70141
# Shear Modulus (GPa) = 16.33609 39.38303 27.85956
#
# Velocity S-wave (km/s) = 2.47794 3.84743 3.23596
# Velocity P-wave (km/s) = 4.80256 6.43970 5.68042
#
# Compressibility (1/GPa) = 0.02526379
#
# Stress axis : x y z
#
# Youngs Moduli (GPa) = 22.10354 98.18186 70.96636
#
# Poissons Ratio (x) = 0.51904 1.25841
# Poissons Ratio (y) = 0.11685 -0.06329
# Poissons Ratio (z) = 0.39195 -0.08756
#
# Static dielectric constant tensor:
#      x y z
#    x 2.123130 -0.017480 0.123720 
#    y -0.017480 2.053850 0.005700 
#    z 0.123720 0.005700 2.200980 
# 
# From -- ./inp_files/48145.got.cif
#   From: 2010.05.17/outbox.cif.g08.bks.cpg/sg2_25_cif.got.tgz:48145.got - 2010.06.03 11:33:40.
