data_PCOD9076241
_publ_section_title
;
Structure prediction by ZEFSAII (Michael W. Deem and Ramdas Pophale) SiO2 
 PCOD9076241
Probable space group: P -1
;
_chemical_formula_sum "Si O2"
_cell_formula_units_Z 16
_cell_length_a 9.862026
_cell_length_b 8.207722
_cell_length_c 16.724360
_cell_angle_alpha 136.436287
_cell_angle_beta 142.325504
_cell_angle_gamma 51.365319
_cell_volume 566.029165
_symmetry_space_group_name_H-M "P -1"
_symmetry_group_IT_number 2
_symmetry_cell_setting 'triclinic'
loop_
_space_group_symop_operation_xyz
x,y,z
-x,-y,-z
loop_
_atom_site_type_symbol
_atom_site_label
_atom_site_fract_x
_atom_site_fract_y
_atom_site_fract_z
Si Si1 0.831545 0.313059 0.831923
Si Si2 0.261122 0.782801 0.735759
Si Si3 0.678242 0.215336 0.563186
Si Si4 0.312714 0.308032 0.646803
Si Si5 0.388398 0.265201 0.973685
Si Si6 0.433994 0.781443 0.128284
Si Si7 0.781090 0.474318 0.545166
Si Si8 0.901855 0.901671 0.836536
O O1 0.803151 0.341883 0.734895
O O2 0.567714 0.316605 0.736432
O O3 0.938515 0.072689 0.840304
O O4 0.000000 0.500000 0.000000
O O5 0.163521 0.558722 0.652371
O O6 0.233120 0.694145 0.600005
O O7 0.218358 0.068201 0.818937
O O8 0.489422 0.759178 0.891385
O O9 0.731342 0.300659 0.531364
O O10 0.418194 0.311668 0.491043
O O11 0.749008 0.932737 0.505550
O O12 0.327281 0.279870 0.739313
O O13 0.558733 0.189948 0.952491
O O14 0.317833 0.543716 0.014797
O O15 0.349782 0.021702 0.221552
O O16 0.940985 0.638831 0.727651
O O17 0.000000 0.000000 0.000000
#
# Coordination Sequence:
#
# PCOD9076241 Si02
#       8
#     2   2   2   2   2   2   2   2
#     4  11  21  33  48  77 122 157 184 220 287 363
#     4  10  19  31  54  82 115 142 198 246 283 346
#     4  11  20  33  53  83 114 159 186 235 304 348
#     4  10  18  33  53  78 113 156 186 238 291 345
#     4   9  19  33  52  84 111 154 194 241 292 326
#     4   9  18  35  56  77 116 150 193 244 288 350
#     4  11  21  33  58  87 117 150 196 245 296 354
#     4  11  23  38  58  88 121 156 191 241 305 360
#
# _framework density 28.267095999999999
#
# number of rings (size 3 to 8) (size 9 to 14) (size 15 to 20)
#    0.000    1.750    3.750    2.625    1.750    1.000 
#    0.000    0.000    0.000    1.500    0.000   12.250 
#    0.000    0.000    0.000    0.000    0.000    0.000 
#
# Total GULP energy -89068.756433 kJ/mol
# GULP energy per Si atom -5566.797277 kJ/mol
# Density = 2.820276 g / cm^3
# Si number density = 28.267096 Si / 1000 Ang^3
#
#
#
# Elastic Constant Matrix: (Units=GPa)
#
#
# Indices 1 2 3 4 5 6 
#
# 1 86.7088 22.4199 44.6323 -8.8862 -20.6781 6.3640
# 2 22.4199 72.5964 41.8443 3.8148 -2.8270 19.1538
# 3 44.6323 41.8443 245.1835 -1.0519 -14.5773 18.6953
# 4 -8.8862 3.8148 -1.0519 57.6788 21.1596 -15.1842
# 5 -20.6781 -2.8270 -14.5773 21.1596 45.9978 -3.5285
# 6 6.3640 19.1538 18.6953 -15.1842 -3.5285 44.4295
#
#
#
# Elastic Compliance Matrix: (Units=1/GPa)
#
#
# Indices 1 2 3 4 5 6 
#
# 1 0.014715 -0.003542 -0.001803 0.000636 0.005598 0.000840
# 2 -0.003542 0.018244 -0.001876 -0.003912 0.000128 -0.007895
# 3 -0.001803 -0.001876 0.004861 -0.000673 0.000837 -0.001142
# 4 0.000636 -0.003912 -0.000673 0.023957 -0.010480 0.009234
# 5 0.005598 0.000128 0.000837 -0.010480 0.029161 -0.002475
# 6 0.000840 -0.007895 -0.001142 0.009234 -0.002475 0.029231
#
#
# Mechanical properties :
#
#
# Convention : Reuss Voigt Hill
#
# Bulk Modulus (GPa) = 42.77576 69.14244 55.95910
# Shear Modulus (GPa) = 35.11168 49.32737 42.21952
#
# Velocity S-wave (km/s) = 3.52822 4.18191 3.86890
# Velocity P-wave (km/s) = 5.63590 6.91602 6.30851
#
# Compressibility (1/GPa) = 0.02337773
#
# Stress axis : x y z
#
# Youngs Moduli (GPa) = 67.95673 54.81369 205.72826
#
# Poissons Ratio (x) = 0.19418 0.37085
# Poissons Ratio (y) = 0.24074 0.38592
# Poissons Ratio (z) = 0.12250 0.10282
#
# Static dielectric constant tensor:
#      x y z
#    x 2.498510 -0.254550 0.144460 
#    y -0.254550 2.447750 -0.159430 
#    z 0.144460 -0.159430 2.321960 
# 
# From -- ./inp_files/570263.got.cif
#   From: 2010.05.17/outbox.cif.g08.bks.cpg/sg2_286_cif.got.tgz:570263.got - 2010.06.03 11:33:40.
