data_PCOD9076781
_publ_section_title
;
Structure prediction by ZEFSAII (Michael W. Deem and Ramdas Pophale) SiO2 
 PCOD9076781
Probable space group: P -1
;
_chemical_formula_sum "Si O2"
_cell_formula_units_Z 14
_cell_length_a 17.428845
_cell_length_b 13.650599
_cell_length_c 7.898986
_cell_angle_alpha 134.730247
_cell_angle_beta 125.816789
_cell_angle_gamma 25.361167
_cell_volume 563.842001
_symmetry_space_group_name_H-M "P -1"
_symmetry_group_IT_number 2
_symmetry_cell_setting 'triclinic'
loop_
_space_group_symop_operation_xyz
x,y,z
-x,-y,-z
loop_
_atom_site_type_symbol
_atom_site_label
_atom_site_fract_x
_atom_site_fract_y
_atom_site_fract_z
Si Si1 0.633828 0.961714 0.263807
Si Si2 0.652477 0.499387 0.376616
Si Si3 0.092111 0.576125 0.226016
Si Si4 0.863709 0.604852 0.583956
Si Si5 0.532883 0.121406 0.955120
Si Si6 0.895156 0.012678 0.273790
Si Si7 0.791315 0.404596 0.093613
O O1 0.520367 0.975062 0.212831
O O2 0.553482 0.190473 0.546630
O O3 0.806858 0.655010 0.051668
O O4 0.580306 0.093447 0.173927
O O5 0.765903 0.480742 0.600154
O O6 0.751391 0.363781 0.157142
O O7 0.699189 0.307523 0.316244
O O8 0.046874 0.561502 0.328609
O O9 0.924979 0.846857 0.235663
O O10 0.777338 0.578787 0.353427
O O11 0.000000 0.500000 0.500000
O O12 0.707107 0.905599 0.798433
O O13 0.367613 0.413853 0.027126
O O14 0.000000 0.000000 0.500000
O O15 0.019355 0.841185 0.058218
#
# Coordination Sequence:
#
# PCOD9076781 Si02
#       7
#     2   2   2   2   2   2   2
#     4  10  14  29  50  75 105 128 163 214 266 289
#     4  10  17  26  45  81 106 125 163 218 263 299
#     4   9  16  31  50  69 107 136 164 212 258 301
#     4  10  21  33  49  78 111 139 167 209 263 304
#     4  10  16  29  54  74 103 130 165 215 265 291
#     4  10  19  30  48  76 107 136 167 210 270 304
#     4  11  19  30  51  79 108 130 170 222 253 296
#
# _framework density 24.829651999999999
#
# number of rings (size 3 to 8) (size 9 to 14) (size 15 to 20)
#    0.000    2.000    7.143    1.714    0.000    0.000 
#    0.000    0.714    0.000    0.000    0.000   46.000 
#    0.000    0.000    0.000    0.000    0.000    0.000 
#
# Total GULP energy -78069.070309 kJ/mol
# GULP energy per Si atom -5576.362165 kJ/mol
# Density = 2.477314 g / cm^3
# Si number density = 24.829652 Si / 1000 Ang^3
#
#
#
# Elastic Constant Matrix: (Units=GPa)
#
#
# Indices 1 2 3 4 5 6 
#
# 1 61.6124 49.1542 21.4127 3.1607 -33.6952 16.3944
# 2 49.1542 81.2656 4.1949 4.4005 2.9830 44.7533
# 3 21.4127 4.1949 77.8102 2.3968 -27.4359 3.2188
# 4 3.1607 4.4005 2.3968 10.1515 4.0928 12.6130
# 5 -33.6952 2.9830 -27.4359 4.0928 32.5448 -10.1491
# 6 16.3944 44.7533 3.2188 12.6130 -10.1491 23.7560
#
#
#
# Elastic Compliance Matrix: (Units=1/GPa)
#
#
# Indices 1 2 3 4 5 6 
#
# 1 0.029692 0.002550 -0.004628 0.038285 0.008953 -0.041169
# 2 0.002550 0.001841 0.005187 -0.031406 0.016318 0.017715
# 3 -0.004628 0.005187 0.016371 0.000625 0.006471 -0.006364
# 4 0.038285 -0.031406 0.000625 0.080298 0.034421 0.004731
# 5 0.008953 0.016318 0.006471 0.034421 0.025545 -0.045159
# 6 -0.041169 0.017715 -0.006364 0.004731 -0.045159 0.016191
#
#
# Mechanical properties :
#
#
# Convention : Reuss Voigt Hill
#
# Bulk Modulus (GPa) = 18.47625 41.13464 29.80545
# Shear Modulus (GPa) = 27.50860 23.01889 25.26375
#
# Velocity S-wave (km/s) = 3.33211 3.04809 3.19326
# Velocity P-wave (km/s) = 4.71819 5.38428 5.06221
#
# Compressibility (1/GPa) = 0.05412352
#
# Stress axis : x y z
#
# Youngs Moduli (GPa) = 33.67946 543.05766 61.08196
#
# Poissons Ratio (x) = -1.38465 0.28267
# Poissons Ratio (y) = -0.08587 -0.31686
# Poissons Ratio (z) = 0.15586 -2.81708
#
# Static dielectric constant tensor:
#      x y z
#    x 2.035230 -0.079320 -0.026380 
#    y -0.079320 2.108620 0.055590 
#    z -0.026380 0.055590 2.037500 
# 
# From -- ./inp_files/347039.got.cif
#   From: 2010.05.17/outbox.cif.g08.bks.cpg/sg2_174_cif.got.tgz:347039.got - 2010.06.03 11:33:40.
