data_PCOD9076672
_publ_section_title
;
Structure prediction by ZEFSAII (Michael W. Deem and Ramdas Pophale) SiO2 
 PCOD9076672
Probable space group: P -1
;
_chemical_formula_sum "Si O2"
_cell_formula_units_Z 12
_cell_length_a 15.578931
_cell_length_b 7.666750
_cell_length_c 12.304184
_cell_angle_alpha 133.110239
_cell_angle_beta 144.764757
_cell_angle_gamma 61.311223
_cell_volume 608.230773
_symmetry_space_group_name_H-M "P -1"
_symmetry_group_IT_number 2
_symmetry_cell_setting 'triclinic'
loop_
_space_group_symop_operation_xyz
x,y,z
-x,-y,-z
loop_
_atom_site_type_symbol
_atom_site_label
_atom_site_fract_x
_atom_site_fract_y
_atom_site_fract_z
Si Si1 0.743573 0.984566 0.252829
Si Si2 0.365088 0.232348 0.310253
Si Si3 0.976002 0.664920 0.361258
Si Si4 0.464878 0.750641 0.713469
Si Si5 0.070895 0.905383 0.924082
Si Si6 0.069779 0.295738 0.925514
O O1 0.675468 0.139097 0.339295
O O2 0.860213 0.170526 0.376902
O O3 0.840237 0.791272 0.316824
O O4 0.605137 0.850538 0.979925
O O5 0.428351 0.457143 0.549070
O O6 0.489045 0.169130 0.328501
O O7 0.248414 0.338825 0.154636
O O8 0.252652 0.011731 0.157162
O O9 0.963126 0.382060 0.249775
O O10 0.961465 0.691322 0.227061
O O11 0.012163 0.042023 0.819282
O O12 0.000000 0.000000 0.000000
O O13 0.000000 0.500000 0.000000
#
# Coordination Sequence:
#
# PCOD9076672 Si02
#       6
#     2   2   2   2   2   2
#     4  10  21  34  61  81 118 162 189 227 292 349
#     4   9  20  34  60  86 111 149 194 244 285 329
#     4  11  20  38  56  92 113 148 197 240 284 341
#     4  10  18  38  58  82 116 160 191 229 289 352
#     4  10  19  33  58  91 116 143 189 251 288 330
#     4  10  18  33  58  89 112 142 184 243 293 320
#
# _framework density 19.729353
#
# number of rings (size 3 to 8) (size 9 to 14) (size 15 to 20)
#    1.000    1.000    3.333    2.000    0.000    0.000 
#    0.000    9.167    0.000    2.000    0.000    0.000 
#    0.000    0.000    0.000    0.000    0.000    0.000 
#
# Total GULP energy -66880.159866 kJ/mol
# GULP energy per Si atom -5573.346656 kJ/mol
# Density = 1.968445 g / cm^3
# Si number density = 19.729353 Si / 1000 Ang^3
#
#
#
# Elastic Constant Matrix: (Units=GPa)
#
#
# Indices 1 2 3 4 5 6 
#
# 1 88.0965 39.8682 3.5553 4.5543 6.1806 -26.6989
# 2 39.8682 124.4500 24.3440 27.6172 12.4234 -8.3474
# 3 3.5553 24.3440 72.1379 12.7432 9.8314 1.3461
# 4 4.5543 27.6172 12.7432 30.6306 3.2061 2.7079
# 5 6.1806 12.4234 9.8314 3.2061 32.9404 1.0669
# 6 -26.6989 -8.3474 1.3461 2.7079 1.0669 44.3109
#
#
#
# Elastic Compliance Matrix: (Units=1/GPa)
#
#
# Indices 1 2 3 4 5 6 
#
# 1 0.016251 -0.004796 0.000724 0.001017 -0.001842 0.008848
# 2 -0.004796 0.012245 -0.001952 -0.009290 -0.002235 0.000098
# 3 0.000724 -0.001952 0.015786 -0.004527 -0.003669 -0.000046
# 4 0.001017 -0.009290 -0.004527 0.043015 0.000595 -0.003642
# 5 -0.001842 -0.002235 -0.003669 0.000595 0.032656 -0.002242
# 6 0.008848 0.000098 -0.000046 -0.003642 -0.002242 0.028196
#
#
# Mechanical properties :
#
#
# Convention : Reuss Voigt Hill
#
# Bulk Modulus (GPa) = 31.02423 46.69106 38.85765
# Shear Modulus (GPa) = 29.24997 36.03751 32.64374
#
# Velocity S-wave (km/s) = 3.85458 4.27850 4.07206
# Velocity P-wave (km/s) = 5.96401 6.93719 6.46893
#
# Compressibility (1/GPa) = 0.03223287
#
# Stress axis : x y z
#
# Youngs Moduli (GPa) = 61.53606 81.66770 63.34727
#
# Poissons Ratio (x) = 0.39167 -0.04585
# Poissons Ratio (y) = 0.29512 0.12366
# Poissons Ratio (z) = -0.04454 0.15942
#
# Static dielectric constant tensor:
#      x y z
#    x 1.734160 -0.018040 0.011830 
#    y -0.018040 1.673720 0.002650 
#    z 0.011830 0.002650 1.759450 
# 
# From -- ./inp_files/536858.got.cif
#   From: 2010.05.17/outbox.cif.g08.bks.cpg/sg2_269_cif.got.tgz:536858.got - 2010.06.03 11:33:40.
