data_PCOD9076736
_publ_section_title
;
Structure prediction by ZEFSAII (Michael W. Deem and Ramdas Pophale) SiO2 
 PCOD9076736
Probable space group: P -1
;
_chemical_formula_sum "Si O2"
_cell_formula_units_Z 16
_cell_length_a 7.523592
_cell_length_b 15.117970
_cell_length_c 15.114487
_cell_angle_alpha 31.070483
_cell_angle_beta 70.671703
_cell_angle_gamma 56.439410
_cell_volume 697.553107
_symmetry_space_group_name_H-M "P -1"
_symmetry_group_IT_number 2
_symmetry_cell_setting 'triclinic'
loop_
_space_group_symop_operation_xyz
x,y,z
-x,-y,-z
loop_
_atom_site_type_symbol
_atom_site_label
_atom_site_fract_x
_atom_site_fract_y
_atom_site_fract_z
Si Si1 0.262249 0.133334 0.872459
Si Si2 0.794036 0.343275 0.551923
Si Si3 0.349939 0.702441 0.214487
Si Si4 0.175257 0.317539 0.024865
Si Si5 0.504301 0.616743 0.683918
Si Si6 0.287526 0.556365 0.925339
Si Si7 0.566630 0.132941 0.692344
Si Si8 0.029027 0.475790 0.291151
O O1 0.327798 0.222184 0.703377
O O2 0.081906 0.315953 0.809284
O O3 0.500000 0.000000 0.000000
O O4 0.239945 0.943855 0.016195
O O5 0.586406 0.557754 0.356654
O O6 0.805387 0.337060 0.661703
O O7 0.729755 0.178815 0.681026
O O8 0.006173 0.316556 0.490092
O O9 0.406927 0.595983 0.201156
O O10 0.954597 0.324744 0.088894
O O11 0.336645 0.102717 0.135498
O O12 0.290212 0.365311 0.043950
O O13 0.096814 0.480993 0.818352
O O14 0.313339 0.669353 0.740480
O O15 0.441392 0.773930 0.480583
O O16 0.719438 0.594700 0.712863
O O17 0.500000 0.500000 0.000000
#
# Coordination Sequence:
#
# PCOD9076736 Si02
#       8
#     2   2   2   2   2   2   2   2
#     4  12  19  34  63  92 127 168 221 253 303 389
#     4  10  18  33  59  86 129 166 209 243 313 379
#     4  10  19  35  57  88 122 171 205 260 305 368
#     4  11  23  44  75  93 121 170 213 262 330 379
#     4  11  25  40  60  92 135 162 213 273 317 373
#     4  11  24  47  72  95 122 162 219 272 322 382
#     4  11  22  40  63  97 127 168 211 261 315 383
#     4  12  22  38  62  94 128 175 211 254 321 384
#
# _framework density 22.937321000000001
#
# number of rings (size 3 to 8) (size 9 to 14) (size 15 to 20)
#    0.000    1.000    5.000    3.750    0.000    3.000 
#    2.250    0.625    0.000    0.000    0.000    0.000 
#    0.000    0.000    0.000    0.000    0.000    0.000 
#
# Total GULP energy -89349.676712 kJ/mol
# GULP energy per Si atom -5584.354794 kJ/mol
# Density = 2.288511 g / cm^3
# Si number density = 22.937321 Si / 1000 Ang^3
#
#
#
# Elastic Constant Matrix: (Units=GPa)
#
#
# Indices 1 2 3 4 5 6 
#
# 1 93.4463 23.3660 7.2497 7.4751 -15.0569 1.7269
# 2 23.3660 66.4401 7.2372 26.3287 -4.4758 -4.8789
# 3 7.2497 7.2372 67.0298 26.6037 -21.2206 -2.4658
# 4 7.4751 26.3287 26.6037 46.2033 -4.0055 -14.3896
# 5 -15.0569 -4.4758 -21.2206 -4.0055 23.6188 14.1095
# 6 1.7269 -4.8789 -2.4658 -14.3896 14.1095 40.4359
#
#
#
# Elastic Compliance Matrix: (Units=1/GPa)
#
#
# Indices 1 2 3 4 5 6 
#
# 1 0.014777 -0.002904 0.007147 -0.006143 0.020064 -0.009733
# 2 -0.002904 0.022803 0.008634 -0.018766 0.011372 -0.007244
# 3 0.007147 0.008634 0.044811 -0.036071 0.058029 -0.029615
# 4 -0.006143 -0.018766 -0.036071 0.060621 -0.050506 0.034994
# 5 0.020064 0.011372 0.058029 -0.050506 0.137921 -0.062045
# 6 -0.009733 -0.007244 -0.029615 0.034994 -0.062045 0.056569
#
#
# Mechanical properties :
#
#
# Convention : Reuss Voigt Hill
#
# Bulk Modulus (GPa) = 9.24684 33.62468 21.43576
# Shear Modulus (GPa) = 14.37624 34.65582 24.51603
#
# Velocity S-wave (km/s) = 2.50624 3.89124 3.27284
# Velocity P-wave (km/s) = 3.52350 5.90594 4.86288
#
# Compressibility (1/GPa) = 0.10814509
#
# Stress axis : x y z
#
# Youngs Moduli (GPa) = 67.67178 43.85480 22.31571
#
# Poissons Ratio (x) = 0.12736 -0.15950
# Poissons Ratio (y) = 0.19653 -0.19267
# Poissons Ratio (z) = -0.48368 -0.37863
#
# Static dielectric constant tensor:
#      x y z
#    x 1.985840 0.011910 -0.012640 
#    y 0.011910 1.862340 0.027920 
#    z -0.012640 0.027920 1.885610 
# 
# From -- ./inp_files/503601.got.cif
#   From: 2010.05.17/outbox.cif.g08.bks.cpg/sg2_252_cif.got.tgz:503601.got - 2010.06.03 11:33:40.
