data_PCOD9076149
_publ_section_title
;
Structure prediction by ZEFSAII (Michael W. Deem and Ramdas Pophale) SiO2 
 PCOD9076149
Probable space group: P -1
;
_chemical_formula_sum "Si O2"
_cell_formula_units_Z 16
_cell_length_a 6.385271
_cell_length_b 15.540400
_cell_length_c 15.594073
_cell_angle_alpha 99.134147
_cell_angle_beta 66.888582
_cell_angle_gamma 57.744009
_cell_volume 1060.137050
_symmetry_space_group_name_H-M "P -1"
_symmetry_group_IT_number 2
_symmetry_cell_setting 'triclinic'
loop_
_space_group_symop_operation_xyz
x,y,z
-x,-y,-z
loop_
_atom_site_type_symbol
_atom_site_label
_atom_site_fract_x
_atom_site_fract_y
_atom_site_fract_z
Si Si1 0.247088 0.365279 0.851161
Si Si2 0.787933 0.318910 0.467442
Si Si3 0.683448 0.464956 0.052530
Si Si4 0.845682 0.477109 0.765255
Si Si5 0.225195 0.872665 0.551241
Si Si6 0.092630 0.250725 0.588994
Si Si7 0.919638 0.472461 0.418768
Si Si8 0.154330 0.867270 0.356612
O O1 0.348372 0.429146 0.889886
O O2 0.532853 0.238653 0.754095
O O3 0.043084 0.444033 0.813953
O O4 0.030903 0.368559 0.953188
O O5 0.862365 0.200801 0.411480
O O6 0.948452 0.360842 0.404033
O O7 0.431438 0.419494 0.526676
O O8 0.869812 0.307598 0.552576
O O9 0.505931 0.446990 0.143162
O O10 0.500000 0.500000 0.000000
O O11 0.976947 0.352753 0.688782
O O12 0.898231 0.532823 0.690351
O O13 0.571275 0.810243 0.505367
O O14 0.213841 0.867874 0.448399
O O15 0.002898 0.006467 0.633422
O O16 0.068194 0.160249 0.617710
O O17 0.000000 0.500000 0.500000
#
# Coordination Sequence:
#
# PCOD9076149 Si02
#       8
#     2   2   2   2   2   2   2   2
#     4  10  18  33  47  69  98 126 161 198 234 285
#     4  10  20  30  44  65  97 129 161 194 226 279
#     4   9  20  31  47  68  94 125 161 199 242 280
#     4  11  18  29  49  68  97 131 154 194 238 280
#     4  10  19  31  42  69  98 127 164 194 228 285
#     4  11  17  30  44  67  98 129 158 189 230 281
#     4  11  20  31  47  69  95 132 163 193 238 286
#     4  10  19  28  48  67  93 132 162 190 238 283
#
# _framework density 15.092389000000001
#
# number of rings (size 3 to 8) (size 9 to 14) (size 15 to 20)
#    0.000    1.750    5.000    1.125    0.000    0.000 
#    0.000    0.000    0.000    0.000    0.000    0.875 
#    0.000   13.000    0.000    0.500    0.000    0.000 
#
# Total GULP energy -89128.242054 kJ/mol
# GULP energy per Si atom -5570.515128 kJ/mol
# Density = 1.505804 g / cm^3
# Si number density = 15.092389 Si / 1000 Ang^3
#
#
#
# Elastic Constant Matrix: (Units=GPa)
#
#
# Indices 1 2 3 4 5 6 
#
# 1 96.4294 39.9240 36.8491 -3.9455 -3.0886 11.6008
# 2 39.9240 86.9894 36.2909 -1.5269 -5.4781 26.1367
# 3 36.8491 36.2909 85.4801 -1.1818 -17.1892 14.8142
# 4 -3.9455 -1.5269 -1.1818 21.8765 5.4683 -2.1595
# 5 -3.0886 -5.4781 -17.1892 5.4683 27.9720 -7.6926
# 6 11.6008 26.1367 14.8142 -2.1595 -7.6926 28.4116
#
#
#
# Elastic Compliance Matrix: (Units=1/GPa)
#
#
# Indices 1 2 3 4 5 6 
#
# 1 0.014088 -0.004844 -0.004603 0.002657 -0.002574 0.000609
# 2 -0.004844 0.019824 -0.004437 -0.000348 -0.003407 -0.014895
# 3 -0.004603 -0.004437 0.017631 -0.002707 0.009769 -0.000793
# 4 0.002657 -0.000348 -0.002707 0.048809 -0.010569 0.001495
# 5 -0.002574 -0.003407 0.009769 -0.010569 0.045808 0.010691
# 6 0.000609 -0.014895 -0.000793 0.001495 0.010691 0.052072
#
#
# Mechanical properties :
#
#
# Convention : Reuss Voigt Hill
#
# Bulk Modulus (GPa) = 42.05981 55.00295 48.53138
# Shear Modulus (GPa) = 21.37441 26.04100 23.70770
#
# Velocity S-wave (km/s) = 3.76738 4.15835 3.96768
# Velocity P-wave (km/s) = 6.84492 7.71875 7.29493
#
# Compressibility (1/GPa) = 0.02377566
#
# Stress axis : x y z
#
# Youngs Moduli (GPa) = 70.98420 50.44311 56.71841
#
# Poissons Ratio (x) = 0.24433 0.26107
# Poissons Ratio (y) = 0.34382 0.25167
# Poissons Ratio (z) = 0.32673 0.22382
#
# Static dielectric constant tensor:
#      x y z
#    x 1.539070 0.015120 -0.015120 
#    y 0.015120 1.500730 -0.013960 
#    z -0.015120 -0.013960 1.498530 
# 
# From -- ./inp_files/74962.got.cif
#   From: 2010.05.17/outbox.cif.g08.bks.cpg/sg2_38_cif.got.tgz:74962.got - 2010.06.03 11:33:40.
