data_PCOD9076827
_publ_section_title
;
Structure prediction by ZEFSAII (Michael W. Deem and Ramdas Pophale) SiO2 
 PCOD9076827
Probable space group: P -1
;
_chemical_formula_sum "Si O2"
_cell_formula_units_Z 12
_cell_length_a 12.720164
_cell_length_b 10.787555
_cell_length_c 5.470663
_cell_angle_alpha 109.136752
_cell_angle_beta 100.122798
_cell_angle_gamma 124.222148
_cell_volume 520.376782
_symmetry_space_group_name_H-M "P -1"
_symmetry_group_IT_number 2
_symmetry_cell_setting 'triclinic'
loop_
_space_group_symop_operation_xyz
x,y,z
-x,-y,-z
loop_
_atom_site_type_symbol
_atom_site_label
_atom_site_fract_x
_atom_site_fract_y
_atom_site_fract_z
Si Si1 0.791146 0.004214 0.223792
Si Si2 0.114984 0.482642 0.096584
Si Si3 0.531862 0.607343 0.831490
Si Si4 0.734583 0.453261 0.313393
Si Si5 0.906112 0.857155 0.659527
Si Si6 0.842220 0.091385 0.773038
O O1 0.763179 0.077121 0.489041
O O2 0.692981 0.795338 0.016813
O O3 0.959039 0.099807 0.393478
O O4 0.784590 0.073217 0.006206
O O5 0.209872 0.543329 0.929932
O O6 0.007948 0.271535 0.961850
O O7 0.202865 0.572070 0.442375
O O8 0.000000 0.500000 0.000000
O O9 0.500000 0.500000 0.500000
O O10 0.433996 0.658362 0.825614
O O11 0.500000 0.500000 0.000000
O O12 0.795462 0.650625 0.507564
O O13 0.818446 0.916309 0.600604
O O14 0.000000 0.000000 0.000000
#
# Coordination Sequence:
#
# PCOD9076827 Si02
#       6
#     2   2   2   2   2   2
#     4  11  21  35  58  90 124 162 195 245 314 393
#     4  12  25  43  66  93 124 170 226 275 310 358
#     4  12  25  39  60  96 143 171 196 245 332 410
#     4  12  24  41  66  96 132 166 209 268 321 380
#     4  10  18  33  60  91 121 151 200 253 321 371
#     4  11  21  36  62  91 121 157 214 262 314 370
#
# _framework density 23.060212
#
# number of rings (size 3 to 8) (size 9 to 14) (size 15 to 20)
#    0.000    0.667    5.000    6.000    2.333    0.000 
#    0.000    0.000    0.000    6.000    0.000    0.000 
#    0.000    0.000    0.000    0.000    0.000    0.000 
#
# Total GULP energy -66823.104654 kJ/mol
# GULP energy per Si atom -5568.592054 kJ/mol
# Density = 2.300773 g / cm^3
# Si number density = 23.060212 Si / 1000 Ang^3
#
#
#
# Elastic Constant Matrix: (Units=GPa)
#
#
# Indices 1 2 3 4 5 6 
#
# 1 65.2321 12.1819 -10.3745 -12.6908 10.4572 -2.5598
# 2 12.1819 61.3207 39.3578 -23.0192 2.4129 10.8569
# 3 -10.3745 39.3578 138.2966 -50.1999 5.6326 15.1224
# 4 -12.6908 -23.0192 -50.1999 55.7428 8.9964 -0.4234
# 5 10.4572 2.4129 5.6326 8.9964 23.8310 -5.8427
# 6 -2.5598 10.8569 15.1224 -0.4234 -5.8427 26.1716
#
#
#
# Elastic Compliance Matrix: (Units=1/GPa)
#
#
# Indices 1 2 3 4 5 6 
#
# 1 0.023791 -0.003092 0.010255 0.016624 -0.020447 -0.006611
# 2 -0.003092 0.023352 -0.003199 0.006807 -0.005068 -0.009163
# 3 0.010255 -0.003199 0.018634 0.020849 -0.019504 -0.012454
# 4 0.016624 0.006807 0.020849 0.049041 -0.036474 -0.020594
# 5 -0.020447 -0.005068 -0.019504 -0.036474 0.076667 0.027898
# 6 -0.006611 -0.009163 -0.012454 -0.020594 0.027898 0.054455
#
#
# Mechanical properties :
#
#
# Convention : Reuss Voigt Hill
#
# Bulk Modulus (GPa) = 13.56756 38.57552 26.07154
# Shear Modulus (GPa) = 19.04176 36.06137 27.55156
#
# Velocity S-wave (km/s) = 2.87669 3.95877 3.46029
# Velocity P-wave (km/s) = 4.11462 6.13680 5.22448
#
# Compressibility (1/GPa) = 0.07370524
#
# Stress axis : x y z
#
# Youngs Moduli (GPa) = 42.03274 42.82301 53.66414
#
# Poissons Ratio (x) = 0.13243 -0.55032
# Poissons Ratio (y) = 0.12999 0.17165
# Poissons Ratio (z) = -0.43104 0.13697
#
# Static dielectric constant tensor:
#      x y z
#    x 2.066270 -0.134180 0.082550 
#    y -0.134180 2.102470 -0.236320 
#    z 0.082550 -0.236320 2.071190 
# 
# From -- ./inp_files/67612.got.cif
#   From: 2010.05.17/outbox.cif.g08.bks.cpg/sg2_34_cif.got.tgz:67612.got - 2010.06.03 11:33:40.
