data_PCOD9076097
_publ_section_title
;
Structure prediction by ZEFSAII (Michael W. Deem and Ramdas Pophale) SiO2 
 PCOD9076097
Probable space group: P -1
;
_chemical_formula_sum "Si O2"
_cell_formula_units_Z 15
_cell_length_a 12.399777
_cell_length_b 9.611892
_cell_length_c 15.154596
_cell_angle_alpha 79.912644
_cell_angle_beta 151.424375
_cell_angle_gamma 111.350833
_cell_volume 761.094117
_symmetry_space_group_name_H-M "P -1"
_symmetry_group_IT_number 2
_symmetry_cell_setting 'triclinic'
loop_
_space_group_symop_operation_xyz
x,y,z
-x,-y,-z
loop_
_atom_site_type_symbol
_atom_site_label
_atom_site_fract_x
_atom_site_fract_y
_atom_site_fract_z
Si Si1 0.845157 0.312628 0.911114
Si Si2 0.799366 0.489451 0.565214
Si Si3 0.581716 0.182956 0.559903
Si Si4 0.571069 0.664230 0.270890
Si Si5 0.703711 0.949166 0.113937
Si Si6 0.623889 0.395198 0.062966
Si Si7 0.900115 0.770588 0.744904
Si Si8 0.000000 0.000000 0.500000
O O1 0.783404 0.241745 0.777418
O O2 0.594633 0.282797 0.789698
O O3 0.000000 0.500000 0.000000
O O4 0.009105 0.250207 0.091620
O O5 0.686959 0.311716 0.542233
O O6 0.619345 0.524160 0.364288
O O7 0.840052 0.613878 0.661019
O O8 0.076291 0.537435 0.718892
O O9 0.343257 0.200873 0.424972
O O10 0.500000 0.000000 0.500000
O O11 0.433876 0.625094 0.081760
O O12 0.840353 0.814933 0.438683
O O13 0.529318 0.771385 0.979241
O O14 0.879026 0.948615 0.319838
O O15 0.873929 0.077792 0.152520
O O16 0.500000 0.000000 0.000000
O O17 0.500000 0.500000 0.000000
#
# Coordination Sequence:
#
# PCOD9076097 Si02
#       8
#     2   2   2   2   2   2   2   1
#     4  12  22  41  71  96 124 173 223 264 318 396
#     4  12  22  44  68  92 128 176 223 258 323 403
#     4  12  28  44  64 101 137 166 216 286 334 373
#     4  11  21  39  68  95 123 170 218 257 315 394
#     4  11  20  38  62  93 122 161 215 260 307 385
#     4  11  25  41  63  94 135 166 207 273 328 374
#     4  12  22  41  71  95 123 176 222 265 317 401
#     4  10  18  32  60  92 120 150 204 260 300 362
#
# _framework density 19.708469000000001
#
# number of rings (size 3 to 8) (size 9 to 14) (size 15 to 20)
#    0.000    0.533    6.667    2.000    1.867    1.067 
#    2.400    0.000    0.000    0.000    0.000    0.000 
#    0.000    0.000    0.000    0.000    0.000    0.000 
#
# Total GULP energy -83540.437858 kJ/mol
# GULP energy per Si atom -5569.362524 kJ/mol
# Density = 1.966361 g / cm^3
# Si number density = 19.708469 Si / 1000 Ang^3
#
#
#
# Elastic Constant Matrix: (Units=GPa)
#
#
# Indices 1 2 3 4 5 6 
#
# 1 20.5991 11.4252 -5.6262 7.2861 0.4412 4.9109
# 2 11.4252 127.3058 -0.4044 21.4437 3.6350 9.0791
# 3 -5.6262 -0.4044 37.8411 -0.7835 -2.3430 3.5089
# 4 7.2861 21.4437 -0.7835 29.4706 5.1683 3.6944
# 5 0.4412 3.6350 -2.3430 5.1683 30.3651 -9.0968
# 6 4.9109 9.0791 3.5089 3.6944 -9.0968 41.5274
#
#
#
# Elastic Compliance Matrix: (Units=1/GPa)
#
#
# Indices 1 2 3 4 5 6 
#
# 1 0.057977 -0.002854 0.008923 -0.011342 0.000351 -0.005900
# 2 -0.002854 0.009179 -0.000360 -0.005745 -0.000476 -0.001232
# 3 0.008923 -0.000360 0.028086 -0.001069 0.001378 -0.002953
# 4 -0.011342 -0.005745 -0.001069 0.042499 -0.007268 -0.002685
# 5 0.000351 -0.000476 0.001378 -0.007268 0.036929 0.008682
# 6 -0.005900 -0.001232 -0.002953 -0.002685 0.008682 0.027438
#
#
# Mechanical properties :
#
#
# Convention : Reuss Voigt Hill
#
# Bulk Modulus (GPa) = 9.37551 21.83727 15.60639
# Shear Modulus (GPa) = 22.10015 32.29607 27.19811
#
# Velocity S-wave (km/s) = 3.35229 4.05246 3.71889
# Velocity P-wave (km/s) = 4.44424 5.74463 5.13576
#
# Compressibility (1/GPa) = 0.10666085
#
# Stress axis : x y z
#
# Youngs Moduli (GPa) = 17.24834 108.94117 35.60473
#
# Poissons Ratio (x) = 0.31088 -0.31772
# Poissons Ratio (y) = 0.04922 0.01283
# Poissons Ratio (z) = -0.15391 0.03926
#
# Static dielectric constant tensor:
#      x y z
#    x 1.690200 0.046530 -0.002310 
#    y 0.046530 1.733260 0.009590 
#    z -0.002310 0.009590 1.690340 
# 
# From -- ./inp_files/178488.got.cif
#   From: 2010.05.17/outbox.cif.g08.bks.cpg/sg2_90_cif.got.tgz:178488.got - 2010.06.03 11:33:40.
