data_PCOD9076047
_publ_section_title
;
Structure prediction by ZEFSAII (Michael W. Deem and Ramdas Pophale) SiO2 
 PCOD9076047
Probable space group: P -1
;
_chemical_formula_sum "Si O2"
_cell_formula_units_Z 14
_cell_length_a 9.119845
_cell_length_b 11.877229
_cell_length_c 11.208700
_cell_angle_alpha 39.872342
_cell_angle_beta 82.150047
_cell_angle_gamma 108.823244
_cell_volume 570.224180
_symmetry_space_group_name_H-M "P -1"
_symmetry_group_IT_number 2
_symmetry_cell_setting 'triclinic'
loop_
_space_group_symop_operation_xyz
x,y,z
-x,-y,-z
loop_
_atom_site_type_symbol
_atom_site_label
_atom_site_fract_x
_atom_site_fract_y
_atom_site_fract_z
Si Si1 0.682247 0.372311 0.884998
Si Si2 0.454899 0.316254 0.748348
Si Si3 0.208007 0.955090 0.349427
Si Si4 0.362910 0.768411 0.616496
Si Si5 0.951831 0.979557 0.880943
Si Si6 0.700816 0.997514 0.199372
Si Si7 0.268705 0.368302 0.116589
O O1 0.645095 0.411588 0.724652
O O2 0.447819 0.152042 0.129958
O O3 0.775419 0.256105 0.983570
O O4 0.784211 0.593597 0.780075
O O5 0.500000 0.500000 0.500000
O O6 0.282486 0.259880 0.897840
O O7 0.370882 0.093995 0.854717
O O8 0.201738 0.772645 0.574205
O O9 0.076864 0.862765 0.318159
O O10 0.168884 0.108114 0.297106
O O11 0.267798 0.530854 0.892560
O O12 0.500000 0.000000 0.500000
O O13 0.516169 0.825275 0.450600
O O14 0.120960 0.992448 0.796285
O O15 0.000000 0.000000 0.000000
O O16 0.500000 0.500000 0.000000
#
# Coordination Sequence:
#
# PCOD9076047 Si02
#       7
#     2   2   2   2   2   2   2
#     4   9  18  34  55  83 112 149 196 232 292 338
#     4  10  21  34  60  87 106 150 202 240 286 352
#     4   9  19  34  60  81 114 159 189 239 288 342
#     4  11  19  34  61  92 112 153 206 229 287 358
#     4   9  20  40  58  80 123 156 187 238 306 345
#     4  10  20  35  60  81 117 152 188 244 292 343
#     4  10  18  32  59  86 118 147 195 250 277 337
#
# _framework density 24.551749000000001
#
# number of rings (size 3 to 8) (size 9 to 14) (size 15 to 20)
#    0.000    2.286    4.286    0.429    6.000    1.143 
#    0.000    2.143    6.286    0.000    0.000    0.000 
#    0.000    0.000    0.000    0.000    0.000    0.000 
#
# Total GULP energy -78175.219739 kJ/mol
# GULP energy per Si atom -5583.944267 kJ/mol
# Density = 2.449587 g / cm^3
# Si number density = 24.551749 Si / 1000 Ang^3
#
#
#
# Elastic Constant Matrix: (Units=GPa)
#
#
# Indices 1 2 3 4 5 6 
#
# 1 157.9207 39.8467 57.9977 8.6780 33.6434 11.5105
# 2 39.8467 100.8555 28.5817 2.1260 3.2927 -2.0715
# 3 57.9977 28.5817 90.3086 2.1573 27.1177 8.5429
# 4 8.6780 2.1260 2.1573 38.8694 9.2598 4.4954
# 5 33.6434 3.2927 27.1177 9.2598 54.4828 7.3332
# 6 11.5105 -2.0715 8.5429 4.4954 7.3332 35.8675
#
#
#
# Elastic Compliance Matrix: (Units=1/GPa)
#
#
# Indices 1 2 3 4 5 6 
#
# 1 0.009268 -0.002416 -0.004067 -0.000781 -0.003234 -0.001386
# 2 -0.002416 0.011683 -0.002936 -0.000649 0.002115 0.001798
# 3 -0.004067 -0.002936 0.016405 0.001686 -0.005513 -0.001856
# 4 -0.000781 -0.000649 0.001686 0.027245 -0.004590 -0.002665
# 5 -0.003234 0.002115 -0.005513 -0.004590 0.023998 -0.001858
# 6 -0.001386 0.001798 -0.001856 -0.002665 -0.001858 0.029585
#
#
# Mechanical properties :
#
#
# Convention : Reuss Voigt Hill
#
# Bulk Modulus (GPa) = 53.99758 66.88188 60.43973
# Shear Modulus (GPa) = 34.91761 40.68785 37.80273
#
# Velocity S-wave (km/s) = 3.77530 4.07532 3.92818
# Velocity P-wave (km/s) = 6.40664 7.03169 6.72643
#
# Compressibility (1/GPa) = 0.01851935
#
# Stress axis : x y z
#
# Youngs Moduli (GPa) = 107.89492 85.59335 60.95717
#
# Poissons Ratio (x) = 0.20677 0.24791
# Poissons Ratio (y) = 0.26064 0.17897
# Poissons Ratio (z) = 0.43880 0.25130
#
# Static dielectric constant tensor:
#      x y z
#    x 1.948560 -0.001650 -0.041830 
#    y -0.001650 2.077530 0.008690 
#    z -0.041830 0.008690 2.087010 
# 
# From -- ./inp_files/175874.got.cif
#   From: 2010.05.17/outbox.cif.g08.bks.cpg/sg2_88_cif.got.tgz:175874.got - 2010.06.03 11:33:40.
