data_PCOD9076171
_publ_section_title
;
Structure prediction by ZEFSAII (Michael W. Deem and Ramdas Pophale) SiO2 
 PCOD9076171
Probable space group: P -1
;
_chemical_formula_sum "Si O2"
_cell_formula_units_Z 16
_cell_length_a 11.176445
_cell_length_b 14.663118
_cell_length_c 5.336334
_cell_angle_alpha 80.434482
_cell_angle_beta 105.357635
_cell_angle_gamma 67.069818
_cell_volume 740.076283
_symmetry_space_group_name_H-M "P -1"
_symmetry_group_IT_number 2
_symmetry_cell_setting 'triclinic'
loop_
_space_group_symop_operation_xyz
x,y,z
-x,-y,-z
loop_
_atom_site_type_symbol
_atom_site_label
_atom_site_fract_x
_atom_site_fract_y
_atom_site_fract_z
Si Si1 0.496821 0.218402 0.391676
Si Si2 0.851697 0.319541 0.149847
Si Si3 0.618408 0.495237 0.259208
Si Si4 0.037440 0.577075 0.251202
Si Si5 0.210459 0.382251 0.213146
Si Si6 0.566362 0.876475 0.093718
Si Si7 0.386031 0.671968 0.291290
Si Si8 0.123758 0.245818 0.535478
O O1 0.366298 0.333428 0.231240
O O2 0.471453 0.162533 0.648732
O O3 0.617975 0.245342 0.543421
O O4 0.493450 0.160023 0.162272
O O5 0.761146 0.423080 0.220996
O O6 0.993088 0.226749 0.388772
O O7 0.913309 0.359471 0.938569
O O8 0.739216 0.285198 0.996978
O O9 0.538019 0.614032 0.266470
O O10 0.629391 0.419736 0.530310
O O11 0.500000 0.500000 0.000000
O O12 0.170618 0.464624 0.378141
O O13 0.966480 0.649641 0.409249
O O14 0.907303 0.560844 0.083247
O O15 0.185285 0.284583 0.322302
O O16 0.736473 0.829183 0.204239
O O17 0.500000 0.000000 0.000000
#
# Coordination Sequence:
#
# PCOD9076171 Si02
#       8
#     2   2   2   2   2   2   2   2
#     4  11  24  40  67  93 125 161 202 262 314 380
#     4  10  21  33  54  82 124 168 207 245 289 365
#     4   9  20  35  51  84 125 179 212 241 279 358
#     4  10  18  33  50  81 121 164 201 242 292 358
#     4   9  20  31  50  84 123 158 201 243 296 363
#     4  11  25  47  70  94 117 153 211 275 334 372
#     4  10  22  36  54  88 126 171 215 240 304 361
#     4  10  20  37  57  84 117 160 208 249 316 365
#
# _framework density 21.619389999999999
#
# number of rings (size 3 to 8) (size 9 to 14) (size 15 to 20)
#    0.000    2.000    1.250    1.500   10.500    0.000 
#    0.000    0.000    0.000    1.500    0.000    0.000 
#    0.000    0.000    0.000    0.000    0.000    0.000 
#
# Total GULP energy -89086.227136 kJ/mol
# GULP energy per Si atom -5567.889196 kJ/mol
# Density = 2.157018 g / cm^3
# Si number density = 21.619390 Si / 1000 Ang^3
#
#
#
# Elastic Constant Matrix: (Units=GPa)
#
#
# Indices 1 2 3 4 5 6 
#
# 1 70.9032 15.5363 34.7463 0.9949 16.6708 -6.0474
# 2 15.5363 81.0392 34.8452 8.7762 22.4913 4.0789
# 3 34.7463 34.8452 89.0899 17.1306 21.6625 -1.1607
# 4 0.9949 8.7762 17.1306 28.2408 -0.1811 -0.0352
# 5 16.6708 22.4913 21.6625 -0.1811 52.1781 2.9207
# 6 -6.0474 4.0789 -1.1607 -0.0352 2.9207 12.8769
#
#
#
# Elastic Compliance Matrix: (Units=1/GPa)
#
#
# Indices 1 2 3 4 5 6 
#
# 1 0.019245 -0.000576 -0.007031 0.003755 -0.003494 0.009390
# 2 -0.000576 0.016203 -0.004618 -0.002249 -0.004623 -0.004777
# 3 -0.007031 -0.004618 0.018465 -0.009539 -0.003495 0.000592
# 4 0.003755 -0.002249 -0.009539 0.041789 0.003827 0.000862
# 5 -0.003494 -0.004623 -0.003495 0.003827 0.024071 -0.005941
# 6 0.009390 -0.004777 0.000592 0.000862 -0.005941 0.084984
#
#
# Mechanical properties :
#
#
# Convention : Reuss Voigt Hill
#
# Bulk Modulus (GPa) = 33.94091 45.69869 39.81980
# Shear Modulus (GPa) = 20.91804 29.05279 24.98542
#
# Velocity S-wave (km/s) = 3.11394 3.66981 3.40324
# Velocity P-wave (km/s) = 5.35371 6.25622 5.82248
#
# Compressibility (1/GPa) = 0.02946297
#
# Stress axis : x y z
#
# Youngs Moduli (GPa) = 51.96146 61.71676 54.15684
#
# Poissons Ratio (x) = 0.03555 0.38076
# Poissons Ratio (y) = 0.02993 0.25012
# Poissons Ratio (z) = 0.36532 0.28503
#
# Static dielectric constant tensor:
#      x y z
#    x 1.928920 -0.015770 0.036040 
#    y -0.015770 1.784910 0.070510 
#    z 0.036040 0.070510 1.977020 
# 
# From -- ./inp_files/76173.got.cif
#   From: 2010.05.17/outbox.cif.g08.bks.cpg/sg2_39_cif.got.tgz:76173.got - 2010.06.03 11:33:40.
