data_PCOD9076819
_publ_section_title
;
Structure prediction by ZEFSAII (Michael W. Deem and Ramdas Pophale) SiO2 
 PCOD9076819
Probable space group: P -1
;
_chemical_formula_sum "Si O2"
_cell_formula_units_Z 16
_cell_length_a 13.186078
_cell_length_b 8.644628
_cell_length_c 23.108445
_cell_angle_alpha 150.361045
_cell_angle_beta 146.647705
_cell_angle_gamma 51.298508
_cell_volume 665.192301
_symmetry_space_group_name_H-M "P -1"
_symmetry_group_IT_number 2
_symmetry_cell_setting 'triclinic'
loop_
_space_group_symop_operation_xyz
x,y,z
-x,-y,-z
loop_
_atom_site_type_symbol
_atom_site_label
_atom_site_fract_x
_atom_site_fract_y
_atom_site_fract_z
Si Si1 0.911059 0.682471 0.813848
Si Si2 0.758467 0.153670 0.280954
Si Si3 0.009372 0.393178 0.666338
Si Si4 0.865727 0.641231 0.400831
Si Si5 0.600058 0.145339 0.319107
Si Si6 0.386905 0.138805 0.445856
Si Si7 0.013569 0.245373 0.810416
Si Si8 0.673540 0.068974 0.778358
O O1 0.053262 0.675613 0.826760
O O2 0.895393 0.368999 0.744831
O O3 0.734288 0.748686 0.718432
O O4 0.000000 0.000000 0.000000
O O5 0.705895 0.407256 0.294313
O O6 0.607634 0.988592 0.208477
O O7 0.940109 0.382880 0.483465
O O8 0.841529 0.914957 0.204691
O O9 0.808965 0.310824 0.506900
O O10 0.175032 0.483189 0.724978
O O11 0.948813 0.042576 0.558938
O O12 0.533146 0.459516 0.379670
O O13 0.463380 0.907908 0.226074
O O14 0.500000 0.000000 0.500000
O O15 0.153737 0.001105 0.307757
O O16 0.411844 0.008125 0.351484
O O17 0.142004 0.578458 0.015524
#
# Coordination Sequence:
#
# PCOD9076819 Si02
#       8
#     2   2   2   2   2   2   2   2
#     4  10  21  37  60  90 124 168 207 254 311 388
#     4  10  20  36  60  92 124 163 211 263 313 369
#     4  10  18  33  60  89 124 161 210 260 313 372
#     4   9  18  32  57  92 122 156 208 269 311 364
#     4  11  24  39  64  92 127 166 213 268 311 366
#     4  12  25  41  69  96 127 166 212 270 316 371
#     4  11  23  42  67  94 129 170 209 259 323 380
#     4  11  25  43  61  93 135 172 208 254 319 391
#
# _framework density 24.053194000000001
#
# number of rings (size 3 to 8) (size 9 to 14) (size 15 to 20)
#    0.000    1.500    2.500    3.750    1.750    0.500 
#    0.000    0.000    0.000    1.500    0.000    0.000 
#    0.000    0.000    0.000    0.000    0.000    0.000 
#
# Total GULP energy -89137.775439 kJ/mol
# GULP energy per Si atom -5571.110965 kJ/mol
# Density = 2.399845 g / cm^3
# Si number density = 24.053194 Si / 1000 Ang^3
#
#
#
# Elastic Constant Matrix: (Units=GPa)
#
#
# Indices 1 2 3 4 5 6 
#
# 1 154.3458 24.4917 44.8951 9.7761 -32.3945 32.4339
# 2 24.4917 119.0346 20.0049 3.7527 -12.4764 28.1792
# 3 44.8951 20.0049 64.7244 7.2717 -24.9067 10.5659
# 4 9.7761 3.7527 7.2717 23.5370 -0.0704 -6.1306
# 5 -32.3945 -12.4764 -24.9067 -0.0704 39.8493 -4.5702
# 6 32.4339 28.1792 10.5659 -6.1306 -4.5702 34.0464
#
#
#
# Elastic Compliance Matrix: (Units=1/GPa)
#
#
# Indices 1 2 3 4 5 6 
#
# 1 0.011434 0.001911 -0.003303 -0.007104 0.006456 -0.011862
# 2 0.001911 0.011394 -0.001238 -0.005187 0.003031 -0.011394
# 3 -0.003303 -0.001238 0.023696 -0.006450 0.011404 -0.002813
# 4 -0.007104 -0.005187 -0.006450 0.053848 -0.008861 0.021568
# 5 0.006456 0.003031 0.011404 -0.008861 0.037398 -0.008774
# 6 -0.011862 -0.011394 -0.002813 0.021568 -0.008774 0.053681
#
#
# Mechanical properties :
#
#
# Convention : Reuss Voigt Hill
#
# Bulk Modulus (GPa) = 24.23383 57.43201 40.83292
# Shear Modulus (GPa) = 23.75682 36.06741 29.91212
#
# Velocity S-wave (km/s) = 3.14614 3.87652 3.53027
# Velocity P-wave (km/s) = 4.82645 6.63065 5.79914
#
# Compressibility (1/GPa) = 0.04126463
#
# Stress axis : x y z
#
# Youngs Moduli (GPa) = 87.45890 87.76267 42.20109
#
# Poissons Ratio (x) = -0.16773 0.13939
# Poissons Ratio (y) = -0.16715 0.05225
# Poissons Ratio (z) = 0.28887 0.10866
#
# Static dielectric constant tensor:
#      x y z
#    x 2.173460 -0.037940 0.037050 
#    y -0.037940 2.013010 0.051380 
#    z 0.037050 0.051380 1.911410 
# 
# From -- ./inp_files/593887.got.cif
#   From: 2010.05.17/outbox.cif.g08.bks.cpg/sg2_297_cif.got.tgz:593887.got - 2010.06.03 11:33:40.
