data_PCOD9076488
_publ_section_title
;
Structure prediction by ZEFSAII (Michael W. Deem and Ramdas Pophale) SiO2 
 PCOD9076488
Probable space group: P -1
;
_chemical_formula_sum "Si O2"
_cell_formula_units_Z 16
_cell_length_a 16.573903
_cell_length_b 12.814592
_cell_length_c 22.838689
_cell_angle_alpha 153.649497
_cell_angle_beta 158.983523
_cell_angle_gamma 24.512342
_cell_volume 685.199843
_symmetry_space_group_name_H-M "P -1"
_symmetry_group_IT_number 2
_symmetry_cell_setting 'triclinic'
loop_
_space_group_symop_operation_xyz
x,y,z
-x,-y,-z
loop_
_atom_site_type_symbol
_atom_site_label
_atom_site_fract_x
_atom_site_fract_y
_atom_site_fract_z
Si Si1 0.276359 0.921806 0.315529
Si Si2 0.431539 0.924690 0.820388
Si Si3 0.814921 0.020940 0.192184
Si Si4 0.764047 0.377105 0.239224
Si Si5 0.372851 0.279575 0.852995
Si Si6 0.820206 0.824138 0.439805
Si Si7 0.918653 0.856581 0.824501
Si Si8 0.652849 0.533730 0.454909
O O1 0.407725 0.658631 0.309676
O O2 0.500000 0.000000 0.500000
O O3 0.168103 0.942343 0.187805
O O4 0.049552 0.154511 0.312664
O O5 0.293998 0.994775 0.825840
O O6 0.388498 0.682825 0.645860
O O7 0.313427 0.154280 0.807452
O O8 0.718534 0.869719 0.004504
O O9 0.693749 0.310322 0.221954
O O10 0.103086 0.964144 0.373060
O O11 0.751645 0.656911 0.356597
O O12 0.611630 0.311017 0.052926
O O13 0.379994 0.107829 0.714609
O O14 0.166583 0.574477 0.845460
O O15 0.092354 0.624095 0.491914
O O16 0.702377 0.756435 0.633695
O O17 0.000000 0.000000 0.000000
#
# Coordination Sequence:
#
# PCOD9076488 Si02
#       8
#     2   2   2   2   2   2   2   2
#     4  10  19  37  55  80 114 149 186 228 288 341
#     4   9  19  38  57  81 117 148 197 221 276 334
#     4   9  20  32  52  87 107 145 185 236 267 323
#     4  11  19  35  56  84 120 143 187 233 293 326
#     4  10  21  36  57  86 116 156 177 234 281 344
#     4  10  18  33  56  86 116 141 182 233 296 329
#     4  10  21  35  55  87 113 145 186 228 289 333
#     4   9  19  37  58  77 114 154 186 228 273 341
#
# _framework density 23.350850999999999
#
# number of rings (size 3 to 8) (size 9 to 14) (size 15 to 20)
#    0.000    2.250    3.750    0.750    0.000    9.500 
#    4.500    2.500    0.000    0.000    0.000   13.125 
#    0.000    0.000    0.000    0.000    0.000    0.000 
#
# Total GULP energy -89125.096983 kJ/mol
# GULP energy per Si atom -5570.318561 kJ/mol
# Density = 2.329770 g / cm^3
# Si number density = 23.350851 Si / 1000 Ang^3
#
#
#
# Elastic Constant Matrix: (Units=GPa)
#
#
# Indices 1 2 3 4 5 6 
#
# 1 70.5904 24.6426 43.6713 -2.6487 -10.3389 28.1800
# 2 24.6426 57.1991 16.5859 -8.5852 12.9826 16.4855
# 3 43.6713 16.5859 158.4736 -0.4755 -21.2846 14.6030
# 4 -2.6487 -8.5852 -0.4755 42.2189 11.2288 1.8663
# 5 -10.3389 12.9826 -21.2846 11.2288 41.2515 1.2458
# 6 28.1800 16.4855 14.6030 1.8663 1.2458 33.3268
#
#
#
# Elastic Compliance Matrix: (Units=1/GPa)
#
#
# Indices 1 2 3 4 5 6 
#
# 1 0.027711 -0.007531 -0.004095 -0.001184 0.008072 -0.018147
# 2 -0.007531 0.027732 -0.002086 0.009148 -0.013987 -0.006425
# 3 -0.004095 -0.002086 0.008148 -0.001769 0.004290 0.000863
# 4 -0.001184 0.009148 -0.001769 0.028763 -0.011799 -0.003919
# 5 0.008072 -0.013987 0.004290 -0.011799 0.036167 -0.002478
# 6 -0.018147 -0.006425 0.000863 -0.003919 -0.002478 0.048463
#
#
# Mechanical properties :
#
#
# Convention : Reuss Voigt Hill
#
# Bulk Modulus (GPa) = 27.64972 50.67363 39.16168
# Shear Modulus (GPa) = 23.09842 36.78368 29.94105
#
# Velocity S-wave (km/s) = 3.14855 3.97326 3.58470
# Velocity P-wave (km/s) = 5.00845 6.54195 5.82588
#
# Compressibility (1/GPa) = 0.03616673
#
# Stress axis : x y z
#
# Youngs Moduli (GPa) = 36.08647 36.05978 122.72230
#
# Poissons Ratio (x) = 0.27155 0.50260
# Poissons Ratio (y) = 0.27175 0.25603
# Poissons Ratio (z) = 0.14779 0.07523
#
# Static dielectric constant tensor:
#      x y z
#    x 1.994910 -0.032910 -0.026340 
#    y -0.032910 1.929470 0.022880 
#    z -0.026340 0.022880 2.015170 
# 
# From -- ./inp_files/613145.got.cif
#   From: 2010.05.17/outbox.cif.g08.bks.cpg/sg2_307_cif.got.tgz:613145.got - 2010.06.03 11:33:40.
