data_PCOD9076511
_publ_section_title
;
Structure prediction by ZEFSAII (Michael W. Deem and Ramdas Pophale) SiO2 
 PCOD9076511
Probable space group: P -1
;
_chemical_formula_sum "Si O2"
_cell_formula_units_Z 14
_cell_length_a 15.209463
_cell_length_b 25.064817
_cell_length_c 8.454497
_cell_angle_alpha 142.002123
_cell_angle_beta 154.287946
_cell_angle_gamma 25.051981
_cell_volume 585.089101
_symmetry_space_group_name_H-M "P -1"
_symmetry_group_IT_number 2
_symmetry_cell_setting 'triclinic'
loop_
_space_group_symop_operation_xyz
x,y,z
-x,-y,-z
loop_
_atom_site_type_symbol
_atom_site_label
_atom_site_fract_x
_atom_site_fract_y
_atom_site_fract_z
Si Si1 0.018262 0.410861 0.512458
Si Si2 0.528266 0.661260 0.504135
Si Si3 0.368925 0.816985 0.119235
Si Si4 0.503269 0.482520 0.648224
Si Si5 0.009462 0.731693 0.624682
Si Si6 0.716110 0.105521 0.179621
Si Si7 0.767857 0.964796 0.666578
O O1 0.822430 0.542100 0.600496
O O2 0.109160 0.305080 0.535057
O O3 0.326702 0.333294 0.740187
O O4 0.792025 0.436673 0.085890
O O5 0.524177 0.604589 0.524975
O O6 0.495120 0.770368 0.759137
O O7 0.236089 0.720047 0.070412
O O8 0.109885 0.873812 0.952278
O O9 0.238492 0.852111 0.810615
O O10 0.420314 0.905370 0.435073
O O11 0.500000 0.500000 0.500000
O O12 0.221165 0.618755 0.581860
O O13 0.771218 0.860981 0.440319
O O14 0.000000 0.000000 0.500000
O O15 0.694688 0.020921 0.854253
#
# Coordination Sequence:
#
# PCOD9076511 Si02
#       7
#     2   2   2   2   2   2   2
#     4   9  19  36  53  80 107 138 175 223 265 308
#     4   9  17  33  54  78 106 138 177 214 262 320
#     4   9  20  34  52  79 109 142 172 218 269 307
#     4   9  19  31  56  78 103 143 178 217 265 313
#     4   9  17  34  56  74 104 142 178 211 265 321
#     4  10  18  33  57  77 102 144 183 206 256 329
#     4   9  19  34  53  77 104 149 174 208 268 318
#
# _framework density 23.927980999999999
#
# number of rings (size 3 to 8) (size 9 to 14) (size 15 to 20)
#    0.857    2.000    1.429    1.714    2.000    1.143 
#    0.000    5.714    0.000    4.286    0.000    0.000 
#    0.000    0.000    0.000    0.000    0.000    0.000 
#
# Total GULP energy -77976.517321 kJ/mol
# GULP energy per Si atom -5569.751237 kJ/mol
# Density = 2.387352 g / cm^3
# Si number density = 23.927981 Si / 1000 Ang^3
#
#
#
# Elastic Constant Matrix: (Units=GPa)
#
#
# Indices 1 2 3 4 5 6 
#
# 1 96.5221 49.1020 28.7577 -12.8300 -2.8032 -17.3797
# 2 49.1020 180.7182 27.4988 6.6177 13.5774 -16.8632
# 3 28.7577 27.4988 50.7205 1.3533 0.0828 -10.7734
# 4 -12.8300 6.6177 1.3533 34.5004 -8.7538 8.3091
# 5 -2.8032 13.5774 0.0828 -8.7538 25.4390 -14.5308
# 6 -17.3797 -16.8632 -10.7734 8.3091 -14.5308 39.9946
#
#
#
# Elastic Compliance Matrix: (Units=1/GPa)
#
#
# Indices 1 2 3 4 5 6 
#
# 1 0.016847 -0.004165 -0.006291 0.008533 0.010391 0.005872
# 2 -0.004165 0.007508 -0.001676 -0.004396 -0.006228 -0.000445
# 3 -0.006291 -0.001676 0.025288 -0.003759 0.001511 0.004701
# 4 0.008533 -0.004396 -0.003759 0.037377 0.015402 -0.001327
# 5 0.010391 -0.006228 0.001511 0.015402 0.061273 0.021358
# 6 0.005872 -0.000445 0.004701 -0.001327 0.021358 0.036669
#
#
# Mechanical properties :
#
#
# Convention : Reuss Voigt Hill
#
# Bulk Modulus (GPa) = 39.40405 59.85309 49.62857
# Shear Modulus (GPa) = 22.96895 34.82696 28.89795
#
# Velocity S-wave (km/s) = 3.10162 3.81923 3.47898
# Velocity P-wave (km/s) = 5.41574 6.67209 6.07647
#
# Compressibility (1/GPa) = 0.02537810
#
# Stress axis : x y z
#
# Youngs Moduli (GPa) = 59.35798 133.19997 39.54491
#
# Poissons Ratio (x) = 0.55481 0.24878
# Poissons Ratio (y) = 0.24724 0.06627
# Poissons Ratio (z) = 0.37342 0.22321
#
# Static dielectric constant tensor:
#      x y z
#    x 1.924890 0.056190 0.053340 
#    y 0.056190 1.940500 -0.018510 
#    z 0.053340 -0.018510 1.993050 
# 
# From -- ./inp_files/338930.got.cif
#   From: 2010.05.17/outbox.cif.g08.bks.cpg/sg2_170_cif.got.tgz:338930.got - 2010.06.03 11:33:40.
