data_PCOD9076586
_publ_section_title
;
Structure prediction by ZEFSAII (Michael W. Deem and Ramdas Pophale) SiO2 
 PCOD9076586
Probable space group: P -1
;
_chemical_formula_sum "Si O2"
_cell_formula_units_Z 14
_cell_length_a 16.059485
_cell_length_b 9.271069
_cell_length_c 8.629453
_cell_angle_alpha 118.138016
_cell_angle_beta 56.645787
_cell_angle_gamma 140.869649
_cell_volume 674.799019
_symmetry_space_group_name_H-M "P -1"
_symmetry_group_IT_number 2
_symmetry_cell_setting 'triclinic'
loop_
_space_group_symop_operation_xyz
x,y,z
-x,-y,-z
loop_
_atom_site_type_symbol
_atom_site_label
_atom_site_fract_x
_atom_site_fract_y
_atom_site_fract_z
Si Si1 0.744150 0.661102 0.786124
Si Si2 0.149727 0.745503 0.933908
Si Si3 0.723084 0.423277 0.418620
Si Si4 0.726477 0.944143 0.745394
Si Si5 0.779666 0.876981 0.151628
Si Si6 0.079271 0.062750 0.651427
Si Si7 0.452901 0.259927 0.460650
O O1 0.704805 0.449661 0.631560
O O2 0.675773 0.727636 0.786912
O O3 0.913293 0.872099 0.707635
O O4 0.714492 0.664339 0.997227
O O5 0.231618 0.706886 0.729522
O O6 0.139787 0.903345 0.929954
O O7 0.225356 0.872110 0.083011
O O8 0.000000 0.500000 0.000000
O O9 0.582722 0.306929 0.411891
O O10 0.843151 0.686147 0.364628
O O11 0.854505 0.013911 0.550045
O O12 0.617290 0.880259 0.697943
O O13 0.662188 0.847786 0.343375
O O14 0.874636 0.909001 0.204021
O O15 0.500000 0.500000 0.500000
#
# Coordination Sequence:
#
# PCOD9076586 Si02
#       7
#     2   2   2   2   2   2   2
#     4  10  18  33  57  90 112 149 203 239 286 340
#     4  11  23  41  59  88 124 153 187 240 303 348
#     4  11  21  36  63  84 115 161 192 237 290 343
#     4   9  19  36  59  85 116 158 186 240 293 340
#     4  10  22  37  59  85 120 153 189 247 290 341
#     4  10  18  36  61  86 114 151 202 245 280 340
#     4  11  20  41  62  84 118 151 204 242 281 339
#
# _framework density 20.746918000000001
#
# number of rings (size 3 to 8) (size 9 to 14) (size 15 to 20)
#    0.000    1.714    4.286    4.714    0.000    1.714 
#    0.000    9.286    0.000    0.000    0.000    0.000 
#    0.000    0.000    0.000    0.000    0.000    0.000 
#
# Total GULP energy -78195.538145 kJ/mol
# GULP energy per Si atom -5585.395582 kJ/mol
# Density = 2.069970 g / cm^3
# Si number density = 20.746918 Si / 1000 Ang^3
#
#
#
# Elastic Constant Matrix: (Units=GPa)
#
#
# Indices 1 2 3 4 5 6 
#
# 1 91.1366 4.9855 45.6355 12.9728 20.0198 5.6825
# 2 4.9855 40.8233 20.8280 7.7935 7.3062 -1.0229
# 3 45.6355 20.8280 142.3281 40.8893 36.0280 -5.1451
# 4 12.9728 7.7935 40.8893 36.3001 0.1439 1.1103
# 5 20.0198 7.3062 36.0280 0.1439 38.7544 5.0211
# 6 5.6825 -1.0229 -5.1451 1.1103 5.0211 19.1926
#
#
#
# Elastic Compliance Matrix: (Units=1/GPa)
#
#
# Indices 1 2 3 4 5 6 
#
# 1 0.013862 0.000830 -0.003532 -0.001017 -0.003508 -0.004030
# 2 0.000830 0.026904 -0.002114 -0.003732 -0.003758 0.001820
# 3 -0.003532 -0.002114 0.018736 -0.019673 -0.016604 0.011438
# 4 -0.001017 -0.003732 -0.019673 0.051207 0.021096 -0.013653
# 5 -0.003508 -0.003758 -0.016604 0.021096 0.045862 -0.016832
# 6 -0.004030 0.001820 0.011438 -0.013653 -0.016832 0.061653
#
#
# Mechanical properties :
#
#
# Convention : Reuss Voigt Hill
#
# Bulk Modulus (GPa) = 20.05184 46.35398 33.20291
# Shear Modulus (GPa) = 20.45170 32.37203 26.41186
#
# Velocity S-wave (km/s) = 3.14310 3.95439 3.57185
# Velocity P-wave (km/s) = 4.78101 6.57576 5.74886
#
# Compressibility (1/GPa) = 0.04987073
#
# Stress axis : x y z
#
# Youngs Moduli (GPa) = 72.13818 37.16970 53.37350
#
# Poissons Ratio (x) = -0.03085 0.18850
# Poissons Ratio (y) = -0.05987 0.11282
# Poissons Ratio (z) = 0.25477 0.07857
#
# Static dielectric constant tensor:
#      x y z
#    x 1.721530 0.039240 -0.004230 
#    y 0.039240 1.823940 -0.088510 
#    z -0.004230 -0.088510 1.850150 
# 
# From -- ./inp_files/326591.got.cif
#   From: 2010.05.17/outbox.cif.g08.bks.cpg/sg2_164_cif.got.tgz:326591.got - 2010.06.03 11:33:40.
