data_PCOD9076442
_publ_section_title
;
Structure prediction by ZEFSAII (Michael W. Deem and Ramdas Pophale) SiO2 
 PCOD9076442
Probable space group: P -1
;
_chemical_formula_sum "Si O2"
_cell_formula_units_Z 16
_cell_length_a 9.052194
_cell_length_b 18.039682
_cell_length_c 11.926312
_cell_angle_alpha 46.924679
_cell_angle_beta 62.386432
_cell_angle_gamma 102.746677
_cell_volume 703.161537
_symmetry_space_group_name_H-M "P -1"
_symmetry_group_IT_number 2
_symmetry_cell_setting 'triclinic'
loop_
_space_group_symop_operation_xyz
x,y,z
-x,-y,-z
loop_
_atom_site_type_symbol
_atom_site_label
_atom_site_fract_x
_atom_site_fract_y
_atom_site_fract_z
Si Si1 0.952563 0.215981 0.638744
Si Si2 0.157922 0.621255 0.468721
Si Si3 0.839486 0.463498 0.203714
Si Si4 0.385826 0.360944 0.067605
Si Si5 0.301043 0.209014 0.494317
Si Si6 0.488492 0.750619 0.015259
Si Si7 0.756141 0.104383 0.579526
Si Si8 0.557538 0.124239 0.432313
O O1 0.004767 0.120798 0.733479
O O2 0.840501 0.260099 0.698110
O O3 0.757954 0.122040 0.692133
O O4 0.295110 0.427271 0.282150
O O5 0.201245 0.628993 0.578027
O O6 0.407559 0.691843 0.234308
O O7 0.833543 0.412072 0.766134
O O8 0.526236 0.335684 0.389714
O O9 0.000000 0.500000 0.000000
O O10 0.104697 0.672929 0.930988
O O11 0.382393 0.306489 0.247169
O O12 0.105831 0.293974 0.229472
O O13 0.340283 0.253473 0.099952
O O14 0.337970 0.110995 0.537241
O O15 0.662777 0.943558 0.746488
O O16 0.565916 0.085439 0.595436
O O17 0.500000 0.000000 0.500000
#
# Coordination Sequence:
#
# PCOD9076442 Si02
#       8
#     2   2   2   2   2   2   2   2
#     4  10  19  34  55  81 109 141 184 227 269 319
#     4  10  21  38  58  79 110 151 186 221 271 328
#     4  10  18  33  56  81 106 141 185 226 269 321
#     4  10  19  36  58  84 110 141 184 231 276 320
#     4  10  19  32  54  80 106 136 178 228 270 314
#     4  10  21  36  57  82 113 146 184 225 269 330
#     4  11  20  33  57  85 110 141 183 232 275 319
#     4  11  20  30  49  81 115 138 169 225 282 323
#
# _framework density 22.754370999999999
#
# number of rings (size 3 to 8) (size 9 to 14) (size 15 to 20)
#    0.000    1.750    0.000    9.375    0.000    1.500 
#    0.000    0.000    0.000   21.750    0.000    0.000 
#    0.000    0.000    0.000    0.000    0.000    0.000 
#
# Total GULP energy -89105.831373 kJ/mol
# GULP energy per Si atom -5569.114461 kJ/mol
# Density = 2.270258 g / cm^3
# Si number density = 22.754371 Si / 1000 Ang^3
#
#
#
# Elastic Constant Matrix: (Units=GPa)
#
#
# Indices 1 2 3 4 5 6 
#
# 1 87.5448 45.8125 -0.9296 -0.5763 12.1788 8.1157
# 2 45.8125 119.7090 16.5869 -9.2446 -0.8759 -19.3402
# 3 -0.9296 16.5869 45.7789 -11.4794 -2.3849 -2.4554
# 4 -0.5763 -9.2446 -11.4794 40.6119 -5.9502 10.7143
# 5 12.1788 -0.8759 -2.3849 -5.9502 10.0796 -5.0933
# 6 8.1157 -19.3402 -2.4554 10.7143 -5.0933 32.1809
#
#
#
# Elastic Compliance Matrix: (Units=1/GPa)
#
#
# Indices 1 2 3 4 5 6 
#
# 1 0.028457 -0.015436 0.001402 -0.003902 -0.049237 -0.022840
# 2 -0.015436 0.018172 -0.003738 0.002392 0.030105 0.018497
# 3 0.001402 -0.003738 0.025541 0.008079 0.007723 -0.002119
# 4 -0.003902 0.002392 0.008079 0.031880 0.023722 -0.003822
# 5 -0.049237 0.030105 0.007723 0.023722 0.205290 0.055692
# 6 -0.022840 0.018497 -0.002119 -0.003822 0.055692 0.057876
#
#
# Mechanical properties :
#
#
# Convention : Reuss Voigt Hill
#
# Bulk Modulus (GPa) = 27.30199 41.77471 34.53835
# Shear Modulus (GPa) = 12.04910 29.34534 20.69722
#
# Velocity S-wave (km/s) = 2.30365 3.59508 3.01922
# Velocity P-wave (km/s) = 4.37039 5.96922 5.23125
#
# Compressibility (1/GPa) = 0.03662737
#
# Stress axis : x y z
#
# Youngs Moduli (GPa) = 35.14099 55.02877 39.15212
#
# Poissons Ratio (x) = 0.84944 -0.05490
# Poissons Ratio (y) = 0.54245 0.14633
# Poissons Ratio (z) = -0.04928 0.20567
#
# Static dielectric constant tensor:
#      x y z
#    x 1.904450 -0.020990 -0.017630 
#    y -0.020990 1.908200 -0.045800 
#    z -0.017630 -0.045800 2.006930 
# 
# From -- ./inp_files/402980.got.cif
#   From: 2010.05.17/outbox.cif.g08.bks.cpg/sg2_202_cif.got.tgz:402980.got - 2010.06.03 11:33:40.
