data_PCOD9076703
_publ_section_title
;
Structure prediction by ZEFSAII (Michael W. Deem and Ramdas Pophale) SiO2 
 PCOD9076703
Probable space group: P -1
;
_chemical_formula_sum "Si O2"
_cell_formula_units_Z 16
_cell_length_a 19.299998
_cell_length_b 9.172285
_cell_length_c 9.892859
_cell_angle_alpha 150.280060
_cell_angle_beta 104.992580
_cell_angle_gamma 80.199341
_cell_volume 833.225926
_symmetry_space_group_name_H-M "P -1"
_symmetry_group_IT_number 2
_symmetry_cell_setting 'triclinic'
loop_
_space_group_symop_operation_xyz
x,y,z
-x,-y,-z
loop_
_atom_site_type_symbol
_atom_site_label
_atom_site_fract_x
_atom_site_fract_y
_atom_site_fract_z
Si Si1 0.198312 0.675066 0.451709
Si Si2 0.394216 0.130785 0.853567
Si Si3 0.357744 0.125665 0.359735
Si Si4 0.686162 0.528346 0.139678
Si Si5 0.513986 0.378274 0.558345
Si Si6 0.170154 0.168398 0.644711
Si Si7 0.915512 0.409930 0.875265
Si Si8 0.720221 0.897800 0.985485
O O1 0.115350 0.587829 0.292997
O O2 0.242252 0.402538 0.223904
O O3 0.215984 0.949715 0.578061
O O4 0.220826 0.822136 0.724543
O O5 0.464121 0.346491 0.110978
O O6 0.342893 0.092730 0.928489
O O7 0.356522 0.289391 0.841638
O O8 0.420038 0.819992 0.574323
O O9 0.337914 0.390012 0.657164
O O10 0.442183 0.184107 0.416678
O O11 0.313766 0.105842 0.182202
O O12 0.334596 0.817498 0.175528
O O13 0.771535 0.629885 0.249578
O O14 0.500000 0.500000 0.500000
O O15 0.110448 0.923249 0.352874
O O16 0.128375 0.368321 0.883879
O O17 0.000000 0.500000 0.000000
#
# Coordination Sequence:
#
# PCOD9076703 Si02
#       8
#     2   2   2   2   2   2   2   2
#     4  10  19  34  61  90 120 147 204 234 293 348
#     4  12  24  40  70  79 117 160 199 258 318 358
#     4  12  28  40  60  86 123 153 208 255 306 366
#     4  12  25  43  60  91 121 159 200 251 306 361
#     4  12  26  42  62  88 115 154 209 258 316 365
#     4  10  20  35  60  90 127 155 192 241 293 355
#     4  10  18  33  59 101 132 150 188 250 293 336
#     4  12  22  39  62  89 112 163 202 256 295 349
#
# _framework density 19.202473999999999
#
# number of rings (size 3 to 8) (size 9 to 14) (size 15 to 20)
#    0.750    0.000    3.750    4.500    3.500    3.000 
#    0.000    0.000    0.000    0.000    0.000   17.500 
#    0.000    0.000    0.000    0.000    0.000    0.000 
#
# Total GULP energy -89296.608769 kJ/mol
# GULP energy per Si atom -5581.038048 kJ/mol
# Density = 1.915877 g / cm^3
# Si number density = 19.202474 Si / 1000 Ang^3
#
#
#
# Elastic Constant Matrix: (Units=GPa)
#
#
# Indices 1 2 3 4 5 6 
#
# 1 92.0123 22.1704 22.0808 -3.2057 18.6648 -2.2445
# 2 22.1704 36.5915 -5.9108 -3.8414 1.7296 -3.0496
# 3 22.0808 -5.9108 86.9315 5.4238 2.4311 -2.9441
# 4 -3.2057 -3.8414 5.4238 34.3207 -2.4503 6.1706
# 5 18.6648 1.7296 2.4311 -2.4503 34.9902 1.0345
# 6 -2.2445 -3.0496 -2.9441 6.1706 1.0345 18.0055
#
#
#
# Elastic Compliance Matrix: (Units=1/GPa)
#
#
# Indices 1 2 3 4 5 6 
#
# 1 0.015932 -0.009984 -0.004555 0.000583 -0.007642 -0.000211
# 2 -0.009984 0.034563 0.004856 0.001559 0.003251 0.004682
# 3 -0.004555 0.004856 0.013226 -0.002477 0.001003 0.003209
# 4 0.000583 0.001559 -0.002477 0.031929 0.002350 -0.011146
# 5 -0.007642 0.003251 0.001003 0.002350 0.032676 -0.002921
# 6 -0.000211 0.004682 0.003209 -0.011146 -0.002921 0.060818
#
#
# Mechanical properties :
#
#
# Convention : Reuss Voigt Hill
#
# Bulk Modulus (GPa) = 22.54564 32.46844 27.50704
# Shear Modulus (GPa) = 22.39189 29.27626 25.83407
#
# Velocity S-wave (km/s) = 3.41852 3.90886 3.67188
# Velocity P-wave (km/s) = 5.22955 6.10880 5.68619
#
# Compressibility (1/GPa) = 0.04435447
#
# Stress axis : x y z
#
# Youngs Moduli (GPa) = 62.76555 28.93285 75.60968
#
# Poissons Ratio (x) = 0.28887 0.34444
# Poissons Ratio (y) = 0.62667 -0.36720
# Poissons Ratio (z) = 0.28593 -0.14051
#
# Static dielectric constant tensor:
#      x y z
#    x 1.668230 -0.004960 0.041490 
#    y -0.004960 1.681300 -0.003320 
#    z 0.041490 -0.003320 1.690690 
# 
# From -- ./inp_files/343149.got.cif
#   From: 2010.05.17/outbox.cif.g08.bks.cpg/sg2_172_cif.got.tgz:343149.got - 2010.06.03 11:33:40.
