data_PCOD9076666
_publ_section_title
;
Structure prediction by ZEFSAII (Michael W. Deem and Ramdas Pophale) SiO2 
 PCOD9076666
Probable space group: P -1
;
_chemical_formula_sum "Si O2"
_cell_formula_units_Z 16
_cell_length_a 19.430252
_cell_length_b 24.777662
_cell_length_c 9.275977
_cell_angle_alpha 124.036803
_cell_angle_beta 45.290360
_cell_angle_gamma 161.656447
_cell_volume 874.560487
_symmetry_space_group_name_H-M "P -1"
_symmetry_group_IT_number 2
_symmetry_cell_setting 'triclinic'
loop_
_space_group_symop_operation_xyz
x,y,z
-x,-y,-z
loop_
_atom_site_type_symbol
_atom_site_label
_atom_site_fract_x
_atom_site_fract_y
_atom_site_fract_z
Si Si1 0.076924 0.833144 0.810992
Si Si2 0.907097 0.861163 0.001009
Si Si3 0.597689 0.128609 0.273069
Si Si4 0.606824 0.789424 0.406056
Si Si5 0.357989 0.559205 0.200741
Si Si6 0.007303 0.427199 0.356473
Si Si7 0.667061 0.267231 0.116542
Si Si8 0.505333 0.083649 0.808622
O O1 0.906769 0.791853 0.972151
O O2 0.865776 0.639258 0.801560
O O3 0.338643 0.994258 0.550818
O O4 0.225587 0.923236 0.883086
O O5 0.814005 0.859878 0.245926
O O6 0.667058 0.720128 0.017131
O O7 0.215247 0.067238 0.777046
O O8 0.894149 0.336321 0.230053
O O9 0.598736 0.164333 0.172064
O O10 0.551623 0.021832 0.188835
O O11 0.323901 0.576487 0.429591
O O12 0.525401 0.792481 0.642602
O O13 0.307750 0.582530 0.188832
O O14 0.769553 0.246340 0.547785
O O15 0.000000 0.500000 0.500000
O O16 0.593193 0.194533 0.958476
O O17 0.000000 0.500000 0.000000
#
# Coordination Sequence:
#
# PCOD9076666 Si02
#       8
#     2   2   2   2   2   2   2   2
#     4  11  19  37  61  89 112 151 201 240 292 334
#     4   9  20  35  61  87 109 155 196 250 275 332
#     4  11  21  38  58  84 121 156 193 241 294 345
#     4   9  20  37  55  88 112 148 199 239 286 334
#     4  10  18  33  58  88 115 137 205 241 281 336
#     4  11  20  33  59  91 116 149 194 248 285 336
#     4  12  24  40  58  86 122 158 192 234 305 360
#     4  11  23  37  55  88 124 156 185 244 300 352
#
# _framework density 18.294903999999999
#
# number of rings (size 3 to 8) (size 9 to 14) (size 15 to 20)
#    0.750    0.750    3.750    3.750    1.750    0.000 
#    0.000    0.625    0.000    0.750    0.000    0.000 
#    0.000    0.000    0.000    0.000    0.000    0.000 
#
# Total GULP energy -89099.248319 kJ/mol
# GULP energy per Si atom -5568.703020 kJ/mol
# Density = 1.825326 g / cm^3
# Si number density = 18.294904 Si / 1000 Ang^3
#
#
#
# Elastic Constant Matrix: (Units=GPa)
#
#
# Indices 1 2 3 4 5 6 
#
# 1 96.5342 36.1896 28.0936 6.3485 -28.0082 -9.2408
# 2 36.1896 99.6146 20.3453 12.7985 -10.0073 5.9214
# 3 28.0936 20.3453 57.7283 11.6856 -17.1886 6.0412
# 4 6.3485 12.7985 11.6856 26.5310 -2.8103 -1.4358
# 5 -28.0082 -10.0073 -17.1886 -2.8103 33.9595 7.1623
# 6 -9.2408 5.9214 6.0412 -1.4358 7.1623 33.5969
#
#
#
# Elastic Compliance Matrix: (Units=1/GPa)
#
#
# Indices 1 2 3 4 5 6 
#
# 1 0.016275 -0.004539 -0.004317 0.001390 0.009137 0.004164
# 2 -0.004539 0.012696 -0.000974 -0.004815 -0.000159 -0.003483
# 3 -0.004317 -0.000974 0.025423 -0.009076 0.009978 -0.008102
# 4 0.001390 -0.004815 -0.009076 0.043714 -0.002352 0.005233
# 5 0.009137 -0.000159 0.009978 -0.002352 0.043616 -0.008652
# 6 0.004164 -0.003483 -0.008102 0.005233 -0.008652 0.035049
#
#
# Mechanical properties :
#
#
# Convention : Reuss Voigt Hill
#
# Bulk Modulus (GPa) = 28.79044 47.01492 37.90268
# Shear Modulus (GPa) = 24.03713 30.10070 27.06892
#
# Velocity S-wave (km/s) = 3.62867 4.06064 3.85071
# Velocity P-wave (km/s) = 5.77298 6.90936 6.36657
#
# Compressibility (1/GPa) = 0.03473376
#
# Stress axis : x y z
#
# Youngs Moduli (GPa) = 61.44244 78.76278 39.33485
#
# Poissons Ratio (x) = 0.35752 0.16982
# Poissons Ratio (y) = 0.27890 0.03830
# Poissons Ratio (z) = 0.26527 0.07670
#
# Static dielectric constant tensor:
#      x y z
#    x 1.652060 -0.001500 -0.029280 
#    y -0.001500 1.679860 -0.012870 
#    z -0.029280 -0.012870 1.619210 
# 
# From -- ./inp_files/276534.got.cif
#   From: 2010.05.17/outbox.cif.g08.bks.cpg/sg2_139_cif.got.tgz:276534.got - 2010.06.03 11:33:40.
