data_PCOD9076606
_publ_section_title
;
Structure prediction by ZEFSAII (Michael W. Deem and Ramdas Pophale) SiO2 
 PCOD9076606
Probable space group: P -1
;
_chemical_formula_sum "Si O2"
_cell_formula_units_Z 16
_cell_length_a 9.812231
_cell_length_b 18.545455
_cell_length_c 7.768180
_cell_angle_alpha 132.865379
_cell_angle_beta 134.339209
_cell_angle_gamma 70.681643
_cell_volume 712.270725
_symmetry_space_group_name_H-M "P -1"
_symmetry_group_IT_number 2
_symmetry_cell_setting 'triclinic'
loop_
_space_group_symop_operation_xyz
x,y,z
-x,-y,-z
loop_
_atom_site_type_symbol
_atom_site_label
_atom_site_fract_x
_atom_site_fract_y
_atom_site_fract_z
Si Si1 0.577271 0.860926 0.230709
Si Si2 0.096699 0.100677 0.859767
Si Si3 0.989812 0.644213 0.363492
Si Si4 0.398141 0.626490 0.619945
Si Si5 0.574938 0.518035 0.897402
Si Si6 0.306803 0.968513 0.018629
Si Si7 0.073931 0.198874 0.678480
Si Si8 0.786407 0.140956 0.910703
O O1 0.472227 0.748802 0.878240
O O2 0.519079 0.944053 0.187853
O O3 0.446461 0.860984 0.288685
O O4 0.802737 0.858309 0.428277
O O5 0.164285 0.192641 0.934974
O O6 0.266194 0.067657 0.060521
O O7 0.918717 0.122394 0.844535
O O8 0.000000 0.000000 0.500000
O O9 0.907198 0.689509 0.195955
O O10 0.095740 0.748615 0.729844
O O11 0.161140 0.594590 0.379650
O O12 0.810195 0.573422 0.195328
O O13 0.479998 0.590742 0.812071
O O14 0.454194 0.578221 0.415498
O O15 0.500000 0.500000 0.000000
O O16 0.155364 0.868532 0.632276
O O17 0.224842 0.950615 0.112006
#
# Coordination Sequence:
#
# PCOD9076606 Si02
#       8
#     2   2   2   2   2   2   2   2
#     4   9  18  35  59  79 111 157 190 232 293 343
#     4  10  19  33  55  86 115 149 198 243 288 341
#     4  10  20  41  60  82 120 158 192 235 301 351
#     4  10  21  42  62  87 126 151 191 248 295 349
#     4  11  24  40  64  93 116 154 195 245 297 357
#     4   8  18  34  56  74 115 148 191 233 285 327
#     4  10  18  33  58  79 111 151 188 232 289 336
#     4   8  18  35  57  77 111 157 190 236 291 342
#
# _framework density 22.463367999999999
#
# number of rings (size 3 to 8) (size 9 to 14) (size 15 to 20)
#    0.750    1.750    2.500    0.750    0.000    2.000 
#    4.500    2.500   11.000    0.000    0.000    0.000 
#    0.000    0.000    0.000    0.000    0.000    0.000 
#
# Total GULP energy -89129.132684 kJ/mol
# GULP energy per Si atom -5570.570793 kJ/mol
# Density = 2.241224 g / cm^3
# Si number density = 22.463368 Si / 1000 Ang^3
#
#
#
# Elastic Constant Matrix: (Units=GPa)
#
#
# Indices 1 2 3 4 5 6 
#
# 1 113.4370 45.7712 16.5998 -11.2982 -8.1575 5.2206
# 2 45.7712 68.1652 16.3536 -22.0310 3.5008 3.5452
# 3 16.5998 16.3536 65.8672 -9.1329 7.5224 1.5907
# 4 -11.2982 -22.0310 -9.1329 33.0860 -4.9322 5.1628
# 5 -8.1575 3.5008 7.5224 -4.9322 35.8406 -3.0077
# 6 5.2206 3.5452 1.5907 5.1628 -3.0077 38.6635
#
#
#
# Elastic Compliance Matrix: (Units=1/GPa)
#
#
# Indices 1 2 3 4 5 6 
#
# 1 0.012767 -0.008778 -0.001655 -0.001302 0.003900 -0.000374
# 2 -0.008778 0.025755 -0.001918 0.013740 -0.002482 -0.003125
# 3 -0.001655 -0.001918 0.016829 0.002425 -0.003462 -0.000886
# 4 -0.001302 0.013740 0.002425 0.041044 0.002961 -0.006434
# 5 0.003900 -0.002482 -0.003462 0.002961 0.030317 0.001806
# 6 -0.000374 -0.003125 -0.000886 -0.006434 0.001806 0.027237
#
#
# Mechanical properties :
#
#
# Convention : Reuss Voigt Hill
#
# Bulk Modulus (GPa) = 32.62748 44.99095 38.80922
# Shear Modulus (GPa) = 26.47354 32.76768 29.62061
#
# Velocity S-wave (km/s) = 3.43668 3.82346 3.63522
# Velocity P-wave (km/s) = 5.50491 6.28998 5.91049
#
# Compressibility (1/GPa) = 0.03064901
#
# Stress axis : x y z
#
# Youngs Moduli (GPa) = 78.32490 38.82700 59.42296
#
# Poissons Ratio (x) = 0.34080 0.09836
# Poissons Ratio (y) = 0.68750 0.11399
# Poissons Ratio (z) = 0.12965 0.07448
#
# Static dielectric constant tensor:
#      x y z
#    x 1.855120 -0.013570 -0.022590 
#    y -0.013570 1.868990 -0.021240 
#    z -0.022590 -0.021240 1.931700 
# 
# From -- ./inp_files/215627.got.cif
#   From: 2010.05.17/outbox.cif.g08.bks.cpg/sg2_108_cif.got.tgz:215627.got - 2010.06.03 11:33:40.
