data_PCOD9076075
_publ_section_title
;
Structure prediction by ZEFSAII (Michael W. Deem and Ramdas Pophale) SiO2 
 PCOD9076075
Probable space group: P -1
;
_chemical_formula_sum "Si O2"
_cell_formula_units_Z 12
_cell_length_a 20.858103
_cell_length_b 8.004447
_cell_length_c 10.070828
_cell_angle_alpha 134.748977
_cell_angle_beta 29.979742
_cell_angle_gamma 140.767020
_cell_volume 528.481499
_symmetry_space_group_name_H-M "P -1"
_symmetry_group_IT_number 2
_symmetry_cell_setting 'triclinic'
loop_
_space_group_symop_operation_xyz
x,y,z
-x,-y,-z
loop_
_atom_site_type_symbol
_atom_site_label
_atom_site_fract_x
_atom_site_fract_y
_atom_site_fract_z
Si Si1 0.800546 0.960973 0.955429
Si Si2 0.829989 0.326694 0.323518
Si Si3 0.376138 0.921355 0.070621
Si Si4 0.907062 0.550887 0.585078
Si Si5 0.671375 0.684801 0.768406
Si Si6 0.433369 0.203983 0.510003
O O1 0.636518 0.810023 0.228410
O O2 0.872383 0.240114 0.060323
O O3 0.902187 0.827537 0.737249
O O4 0.764396 0.908623 0.836883
O O5 0.928843 0.467516 0.351380
O O6 0.744754 0.491841 0.530258
O O7 0.712020 0.033415 0.426585
O O8 0.253429 0.646132 0.187809
O O9 0.323665 0.143332 0.272085
O O10 0.443858 0.885989 0.789703
O O11 0.500000 0.000000 0.000000
O O12 0.000000 0.500000 0.500000
O O13 0.500000 0.500000 0.000000
O O14 0.500000 0.500000 0.500000
#
# Coordination Sequence:
#
# PCOD9076075 Si02
#       6
#     2   2   2   2   2   2
#     4   9  20  38  53  82 119 148 193 232 287 347
#     4   9  20  38  55  82 117 156 179 240 289 338
#     4  12  20  37  57  87 117 146 194 240 288 345
#     4  11  22  38  62  86 112 154 197 242 286 340
#     4  11  20  32  58  86 117 156 184 237 295 344
#     4  10  18  32  60  84 115 151 185 238 286 332
#
# _framework density 22.706565000000001
#
# number of rings (size 3 to 8) (size 9 to 14) (size 15 to 20)
#    1.000    0.667    5.000    1.000    0.000    3.333 
#    0.000    3.333    0.000    2.000    0.000    0.000 
#    0.000    0.000    0.000    0.000    0.000    0.000 
#
# Total GULP energy -66860.708043 kJ/mol
# GULP energy per Si atom -5571.725670 kJ/mol
# Density = 2.265488 g / cm^3
# Si number density = 22.706565 Si / 1000 Ang^3
#
#
#
# Elastic Constant Matrix: (Units=GPa)
#
#
# Indices 1 2 3 4 5 6 
#
# 1 145.7085 36.8495 70.6050 29.5206 -22.5123 9.6706
# 2 36.8495 67.1828 36.3860 27.9536 5.0306 7.9510
# 3 70.6050 36.3860 72.6079 14.8102 -1.3379 16.4219
# 4 29.5206 27.9536 14.8102 42.4663 -11.5872 7.2096
# 5 -22.5123 5.0306 -1.3379 -11.5872 38.0784 -1.2616
# 6 9.6706 7.9510 16.4219 7.2096 -1.2616 34.7881
#
#
#
# Elastic Compliance Matrix: (Units=1/GPa)
#
#
# Indices 1 2 3 4 5 6 
#
# 1 0.016370 0.000655 -0.016064 -0.004814 0.007700 0.004160
# 2 0.000655 0.029245 -0.012252 -0.018413 -0.009430 0.002391
# 3 -0.016064 -0.012252 0.036632 0.007126 -0.004810 -0.011678
# 4 -0.004814 -0.018413 0.007126 0.040812 0.012062 -0.005838
# 5 0.007700 -0.009430 -0.004810 0.012062 0.035597 0.001077
# 6 0.004160 0.002391 -0.011678 -0.005838 0.001077 0.033804
#
#
# Mechanical properties :
#
#
# Convention : Reuss Voigt Hill
#
# Bulk Modulus (GPa) = 37.13778 63.68668 50.41223
# Shear Modulus (GPa) = 19.47363 32.51048 25.99206
#
# Velocity S-wave (km/s) = 2.93169 3.78797 3.38700
# Velocity P-wave (km/s) = 5.27739 6.87315 6.12744
#
# Compressibility (1/GPa) = 0.02692676
#
# Stress axis : x y z
#
# Youngs Moduli (GPa) = 61.08629 34.19374 27.29831
#
# Poissons Ratio (x) = -0.02241 0.43852
# Poissons Ratio (y) = -0.04003 0.33445
# Poissons Ratio (z) = 0.98130 0.41893
#
# Static dielectric constant tensor:
#      x y z
#    x 1.805970 0.025520 0.084760 
#    y 0.025520 1.908670 -0.018970 
#    z 0.084760 -0.018970 1.904190 
# 
# From -- ./inp_files/301842.got.cif
#   From: 2010.05.17/outbox.cif.g08.bks.cpg/sg2_151_cif.got.tgz:301842.got - 2010.06.03 11:33:40.
