data_PCOD9076037
_publ_section_title
;
Structure prediction by ZEFSAII (Michael W. Deem and Ramdas Pophale) SiO2 
 PCOD9076037
Probable space group: P -1
;
_chemical_formula_sum "Si O2"
_cell_formula_units_Z 14
_cell_length_a 12.424774
_cell_length_b 8.435626
_cell_length_c 11.258919
_cell_angle_alpha 58.044073
_cell_angle_beta 123.483328
_cell_angle_gamma 145.669768
_cell_volume 548.211701
_symmetry_space_group_name_H-M "P -1"
_symmetry_group_IT_number 2
_symmetry_cell_setting 'triclinic'
loop_
_space_group_symop_operation_xyz
x,y,z
-x,-y,-z
loop_
_atom_site_type_symbol
_atom_site_label
_atom_site_fract_x
_atom_site_fract_y
_atom_site_fract_z
Si Si1 0.497248 0.716355 0.533746
Si Si2 0.289260 0.676294 0.607104
Si Si3 0.197665 0.021661 0.752679
Si Si4 0.577001 0.228274 0.854061
Si Si5 0.167918 0.799341 0.056999
Si Si6 0.194147 0.242268 0.336953
Si Si7 0.000293 0.463623 0.709702
O O1 0.399177 0.616473 0.643927
O O2 0.334174 0.463581 0.442963
O O3 0.706599 0.842486 0.604061
O O4 0.553576 0.986403 0.425695
O O5 0.169474 0.541058 0.709759
O O6 0.139867 0.588913 0.449382
O O7 0.083788 0.725881 0.735185
O O8 0.029654 0.998262 0.660087
O O9 0.408835 0.204997 0.748402
O O10 0.229880 0.023311 0.912057
O O11 0.653497 0.151711 0.842426
O O12 0.767114 0.574009 0.822842
O O13 0.500000 0.000000 0.000000
O O14 0.100093 0.774290 0.157315
O O15 0.000000 0.500000 0.000000
#
# Coordination Sequence:
#
# PCOD9076037 Si02
#       7
#     2   2   2   2   2   2   2
#     4  10  22  38  58  80 121 161 193 243 289 343
#     4  10  20  37  56  84 113 163 199 225 296 357
#     4  10  19  33  58  94 112 146 191 250 293 333
#     4  10  19  31  57  90 115 144 183 236 299 338
#     4   9  16  32  56  87 115 141 186 248 279 333
#     4  11  20  39  57  89 122 145 196 255 286 333
#     4  10  18  32  59  83 115 148 199 239 282 352
#
# _framework density 25.537580999999999
#
# number of rings (size 3 to 8) (size 9 to 14) (size 15 to 20)
#    0.000    2.000    4.286    0.857    0.000    1.143 
#    5.143    2.143    0.000    1.714    0.000    0.000 
#    0.000    0.000    0.000    0.000    0.000    0.000 
#
# Total GULP energy -78025.441503 kJ/mol
# GULP energy per Si atom -5573.245822 kJ/mol
# Density = 2.547946 g / cm^3
# Si number density = 25.537581 Si / 1000 Ang^3
#
#
#
# Elastic Constant Matrix: (Units=GPa)
#
#
# Indices 1 2 3 4 5 6 
#
# 1 242.1662 26.8783 60.6154 4.5200 1.4557 45.4016
# 2 26.8783 52.5498 11.5541 -3.1483 -3.4421 27.7174
# 3 60.6154 11.5541 96.7004 -6.9684 -12.8986 16.0958
# 4 4.5200 -3.1483 -6.9684 22.0557 15.5732 -1.3265
# 5 1.4557 -3.4421 -12.8986 15.5732 54.1350 -2.0591
# 6 45.4016 27.7174 16.0958 -1.3265 -2.0591 41.7759
#
#
#
# Elastic Compliance Matrix: (Units=1/GPa)
#
#
# Indices 1 2 3 4 5 6 
#
# 1 0.005952 0.000474 -0.003055 -0.002135 -0.000460 -0.005697
# 2 0.000474 0.029518 -0.000286 0.002630 0.000283 -0.019892
# 3 -0.003055 -0.000286 0.013025 0.003038 0.002244 -0.001302
# 4 -0.002135 0.002630 0.003038 0.058301 -0.015805 0.000477
# 5 -0.000460 0.000283 0.002244 -0.015805 0.023588 0.000109
# 6 -0.005697 -0.019892 -0.001302 0.000477 0.000109 0.043848
#
#
# Mechanical properties :
#
#
# Convention : Reuss Voigt Hill
#
# Bulk Modulus (GPa) = 23.38504 65.50133 44.44318
# Shear Modulus (GPa) = 25.74408 43.08458 34.41433
#
# Velocity S-wave (km/s) = 3.17848 4.11189 3.67494
# Velocity P-wave (km/s) = 4.75892 6.94610 5.95380
#
# Compressibility (1/GPa) = 0.04276239
#
# Stress axis : x y z
#
# Youngs Moduli (GPa) = 168.01121 33.87742 76.77525
#
# Poissons Ratio (x) = -0.01605 0.23452
# Poissons Ratio (y) = -0.07962 0.02193
# Poissons Ratio (z) = 0.51321 0.00968
#
# Static dielectric constant tensor:
#      x y z
#    x 2.075130 0.012260 0.000980 
#    y 0.012260 2.115370 -0.044930 
#    z 0.000980 -0.044930 2.094350 
# 
# From -- ./inp_files/416942.got.cif
#   From: 2010.05.17/outbox.cif.g08.bks.cpg/sg2_209_cif.got.tgz:416942.got - 2010.06.03 11:33:40.
