data_PCOD9076682
_publ_section_title
;
Structure prediction by ZEFSAII (Michael W. Deem and Ramdas Pophale) SiO2 
 PCOD9076682
Probable space group: P -1
;
_chemical_formula_sum "Si O2"
_cell_formula_units_Z 16
_cell_length_a 18.250148
_cell_length_b 19.205754
_cell_length_c 5.448199
_cell_angle_alpha 114.847361
_cell_angle_beta 56.766262
_cell_angle_gamma 155.325587
_cell_volume 650.043286
_symmetry_space_group_name_H-M "P -1"
_symmetry_group_IT_number 2
_symmetry_cell_setting 'triclinic'
loop_
_space_group_symop_operation_xyz
x,y,z
-x,-y,-z
loop_
_atom_site_type_symbol
_atom_site_label
_atom_site_fract_x
_atom_site_fract_y
_atom_site_fract_z
Si Si1 0.658674 0.056330 0.734242
Si Si2 0.009117 0.627881 0.151130
Si Si3 0.299449 0.175874 0.115043
Si Si4 0.585305 0.909724 0.141302
Si Si5 0.691014 0.588748 0.996457
Si Si6 0.700748 0.777636 0.316759
Si Si7 0.828299 0.367512 0.425420
Si Si8 0.245284 0.433787 0.655622
O O1 0.621832 0.985865 0.439229
O O2 0.877667 0.260816 0.644777
O O3 0.673079 0.010034 0.874431
O O4 0.500000 0.000000 0.000000
O O5 0.861169 0.446785 0.244871
O O6 0.889476 0.599515 0.196570
O O7 0.173194 0.718678 0.811165
O O8 0.194391 0.117065 0.470169
O O9 0.364733 0.139244 0.969924
O O10 0.484139 0.380449 0.067209
O O11 0.199000 0.109776 0.940789
O O12 0.357451 0.744598 0.267989
O O13 0.781575 0.641979 0.643912
O O14 0.668115 0.661067 0.184214
O O15 0.799957 0.640485 0.111229
O O16 0.477378 0.636857 0.531578
O O17 0.000000 0.500000 0.500000
#
# Coordination Sequence:
#
# PCOD9076682 Si02
#       8
#     2   2   2   2   2   2   2   2
#     4  12  26  48  64  89 126 186 230 256 317 390
#     4  11  26  41  63  95 129 171 213 277 321 387
#     4  10  19  32  55  89 119 154 204 258 304 364
#     4  12  26  43  68  92 130 176 223 270 312 382
#     4  10  19  34  56  92 128 161 193 258 330 387
#     4  10  18  33  58  90 130 158 196 256 330 385
#     4  11  25  40  66  94 129 165 216 273 344 365
#     4  10  20  32  54  85 123 155 201 247 312 370
#
# _framework density 24.613745999999999
#
# number of rings (size 3 to 8) (size 9 to 14) (size 15 to 20)
#    0.000    1.250    1.250    7.125    8.750    0.000 
#    0.000    0.000    0.000    0.000    0.000   29.750 
#    0.000    0.000    0.000    0.000    0.000    0.000 
#
# Total GULP energy -89509.107718 kJ/mol
# GULP energy per Si atom -5594.319232 kJ/mol
# Density = 2.455772 g / cm^3
# Si number density = 24.613746 Si / 1000 Ang^3
#
#
#
# Elastic Constant Matrix: (Units=GPa)
#
#
# Indices 1 2 3 4 5 6 
#
# 1 174.8485 32.7656 54.1272 16.0363 16.9800 -8.4580
# 2 32.7656 26.4425 19.8403 8.5339 -1.9650 -5.9588
# 3 54.1272 19.8403 100.3393 29.3735 25.8352 -7.5919
# 4 16.0363 8.5339 29.3735 28.6204 7.9346 2.7554
# 5 16.9800 -1.9650 25.8352 7.9346 57.5672 6.6547
# 6 -8.4580 -5.9588 -7.5919 2.7554 6.6547 28.0897
#
#
#
# Elastic Compliance Matrix: (Units=1/GPa)
#
#
# Indices 1 2 3 4 5 6 
#
# 1 0.008224 -0.008688 -0.002564 0.001075 -0.001749 0.000249
# 2 -0.008688 0.057897 -0.005228 -0.009793 0.007371 0.007467
# 3 -0.002564 -0.005228 0.019049 -0.015337 -0.006589 0.006333
# 4 0.001075 -0.009793 -0.015337 0.054057 0.000078 -0.011220
# 5 -0.001749 0.007371 -0.006589 0.000078 0.021768 -0.005908
# 6 0.000249 0.007467 0.006333 -0.011220 -0.005908 0.041471
#
#
# Mechanical properties :
#
#
# Convention : Reuss Voigt Hill
#
# Bulk Modulus (GPa) = 19.15334 57.23296 38.19315
# Shear Modulus (GPa) = 19.77623 35.84860 27.81241
#
# Velocity S-wave (km/s) = 2.83762 3.82048 3.36513
# Velocity P-wave (km/s) = 4.30518 6.53945 5.53619
#
# Compressibility (1/GPa) = 0.05221022
#
# Stress axis : x y z
#
# Youngs Moduli (GPa) = 121.59006 17.27218 52.49694
#
# Poissons Ratio (x) = 0.15005 0.13462
# Poissons Ratio (y) = 1.05633 0.27444
# Poissons Ratio (z) = 0.31180 0.09029
#
# Static dielectric constant tensor:
#      x y z
#    x 1.938110 -0.014870 0.070790 
#    y -0.014870 2.009880 -0.010940 
#    z 0.070790 -0.010940 2.025060 
# 
# From -- ./inp_files/37622.got.cif
#   From: 2010.05.17/outbox.cif.g08.bks.cpg/sg2_19_cif.got.tgz:37622.got - 2010.06.03 11:33:40.
