data_PCOD9076609
_publ_section_title
;
Structure prediction by ZEFSAII (Michael W. Deem and Ramdas Pophale) SiO2 
 PCOD9076609
Probable space group: P -1
;
_chemical_formula_sum "Si O2"
_cell_formula_units_Z 14
_cell_length_a 12.227130
_cell_length_b 19.235968
_cell_length_c 8.140990
_cell_angle_alpha 39.666851
_cell_angle_beta 106.984929
_cell_angle_gamma 139.203889
_cell_volume 572.756012
_symmetry_space_group_name_H-M "P -1"
_symmetry_group_IT_number 2
_symmetry_cell_setting 'triclinic'
loop_
_space_group_symop_operation_xyz
x,y,z
-x,-y,-z
loop_
_atom_site_type_symbol
_atom_site_label
_atom_site_fract_x
_atom_site_fract_y
_atom_site_fract_z
Si Si1 0.417460 0.660243 0.327014
Si Si2 0.936871 0.225777 0.303293
Si Si3 0.389267 0.306529 0.909128
Si Si4 0.524169 0.199117 0.311989
Si Si5 0.288053 0.366084 0.040546
Si Si6 0.969948 0.614898 0.591365
Si Si7 0.705279 0.295465 0.545769
O O1 0.634285 0.799513 0.059117
O O2 0.398281 0.563550 0.644719
O O3 0.186906 0.453030 0.488879
O O4 0.392926 0.757897 0.220832
O O5 0.942190 0.246504 0.463847
O O6 0.066043 0.221697 0.308693
O O7 0.092830 0.450387 0.879136
O O8 0.685787 0.023592 0.477623
O O9 0.500000 0.500000 0.500000
O O10 0.230882 0.238289 0.095231
O O11 0.518496 0.326900 0.053310
O O12 0.516005 0.158767 0.569572
O O13 0.772140 0.371371 0.029171
O O14 0.500000 0.500000 0.000000
O O15 0.172827 0.718457 0.402125
#
# Coordination Sequence:
#
# PCOD9076609 Si02
#       7
#     2   2   2   2   2   2   2
#     4   9  18  34  56  81 110 142 182 226 270 325
#     4  10  21  35  56  85 112 141 185 229 268 324
#     4   9  18  33  54  76 105 142 176 219 272 318
#     4  10  20  36  57  82 112 143 184 229 268 321
#     4  10  18  33  58  80 106 145 182 224 274 323
#     4  10  20  36  57  81 112 148 181 223 277 323
#     4  10  20  35  58  81 109 149 184 223 272 323
#
# _framework density 24.443217000000001
#
# number of rings (size 3 to 8) (size 9 to 14) (size 15 to 20)
#    0.000    2.286    0.000    5.571    0.000    2.857 
#    0.000    5.714    0.000   48.000    0.000    0.000 
#    0.000    0.000    0.000    0.000    0.000    0.000 
#
# Total GULP energy -78022.426918 kJ/mol
# GULP energy per Si atom -5573.030494 kJ/mol
# Density = 2.438758 g / cm^3
# Si number density = 24.443217 Si / 1000 Ang^3
#
#
#
# Elastic Constant Matrix: (Units=GPa)
#
#
# Indices 1 2 3 4 5 6 
#
# 1 167.3598 55.5691 44.9124 8.2470 -36.4388 -42.9866
# 2 55.5691 153.5583 48.7662 -15.7357 -17.1263 -18.8917
# 3 44.9124 48.7662 76.1069 -1.5938 -10.2424 -11.5135
# 4 8.2470 -15.7357 -1.5938 32.5812 -6.0919 0.3826
# 5 -36.4388 -17.1263 -10.2424 -6.0919 33.6995 17.5895
# 6 -42.9866 -18.8917 -11.5135 0.3826 17.5895 47.8119
#
#
#
# Elastic Compliance Matrix: (Units=1/GPa)
#
#
# Indices 1 2 3 4 5 6 
#
# 1 0.010267 -0.001506 -0.003500 -0.002465 0.005878 0.005650
# 2 -0.001506 0.009367 -0.004627 0.005147 0.002518 0.000266
# 3 -0.003500 -0.004627 0.018020 -0.000562 -0.000533 -0.000434
# 4 -0.002465 0.005147 -0.000562 0.035315 0.008016 -0.003549
# 5 0.005878 0.002518 -0.000533 0.008016 0.043837 -0.010040
# 6 0.005650 0.000266 -0.000434 -0.003549 -0.010040 0.029718
#
#
# Mechanical properties :
#
#
# Convention : Reuss Voigt Hill
#
# Bulk Modulus (GPa) = 54.37818 77.28003 65.82911
# Shear Modulus (GPa) = 29.08365 39.33701 34.21033
#
# Velocity S-wave (km/s) = 3.45316 4.01599 3.74516
# Velocity P-wave (km/s) = 6.18014 7.29308 6.75955
#
# Compressibility (1/GPa) = 0.01838973
#
# Stress axis : x y z
#
# Youngs Moduli (GPa) = 97.40202 106.75397 55.49393
#
# Poissons Ratio (x) = 0.16075 0.19421
# Poissons Ratio (y) = 0.14667 0.25676
# Poissons Ratio (z) = 0.34087 0.49393
#
# Static dielectric constant tensor:
#      x y z
#    x 2.023260 -0.043670 0.011500 
#    y -0.043670 1.934380 0.000190 
#    z 0.011500 0.000190 2.005500 
# 
# From -- ./inp_files/197320.got.cif
#   From: 2010.05.17/outbox.cif.g08.bks.cpg/sg2_99_cif.got.tgz:197320.got - 2010.06.03 11:33:40.
