data_PCOD9076722
_publ_section_title
;
Structure prediction by ZEFSAII (Michael W. Deem and Ramdas Pophale) SiO2 
 PCOD9076722
Probable space group: P -1
;
_chemical_formula_sum "Si O2"
_cell_formula_units_Z 16
_cell_length_a 7.643345
_cell_length_b 11.790694
_cell_length_c 22.922611
_cell_angle_alpha 19.113281
_cell_angle_beta 78.140500
_cell_angle_gamma 71.946150
_cell_volume 617.301894
_symmetry_space_group_name_H-M "P -1"
_symmetry_group_IT_number 2
_symmetry_cell_setting 'triclinic'
loop_
_space_group_symop_operation_xyz
x,y,z
-x,-y,-z
loop_
_atom_site_type_symbol
_atom_site_label
_atom_site_fract_x
_atom_site_fract_y
_atom_site_fract_z
Si Si1 0.275854 0.450559 0.476048
Si Si2 0.698319 0.626304 0.967421
Si Si3 0.281289 0.161419 0.455682
Si Si4 0.294414 0.065050 0.773234
Si Si5 0.297983 0.076022 0.307404
Si Si6 0.108134 0.921252 0.163675
Si Si7 0.899996 0.084822 0.313112
Si Si8 0.926423 0.391459 0.850427
O O1 0.190309 0.861111 0.253721
O O2 0.283010 0.410782 0.564580
O O3 0.493527 0.227901 0.549621
O O4 0.136542 0.246025 0.560361
O O5 0.494511 0.902608 0.872407
O O6 0.724441 0.796700 0.820400
O O7 0.676679 0.249559 0.125310
O O8 0.848565 0.423689 0.106124
O O9 0.243876 0.547491 0.304904
O O10 0.126609 0.296675 0.347881
O O11 0.500000 0.000000 0.500000
O O12 0.238688 0.880489 0.639354
O O13 0.104091 0.101275 0.803596
O O14 0.264693 0.420034 0.187401
O O15 0.110507 0.974158 0.380246
O O16 0.081096 0.258860 0.957190
O O17 0.000000 0.000000 0.000000
#
# Coordination Sequence:
#
# PCOD9076722 Si02
#       8
#     2   2   2   2   2   2   2   2
#     4   9  20  35  58  90 119 154 192 239 293 364
#     4   9  18  32  57  95 123 148 193 246 291 367
#     4  10  22  38  59  85 116 160 206 249 290 344
#     4   9  16  29  58  91 118 155 194 230 302 361
#     4  11  20  38  65  87 120 159 196 242 301 358
#     4  10  18  33  59  84 117 155 196 246 298 345
#     4  10  21  36  62  91 118 153 204 242 294 358
#     4  10  21  35  57  85 113 154 202 246 290 339
#
# _framework density 25.919245
#
# number of rings (size 3 to 8) (size 9 to 14) (size 15 to 20)
#    0.000    2.250    1.250    3.000    1.750    0.500 
#    0.000    0.000    5.500   16.500    0.000    0.000 
#    0.000    0.000    0.000    0.000    0.000    0.000 
#
# Total GULP energy -89204.172163 kJ/mol
# GULP energy per Si atom -5575.260760 kJ/mol
# Density = 2.586025 g / cm^3
# Si number density = 25.919245 Si / 1000 Ang^3
#
#
#
# Elastic Constant Matrix: (Units=GPa)
#
#
# Indices 1 2 3 4 5 6 
#
# 1 106.7664 22.7502 15.5885 -8.9957 24.3159 -19.6666
# 2 22.7502 134.0374 32.5857 -13.2372 12.9587 -11.8220
# 3 15.5885 32.5857 160.2795 16.1597 24.6934 -7.6458
# 4 -8.9957 -13.2372 16.1597 45.6688 -4.4491 17.6616
# 5 24.3159 12.9587 24.6934 -4.4491 34.7590 2.7463
# 6 -19.6666 -11.8220 -7.6458 17.6616 2.7463 58.6226
#
#
#
# Elastic Compliance Matrix: (Units=1/GPa)
#
#
# Indices 1 2 3 4 5 6 
#
# 1 0.012401 -0.001057 0.000757 -0.000873 -0.009305 0.004745
# 2 -0.001057 0.008435 -0.001723 0.002616 -0.000876 0.000375
# 3 0.000757 -0.001723 0.008151 -0.004939 -0.006529 0.002764
# 4 -0.000873 0.002616 -0.004939 0.028592 0.007545 -0.009377
# 5 -0.009305 -0.000876 -0.006529 0.007545 0.041872 -0.008384
# 6 0.004745 0.000375 0.002764 -0.009377 -0.008384 0.022304
#
#
# Mechanical properties :
#
#
# Convention : Reuss Voigt Hill
#
# Bulk Modulus (GPa) = 40.09502 60.32577 50.21040
# Shear Modulus (GPa) = 37.28146 49.82069 43.55108
#
# Velocity S-wave (km/s) = 3.79670 4.38899 4.10354
# Velocity P-wave (km/s) = 5.89260 7.00067 6.47040
#
# Compressibility (1/GPa) = 0.02494075
#
# Stress axis : x y z
#
# Youngs Moduli (GPa) = 80.64127 118.55411 122.67739
#
# Poissons Ratio (x) = 0.12529 -0.09283
# Poissons Ratio (y) = 0.08522 0.21138
# Poissons Ratio (z) = -0.06102 0.20427
#
# Static dielectric constant tensor:
#      x y z
#    x 2.144950 0.099950 -0.087880 
#    y 0.099950 2.084280 -0.030790 
#    z -0.087880 -0.030790 2.173160 
# 
# From -- ./inp_files/617240.got.cif
#   From: 2010.05.17/outbox.cif.g08.bks.cpg/sg2_309_cif.got.tgz:617240.got - 2010.06.03 11:33:40.
