data_PCOD9076596
_publ_section_title
;
Structure prediction by ZEFSAII (Michael W. Deem and Ramdas Pophale) SiO2 
 PCOD9076596
Probable space group: P -1
;
_chemical_formula_sum "Si O2"
_cell_formula_units_Z 16
_cell_length_a 8.533791
_cell_length_b 9.926993
_cell_length_c 11.870279
_cell_angle_alpha 104.100042
_cell_angle_beta 52.715184
_cell_angle_gamma 107.503437
_cell_volume 760.532646
_symmetry_space_group_name_H-M "P -1"
_symmetry_group_IT_number 2
_symmetry_cell_setting 'triclinic'
loop_
_space_group_symop_operation_xyz
x,y,z
-x,-y,-z
loop_
_atom_site_type_symbol
_atom_site_label
_atom_site_fract_x
_atom_site_fract_y
_atom_site_fract_z
Si Si1 0.699370 0.581905 0.866868
Si Si2 0.726195 0.081744 0.458325
Si Si3 0.174000 0.122852 0.230128
Si Si4 0.174080 0.157716 0.498406
Si Si5 0.631862 0.610174 0.382858
Si Si6 0.371802 0.673378 0.312026
Si Si7 0.243660 0.824312 0.196302
Si Si8 0.043893 0.544927 0.116555
O O1 0.708434 0.743532 0.862657
O O2 0.731899 0.478178 0.727105
O O3 0.872141 0.575035 0.879049
O O4 0.500000 0.500000 0.000000
O O5 0.726385 0.241221 0.532395
O O6 0.932758 0.085225 0.296542
O O7 0.500000 0.000000 0.500000
O O8 0.785104 0.996570 0.523289
O O9 0.187738 0.179710 0.364823
O O10 0.268155 0.980538 0.162573
O O11 0.336691 0.250719 0.526552
O O12 0.966330 0.184432 0.645708
O O13 0.500000 0.500000 0.500000
O O14 0.555826 0.638067 0.296843
O O15 0.839116 0.561320 0.266331
O O16 0.394384 0.779790 0.215524
O O17 0.196488 0.696087 0.100417
O O18 0.000000 0.500000 0.000000
#
# Coordination Sequence:
#
# PCOD9076596 Si02
#       8
#     2   2   2   2   2   2   2   2
#     4  11  26  44  65  87 121 173 222 264 310 370
#     4  11  20  34  61  97 131 161 194 257 325 385
#     4  11  21  39  65  93 131 160 210 260 322 381
#     4  10  18  33  57  93 131 157 198 255 321 371
#     4  11  23  34  59  97 131 167 211 255 312 382
#     4  11  20  38  63  88 131 161 210 256 317 373
#     4   9  19  37  63  92 118 165 203 258 317 381
#     4  10  23  43  64  83 126 169 211 262 319 371
#
# _framework density 21.037887999999999
#
# number of rings (size 3 to 8) (size 9 to 14) (size 15 to 20)
#    0.000    1.500    3.750    2.250    1.750    0.500 
#    0.000    3.125    2.750    0.000    0.000    0.000 
#    0.000    0.000    0.000    0.000    0.000    0.000 
#
# Total GULP energy -89067.951308 kJ/mol
# GULP energy per Si atom -5566.746957 kJ/mol
# Density = 2.099000 g / cm^3
# Si number density = 21.037888 Si / 1000 Ang^3
#
#
#
# Elastic Constant Matrix: (Units=GPa)
#
#
# Indices 1 2 3 4 5 6 
#
# 1 115.8689 37.1580 31.6799 -16.7214 16.1389 -9.5695
# 2 37.1580 142.6466 40.0329 -18.5420 11.4671 -12.3385
# 3 31.6799 40.0329 51.8146 -1.5833 7.4767 6.2777
# 4 -16.7214 -18.5420 -1.5833 25.2146 9.3777 7.5145
# 5 16.1389 11.4671 7.4767 9.3777 34.2929 11.6082
# 6 -9.5695 -12.3385 6.2777 7.5145 11.6082 35.4257
#
#
#
# Elastic Compliance Matrix: (Units=1/GPa)
#
#
# Indices 1 2 3 4 5 6 
#
# 1 0.014546 0.002015 -0.009308 0.012602 -0.011425 0.007351
# 2 0.002015 0.011757 -0.009684 0.010288 -0.007867 0.006751
# 3 -0.009308 -0.009684 0.032520 -0.010473 0.007405 -0.011855
# 4 0.012602 0.010288 -0.010473 0.063344 -0.025706 0.003830
# 5 -0.011425 -0.007867 0.007405 -0.025706 0.048537 -0.017590
# 6 0.007351 0.006751 -0.011855 0.003830 -0.017590 0.039617
#
#
# Mechanical properties :
#
#
# Convention : Reuss Voigt Hill
#
# Bulk Modulus (GPa) = 40.20862 58.67464 49.44163
# Shear Modulus (GPa) = 19.79695 32.41726 26.10711
#
# Velocity S-wave (km/s) = 3.07092 3.92969 3.52654
# Velocity P-wave (km/s) = 5.63277 6.96710 6.33516
#
# Compressibility (1/GPa) = 0.02487029
#
# Stress axis : x y z
#
# Youngs Moduli (GPa) = 68.74709 85.05782 30.75010
#
# Poissons Ratio (x) = -0.17143 0.28621
# Poissons Ratio (y) = -0.13856 0.29779
# Poissons Ratio (z) = 0.63988 0.82371
#
# Static dielectric constant tensor:
#      x y z
#    x 1.716260 -0.454280 -0.162480 
#    y -0.454280 -0.717490 -0.581300 
#    z -0.162480 -0.581300 1.601270 
# 
# From -- ./inp_files/379447.got.cif
#   From: 2010.05.17/outbox.cif.g08.bks.cpg/sg2_190_cif.got.tgz:379447.got - 2010.06.03 11:33:40.
