data_PCOD9076409
_publ_section_title
;
Structure prediction by ZEFSAII (Michael W. Deem and Ramdas Pophale) SiO2 
 PCOD9076409
Probable space group: P -1
;
_chemical_formula_sum "Si O2"
_cell_formula_units_Z 14
_cell_length_a 13.972298
_cell_length_b 9.679515
_cell_length_c 9.734305
_cell_angle_alpha 45.564640
_cell_angle_beta 72.467563
_cell_angle_gamma 42.824125
_cell_volume 574.666751
_symmetry_space_group_name_H-M "P -1"
_symmetry_group_IT_number 2
_symmetry_cell_setting 'triclinic'
loop_
_space_group_symop_operation_xyz
x,y,z
-x,-y,-z
loop_
_atom_site_type_symbol
_atom_site_label
_atom_site_fract_x
_atom_site_fract_y
_atom_site_fract_z
Si Si1 0.534315 0.993210 0.675263
Si Si2 0.565886 0.569696 0.795847
Si Si3 0.510478 0.682478 0.282641
Si Si4 0.758129 0.149981 0.227630
Si Si5 0.157130 0.689493 0.715721
Si Si6 0.863446 0.692528 0.712284
Si Si7 0.179516 0.196620 0.031917
O O1 0.418926 0.312072 0.423388
O O2 0.521612 0.077446 0.778329
O O3 0.509092 0.811332 0.768761
O O4 0.710309 0.787473 0.694733
O O5 0.416683 0.652102 0.780468
O O6 0.716314 0.241532 0.022370
O O7 0.500000 0.500000 0.500000
O O8 0.684605 0.456051 0.314117
O O9 0.352690 0.898508 0.110262
O O10 0.827382 0.250530 0.179440
O O11 0.863271 0.835737 0.481186
O O12 0.160790 0.456063 0.860532
O O13 0.000000 0.000000 0.500000
O O14 0.030477 0.345030 0.907673
O O15 0.832490 0.839204 0.774723
#
# Coordination Sequence:
#
# PCOD9076409 Si02
#       7
#     2   2   2   2   2   2   2
#     4   9  18  36  57  87 117 159 208 246 299 354
#     4   9  18  32  59  88 113 162 208 247 285 360
#     4  11  23  38  59  90 127 157 199 253 307 364
#     4  10  18  33  55  91 116 154 205 245 292 360
#     4  12  23  37  61  94 126 153 196 251 314 369
#     4   9  17  31  53  81 120 152 195 239 292 361
#     4  10  20  34  54  83 125 161 188 239 308 360
#
# _framework density 24.361944999999999
#
# number of rings (size 3 to 8) (size 9 to 14) (size 15 to 20)
#    0.000    2.000    1.429    4.714    2.000    0.000 
#    0.000    0.000    0.000    1.714   18.571    0.000 
#    0.000    0.000    0.000    0.000    0.000    0.000 
#
# Total GULP energy -78111.235497 kJ/mol
# GULP energy per Si atom -5579.373964 kJ/mol
# Density = 2.430650 g / cm^3
# Si number density = 24.361945 Si / 1000 Ang^3
#
#
#
# Elastic Constant Matrix: (Units=GPa)
#
#
# Indices 1 2 3 4 5 6 
#
# 1 110.3065 22.1953 29.3932 -7.1952 13.4586 -12.8150
# 2 22.1953 59.3213 29.6495 -17.6635 14.4682 -17.2216
# 3 29.3932 29.6495 168.1702 -5.4059 25.0572 -18.4637
# 4 -7.1952 -17.6635 -5.4059 29.7089 -8.9530 8.6321
# 5 13.4586 14.4682 25.0572 -8.9530 53.5996 0.0210
# 6 -12.8150 -17.2216 -18.4637 8.6321 0.0210 32.0629
#
#
#
# Elastic Compliance Matrix: (Units=1/GPa)
#
#
# Indices 1 2 3 4 5 6 
#
# 1 0.010231 -0.002401 -0.000882 -0.000265 -0.001554 0.002364
# 2 -0.002401 0.025336 -0.002265 0.010571 -0.003415 0.008501
# 3 -0.000882 -0.002265 0.007207 -0.002025 -0.002875 0.003127
# 4 -0.000265 0.010571 -0.002025 0.043238 0.005385 -0.007238
# 5 -0.001554 -0.003415 -0.002875 0.005385 0.022215 -0.005575
# 6 0.002364 0.008501 0.003127 -0.007238 -0.005575 0.040453
#
#
# Mechanical properties :
#
#
# Convention : Reuss Voigt Hill
#
# Bulk Modulus (GPa) = 31.56891 55.58600 43.57746
# Shear Modulus (GPa) = 29.35394 40.17829 34.76611
#
# Velocity S-wave (km/s) = 3.47495 4.06547 3.78175
# Velocity P-wave (km/s) = 5.39321 6.70102 6.08237
#
# Compressibility (1/GPa) = 0.03167673
#
# Stress axis : x y z
#
# Youngs Moduli (GPa) = 97.74502 39.46927 138.75941
#
# Poissons Ratio (x) = 0.09475 0.12244
# Poissons Ratio (y) = 0.23464 0.31435
# Poissons Ratio (z) = 0.08625 0.08942
#
# Static dielectric constant tensor:
#      x y z
#    x 1.925230 0.016890 -0.006080 
#    y 0.016890 2.006370 0.021850 
#    z -0.006080 0.021850 2.040630 
# 
# From -- ./inp_files/212199.got.cif
#   From: 2010.05.17/outbox.cif.g08.bks.cpg/sg2_107_cif.got.tgz:212199.got - 2010.06.03 11:33:40.
