data_PCOD9076194
_publ_section_title
;
Structure prediction by ZEFSAII (Michael W. Deem and Ramdas Pophale) SiO2 
 PCOD9076194
Probable space group: P -1
;
_chemical_formula_sum "Si O2"
_cell_formula_units_Z 16
_cell_length_a 18.888409
_cell_length_b 23.187417
_cell_length_c 10.648424
_cell_angle_alpha 137.169032
_cell_angle_beta 146.752146
_cell_angle_gamma 17.036503
_cell_volume 682.461200
_symmetry_space_group_name_H-M "P -1"
_symmetry_group_IT_number 2
_symmetry_cell_setting 'triclinic'
loop_
_space_group_symop_operation_xyz
x,y,z
-x,-y,-z
loop_
_atom_site_type_symbol
_atom_site_label
_atom_site_fract_x
_atom_site_fract_y
_atom_site_fract_z
Si Si1 0.526046 0.344235 0.405455
Si Si2 0.192191 0.249002 0.791820
Si Si3 0.878208 0.864299 0.326823
Si Si4 0.905414 0.089610 0.296109
Si Si5 0.013995 0.459969 0.172215
Si Si6 0.387373 0.118053 0.347537
Si Si7 0.527877 0.164109 0.841483
Si Si8 0.934350 0.249301 0.862905
O O1 0.691714 0.239728 0.344397
O O2 0.608942 0.393178 0.643367
O O3 0.209615 0.474837 0.126033
O O4 0.756245 0.153779 0.539235
O O5 0.040071 0.261069 0.658277
O O6 0.976865 0.459223 0.765392
O O7 0.360593 0.103857 0.687114
O O8 0.491969 0.098390 0.086694
O O9 0.002296 0.879111 0.583061
O O10 0.036676 0.752942 0.246210
O O11 0.695136 0.146425 0.002187
O O12 0.815884 0.605901 0.237921
O O13 0.324766 0.221933 0.306874
O O14 0.506381 0.099385 0.611811
O O15 0.048055 0.271774 0.120096
O O16 0.776877 0.988904 0.044113
#
# Coordination Sequence:
#
# PCOD9076194 Si02
#       8
#     2   2   2   2   2   2   2   2
#     4   8  14  27  50  77  96 124 163 203 260 289
#     4  10  20  33  52  74 102 132 166 208 242 297
#     4   9  15  32  54  75  95 130 172 200 257 289
#     4   8  13  26  53  74  91 131 166 201 248 295
#     4  11  19  33  52  75 105 132 160 209 250 294
#     4  11  22  32  48  80 102 136 168 193 249 301
#     4  10  18  33  52  75 103 133 164 203 247 299
#     4   9  17  32  55  75 101 128 163 213 247 294
#
# _framework density 23.444557
#
# number of rings (size 3 to 8) (size 9 to 14) (size 15 to 20)
#    0.000    2.500    3.750    2.250    0.000    0.500 
#    0.000    6.250    0.000    0.750    0.000    0.000 
#    0.000    0.000    0.000    0.000    0.000    0.000 
#
# Total GULP energy -89347.324893 kJ/mol
# GULP energy per Si atom -5584.207806 kJ/mol
# Density = 2.339120 g / cm^3
# Si number density = 23.444557 Si / 1000 Ang^3
#
#
#
# Elastic Constant Matrix: (Units=GPa)
#
#
# Indices 1 2 3 4 5 6 
#
# 1 103.4619 23.9682 45.9889 16.7555 34.8566 30.3591
# 2 23.9682 64.9951 16.0326 16.4257 8.5011 26.6647
# 3 45.9889 16.0326 127.3446 36.7612 23.4166 6.6014
# 4 16.7555 16.4257 36.7612 35.1054 8.9483 6.1643
# 5 34.8566 8.5011 23.4166 8.9483 40.0347 19.2238
# 6 30.3591 26.6647 6.6014 6.1643 19.2238 41.8727
#
#
#
# Elastic Compliance Matrix: (Units=1/GPa)
#
#
# Indices 1 2 3 4 5 6 
#
# 1 0.016551 -0.001370 -0.003924 0.000225 -0.008739 -0.006530
# 2 -0.001370 0.023793 -0.000113 -0.009093 0.005627 -0.015384
# 3 -0.003924 -0.000113 0.013081 -0.011584 -0.003657 0.004239
# 4 0.000225 -0.009093 -0.011584 0.045056 -0.002507 0.001972
# 5 -0.008739 0.005627 -0.003657 -0.002507 0.041454 -0.015333
# 6 -0.006530 -0.015384 0.004239 0.001972 -0.015333 0.044494
#
#
# Mechanical properties :
#
#
# Convention : Reuss Voigt Hill
#
# Bulk Modulus (GPa) = 23.46885 51.97567 37.72226
# Shear Modulus (GPa) = 23.87250 37.39003 30.63126
#
# Velocity S-wave (km/s) = 3.19447 3.99786 3.61853
# Velocity P-wave (km/s) = 4.86192 6.59760 5.79511
#
# Compressibility (1/GPa) = 0.04260967
#
# Stress axis : x y z
#
# Youngs Moduli (GPa) = 60.41979 42.02995 76.44775
#
# Poissons Ratio (x) = 0.05760 0.29999
# Poissons Ratio (y) = 0.08280 0.00862
# Poissons Ratio (z) = 0.23709 0.00474
#
# Static dielectric constant tensor:
#      x y z
#    x 1.972500 -0.057330 0.056700 
#    y -0.057330 2.083960 -0.014240 
#    z 0.056700 -0.014240 1.875830 
# 
# From -- ./inp_files/401236.got.cif
#   From: 2010.05.17/outbox.cif.g08.bks.cpg/sg2_201_cif.got.tgz:401236.got - 2010.06.03 11:33:40.
