data_PCOD9076403
_publ_section_title
;
Structure prediction by ZEFSAII (Michael W. Deem and Ramdas Pophale) SiO2 
 PCOD9076403
Probable space group: P -1
;
_chemical_formula_sum "Si O2"
_cell_formula_units_Z 14
_cell_length_a 10.974120
_cell_length_b 13.334601
_cell_length_c 8.084019
_cell_angle_alpha 120.444563
_cell_angle_beta 65.722225
_cell_angle_gamma 65.078978
_cell_volume 556.217308
_symmetry_space_group_name_H-M "P -1"
_symmetry_group_IT_number 2
_symmetry_cell_setting 'triclinic'
loop_
_space_group_symop_operation_xyz
x,y,z
-x,-y,-z
loop_
_atom_site_type_symbol
_atom_site_label
_atom_site_fract_x
_atom_site_fract_y
_atom_site_fract_z
Si Si1 0.674969 0.734692 0.190080
Si Si2 0.789925 0.005470 0.192711
Si Si3 0.933401 0.376326 0.132751
Si Si4 0.245706 0.391475 0.288001
Si Si5 0.632214 0.399226 0.166939
Si Si6 0.059660 0.002856 0.237162
Si Si7 0.261782 0.562688 0.159228
O O1 0.450147 0.877787 0.534223
O O2 0.853516 0.703721 0.119156
O O3 0.618563 0.783565 0.064110
O O4 0.795854 0.525282 0.954521
O O5 0.875359 0.036835 0.310057
O O6 0.960726 0.778919 0.911743
O O7 0.805159 0.060022 0.057107
O O8 0.752466 0.586352 0.498411
O O9 0.824745 0.359910 0.061662
O O10 0.304230 0.478921 0.249719
O O11 0.000000 0.500000 0.500000
O O12 0.500000 0.500000 0.500000
O O13 0.551446 0.510378 0.129752
O O14 0.761660 0.185993 0.903398
O O15 0.935035 0.205989 0.531995
#
# Coordination Sequence:
#
# PCOD9076403 Si02
#       7
#     2   2   2   2   2   2   2
#     4   9  19  32  59  83 107 136 181 224 275 315
#     4  10  18  33  55  89 105 139 180 230 265 318
#     4  10  19  37  57  81 110 140 180 228 272 314
#     4   8  17  35  55  84 106 140 177 223 273 317
#     4  11  24  38  54  79 111 149 184 219 266 327
#     4  10  21  34  56  76 116 143 180 220 273 314
#     4  10  20  37  56  79 113 146 177 219 274 323
#
# _framework density 25.170020000000001
#
# number of rings (size 3 to 8) (size 9 to 14) (size 15 to 20)
#    0.857    1.429    1.429    1.714    0.000    2.286 
#    0.000    0.000    0.000    1.714    0.000    0.000 
#    0.000    0.000    0.000    0.000    0.000    0.000 
#
# Total GULP energy -77945.945461 kJ/mol
# GULP energy per Si atom -5567.567533 kJ/mol
# Density = 2.511273 g / cm^3
# Si number density = 25.170020 Si / 1000 Ang^3
#
#
#
# Elastic Constant Matrix: (Units=GPa)
#
#
# Indices 1 2 3 4 5 6 
#
# 1 71.4225 6.6634 36.4711 -2.0606 -11.9145 20.3191
# 2 6.6634 80.3597 20.7797 -6.7015 -10.0149 1.6288
# 3 36.4711 20.7797 95.4763 -11.8265 -6.8682 -1.2641
# 4 -2.0606 -6.7015 -11.8265 43.0988 18.1566 1.4408
# 5 -11.9145 -10.0149 -6.8682 18.1566 35.6860 -7.0016
# 6 20.3191 1.6288 -1.2641 1.4408 -7.0016 30.5225
#
#
#
# Elastic Compliance Matrix: (Units=1/GPa)
#
#
# Indices 1 2 3 4 5 6 
#
# 1 0.023776 0.001176 -0.009538 -0.002882 0.004953 -0.015013
# 2 0.001176 0.013613 -0.003189 -0.000156 0.003516 -0.000828
# 3 -0.009538 -0.003189 0.015236 0.003754 -0.001769 0.006568
# 4 -0.002882 -0.000156 0.003754 0.031271 -0.016832 -0.003255
# 5 0.004953 0.003516 -0.001769 -0.016832 0.040151 0.006446
# 6 -0.015013 -0.000828 0.006568 -0.003255 0.006446 0.044706
#
#
# Mechanical properties :
#
#
# Convention : Reuss Voigt Hill
#
# Bulk Modulus (GPa) = 33.87149 41.67631 37.77390
# Shear Modulus (GPa) = 24.78976 34.08441 29.43709
#
# Velocity S-wave (km/s) = 3.14170 3.68389 3.42355
# Velocity P-wave (km/s) = 5.16204 5.88970 5.53784
#
# Compressibility (1/GPa) = 0.02952335
#
# Stress axis : x y z
#
# Youngs Moduli (GPa) = 42.05901 73.45788 65.63381
#
# Poissons Ratio (x) = -0.08639 0.62600
# Poissons Ratio (y) = -0.04946 0.20933
# Poissons Ratio (z) = 0.40115 0.23428
#
# Static dielectric constant tensor:
#      x y z
#    x 2.099830 -0.123700 0.085810 
#    y -0.123700 2.148460 -0.062190 
#    z 0.085810 -0.062190 2.054240 
# 
# From -- ./inp_files/274020.got.cif
#   From: 2010.05.17/outbox.cif.g08.bks.cpg/sg2_138_cif.got.tgz:274020.got - 2010.06.03 11:33:40.
