data_PCOD9076521
_publ_section_title
;
Structure prediction by ZEFSAII (Michael W. Deem and Ramdas Pophale) SiO2 
 PCOD9076521
Probable space group: P -1
;
_chemical_formula_sum "Si O2"
_cell_formula_units_Z 16
_cell_length_a 9.151148
_cell_length_b 14.852068
_cell_length_c 10.312042
_cell_angle_alpha 60.692404
_cell_angle_beta 131.545631
_cell_angle_gamma 132.894240
_cell_volume 766.620980
_symmetry_space_group_name_H-M "P -1"
_symmetry_group_IT_number 2
_symmetry_cell_setting 'triclinic'
loop_
_space_group_symop_operation_xyz
x,y,z
-x,-y,-z
loop_
_atom_site_type_symbol
_atom_site_label
_atom_site_fract_x
_atom_site_fract_y
_atom_site_fract_z
Si Si1 0.046835 0.893481 0.074514
Si Si2 0.327999 0.345434 0.140684
Si Si3 0.887736 0.958574 0.320131
Si Si4 0.389874 0.582706 0.995143
Si Si5 0.255318 0.758122 0.692530
Si Si6 0.549216 0.986069 0.241240
Si Si7 0.864162 0.741431 0.324161
Si Si8 0.382701 0.157680 0.392257
O O1 0.291829 0.955505 0.104720
O O2 0.039825 0.835433 0.251394
O O3 0.860838 0.772332 0.970433
O O4 0.000000 0.000000 0.000000
O O5 0.546058 0.415314 0.120965
O O6 0.394463 0.284404 0.335682
O O7 0.252695 0.440341 0.058511
O O8 0.665494 0.967870 0.197676
O O9 0.816584 0.823553 0.333821
O O10 0.000000 0.000000 0.500000
O O11 0.106859 0.052990 0.293891
O O12 0.281577 0.665895 0.865604
O O13 0.624178 0.647885 0.174491
O O14 0.464078 0.816756 0.665413
O O15 0.008079 0.695254 0.517301
O O16 0.291965 0.874602 0.710658
O O17 0.534418 0.892297 0.408970
#
# Coordination Sequence:
#
# PCOD9076521 Si02
#       8
#     2   2   2   2   2   2   2   2
#     4  11  21  34  59  89 115 146 184 237 292 342
#     4   9  19  38  54  80 120 142 183 245 280 332
#     4  10  20  33  56  84 119 147 185 240 288 338
#     4   9  21  37  55  84 114 152 191 234 283 333
#     4  11  19  34  60  86 116 148 190 239 281 345
#     4  11  20  33  55  88 114 146 189 233 292 345
#     4  11  19  36  58  83 114 155 192 229 289 343
#     4  10  18  33  57  80 112 148 180 235 292 333
#
# _framework density 20.870806999999999
#
# number of rings (size 3 to 8) (size 9 to 14) (size 15 to 20)
#    0.000    1.750    3.750    4.125    0.000    0.000 
#    2.250    8.125    0.000    6.000    0.000    0.000 
#    0.000    0.000    0.000    0.000    0.000    0.000 
#
# Total GULP energy -89153.098452 kJ/mol
# GULP energy per Si atom -5572.068653 kJ/mol
# Density = 2.082330 g / cm^3
# Si number density = 20.870807 Si / 1000 Ang^3
#
#
#
# Elastic Constant Matrix: (Units=GPa)
#
#
# Indices 1 2 3 4 5 6 
#
# 1 92.0313 22.7046 36.2276 6.5003 22.7084 -12.1591
# 2 22.7046 98.2486 61.2666 -25.5687 5.8876 -18.7489
# 3 36.2276 61.2666 107.0718 -22.1156 27.7305 -11.1862
# 4 6.5003 -25.5687 -22.1156 29.9583 -3.5924 8.9759
# 5 22.7084 5.8876 27.7305 -3.5924 34.0420 4.2532
# 6 -12.1591 -18.7489 -11.1862 8.9759 4.2532 13.2239
#
#
#
# Elastic Compliance Matrix: (Units=1/GPa)
#
#
# Indices 1 2 3 4 5 6 
#
# 1 0.024745 -0.000723 -0.002651 -0.023264 -0.021967 0.042341
# 2 -0.000723 0.020686 -0.009572 0.006719 0.003554 0.014863
# 3 -0.002651 -0.009572 0.020290 0.005377 -0.012737 0.001602
# 4 -0.023264 0.006719 0.005377 0.070020 0.025231 -0.062958
# 5 -0.021967 0.003554 -0.012737 0.025231 0.064422 -0.063780
# 6 0.042341 0.014863 0.001602 -0.062958 -0.063780 0.200227
#
#
# Mechanical properties :
#
#
# Convention : Reuss Voigt Hill
#
# Bulk Modulus (GPa) = 25.10674 59.74990 42.42832
# Shear Modulus (GPa) = 11.37503 27.25504 19.31504
#
# Velocity S-wave (km/s) = 2.33710 3.61763 3.04543
# Velocity P-wave (km/s) = 4.39755 6.79267 5.72183
#
# Compressibility (1/GPa) = 0.03982994
#
# Stress axis : x y z
#
# Youngs Moduli (GPa) = 40.41157 48.34129 49.28462
#
# Poissons Ratio (x) = 0.03497 0.13065
# Poissons Ratio (y) = 0.02923 0.47174
# Poissons Ratio (z) = 0.10713 0.46271
#
# Static dielectric constant tensor:
#      x y z
#    x 1.773100 0.003490 0.017400 
#    y 0.003490 1.761380 -0.009390 
#    z 0.017400 -0.009390 1.897140 
# 
# From -- ./inp_files/397240.got.cif
#   From: 2010.05.17/outbox.cif.g08.bks.cpg/sg2_199_cif.got.tgz:397240.got - 2010.06.03 11:33:40.
