data_PCOD9076004
_publ_section_title
;
Structure prediction by ZEFSAII (Michael W. Deem and Ramdas Pophale) SiO2 
 PCOD9076004
Probable space group: P -1
;
_chemical_formula_sum "Si O2"
_cell_formula_units_Z 16
_cell_length_a 12.303749
_cell_length_b 11.921478
_cell_length_c 8.743720
_cell_angle_alpha 128.316662
_cell_angle_beta 80.410701
_cell_angle_gamma 131.841355
_cell_volume 679.435747
_symmetry_space_group_name_H-M "P -1"
_symmetry_group_IT_number 2
_symmetry_cell_setting 'triclinic'
loop_
_space_group_symop_operation_xyz
x,y,z
-x,-y,-z
loop_
_atom_site_type_symbol
_atom_site_label
_atom_site_fract_x
_atom_site_fract_y
_atom_site_fract_z
Si Si1 0.636616 0.153707 0.451558
Si Si2 0.952932 0.459568 0.799336
Si Si3 0.448003 0.458824 0.227459
Si Si4 0.499057 0.842584 0.789337
Si Si5 0.814483 0.141687 0.132953
Si Si6 0.276249 0.364889 0.476934
Si Si7 0.426435 0.221400 0.778022
Si Si8 0.934153 0.125453 0.388037
O O1 0.769668 0.331098 0.691348
O O2 0.517785 0.144038 0.376782
O O3 0.745211 0.192074 0.315546
O O4 0.556749 0.933067 0.349019
O O5 0.970940 0.315554 0.610735
O O6 0.066925 0.669286 0.851587
O O7 0.000000 0.500000 0.000000
O O8 0.299912 0.344901 0.277818
O O9 0.604441 0.615131 0.430411
O O10 0.460059 0.587423 0.201291
O O11 0.455078 0.314884 0.017353
O O12 0.353714 0.599269 0.662855
O O13 0.500000 0.000000 0.000000
O O14 0.668644 0.943905 0.896924
O O15 0.902478 0.116527 0.206150
O O16 0.093623 0.184549 0.420762
O O17 0.237701 0.080013 0.673852
#
# Coordination Sequence:
#
# PCOD9076004 Si02
#       8
#     2   2   2   2   2   2   2   2
#     4   9  18  35  59  82 113 151 192 237 290 356
#     4  10  19  32  51  82 122 157 188 235 294 348
#     4  10  22  40  60  80 117 155 198 247 289 344
#     4  10  18  32  58  86 113 145 190 237 285 347
#     4   9  17  32  54  78 113 155 188 228 284 349
#     4  11  22  37  59  88 114 154 200 240 289 348
#     4   9  20  41  60  82 112 154 194 243 300 336
#     4  10  20  37  60  83 115 153 201 241 286 352
#
# _framework density 23.548952
#
# number of rings (size 3 to 8) (size 9 to 14) (size 15 to 20)
#    0.000    2.500    0.000    6.000    0.000    3.000 
#    0.000    8.750    0.000    0.000    0.000    0.000 
#    0.000    0.000    0.000    0.000    0.000    0.000 
#
# Total GULP energy -89394.501180 kJ/mol
# GULP energy per Si atom -5587.156324 kJ/mol
# Density = 2.349535 g / cm^3
# Si number density = 23.548952 Si / 1000 Ang^3
#
#
#
# Elastic Constant Matrix: (Units=GPa)
#
#
# Indices 1 2 3 4 5 6 
#
# 1 60.3347 -1.9480 21.8398 -5.1416 15.9967 11.1661
# 2 -1.9480 75.4774 13.7020 -3.8163 7.4614 -8.5710
# 3 21.8398 13.7020 129.4302 -5.8586 14.4577 -8.7976
# 4 -5.1416 -3.8163 -5.8586 26.6634 -7.5796 6.0910
# 5 15.9967 7.4614 14.4577 -7.5796 40.5006 2.1892
# 6 11.1661 -8.5710 -8.7976 6.0910 2.1892 32.8691
#
#
#
# Elastic Compliance Matrix: (Units=1/GPa)
#
#
# Indices 1 2 3 4 5 6 
#
# 1 0.021312 0.001047 -0.003394 0.003581 -0.006290 -0.008120
# 2 0.001047 0.014126 -0.001138 0.000500 -0.002684 0.003109
# 3 -0.003394 -0.001138 0.008845 -0.000162 -0.001820 0.003375
# 4 0.003581 0.000500 -0.000162 0.042377 0.006993 -0.009448
# 5 -0.006290 -0.002684 -0.001820 0.006993 0.029754 -0.002328
# 6 -0.008120 0.003109 0.003375 -0.009448 -0.002328 0.036802
#
#
# Mechanical properties :
#
#
# Convention : Reuss Voigt Hill
#
# Bulk Modulus (GPa) = 26.80092 36.93668 31.86880
# Shear Modulus (GPa) = 28.96437 35.44984 32.20710
#
# Velocity S-wave (km/s) = 3.51089 3.88412 3.70221
# Velocity P-wave (km/s) = 5.27644 5.98617 5.64247
#
# Compressibility (1/GPa) = 0.03731215
#
# Stress axis : x y z
#
# Youngs Moduli (GPa) = 46.92123 70.78949 113.06143
#
# Poissons Ratio (x) = -0.07412 0.38376
# Poissons Ratio (y) = -0.04913 0.12870
# Poissons Ratio (z) = 0.15926 0.08058
#
# Static dielectric constant tensor:
#      x y z
#    x 1.967500 0.016870 -0.027950 
#    y 0.016870 1.898420 -0.016540 
#    z -0.027950 -0.016540 1.931980 
# 
# From -- ./inp_files/305730.got.cif
#   From: 2010.05.17/outbox.cif.g08.bks.cpg/sg2_153_cif.got.tgz:305730.got - 2010.06.03 11:33:40.
