data_PCOD9076908
_publ_section_title
;
Structure prediction by ZEFSAII (Michael W. Deem and Ramdas Pophale) SiO2 
 PCOD9076908
Probable space group: P -1
;
_chemical_formula_sum "Si O2"
_cell_formula_units_Z 16
_cell_length_a 14.398559
_cell_length_b 9.288336
_cell_length_c 11.362153
_cell_angle_alpha 92.960476
_cell_angle_beta 80.921460
_cell_angle_gamma 32.319622
_cell_volume 751.381164
_symmetry_space_group_name_H-M "P -1"
_symmetry_group_IT_number 2
_symmetry_cell_setting 'triclinic'
loop_
_space_group_symop_operation_xyz
x,y,z
-x,-y,-z
loop_
_atom_site_type_symbol
_atom_site_label
_atom_site_fract_x
_atom_site_fract_y
_atom_site_fract_z
Si Si1 0.190623 0.788066 0.077888
Si Si2 0.865199 0.250086 0.355768
Si Si3 0.454677 0.395646 0.211817
Si Si4 0.182504 0.252605 0.811021
Si Si5 0.516153 0.381427 0.608613
Si Si6 0.980028 0.276737 0.990661
Si Si7 0.099263 0.705642 0.407419
Si Si8 0.113722 0.271613 0.568184
O O1 0.382627 0.523684 0.100326
O O2 0.143459 0.693022 0.030199
O O3 0.024555 0.043858 0.216496
O O4 0.161167 0.952797 0.994941
O O5 0.663118 0.487048 0.351507
O O6 0.877315 0.353293 0.459902
O O7 0.922255 0.039237 0.419459
O O8 0.488159 0.501098 0.278022
O O9 0.280536 0.545284 0.316098
O O10 0.626300 0.059577 0.182507
O O11 0.040002 0.315038 0.883854
O O12 0.190287 0.246889 0.668310
O O13 0.121172 0.488722 0.882764
O O14 0.500000 0.500000 0.500000
O O15 0.710026 0.039614 0.542612
O O16 0.043139 0.634129 0.352519
O O17 0.000000 0.500000 0.500000
#
# Coordination Sequence:
#
# PCOD9076908 Si02
#       8
#     2   2   2   2   2   2   2   2
#     4  10  22  40  64  93 114 164 213 260 293 360
#     4  10  18  33  64  86 122 150 201 248 294 363
#     4  11  21  36  69  90 122 156 206 253 304 374
#     4  11  23  43  62  89 126 167 199 259 311 363
#     4  12  19  37  60  96 120 161 198 240 314 377
#     4  10  24  43  64  84 124 167 210 253 310 353
#     4  10  18  34  56  93 117 159 188 242 309 366
#     4  12  25  38  60  91 129 160 198 249 309 370
#
# _framework density 21.294118999999998
#
# number of rings (size 3 to 8) (size 9 to 14) (size 15 to 20)
#    0.000    1.250    3.750    3.750    3.500    1.000 
#    2.250    1.250    0.000    0.000    0.000    0.000 
#    0.000    0.000    0.000    0.000    0.000    0.000 
#
# Total GULP energy -89292.892360 kJ/mol
# GULP energy per Si atom -5580.805772 kJ/mol
# Density = 2.124565 g / cm^3
# Si number density = 21.294119 Si / 1000 Ang^3
#
#
#
# Elastic Constant Matrix: (Units=GPa)
#
#
# Indices 1 2 3 4 5 6 
#
# 1 67.0783 39.7841 32.1973 1.7035 21.9176 -12.8425
# 2 39.7841 156.8292 36.1774 -4.0140 27.3314 -3.5740
# 3 32.1973 36.1774 58.7319 -4.2377 24.0726 10.3962
# 4 1.7035 -4.0140 -4.2377 32.2976 -9.3282 1.4508
# 5 21.9176 27.3314 24.0726 -9.3282 31.5770 -0.3054
# 6 -12.8425 -3.5740 10.3962 1.4508 -0.3054 27.7512
#
#
#
# Elastic Compliance Matrix: (Units=1/GPa)
#
#
# Indices 1 2 3 4 5 6 
#
# 1 0.031105 -0.002294 -0.015866 -0.007689 -0.009584 0.020339
# 2 -0.002294 0.008179 -0.002439 -0.000292 -0.003706 0.000880
# 3 -0.015866 -0.002439 0.037403 0.002100 -0.014983 -0.021943
# 4 -0.007689 -0.000292 0.002100 0.036096 0.014594 -0.006109
# 5 -0.009584 -0.003706 -0.014983 0.014594 0.057268 0.000568
# 6 0.020339 0.000880 -0.021943 -0.006109 0.000568 0.054106
#
#
# Mechanical properties :
#
#
# Convention : Reuss Voigt Hill
#
# Bulk Modulus (GPa) = 28.17614 55.43966 41.80790
# Shear Modulus (GPa) = 18.03859 29.95719 23.99789
#
# Velocity S-wave (km/s) = 2.91368 3.75484 3.36068
# Velocity P-wave (km/s) = 4.95782 6.70001 5.89365
#
# Compressibility (1/GPa) = 0.03549102
#
# Stress axis : x y z
#
# Youngs Moduli (GPa) = 32.14946 122.26087 26.73570
#
# Poissons Ratio (x) = 0.28043 0.42418
# Poissons Ratio (y) = 0.07374 0.06520
# Poissons Ratio (z) = 0.51008 0.29814
#
# Static dielectric constant tensor:
#      x y z
#    x 1.893470 0.059700 0.049330 
#    y 0.059700 1.790290 0.013540 
#    z 0.049330 0.013540 1.840130 
# 
# From -- ./inp_files/328619.got.cif
#   From: 2010.05.17/outbox.cif.g08.bks.cpg/sg2_165_cif.got.tgz:328619.got - 2010.06.03 11:33:40.
