data_PCOD9076166
_publ_section_title
;
Structure prediction by ZEFSAII (Michael W. Deem and Ramdas Pophale) SiO2 
 PCOD9076166
Probable space group: P -1
;
_chemical_formula_sum "Si O2"
_cell_formula_units_Z 16
_cell_length_a 9.559219
_cell_length_b 12.750042
_cell_length_c 13.520342
_cell_angle_alpha 32.248121
_cell_angle_beta 65.127500
_cell_angle_gamma 87.327751
_cell_volume 613.939317
_symmetry_space_group_name_H-M "P -1"
_symmetry_group_IT_number 2
_symmetry_cell_setting 'triclinic'
loop_
_space_group_symop_operation_xyz
x,y,z
-x,-y,-z
loop_
_atom_site_type_symbol
_atom_site_label
_atom_site_fract_x
_atom_site_fract_y
_atom_site_fract_z
Si Si1 0.215341 0.272019 0.739821
Si Si2 0.697493 0.786340 0.732495
Si Si3 0.134055 0.449266 0.211555
Si Si4 0.331723 0.128099 0.981367
Si Si5 0.155541 0.282149 0.539336
Si Si6 0.834285 0.129874 0.233017
Si Si7 0.731992 0.506495 0.246394
Si Si8 0.337029 0.928431 0.322502
O O1 0.254319 0.407631 0.515740
O O2 0.195978 0.402406 0.733285
O O3 0.361070 0.221036 0.783886
O O4 0.000000 0.000000 0.000000
O O5 0.859175 0.743651 0.701993
O O6 0.737589 0.985100 0.479459
O O7 0.659986 0.870814 0.776234
O O8 0.500000 0.500000 0.000000
O O9 0.220852 0.466625 0.279862
O O10 0.902701 0.308187 0.413316
O O11 0.229693 0.714033 0.918107
O O12 0.410730 0.021370 0.114235
O O13 0.363273 0.358099 0.848917
O O14 0.087708 0.895112 0.240665
O O15 0.191637 0.083142 0.659123
O O16 0.076599 0.350570 0.995691
O O17 0.588446 0.202549 0.536127
#
# Coordination Sequence:
#
# PCOD9076166 Si02
#       8
#     2   2   2   2   2   2   2   2
#     4   8  12  25  44  72 115 132 142 191 252 290
#     4  11  24  36  50  69  97 132 168 209 252 289
#     4   9  19  33  52  76  96 127 166 202 248 293
#     4   7  14  25  41  67 104 130 150 186 234 289
#     4   8  13  27  44  73 111 128 146 195 245 289
#     4   9  17  32  48  70  98 126 169 196 244 294
#     4   8  16  27  47  75 105 130 155 197 248 287
#     4  10  18  33  50  73  99 130 165 204 242 293
#
# _framework density 26.061208000000001
#
# number of rings (size 3 to 8) (size 9 to 14) (size 15 to 20)
#    0.750    2.500    1.250    1.125    0.000    3.500 
#    2.250    2.500    0.000    0.000    0.000    7.000 
#    0.000    0.000    0.000    0.000    0.000    0.000 
#
# Total GULP energy -89240.161556 kJ/mol
# GULP energy per Si atom -5577.510097 kJ/mol
# Density = 2.600189 g / cm^3
# Si number density = 26.061208 Si / 1000 Ang^3
#
#
#
# Elastic Constant Matrix: (Units=GPa)
#
#
# Indices 1 2 3 4 5 6 
#
# 1 56.5103 14.6407 53.0947 -1.3393 17.9411 5.3185
# 2 14.6407 78.3493 28.6758 6.4464 9.8174 19.3678
# 3 53.0947 28.6758 152.3319 21.7291 43.2672 12.2548
# 4 -1.3393 6.4464 21.7291 39.8567 0.1350 6.0467
# 5 17.9411 9.8174 43.2672 0.1350 50.8417 11.3793
# 6 5.3185 19.3678 12.2548 6.0467 11.3793 22.2945
#
#
#
# Elastic Compliance Matrix: (Units=1/GPa)
#
#
# Indices 1 2 3 4 5 6 
#
# 1 0.028247 -0.001740 -0.010225 0.006981 -0.000692 -0.001146
# 2 -0.001740 0.017184 -0.002239 0.000608 0.002495 -0.014721
# 3 -0.010225 -0.002239 0.013820 -0.007981 -0.008428 0.003254
# 4 0.006981 0.000608 -0.007981 0.030981 0.006230 -0.009389
# 5 -0.000692 0.002495 -0.008428 0.006230 0.029779 -0.014258
# 6 -0.001146 -0.014721 0.003254 -0.009389 -0.014258 0.065951
#
#
# Mechanical properties :
#
#
# Convention : Reuss Voigt Hill
#
# Bulk Modulus (GPa) = 32.42240 53.33489 42.87864
# Shear Modulus (GPa) = 22.25669 35.31726 28.78698
#
# Velocity S-wave (km/s) = 2.92553 3.68525 3.32714
# Velocity P-wave (km/s) = 4.88666 6.21432 5.59005
#
# Compressibility (1/GPa) = 0.03084288
#
# Stress axis : x y z
#
# Youngs Moduli (GPa) = 35.40259 58.19199 72.35674
#
# Poissons Ratio (x) = 0.10128 0.73982
# Poissons Ratio (y) = 0.06161 0.16203
# Poissons Ratio (z) = 0.36198 0.13031
#
# Static dielectric constant tensor:
#      x y z
#    x 2.284900 -0.062120 -0.068580 
#    y -0.062120 2.053590 0.047870 
#    z -0.068580 0.047870 2.134750 
# 
# From -- ./inp_files/521324.got.cif
#   From: 2010.05.17/outbox.cif.g08.bks.cpg/sg2_261_cif.got.tgz:521324.got - 2010.06.03 11:33:40.
