data_PCOD9076626
_publ_section_title
;
Structure prediction by ZEFSAII (Michael W. Deem and Ramdas Pophale) SiO2 
 PCOD9076626
Probable space group: P -1
;
_chemical_formula_sum "Si O2"
_cell_formula_units_Z 14
_cell_length_a 7.608171
_cell_length_b 15.301958
_cell_length_c 7.468085
_cell_angle_alpha 121.221074
_cell_angle_beta 62.821894
_cell_angle_gamma 80.588999
_cell_volume 562.470660
_symmetry_space_group_name_H-M "P -1"
_symmetry_group_IT_number 2
_symmetry_cell_setting 'triclinic'
loop_
_space_group_symop_operation_xyz
x,y,z
-x,-y,-z
loop_
_atom_site_type_symbol
_atom_site_label
_atom_site_fract_x
_atom_site_fract_y
_atom_site_fract_z
Si Si1 0.556977 0.966061 0.147488
Si Si2 0.829746 0.360002 0.813919
Si Si3 0.726164 0.365276 0.241356
Si Si4 0.559067 0.790680 0.470519
Si Si5 0.696704 0.584368 0.906239
Si Si6 0.917712 0.197062 0.291789
Si Si7 0.583099 0.734075 0.801737
O O1 0.519741 0.854984 0.065010
O O2 0.830247 0.907849 0.993893
O O3 0.500000 0.000000 0.000000
O O4 0.424058 0.092657 0.446657
O O5 0.884231 0.357937 0.995552
O O6 0.849694 0.459401 0.802350
O O7 0.058112 0.762989 0.478295
O O8 0.250863 0.380497 0.273530
O O9 0.500000 0.500000 0.500000
O O10 0.839747 0.313907 0.325895
O O11 0.642207 0.274784 0.130065
O O12 0.658534 0.688351 0.168738
O O13 0.286561 0.830179 0.648098
O O14 0.657198 0.739172 0.569428
O O15 0.445080 0.597236 0.013458
#
# Coordination Sequence:
#
# PCOD9076626 Si02
#       7
#     2   2   2   2   2   2   2
#     4  10  21  37  54  74 107 146 179 218 264 306
#     4   9  17  30  52  82 107 130 171 222 263 307
#     4  10  18  33  58  83 107 136 174 216 261 319
#     4   9  18  33  55  77 101 137 181 218 256 310
#     4   9  16  30  53  79 104 134 170 215 268 316
#     4  10  19  34  56  79 106 140 178 217 259 312
#     4   9  18  32  51  77 105 135 172 214 264 309
#
# _framework density 24.890187000000001
#
# number of rings (size 3 to 8) (size 9 to 14) (size 15 to 20)
#    0.000    2.571    0.000    4.714    0.000    0.571 
#    0.000    8.571    0.000   19.714    0.000    0.000 
#    0.000    0.000    0.000    0.000    0.000    0.000 
#
# Total GULP energy -78224.334406 kJ/mol
# GULP energy per Si atom -5587.452458 kJ/mol
# Density = 2.483354 g / cm^3
# Si number density = 24.890187 Si / 1000 Ang^3
#
#
#
# Elastic Constant Matrix: (Units=GPa)
#
#
# Indices 1 2 3 4 5 6 
#
# 1 114.2680 26.1501 22.6317 11.2858 1.9263 9.6348
# 2 26.1501 111.8697 32.9035 -2.8307 7.8937 5.5534
# 3 22.6317 32.9035 76.2106 -1.5489 24.2334 -0.1883
# 4 11.2858 -2.8307 -1.5489 38.8079 -2.7935 4.6315
# 5 1.9263 7.8937 24.2334 -2.7935 37.3306 9.7462
# 6 9.6348 5.5534 -0.1883 4.6315 9.7462 26.0028
#
#
#
# Elastic Compliance Matrix: (Units=1/GPa)
#
#
# Indices 1 2 3 4 5 6 
#
# 1 0.010316 -0.001470 -0.003409 -0.002538 0.002889 -0.004164
# 2 -0.001470 0.010715 -0.004695 0.001459 0.001662 -0.002660
# 3 -0.003409 -0.004695 0.020750 -0.000503 -0.014402 0.007904
# 4 -0.002538 0.001459 -0.000503 0.027534 0.003687 -0.005661
# 5 0.002889 0.001662 -0.014402 0.003687 0.040441 -0.017344
# 6 -0.004164 -0.002660 0.007904 -0.005661 -0.017344 0.048134
#
#
# Mechanical properties :
#
#
# Convention : Reuss Voigt Hill
#
# Bulk Modulus (GPa) = 44.18372 51.74652 47.96512
# Shear Modulus (GPa) = 27.08813 35.13914 31.11363
#
# Velocity S-wave (km/s) = 3.30253 3.76142 3.53942
# Velocity P-wave (km/s) = 5.68614 6.30075 6.00132
#
# Compressibility (1/GPa) = 0.02263277
#
# Stress axis : x y z
#
# Youngs Moduli (GPa) = 96.93583 93.32509 48.19290
#
# Poissons Ratio (x) = 0.13719 0.16430
# Poissons Ratio (y) = 0.14250 0.22626
# Poissons Ratio (z) = 0.33048 0.43816
#
# Static dielectric constant tensor:
#      x y z
#    x 2.011580 -0.028560 -0.035230 
#    y -0.028560 2.029560 -0.032730 
#    z -0.035230 -0.032730 1.961030 
# 
# From -- ./inp_files/210889.got.cif
#   From: 2010.05.17/outbox.cif.g08.bks.cpg/sg2_106_cif.got.tgz:210889.got - 2010.06.03 11:33:40.
