data_PCOD9076063
_publ_section_title
;
Structure prediction by ZEFSAII (Michael W. Deem and Ramdas Pophale) SiO2 
 PCOD9076063
Probable space group: P -1
;
_chemical_formula_sum "Si O2"
_cell_formula_units_Z 10
_cell_length_a 11.555236
_cell_length_b 7.717454
_cell_length_c 8.482657
_cell_angle_alpha 37.064569
_cell_angle_beta 126.654911
_cell_angle_gamma 110.858280
_cell_volume 354.261687
_symmetry_space_group_name_H-M "P -1"
_symmetry_group_IT_number 2
_symmetry_cell_setting 'triclinic'
loop_
_space_group_symop_operation_xyz
x,y,z
-x,-y,-z
loop_
_atom_site_type_symbol
_atom_site_label
_atom_site_fract_x
_atom_site_fract_y
_atom_site_fract_z
Si Si1 0.045892 0.652477 0.269659
Si Si2 0.406094 0.045056 0.051060
Si Si3 0.367359 0.683357 0.555618
Si Si4 0.821553 0.053204 0.291299
Si Si5 0.228384 0.283309 0.205703
O O1 0.220012 0.602073 0.424980
O O2 0.000000 0.500000 0.500000
O O3 0.942911 0.617108 0.067523
O O4 0.000000 0.000000 0.000000
O O5 0.425766 0.355659 0.916893
O O6 0.240941 0.019328 0.876492
O O7 0.500000 0.000000 0.000000
O O8 0.454691 0.784905 0.408116
O O9 0.311836 0.992073 0.383620
O O10 0.772725 0.839662 0.531930
O O11 0.738444 0.395148 0.013388
O O12 0.000000 0.000000 0.500000
#
# Coordination Sequence:
#
# PCOD9076063 Si02
#       5
#     2   2   2   2   2
#     4  10  18  32  59  96 127 156 201 261 317 372
#     4  12  26  45  65  92 131 178 218 262 328 394
#     4  11  22  42  66  92 127 175 221 264 314 392
#     4  12  24  42  65  98 134 166 206 272 332 376
#     4  11  22  39  65  98 127 165 217 269 318 378
#
# _framework density 28.227723000000001
#
# number of rings (size 3 to 8) (size 9 to 14) (size 15 to 20)
#    0.000    0.800    0.000   10.800    0.000    0.000 
#    0.000    6.000    0.000    0.000    0.000    0.000 
#    0.000    0.000    0.000    0.000    0.000    0.000 
#
# Total GULP energy -55934.606738 kJ/mol
# GULP energy per Si atom -5593.460674 kJ/mol
# Density = 2.816348 g / cm^3
# Si number density = 28.227723 Si / 1000 Ang^3
#
#
#
# Elastic Constant Matrix: (Units=GPa)
#
#
# Indices 1 2 3 4 5 6 
#
# 1 112.7824 12.4740 33.1785 -4.0503 -10.5949 15.3114
# 2 12.4740 166.4137 59.3241 -37.4645 18.2341 2.1132
# 3 33.1785 59.3241 182.5126 -29.7462 -22.9222 15.3410
# 4 -4.0503 -37.4645 -29.7462 74.1126 7.6527 11.6785
# 5 -10.5949 18.2341 -22.9222 7.6527 55.9783 -1.7141
# 6 15.3114 2.1132 15.3410 11.6785 -1.7141 45.7162
#
#
#
# Elastic Compliance Matrix: (Units=1/GPa)
#
#
# Indices 1 2 3 4 5 6 
#
# 1 0.009787 -0.000376 -0.001220 0.000162 0.001366 -0.002841
# 2 -0.000376 0.008232 -0.002508 0.003658 -0.004295 -0.000509
# 3 -0.001220 -0.002508 0.007390 0.001644 0.003318 -0.002251
# 4 0.000162 0.003658 0.001644 0.017150 -0.002994 -0.005268
# 5 0.001366 -0.004295 0.003318 -0.002994 0.021296 0.000191
# 6 -0.002841 -0.000509 -0.002251 -0.005268 0.000191 0.024957
#
#
# Mechanical properties :
#
#
# Convention : Reuss Voigt Hill
#
# Bulk Modulus (GPa) = 58.13668 74.62910 66.38289
# Shear Modulus (GPa) = 48.66032 58.94355 53.80193
#
# Velocity S-wave (km/s) = 4.15643 4.57458 4.37051
# Velocity P-wave (km/s) = 6.60870 7.37550 7.00260
#
# Compressibility (1/GPa) = 0.01720085
#
# Stress axis : x y z
#
# Youngs Moduli (GPa) = 102.17612 121.47893 135.31973
#
# Poissons Ratio (x) = 0.04565 0.16513
# Poissons Ratio (y) = 0.03839 0.33937
# Poissons Ratio (z) = 0.12468 0.30466
#
# Static dielectric constant tensor:
#      x y z
#    x 2.257200 0.080310 0.177900 
#    y 0.080310 2.248900 0.066720 
#    z 0.177900 0.066720 2.322010 
# 
# From -- ./inp_files/20384.got.cif
#   From: 2010.05.17/outbox.cif.g08.bks.cpg/sg2_11_cif.got.tgz:20384.got - 2010.06.03 11:33:40.
