data_PCOD9076591
_publ_section_title
;
Structure prediction by ZEFSAII (Michael W. Deem and Ramdas Pophale) SiO2 
 PCOD9076591
Probable space group: P -1
;
_chemical_formula_sum "Si O2"
_cell_formula_units_Z 14
_cell_length_a 16.080044
_cell_length_b 12.515310
_cell_length_c 5.069363
_cell_angle_alpha 116.393002
_cell_angle_beta 46.851531
_cell_angle_gamma 132.646704
_cell_volume 547.142371
_symmetry_space_group_name_H-M "P -1"
_symmetry_group_IT_number 2
_symmetry_cell_setting 'triclinic'
loop_
_space_group_symop_operation_xyz
x,y,z
-x,-y,-z
loop_
_atom_site_type_symbol
_atom_site_label
_atom_site_fract_x
_atom_site_fract_y
_atom_site_fract_z
Si Si1 0.836837 0.338614 0.870561
Si Si2 0.557802 0.812891 0.444139
Si Si3 0.341587 0.988466 0.079736
Si Si4 0.850125 0.505694 0.531310
Si Si5 0.365604 0.503151 0.322090
Si Si6 0.062011 0.938687 0.609403
Si Si7 0.796983 0.789258 0.761728
O O1 0.706250 0.175832 0.048149
O O2 0.815974 0.378775 0.669501
O O3 0.990769 0.369678 0.588970
O O4 0.856231 0.457264 0.167673
O O5 0.420161 0.652931 0.513273
O O6 0.559656 0.904013 0.785156
O O7 0.674450 0.776547 0.184253
O O8 0.601911 0.915336 0.202256
O O9 0.188883 0.942978 0.458763
O O10 0.711902 0.505661 0.793490
O O11 0.257228 0.338256 0.477224
O O12 0.500000 0.500000 0.000000
O O13 0.923431 0.798908 0.640197
O O14 0.136964 0.055924 0.344151
O O15 0.000000 0.000000 0.000000
#
# Coordination Sequence:
#
# PCOD9076591 Si02
#       7
#     2   2   2   2   2   2   2
#     4  10  22  42  69  93 128 165 213 272 324 367
#     4  10  22  38  58  88 127 160 213 252 301 393
#     4  11  21  39  61  88 123 167 208 263 316 365
#     4  10  22  44  65  99 126 163 218 268 314 390
#     4  10  22  44  65  92 130 177 210 262 323 382
#     4  10  18  33  57  91 121 153 208 266 313 380
#     4   9  19  37  54  87 125 162 200 258 325 370
#
# _framework density 25.587489999999999
#
# number of rings (size 3 to 8) (size 9 to 14) (size 15 to 20)
#    0.000    2.000    1.429    1.714    0.000    1.143 
#   12.857    9.286    0.000    0.000    0.000    0.000 
#    0.000    0.000    0.000    0.000    0.000    0.000 
#
# Total GULP energy -78026.641979 kJ/mol
# GULP energy per Si atom -5573.331570 kJ/mol
# Density = 2.552925 g / cm^3
# Si number density = 25.587490 Si / 1000 Ang^3
#
#
#
# Elastic Constant Matrix: (Units=GPa)
#
#
# Indices 1 2 3 4 5 6 
#
# 1 130.4462 31.5876 28.1038 -2.7096 -20.5189 17.8437
# 2 31.5876 160.7812 -5.5071 5.1252 -1.5740 41.7972
# 3 28.1038 -5.5071 45.2602 0.7888 -3.8985 0.0521
# 4 -2.7096 5.1252 0.7888 24.3180 4.2008 -8.0311
# 5 -20.5189 -1.5740 -3.8985 4.2008 44.1209 2.2209
# 6 17.8437 41.7972 0.0521 -8.0311 2.2209 36.9747
#
#
#
# Elastic Compliance Matrix: (Units=1/GPa)
#
#
# Indices 1 2 3 4 5 6 
#
# 1 0.010586 -0.001138 -0.006301 -0.000560 0.004591 -0.004210
# 2 -0.001138 0.009885 0.002143 -0.006494 0.001241 -0.012113
# 3 -0.006301 0.002143 0.026269 -0.001879 -0.000364 0.000195
# 4 -0.000560 -0.006494 -0.001879 0.049798 -0.006346 0.018812
# 5 0.004591 0.001241 -0.000364 -0.006346 0.025746 -0.006542
# 6 -0.004210 -0.012113 0.000195 0.018812 -0.006542 0.047249
#
#
# Mechanical properties :
#
#
# Convention : Reuss Voigt Hill
#
# Bulk Modulus (GPa) = 27.66465 49.42846 38.54656
# Shear Modulus (GPa) = 26.01818 39.90294 32.96056
#
# Velocity S-wave (km/s) = 3.19224 3.95330 3.59298
# Velocity P-wave (km/s) = 4.94191 6.34015 5.68418
#
# Compressibility (1/GPa) = 0.03614721
#
# Stress axis : x y z
#
# Youngs Moduli (GPa) = 94.46750 101.16633 38.06731
#
# Poissons Ratio (x) = 0.11515 0.23988
# Poissons Ratio (y) = 0.10752 -0.08160
# Poissons Ratio (z) = 0.59529 -0.21685
#
# Static dielectric constant tensor:
#      x y z
#    x 2.277510 0.220080 0.026120 
#    y 0.220080 2.303280 0.584590 
#    z 0.026120 0.584590 1.340190 
# 
# From -- ./inp_files/110388.got.cif
#   From: 2010.05.17/outbox.cif.g08.bks.cpg/sg2_56_cif.got.tgz:110388.got - 2010.06.03 11:33:40.
