data_PCOD9076831
_publ_section_title
;
Structure prediction by ZEFSAII (Michael W. Deem and Ramdas Pophale) SiO2 
 PCOD9076831
Probable space group: P -1
;
_chemical_formula_sum "Si O2"
_cell_formula_units_Z 14
_cell_length_a 9.094689
_cell_length_b 8.257443
_cell_length_c 12.027603
_cell_angle_alpha 129.591160
_cell_angle_beta 114.423853
_cell_angle_gamma 95.499561
_cell_volume 544.343334
_symmetry_space_group_name_H-M "P -1"
_symmetry_group_IT_number 2
_symmetry_cell_setting 'triclinic'
loop_
_space_group_symop_operation_xyz
x,y,z
-x,-y,-z
loop_
_atom_site_type_symbol
_atom_site_label
_atom_site_fract_x
_atom_site_fract_y
_atom_site_fract_z
Si Si1 0.964903 0.193369 0.137410
Si Si2 0.464640 0.287707 0.305228
Si Si3 0.205389 0.054829 0.625401
Si Si4 0.163149 0.680285 0.269084
Si Si5 0.503547 0.380900 0.716469
Si Si6 0.190940 0.048747 0.289779
Si Si7 0.191597 0.760581 0.691586
O O1 0.042356 0.422957 0.179986
O O2 0.088508 0.192767 0.283024
O O3 0.793220 0.178547 0.146090
O O4 0.000000 0.000000 0.000000
O O5 0.500000 0.500000 0.500000
O O6 0.402263 0.359094 0.202737
O O7 0.308023 0.050709 0.218808
O O8 0.640891 0.269091 0.317582
O O9 0.235617 0.864134 0.477690
O O10 0.198021 0.976058 0.714435
O O11 0.379166 0.319760 0.761402
O O12 0.000000 0.000000 0.500000
O O13 0.337436 0.689528 0.264304
O O14 0.074474 0.784952 0.198092
O O15 0.341399 0.208201 0.501447
O O16 0.000000 0.500000 0.500000
#
# Coordination Sequence:
#
# PCOD9076831 Si02
#       7
#     2   2   2   2   2   2   2
#     4  12  27  44  61  90 132 175 214 257 314 382
#     4  10  18  33  60  92 122 154 198 257 316 368
#     4  11  20  32  56  97 128 149 202 267 319 369
#     4  11  21  39  64  91 127 166 207 259 321 374
#     4  10  19  33  62  98 124 154 201 266 321 370
#     4  10  20  38  63  91 125 164 211 257 316 376
#     4  12  21  36  62  91 124 161 208 264 317 364
#
# _framework density 25.719062999999998
#
# number of rings (size 3 to 8) (size 9 to 14) (size 15 to 20)
#    0.000    1.143    2.857    8.571    0.000    0.571 
#    0.000    0.714    0.000    1.714    0.000    0.000 
#    0.000    0.000    0.000    0.000    0.000    0.000 
#
# Total GULP energy -78149.124028 kJ/mol
# GULP energy per Si atom -5582.080288 kJ/mol
# Density = 2.566053 g / cm^3
# Si number density = 25.719063 Si / 1000 Ang^3
#
#
#
# Elastic Constant Matrix: (Units=GPa)
#
#
# Indices 1 2 3 4 5 6 
#
# 1 134.9240 39.2478 9.7392 -8.4292 -30.4948 17.5588
# 2 39.2478 211.6848 23.1605 -3.9553 -19.9466 37.8379
# 3 9.7392 23.1605 65.6790 2.0125 -23.4676 13.8192
# 4 -8.4292 -3.9553 2.0125 29.5415 5.7510 -8.1233
# 5 -30.4948 -19.9466 -23.4676 5.7510 28.7042 -10.4818
# 6 17.5588 37.8379 13.8192 -8.1233 -10.4818 56.9668
#
#
#
# Elastic Compliance Matrix: (Units=1/GPa)
#
#
# Indices 1 2 3 4 5 6 
#
# 1 0.010535 -0.000914 0.003746 -0.000267 0.013254 -0.001148
# 2 -0.000914 0.005647 -0.000693 -0.000584 0.001359 -0.003134
# 3 0.003746 -0.000693 0.024060 -0.006044 0.023241 -0.003116
# 4 -0.000267 -0.000584 -0.006044 0.037746 -0.011279 0.005244
# 5 0.013254 0.001359 0.023241 -0.011279 0.071458 0.000914
# 6 -0.001148 -0.003134 -0.003116 0.005244 0.000914 0.021661
#
#
# Mechanical properties :
#
#
# Convention : Reuss Voigt Hill
#
# Bulk Modulus (GPa) = 22.46210 61.84252 42.15231
# Shear Modulus (GPa) = 27.52257 45.71854 36.62055
#
# Velocity S-wave (km/s) = 3.27482 4.22075 3.77751
# Velocity P-wave (km/s) = 4.80124 6.91741 5.95409
#
# Compressibility (1/GPa) = 0.04451943
#
# Stress axis : x y z
#
# Youngs Moduli (GPa) = 94.91780 177.09811 41.56338
#
# Poissons Ratio (x) = 0.16187 -0.15568
# Poissons Ratio (y) = 0.08675 0.02879
# Poissons Ratio (z) = -0.35553 0.12269
#
# Static dielectric constant tensor:
#      x y z
#    x 2.083590 0.032540 0.120210 
#    y 0.032540 2.173620 -0.004270 
#    z 0.120210 -0.004270 2.405120 
# 
# From -- ./inp_files/239646.got.cif
#   From: 2010.05.17/outbox.cif.g08.bks.cpg/sg2_120_cif.got.tgz:239646.got - 2010.06.03 11:33:40.
