data_PCOD9076028
_publ_section_title
;
Structure prediction by ZEFSAII (Michael W. Deem and Ramdas Pophale) SiO2 
 PCOD9076028
Probable space group: P -1
;
_chemical_formula_sum "Si O2"
_cell_formula_units_Z 16
_cell_length_a 16.163376
_cell_length_b 9.379295
_cell_length_c 12.848339
_cell_angle_alpha 84.394714
_cell_angle_beta 35.274231
_cell_angle_gamma 110.424436
_cell_volume 745.582547
_symmetry_space_group_name_H-M "P -1"
_symmetry_group_IT_number 2
_symmetry_cell_setting 'triclinic'
loop_
_space_group_symop_operation_xyz
x,y,z
-x,-y,-z
loop_
_atom_site_type_symbol
_atom_site_label
_atom_site_fract_x
_atom_site_fract_y
_atom_site_fract_z
Si Si1 0.996280 0.669958 0.338921
Si Si2 0.668121 0.600618 0.581434
Si Si3 0.402565 0.586219 0.073543
Si Si4 0.188123 0.162416 0.876658
Si Si5 0.160464 0.486391 0.121207
Si Si6 0.030758 0.957491 0.669832
Si Si7 0.303516 0.121996 0.084997
Si Si8 0.562988 0.384999 0.357407
O O1 0.882327 0.662502 0.357939
O O2 0.815048 0.553283 0.623457
O O3 0.046685 0.545367 0.269488
O O4 0.211132 0.911640 0.139767
O O5 0.485591 0.352269 0.822881
O O6 0.574090 0.612092 0.578394
O O7 0.748000 0.792919 0.559271
O O8 0.588145 0.824105 0.918105
O O9 0.500000 0.500000 0.000000
O O10 0.319736 0.555118 0.045252
O O11 0.385099 0.205825 0.637097
O O12 0.272480 0.388716 0.769055
O O13 0.102778 0.092471 0.086604
O O14 0.000000 0.000000 0.000000
O O15 0.301586 0.610218 0.861864
O O16 0.992354 0.230170 0.295568
O O17 0.901900 0.926461 0.707532
#
# Coordination Sequence:
#
# PCOD9076028 Si02
#       8
#     2   2   2   2   2   2   2   2
#     4  10  24  38  59  85 127 157 192 245 301 348
#     4  10  18  38  59  84 114 159 201 232 286 353
#     4  11  21  41  63  86 118 156 208 239 289 357
#     4  10  18  32  58  97 115 144 198 256 294 333
#     4  11  21  41  57  92 124 153 194 251 303 343
#     4  10  19  35  63  87 118 152 200 249 292 343
#     4  10  20  40  56  89 113 162 198 236 289 355
#     4  10  20  35  60  88 119 151 202 245 287 358
#
# _framework density 21.459728999999999
#
# number of rings (size 3 to 8) (size 9 to 14) (size 15 to 20)
#    0.000    1.750    5.000    1.125    0.000    1.000 
#    9.000    0.000    0.000    9.750    0.000    0.000 
#    0.000    0.000    0.000    0.000    0.000    0.000 
#
# Total GULP energy -89150.720635 kJ/mol
# GULP energy per Si atom -5571.920040 kJ/mol
# Density = 2.141089 g / cm^3
# Si number density = 21.459729 Si / 1000 Ang^3
#
#
#
# Elastic Constant Matrix: (Units=GPa)
#
#
# Indices 1 2 3 4 5 6 
#
# 1 42.7931 41.0298 24.4330 -3.8022 -9.5564 11.6517
# 2 41.0298 163.1036 76.2932 -2.8282 -13.0493 -1.0098
# 3 24.4330 76.2932 113.9304 -1.9395 2.2152 5.5447
# 4 -3.8022 -2.8282 -1.9395 47.6219 13.1391 -12.6228
# 5 -9.5564 -13.0493 2.2152 13.1391 37.4582 -0.9586
# 6 11.6517 -1.0098 5.5447 -12.6228 -0.9586 32.9543
#
#
#
# Elastic Compliance Matrix: (Units=1/GPa)
#
#
# Indices 1 2 3 4 5 6 
#
# 1 0.037570 -0.007907 -0.002280 -0.003501 0.007829 -0.014256
# 2 -0.007907 0.011144 -0.006015 0.000323 0.002218 0.004338
# 3 -0.002280 -0.006015 0.013451 0.000640 -0.003736 -0.001505
# 4 -0.003501 0.000323 0.000640 0.026369 -0.009788 0.010956
# 5 0.007829 0.002218 -0.003736 -0.009788 0.032996 -0.004861
# 6 -0.014256 0.004338 -0.001505 0.010956 -0.004861 0.039827
#
#
# Mechanical properties :
#
#
# Convention : Reuss Voigt Hill
#
# Bulk Modulus (GPa) = 33.60235 67.03768 50.32001
# Shear Modulus (GPa) = 24.54802 35.47829 30.01315
#
# Velocity S-wave (km/s) = 3.38584 4.07043 3.74382
# Velocity P-wave (km/s) = 5.56575 7.30738 6.49521
#
# Compressibility (1/GPa) = 0.02975982
#
# Stress axis : x y z
#
# Youngs Moduli (GPa) = 26.61688 89.73528 74.34220
#
# Poissons Ratio (x) = 0.70955 0.16951
# Poissons Ratio (y) = 0.21046 0.44720
# Poissons Ratio (z) = 0.06069 0.53980
#
# Static dielectric constant tensor:
#      x y z
#    x 1.843430 0.054830 0.090470 
#    y 0.054830 1.797030 0.011740 
#    z 0.090470 0.011740 1.910740 
# 
# From -- ./inp_files/537439.got.cif
#   From: 2010.05.17/outbox.cif.g08.bks.cpg/sg2_269_cif.got.tgz:537439.got - 2010.06.03 11:33:40.
