data_PCOD9076543
_publ_section_title
;
Structure prediction by ZEFSAII (Michael W. Deem and Ramdas Pophale) SiO2 
 PCOD9076543
Probable space group: P -1
;
_chemical_formula_sum "Si O2"
_cell_formula_units_Z 16
_cell_length_a 16.585345
_cell_length_b 12.076088
_cell_length_c 10.402523
_cell_angle_alpha 54.692779
_cell_angle_beta 51.996056
_cell_angle_gamma 30.188489
_cell_volume 820.009625
_symmetry_space_group_name_H-M "P -1"
_symmetry_group_IT_number 2
_symmetry_cell_setting 'triclinic'
loop_
_space_group_symop_operation_xyz
x,y,z
-x,-y,-z
loop_
_atom_site_type_symbol
_atom_site_label
_atom_site_fract_x
_atom_site_fract_y
_atom_site_fract_z
Si Si1 0.487321 0.229126 0.912841
Si Si2 0.718769 0.531940 0.648252
Si Si3 0.180969 0.954198 0.886865
Si Si4 0.365545 0.679598 0.124185
Si Si5 0.653787 0.895929 0.755460
Si Si6 0.038638 0.494392 0.614829
Si Si7 0.629856 0.003655 0.410466
Si Si8 0.814551 0.364788 0.955450
O O1 0.565322 0.276367 0.879679
O O2 0.585541 0.087525 0.784122
O O3 0.462147 0.113472 0.092705
O O4 0.293021 0.474110 0.927173
O O5 0.692420 0.405821 0.707838
O O6 0.887624 0.429149 0.504838
O O7 0.557209 0.795947 0.598639
O O8 0.734373 0.498592 0.809942
O O9 0.320520 0.890581 0.718986
O O10 0.218861 0.901164 0.035912
O O11 0.180173 0.802789 0.937249
O O12 0.004314 0.209977 0.869124
O O13 0.500000 0.500000 0.000000
O O14 0.853985 0.667729 0.740805
O O15 0.633149 0.953156 0.587994
O O16 0.000000 0.500000 0.500000
O O17 0.209225 0.233605 0.659389
#
# Coordination Sequence:
#
# PCOD9076543 Si02
#       8
#     2   2   2   2   2   2   2   2
#     4  11  20  41  59  80 116 151 191 232 284 338
#     4  11  20  35  57  88 114 143 191 237 283 327
#     4  10  19  31  57  90 111 141 192 233 281 327
#     4  11  20  36  61  87 114 145 187 236 280 328
#     4  10  24  38  58  81 114 158 188 229 283 344
#     4  10  21  35  55  82 114 147 190 234 277 330
#     4  11  19  33  56  84 113 145 190 235 281 330
#     4  10  18  33  57  83 114 146 185 238 274 331
#
# _framework density 19.511966000000001
#
# number of rings (size 3 to 8) (size 9 to 14) (size 15 to 20)
#    0.000    1.500    3.750    4.125    0.000    1.000 
#    0.000    4.375    0.000    7.500    0.000    0.000 
#    0.000    0.000    0.000    0.000    0.000    0.000 
#
# Total GULP energy -89081.647785 kJ/mol
# GULP energy per Si atom -5567.602987 kJ/mol
# Density = 1.946756 g / cm^3
# Si number density = 19.511966 Si / 1000 Ang^3
#
#
#
# Elastic Constant Matrix: (Units=GPa)
#
#
# Indices 1 2 3 4 5 6 
#
# 1 97.6414 46.3501 30.1730 2.4811 -26.0918 2.6255
# 2 46.3501 110.9287 22.7225 4.2739 18.2995 -11.6312
# 3 30.1730 22.7225 65.6919 -3.4850 -19.0527 -1.0254
# 4 2.4811 4.2739 -3.4850 28.7658 -2.7718 3.6735
# 5 -26.0918 18.2995 -19.0527 -2.7718 32.6036 -3.3153
# 6 2.6255 -11.6312 -1.0254 3.6735 -3.3153 41.3216
#
#
#
# Elastic Compliance Matrix: (Units=1/GPa)
#
#
# Indices 1 2 3 4 5 6 
#
# 1 0.026714 -0.018242 0.004067 0.004736 0.033947 -0.004429
# 2 -0.018242 0.025728 -0.011174 -0.007797 -0.035626 0.005959
# 3 0.004067 -0.011174 0.024620 0.006823 0.024347 -0.001446
# 4 0.004736 -0.007797 0.006823 0.038360 0.014953 -0.004537
# 5 0.033947 -0.035626 0.024347 0.014953 0.092777 -0.005466
# 6 -0.004429 0.005959 -0.001446 -0.004537 -0.005466 0.026088
#
#
# Mechanical properties :
#
#
# Convention : Reuss Voigt Hill
#
# Bulk Modulus (GPa) = 37.92822 52.52813 45.22817
# Shear Modulus (GPa) = 17.02001 32.20595 24.61298
#
# Velocity S-wave (km/s) = 2.95665 4.06713 3.55551
# Velocity P-wave (km/s) = 5.58000 7.00249 6.33132
#
# Compressibility (1/GPa) = 0.02636559
#
# Stress axis : x y z
#
# Youngs Moduli (GPa) = 37.43335 38.86811 40.61753
#
# Poissons Ratio (x) = 0.70904 -0.16521
# Poissons Ratio (y) = 0.68287 0.45384
# Poissons Ratio (z) = -0.15226 0.43429
#
# Static dielectric constant tensor:
#      x y z
#    x 1.736840 -0.028380 -0.061990 
#    y -0.028380 1.753120 -0.041240 
#    z -0.061990 -0.041240 1.710950 
# 
# From -- ./inp_files/463572.got.cif
#   From: 2010.05.17/outbox.cif.g08.bks.cpg/sg2_232_cif.got.tgz:463572.got - 2010.06.03 11:33:40.
