data_PCOD9076369
_publ_section_title
;
Structure prediction by ZEFSAII (Michael W. Deem and Ramdas Pophale) SiO2 
 PCOD9076369
Probable space group: P -1
;
_chemical_formula_sum "Si O2"
_cell_formula_units_Z 14
_cell_length_a 7.162610
_cell_length_b 8.378587
_cell_length_c 10.052296
_cell_angle_alpha 82.230347
_cell_angle_beta 68.146699
_cell_angle_gamma 94.739492
_cell_volume 548.945132
_symmetry_space_group_name_H-M "P -1"
_symmetry_group_IT_number 2
_symmetry_cell_setting 'triclinic'
loop_
_space_group_symop_operation_xyz
x,y,z
-x,-y,-z
loop_
_atom_site_type_symbol
_atom_site_label
_atom_site_fract_x
_atom_site_fract_y
_atom_site_fract_z
Si Si1 0.397064 0.151341 0.356539
Si Si2 0.825727 0.085731 0.331494
Si Si3 0.453439 0.709316 0.040544
Si Si4 0.189651 0.937310 0.211690
Si Si5 0.122699 0.671534 0.492228
Si Si6 0.224547 0.458211 0.932433
Si Si7 0.451978 0.523424 0.329590
O O1 0.633000 0.131067 0.301496
O O2 0.371454 0.334543 0.376688
O O3 0.272674 0.036568 0.512619
O O4 0.319637 0.083901 0.241846
O O5 0.932085 0.243466 0.367273
O O6 0.983428 0.000083 0.214595
O O7 0.335135 0.861686 0.079409
O O8 0.694659 0.697709 0.001043
O O9 0.377507 0.594827 0.202150
O O10 0.365628 0.610701 0.946820
O O11 0.121721 0.802182 0.359693
O O12 0.355987 0.631818 0.449816
O O13 0.000000 0.500000 0.500000
O O14 0.305209 0.448413 0.760849
O O15 0.000000 0.500000 0.000000
#
# Coordination Sequence:
#
# PCOD9076369 Si02
#       7
#     2   2   2   2   2   2   2
#     4  10  20  36  51  78 117 147 183 219 258 328
#     4  10  21  34  53  78 117 156 175 215 270 320
#     4   8  19  36  58  83 102 133 188 225 280 321
#     4  10  19  36  55  77 111 149 175 219 277 324
#     4  10  18  33  55  83 110 145 185 223 265 321
#     4   9  18  38  59  80 108 134 176 241 282 313
#     4   9  18  35  55  82 108 138 188 227 263 323
#
# _framework density 25.50346
#
# number of rings (size 3 to 8) (size 9 to 14) (size 15 to 20)
#    0.857    1.714    0.000    3.429    0.000    1.714 
#   10.286    0.714    0.000    1.714    0.000    0.000 
#    0.000    0.000    0.000    0.000    0.000    0.000 
#
# Total GULP energy -78178.785223 kJ/mol
# GULP energy per Si atom -5584.198945 kJ/mol
# Density = 2.544541 g / cm^3
# Si number density = 25.503460 Si / 1000 Ang^3
#
#
#
# Elastic Constant Matrix: (Units=GPa)
#
#
# Indices 1 2 3 4 5 6 
#
# 1 120.2683 38.7027 31.3381 22.3250 -43.0804 -30.4263
# 2 38.7027 103.0129 25.8097 14.2965 -22.9745 -27.9794
# 3 31.3381 25.8097 71.5965 18.3934 -14.0980 -23.3736
# 4 22.3250 14.2965 18.3934 50.7907 -20.7939 -23.8300
# 5 -43.0804 -22.9745 -14.0980 -20.7939 39.8426 18.1406
# 6 -30.4263 -27.9794 -23.3736 -23.8300 18.1406 41.6266
#
#
#
# Elastic Compliance Matrix: (Units=1/GPa)
#
#
# Indices 1 2 3 4 5 6 
#
# 1 0.014939 -0.001075 -0.002714 0.002264 0.013991 0.003871
# 2 -0.001075 0.012859 -0.001882 0.002049 0.003775 0.006329
# 3 -0.002714 -0.001882 0.018198 -0.002694 -0.001818 0.006220
# 4 0.002264 0.002049 -0.002694 0.030563 0.012437 0.013596
# 5 0.013991 0.003775 -0.001818 0.012437 0.049481 -0.002701
# 6 0.003871 0.006329 0.006220 0.013596 -0.002701 0.043560
#
#
# Mechanical properties :
#
#
# Convention : Reuss Voigt Hill
#
# Bulk Modulus (GPa) = 28.85631 54.06432 41.46031
# Shear Modulus (GPa) = 25.97497 39.72047 32.84772
#
# Velocity S-wave (km/s) = 3.19484 3.95074 3.59272
# Velocity P-wave (km/s) = 4.99485 6.48506 5.78811
#
# Compressibility (1/GPa) = 0.03465447
#
# Stress axis : x y z
#
# Youngs Moduli (GPa) = 66.93992 77.76376 54.95076
#
# Poissons Ratio (x) = 0.08358 0.14913
# Poissons Ratio (y) = 0.07195 0.10343
# Poissons Ratio (z) = 0.18167 0.14636
#
# Static dielectric constant tensor:
#      x y z
#    x 2.045560 -0.029190 -0.081110 
#    y -0.029190 2.021460 -0.055680 
#    z -0.081110 -0.055680 2.123020 
# 
# From -- ./inp_files/480495.got.cif
#   From: 2010.05.17/outbox.cif.g08.bks.cpg/sg2_241_cif.got.tgz:480495.got - 2010.06.03 11:33:40.
