data_PCOD9076036
_publ_section_title
;
Structure prediction by ZEFSAII (Michael W. Deem and Ramdas Pophale) SiO2 
 PCOD9076036
Probable space group: P -1
;
_chemical_formula_sum "Si O2"
_cell_formula_units_Z 12
_cell_length_a 11.387972
_cell_length_b 7.745647
_cell_length_c 19.598861
_cell_angle_alpha 62.312901
_cell_angle_beta 22.141481
_cell_angle_gamma 55.260361
_cell_volume 524.160648
_symmetry_space_group_name_H-M "P -1"
_symmetry_group_IT_number 2
_symmetry_cell_setting 'triclinic'
loop_
_space_group_symop_operation_xyz
x,y,z
-x,-y,-z
loop_
_atom_site_type_symbol
_atom_site_label
_atom_site_fract_x
_atom_site_fract_y
_atom_site_fract_z
Si Si1 0.031158 0.140723 0.785105
Si Si2 0.677752 0.601127 0.333972
Si Si3 0.231051 0.118690 0.940002
Si Si4 0.234899 0.035052 0.424192
Si Si5 0.791262 0.747734 0.470241
Si Si6 0.393228 0.503200 0.754349
O O1 0.053279 0.326457 0.787125
O O2 0.986845 0.227842 0.715928
O O3 0.410022 0.939776 0.625087
O O4 0.773157 0.043397 0.969412
O O5 0.500000 0.500000 0.500000
O O6 0.369802 0.820396 0.435708
O O7 0.795242 0.475972 0.222146
O O8 0.424846 0.980260 0.795886
O O9 0.403082 0.289015 0.823003
O O10 0.837811 0.293491 0.112766
O O11 0.095346 0.217303 0.522342
O O12 0.000000 0.000000 0.500000
O O13 0.732848 0.530731 0.544486
#
# Coordination Sequence:
#
# PCOD9076036 Si02
#       6
#     2   2   2   2   2   2
#     4   9  17  30  54  83 104 132 180 226 266 302
#     4  10  18  32  59  83 105 136 179 224 262 312
#     4   9  19  32  51  80 109 137 177 226 264 308
#     4  10  22  37  53  76 112 150 176 209 272 334
#     4   9  17  31  54  76 106 139 175 220 266 320
#     4   9  17  30  53  84 106 130 179 230 268 299
#
# _framework density 22.893747000000001
#
# number of rings (size 3 to 8) (size 9 to 14) (size 15 to 20)
#    0.000    2.667    1.667    0.000    2.333   12.000 
#    0.000    4.167    0.000    1.000    0.000    0.000 
#    0.000    0.000    0.000    0.000    0.000    0.000 
#
# Total GULP energy -66814.485176 kJ/mol
# GULP energy per Si atom -5567.873765 kJ/mol
# Density = 2.284164 g / cm^3
# Si number density = 22.893747 Si / 1000 Ang^3
#
#
#
# Elastic Constant Matrix: (Units=GPa)
#
#
# Indices 1 2 3 4 5 6 
#
# 1 135.1939 50.7311 62.3330 -31.0741 32.2813 22.3666
# 2 50.7311 52.3901 59.4191 -41.4521 19.0201 10.9215
# 3 62.3330 59.4191 112.3405 -56.7254 41.6784 -5.7301
# 4 -31.0741 -41.4521 -56.7254 50.2603 -17.8590 5.8777
# 5 32.2813 19.0201 41.6784 -17.8590 25.5036 -8.5209
# 6 22.3666 10.9215 -5.7301 5.8777 -8.5209 34.3747
#
#
#
# Elastic Compliance Matrix: (Units=1/GPa)
#
#
# Indices 1 2 3 4 5 6 
#
# 1 0.018133 -0.007539 0.005386 0.002340 -0.029948 -0.016329
# 2 -0.007539 0.139561 -0.023136 0.085281 -0.017824 -0.062293
# 3 0.005386 -0.023136 0.050166 0.020547 -0.059149 -0.005966
# 4 0.002340 0.085281 0.020547 0.105419 -0.044440 -0.054234
# 5 -0.029948 -0.017824 -0.059149 -0.044440 0.178373 0.067103
# 6 -0.016329 -0.062293 -0.005966 -0.054234 0.067103 0.084420
#
#
# Mechanical properties :
#
#
# Convention : Reuss Voigt Hill
#
# Bulk Modulus (GPa) = 6.35812 71.65454 39.00633
# Shear Modulus (GPa) = 7.36292 30.52379 18.94335
#
# Velocity S-wave (km/s) = 1.79530 3.65537 2.87966
# Velocity P-wave (km/s) = 2.66096 7.01301 5.30392
#
# Compressibility (1/GPa) = 0.15727931
#
# Stress axis : x y z
#
# Youngs Moduli (GPa) = 55.14854 7.16532 19.93396
#
# Poissons Ratio (x) = 0.05402 -0.10736
# Poissons Ratio (y) = 0.41578 0.46120
# Poissons Ratio (z) = -0.29701 0.16578
#
# Static dielectric constant tensor:
#      x y z
#    x 1.898700 0.051550 0.005360 
#    y 0.051550 1.930530 0.036540 
#    z 0.005360 0.036540 1.947340 
# 
# From -- ./inp_files/172859.got.cif
#   From: 2010.05.17/outbox.cif.g08.bks.cpg/sg2_87_cif.got.tgz:172859.got - 2010.06.03 11:33:40.
