data_PCOD9076318
_publ_section_title
;
Structure prediction by ZEFSAII (Michael W. Deem and Ramdas Pophale) SiO2 
 PCOD9076318
Probable space group: P -1
;
_chemical_formula_sum "Si O2"
_cell_formula_units_Z 14
_cell_length_a 9.120161
_cell_length_b 5.718021
_cell_length_c 15.426805
_cell_angle_alpha 49.967410
_cell_angle_beta 95.869748
_cell_angle_gamma 73.742841
_cell_volume 545.993897
_symmetry_space_group_name_H-M "P -1"
_symmetry_group_IT_number 2
_symmetry_cell_setting 'triclinic'
loop_
_space_group_symop_operation_xyz
x,y,z
-x,-y,-z
loop_
_atom_site_type_symbol
_atom_site_label
_atom_site_fract_x
_atom_site_fract_y
_atom_site_fract_z
Si Si1 0.280356 0.626604 0.253103
Si Si2 0.133508 0.613486 0.078552
Si Si3 0.476238 0.084502 0.809337
Si Si4 0.674554 0.408536 0.478613
Si Si5 0.303129 0.142722 0.503502
Si Si6 0.945852 0.166432 0.165544
Si Si7 0.364621 0.675159 0.787220
O O1 0.278711 0.522244 0.178595
O O2 0.348367 0.907372 0.195212
O O3 0.382125 0.307302 0.398007
O O4 0.090345 0.803690 0.229879
O O5 0.041732 0.382837 0.145456
O O6 0.161810 0.640041 0.972046
O O7 0.000000 0.000000 0.000000
O O8 0.368411 0.347494 0.664970
O O9 0.418374 0.284479 0.850110
O O10 0.454607 0.756502 0.855346
O O11 0.500000 0.500000 0.500000
O O12 0.782140 0.511346 0.525512
O O13 0.761648 0.034825 0.530167
O O14 0.370426 0.873342 0.652177
O O15 0.824263 0.167620 0.230901
#
# Coordination Sequence:
#
# PCOD9076318 Si02
#       7
#     2   2   2   2   2   2   2
#     4  11  23  37  68  97 126 163 223 266 303 376
#     4   9  22  43  69  88 118 166 224 262 320 380
#     4  10  23  37  63  97 132 169 211 258 311 375
#     4  10  18  33  54  84 130 173 203 239 306 372
#     4  10  22  34  59  94 132 166 207 254 311 374
#     4  10  23  45  68  87 124 173 216 261 324 388
#     4  10  24  42  63  94 138 174 200 253 331 380
#
# _framework density 25.641314000000001
#
# number of rings (size 3 to 8) (size 9 to 14) (size 15 to 20)
#    0.000    2.000    1.429    0.429   12.000    0.571 
#    0.000    2.143    0.000    0.000    0.000    0.000 
#    0.000    0.000    0.000    0.000    0.000    0.000 
#
# Total GULP energy -77951.509587 kJ/mol
# GULP energy per Si atom -5567.964971 kJ/mol
# Density = 2.558295 g / cm^3
# Si number density = 25.641314 Si / 1000 Ang^3
#
#
#
# Elastic Constant Matrix: (Units=GPa)
#
#
# Indices 1 2 3 4 5 6 
#
# 1 88.4409 61.9038 31.5150 20.9357 -3.8724 -14.9821
# 2 61.9038 214.4079 21.1569 31.5311 6.9056 37.6102
# 3 31.5150 21.1569 103.4340 12.1822 10.0143 5.6126
# 4 20.9357 31.5311 12.1822 29.0467 5.4623 16.8398
# 5 -3.8724 6.9056 10.0143 5.4623 29.4074 17.3363
# 6 -14.9821 37.6102 5.6126 16.8398 17.3363 51.5078
#
#
#
# Elastic Compliance Matrix: (Units=1/GPa)
#
#
# Indices 1 2 3 4 5 6 
#
# 1 0.027588 -0.008127 -0.005262 -0.021336 -0.001725 0.022088
# 2 -0.008127 0.008321 0.000895 0.001746 0.002141 -0.009828
# 3 -0.005262 0.000895 0.011557 -0.000067 -0.003505 -0.002242
# 4 -0.021336 0.001746 -0.000067 0.064515 0.002071 -0.029263
# 5 -0.001725 0.002141 -0.003505 0.002071 0.044257 -0.017256
# 6 0.022088 -0.009828 -0.002242 -0.029263 -0.017256 0.048635
#
#
# Mechanical properties :
#
#
# Convention : Reuss Voigt Hill
#
# Bulk Modulus (GPa) = 44.49047 70.60380 57.54713
# Shear Modulus (GPa) = 21.06573 41.43950 31.25261
#
# Velocity S-wave (km/s) = 2.86939 4.02446 3.49497
# Velocity P-wave (km/s) = 5.32603 7.01356 6.22722
#
# Compressibility (1/GPa) = 0.02247673
#
# Stress axis : x y z
#
# Youngs Moduli (GPa) = 36.24826 120.18448 86.52730
#
# Poissons Ratio (x) = 0.97676 0.45529
# Poissons Ratio (y) = 0.29460 -0.07742
# Poissons Ratio (z) = 0.19073 -0.10753
#
# Static dielectric constant tensor:
#      x y z
#    x 2.585640 -0.307500 0.280590 
#    y -0.307500 2.328120 -0.177530 
#    z 0.280590 -0.177530 2.112080 
# 
# From -- ./inp_files/90856.got.cif
#   From: 2010.05.17/outbox.cif.g08.bks.cpg/sg2_46_cif.got.tgz:90856.got - 2010.06.03 11:33:40.
