data_PCOD9076851
_publ_section_title
;
Structure prediction by ZEFSAII (Michael W. Deem and Ramdas Pophale) SiO2 
 PCOD9076851
Probable space group: P -1
;
_chemical_formula_sum "Si O2"
_cell_formula_units_Z 16
_cell_length_a 13.294650
_cell_length_b 7.918738
_cell_length_c 16.987245
_cell_angle_alpha 146.807068
_cell_angle_beta 56.078341
_cell_angle_gamma 122.552937
_cell_volume 802.417730
_symmetry_space_group_name_H-M "P -1"
_symmetry_group_IT_number 2
_symmetry_cell_setting 'triclinic'
loop_
_space_group_symop_operation_xyz
x,y,z
-x,-y,-z
loop_
_atom_site_type_symbol
_atom_site_label
_atom_site_fract_x
_atom_site_fract_y
_atom_site_fract_z
Si Si1 0.433237 0.664881 0.871484
Si Si2 0.357034 0.421346 0.639340
Si Si3 0.131985 0.247337 0.409073
Si Si4 0.868371 0.093891 0.412871
Si Si5 0.171738 0.755597 0.078099
Si Si6 0.466493 0.011905 0.612115
Si Si7 0.777502 0.301560 0.327103
Si Si8 0.970164 0.904530 0.128084
O O1 0.417701 0.603295 0.760535
O O2 0.495578 0.375720 0.763611
O O3 0.296379 0.643616 0.955830
O O4 0.500000 0.000000 0.000000
O O5 0.292383 0.648971 0.702649
O O6 0.249603 0.137858 0.599109
O O7 0.457199 0.239857 0.483197
O O8 0.151945 0.558048 0.466275
O O9 0.188157 0.368166 0.514396
O O10 0.985491 0.138302 0.436782
O O11 0.187095 0.984320 0.235010
O O12 0.916942 0.949285 0.256143
O O13 0.113502 0.923630 0.094928
O O14 0.077113 0.442713 0.016699
O O15 0.500000 0.000000 0.500000
O O16 0.323693 0.905084 0.653497
O O17 0.901693 0.147926 0.205001
#
# Coordination Sequence:
#
# PCOD9076851 Si02
#       8
#     2   2   2   2   2   2   2   2
#     4  11  23  38  60  86 107 146 200 239 275 333
#     4  11  23  38  59  81 119 154 183 239 288 338
#     4   9  19  31  61  86 109 147 190 239 268 335
#     4   9  17  36  56  85 111 147 199 227 271 329
#     4  10  18  33  61  85 108 140 197 237 274 325
#     4  10  21  40  60  79 107 154 200 232 269 333
#     4  11  21  39  57  87 117 149 188 228 295 339
#     4   9  17  35  61  80 109 151 186 231 280 341
#
# _framework density 19.939738999999999
#
# number of rings (size 3 to 8) (size 9 to 14) (size 15 to 20)
#    0.000    2.000    2.500    3.375    5.250    0.500 
#    0.000    2.500    0.000    0.000    0.000    0.000 
#    0.000    0.000    0.000    0.000    0.000    0.000 
#
# Total GULP energy -89161.128623 kJ/mol
# GULP energy per Si atom -5572.570539 kJ/mol
# Density = 1.989436 g / cm^3
# Si number density = 19.939739 Si / 1000 Ang^3
#
#
#
# Elastic Constant Matrix: (Units=GPa)
#
#
# Indices 1 2 3 4 5 6 
#
# 1 75.4326 8.4789 25.4411 9.9340 -0.7424 -9.6173
# 2 8.4789 33.7546 7.0291 11.7282 6.4741 8.5378
# 3 25.4411 7.0291 133.9295 29.3026 -0.3800 -5.1099
# 4 9.9340 11.7282 29.3026 18.3047 9.2042 2.4915
# 5 -0.7424 6.4741 -0.3800 9.2042 37.6188 6.5022
# 6 -9.6173 8.5378 -5.1099 2.4915 6.5022 23.3420
#
#
#
# Elastic Compliance Matrix: (Units=1/GPa)
#
#
# Indices 1 2 3 4 5 6 
#
# 1 0.015916 -0.004009 -0.001273 -0.005618 0.000970 0.008075
# 2 -0.004009 0.044529 0.005568 -0.035028 0.003286 -0.013897
# 3 -0.001273 0.005568 0.013543 -0.027616 0.005601 0.001791
# 4 -0.005618 -0.035028 -0.027616 0.138686 -0.027846 -0.002594
# 5 0.000970 0.003286 0.005601 -0.027846 0.033953 -0.006062
# 6 0.008075 -0.013897 0.001791 -0.002594 -0.006062 0.053609
#
#
# Mechanical properties :
#
#
# Convention : Reuss Voigt Hill
#
# Bulk Modulus (GPa) = 13.41247 36.11278 24.76262
# Shear Modulus (GPa) = 15.40749 29.33093 22.36921
#
# Velocity S-wave (km/s) = 2.78277 3.83950 3.35302
# Velocity P-wave (km/s) = 4.13112 6.14865 5.23794
#
# Compressibility (1/GPa) = 0.07455747
#
# Stress axis : x y z
#
# Youngs Moduli (GPa) = 62.83087 22.45730 73.84150
#
# Poissons Ratio (x) = 0.09004 0.09400
# Poissons Ratio (y) = 0.25192 -0.41112
# Poissons Ratio (z) = 0.07998 -0.12503
#
# Static dielectric constant tensor:
#      x y z
#    x 1.799470 -0.018700 -0.024490 
#    y -0.018700 1.732510 0.006580 
#    z -0.024490 0.006580 1.710410 
# 
# From -- ./inp_files/227525.got.cif
#   From: 2010.05.17/outbox.cif.g08.bks.cpg/sg2_114_cif.got.tgz:227525.got - 2010.06.03 11:33:40.
