data_PCOD9076112
_publ_section_title
;
Structure prediction by ZEFSAII (Michael W. Deem and Ramdas Pophale) SiO2 
 PCOD9076112
Probable space group: P -1
;
_chemical_formula_sum "Si O2"
_cell_formula_units_Z 16
_cell_length_a 6.716266
_cell_length_b 11.459670
_cell_length_c 8.964130
_cell_angle_alpha 110.903543
_cell_angle_beta 104.989386
_cell_angle_gamma 81.990941
_cell_volume 621.747572
_symmetry_space_group_name_H-M "P -1"
_symmetry_group_IT_number 2
_symmetry_cell_setting 'triclinic'
loop_
_space_group_symop_operation_xyz
x,y,z
-x,-y,-z
loop_
_atom_site_type_symbol
_atom_site_label
_atom_site_fract_x
_atom_site_fract_y
_atom_site_fract_z
Si Si1 0.087185 0.884527 0.564786
Si Si2 0.692487 0.572543 0.634073
Si Si3 0.006965 0.628160 0.295910
Si Si4 0.674183 0.273376 0.833104
Si Si5 0.683864 0.646756 0.013067
Si Si6 0.307595 0.985744 0.179100
Si Si7 0.557358 0.807220 0.522847
Si Si8 0.231353 0.075390 0.894696
O O1 0.972981 0.758588 0.441384
O O2 0.324571 0.836585 0.554154
O O3 0.107438 0.957964 0.758065
O O4 0.000000 0.000000 0.500000
O O5 0.500000 0.500000 0.500000
O O6 0.893781 0.478371 0.625526
O O7 0.673593 0.698943 0.592117
O O8 0.678765 0.604114 0.821938
O O9 0.180116 0.654771 0.215019
O O10 0.819163 0.579919 0.139849
O O11 0.551772 0.343384 0.972606
O O12 0.782570 0.146474 0.861072
O O13 0.488830 0.229416 0.670765
O O14 0.792248 0.780691 0.092855
O O15 0.536468 0.953205 0.139393
O O16 0.331272 0.065416 0.369508
O O17 0.214869 0.068478 0.065729
#
# Coordination Sequence:
#
# PCOD9076112 Si02
#       8
#     2   2   2   2   2   2   2   2
#     4  10  18  32  61  90 128 165 207 269 320 381
#     4  12  23  43  71  92 132 186 216 268 331 391
#     4  11  24  43  65  99 136 171 223 268 327 394
#     4  10  22  38  67  99 128 165 223 273 333 383
#     4  11  23  42  70  94 129 179 221 267 329 389
#     4   9  17  32  58  90 125 166 209 267 320 385
#     4  10  20  38  62  95 130 173 220 267 326 394
#     4   9  17  31  59  91 121 162 217 250 324 392
#
# _framework density 25.733917999999999
#
# number of rings (size 3 to 8) (size 9 to 14) (size 15 to 20)
#    0.000    1.750    5.000    0.750    1.750    1.500 
#    0.000    1.250    5.500    0.000    0.000    0.000 
#    0.000    0.000    0.000    0.000    0.000    0.000 
#
# Total GULP energy -89460.505055 kJ/mol
# GULP energy per Si atom -5591.281566 kJ/mol
# Density = 2.567535 g / cm^3
# Si number density = 25.733918 Si / 1000 Ang^3
#
#
#
# Elastic Constant Matrix: (Units=GPa)
#
#
# Indices 1 2 3 4 5 6 
#
# 1 83.4131 43.0102 20.8766 4.3484 0.0462 14.7344
# 2 43.0102 149.9022 39.4275 -15.9647 -0.5979 -23.2283
# 3 20.8766 39.4275 137.7190 10.5945 -4.8939 -3.1438
# 4 4.3484 -15.9647 10.5945 43.6551 -1.1827 9.5407
# 5 0.0462 -0.5979 -4.8939 -1.1827 40.4980 -6.5879
# 6 14.7344 -23.2283 -3.1438 9.5407 -6.5879 37.8081
#
#
#
# Elastic Compliance Matrix: (Units=1/GPa)
#
#
# Indices 1 2 3 4 5 6 
#
# 1 0.017750 -0.006741 -0.000963 -0.001632 -0.002088 -0.011091
# 2 -0.006741 0.010833 -0.002091 0.003318 0.001397 0.008515
# 3 -0.000963 -0.002091 0.008271 -0.002792 0.000995 0.000656
# 4 -0.001632 0.003318 -0.002792 0.025855 -0.000201 -0.004117
# 5 -0.002088 0.001397 0.000995 -0.000201 0.025857 0.006311
# 6 -0.011091 0.008515 0.000656 -0.004117 0.006311 0.038196
#
#
# Mechanical properties :
#
#
# Convention : Reuss Voigt Hill
#
# Bulk Modulus (GPa) = 57.91658 64.18476 61.05067
# Shear Modulus (GPa) = 32.87181 42.24024 37.55603
#
# Velocity S-wave (km/s) = 3.57791 4.05584 3.82435
# Velocity P-wave (km/s) = 6.29471 6.85047 6.57846
#
# Compressibility (1/GPa) = 0.01726621
#
# Stress axis : x y z
#
# Youngs Moduli (GPa) = 56.33652 92.30802 120.90627
#
# Poissons Ratio (x) = 0.62220 0.11641
# Poissons Ratio (y) = 0.37974 0.25280
# Poissons Ratio (z) = 0.05424 0.19300
#
# Static dielectric constant tensor:
#      x y z
#    x 2.120910 -0.072620 0.033610 
#    y -0.072620 2.053490 0.063140 
#    z 0.033610 0.063140 1.994980 
# 
# From -- ./inp_files/181827.got.cif
#   From: 2010.05.17/outbox.cif.g08.bks.cpg/sg2_91_cif.got.tgz:181827.got - 2010.06.03 11:33:40.
