data_PCOD9076045
_publ_section_title
;
Structure prediction by ZEFSAII (Michael W. Deem and Ramdas Pophale) SiO2 
 PCOD9076045
Probable space group: P -1
;
_chemical_formula_sum "Si O2"
_cell_formula_units_Z 12
_cell_length_a 11.164115
_cell_length_b 11.043761
_cell_length_c 23.157094
_cell_angle_alpha 144.107245
_cell_angle_beta 19.604008
_cell_angle_gamma 136.326126
_cell_volume 549.954068
_symmetry_space_group_name_H-M "P -1"
_symmetry_group_IT_number 2
_symmetry_cell_setting 'triclinic'
loop_
_space_group_symop_operation_xyz
x,y,z
-x,-y,-z
loop_
_atom_site_type_symbol
_atom_site_label
_atom_site_fract_x
_atom_site_fract_y
_atom_site_fract_z
Si Si1 0.591009 0.738595 0.776379
Si Si2 0.111744 0.583270 0.176172
Si Si3 0.742724 0.397999 0.657359
Si Si4 0.843297 0.998184 0.384781
Si Si5 0.931535 0.762995 0.445420
Si Si6 0.786293 0.194522 0.136922
O O1 0.485072 0.593405 0.818699
O O2 0.274461 0.847978 0.919426
O O3 0.865908 0.592284 0.548221
O O4 0.836274 0.899311 0.749507
O O5 0.871223 0.671884 0.375654
O O6 0.976913 0.391167 0.133708
O O7 0.500000 0.500000 0.000000
O O8 0.040394 0.779646 0.240156
O O9 0.694570 0.169953 0.568905
O O10 0.755902 0.386759 0.715809
O O11 0.500000 0.000000 0.500000
O O12 0.591684 0.768912 0.643072
O O13 0.000000 0.000000 0.500000
O O14 0.000000 0.000000 0.000000
#
# Coordination Sequence:
#
# PCOD9076045 Si02
#       6
#     2   2   2   2   2   2
#     4   8  16  33  54  84 112 154 189 239 293 350
#     4  12  24  38  60  90 121 156 204 247 295 355
#     4   8  16  31  56  80 113 150 190 233 293 346
#     4  10  18  32  59  86 113 152 201 241 295 354
#     4  11  20  39  60  86 120 157 196 245 296 353
#     4  11  22  38  62  87 120 158 197 247 296 353
#
# _framework density 21.820004000000001
#
# number of rings (size 3 to 8) (size 9 to 14) (size 15 to 20)
#    1.000    1.000    1.667    3.500    2.333    0.000 
#    0.000    0.000    3.667    5.000    0.000    0.000 
#    0.000    0.000    0.000    0.000    0.000    0.000 
#
# Total GULP energy -66807.684732 kJ/mol
# GULP energy per Si atom -5567.307061 kJ/mol
# Density = 2.177034 g / cm^3
# Si number density = 21.820004 Si / 1000 Ang^3
#
#
#
# Elastic Constant Matrix: (Units=GPa)
#
#
# Indices 1 2 3 4 5 6 
#
# 1 100.7767 42.3515 29.4568 12.2247 -41.0947 -6.4281
# 2 42.3515 133.0905 39.0527 23.6050 -32.6441 -0.9997
# 3 29.4568 39.0527 47.2593 14.0893 -33.8698 -12.8712
# 4 12.2247 23.6050 14.0893 31.7523 -11.8721 -11.5593
# 5 -41.0947 -32.6441 -33.8698 -11.8721 37.7674 5.6282
# 6 -6.4281 -0.9997 -12.8712 -11.5593 5.6282 37.5308
#
#
#
# Elastic Compliance Matrix: (Units=1/GPa)
#
#
# Indices 1 2 3 4 5 6 
#
# 1 0.019698 -0.002654 0.011376 0.001495 0.029324 0.003268
# 2 -0.002654 0.011475 -0.008753 -0.006106 -0.002034 -0.004726
# 3 0.011376 -0.008753 0.077290 0.001177 0.071842 0.017811
# 4 0.001495 -0.006106 0.001177 0.042795 0.009021 0.012325
# 5 0.029324 -0.002034 0.071842 0.009021 0.121786 0.014122
# 6 0.003268 -0.004726 0.017811 0.012325 0.014122 0.034865
#
#
# Mechanical properties :
#
#
# Convention : Reuss Voigt Hill
#
# Bulk Modulus (GPa) = 9.22510 55.87204 32.54857
# Shear Modulus (GPa) = 14.53042 32.76113 23.64578
#
# Velocity S-wave (km/s) = 2.58335 3.87903 3.29549
# Velocity P-wave (km/s) = 3.62426 6.76195 5.42490
#
# Compressibility (1/GPa) = 0.10839995
#
# Stress axis : x y z
#
# Youngs Moduli (GPa) = 50.76612 87.14420 12.93832
#
# Poissons Ratio (x) = 0.23131 -0.14718
# Poissons Ratio (y) = 0.13475 0.11325
# Poissons Ratio (z) = -0.57750 0.76277
#
# Static dielectric constant tensor:
#      x y z
#    x 1.964180 -0.014530 -0.178980 
#    y -0.014530 1.771570 -0.016180 
#    z -0.178980 -0.016180 2.049900 
# 
# From -- ./inp_files/618433.got.cif
#   From: 2010.05.17/outbox.cif.g08.bks.cpg/sg2_310_cif.got.tgz:618433.got - 2010.06.03 11:33:40.
