data_PCOD9076168
_publ_section_title
;
Structure prediction by ZEFSAII (Michael W. Deem and Ramdas Pophale) SiO2 
 PCOD9076168
Probable space group: P -1
;
_chemical_formula_sum "Si O2"
_cell_formula_units_Z 16
_cell_length_a 12.487513
_cell_length_b 11.541130
_cell_length_c 20.793668
_cell_angle_alpha 149.768100
_cell_angle_beta 143.942385
_cell_angle_gamma 55.134695
_cell_volume 802.692575
_symmetry_space_group_name_H-M "P -1"
_symmetry_group_IT_number 2
_symmetry_cell_setting 'triclinic'
loop_
_space_group_symop_operation_xyz
x,y,z
-x,-y,-z
loop_
_atom_site_type_symbol
_atom_site_label
_atom_site_fract_x
_atom_site_fract_y
_atom_site_fract_z
Si Si1 0.239665 0.165850 0.197642
Si Si2 0.964927 0.703588 0.124447
Si Si3 0.985143 0.238488 0.681081
Si Si4 0.396582 0.565234 0.578839
Si Si5 0.278832 0.133886 0.419967
Si Si6 0.248397 0.957937 0.654097
Si Si7 0.440363 0.725552 0.255229
Si Si8 0.608783 0.260936 0.904056
O O1 0.294624 0.389154 0.383057
O O2 0.363881 0.294274 0.254342
O O3 0.337672 0.980012 0.179628
O O4 0.000000 0.000000 0.000000
O O5 0.074108 0.730418 0.259751
O O6 0.730239 0.562115 0.957759
O O7 0.050658 0.962915 0.250143
O O8 0.000000 0.500000 0.000000
O O9 0.824957 0.169428 0.513109
O O10 0.070540 0.024414 0.623850
O O11 0.177617 0.495410 0.876525
O O12 0.334037 0.373784 0.516168
O O13 0.308398 0.774886 0.638789
O O14 0.397407 0.222483 0.586604
O O15 0.349607 0.932763 0.324048
O O16 0.449756 0.216386 0.862262
O O17 0.499224 0.750511 0.221709
#
# Coordination Sequence:
#
# PCOD9076168 Si02
#       8
#     2   2   2   2   2   2   2   2
#     4  10  20  34  51  78 110 145 174 222 280 328
#     4   9  19  34  54  79 105 136 183 229 270 310
#     4  10  20  36  57  82 106 143 187 226 267 324
#     4  10  21  35  50  78 113 145 179 218 276 331
#     4  10  18  33  50  74 107 142 176 221 268 322
#     4  10  21  35  55  80 112 146 180 220 273 330
#     4   9  18  31  50  77 102 138 179 220 272 313
#     4  10  18  34  55  79 107 140 181 228 273 319
#
# _framework density 19.932912999999999
#
# number of rings (size 3 to 8) (size 9 to 14) (size 15 to 20)
#    0.000    2.250    1.250    1.875    0.000    1.000 
#    9.000    0.625    0.000    3.000    0.000    0.000 
#    0.000    0.000    0.000    0.000    0.000    0.000 
#
# Total GULP energy -89211.963929 kJ/mol
# GULP energy per Si atom -5575.747746 kJ/mol
# Density = 1.988755 g / cm^3
# Si number density = 19.932913 Si / 1000 Ang^3
#
#
#
# Elastic Constant Matrix: (Units=GPa)
#
#
# Indices 1 2 3 4 5 6 
#
# 1 58.7842 40.4809 22.8902 6.7244 12.6905 20.9003
# 2 40.4809 92.7105 28.1406 22.8400 23.6373 17.9218
# 3 22.8902 28.1406 78.1891 12.0943 20.1843 22.6328
# 4 6.7244 22.8400 12.0943 26.3821 10.3429 8.1200
# 5 12.6905 23.6373 20.1843 10.3429 35.1951 9.2099
# 6 20.9003 17.9218 22.6328 8.1200 9.2099 26.6626
#
#
#
# Elastic Compliance Matrix: (Units=1/GPa)
#
#
# Indices 1 2 3 4 5 6 
#
# 1 0.030984 -0.011713 -0.000753 0.008403 -0.000599 -0.018127
# 2 -0.011713 0.020360 -0.001137 -0.012584 -0.005692 0.002260
# 3 -0.000753 -0.001137 0.018676 -0.001282 -0.006164 -0.011979
# 4 0.008403 -0.012584 -0.001282 0.053211 -0.006612 -0.010961
# 5 -0.000599 -0.005692 -0.006164 -0.006612 0.038379 -0.001715
# 6 -0.018127 0.002260 -0.011979 -0.010961 -0.001715 0.064296
#
#
# Mechanical properties :
#
#
# Convention : Reuss Voigt Hill
#
# Bulk Modulus (GPa) = 23.35677 45.85636 34.60657
# Shear Modulus (GPa) = 18.69968 26.85942 22.77955
#
# Velocity S-wave (km/s) = 3.06621 3.67480 3.38422
# Velocity P-wave (km/s) = 4.92734 6.40787 5.71575
#
# Compressibility (1/GPa) = 0.04281415
#
# Stress axis : x y z
#
# Youngs Moduli (GPa) = 32.27468 49.11502 53.54393
#
# Poissons Ratio (x) = 0.57530 0.04031
# Poissons Ratio (y) = 0.37805 0.06088
# Poissons Ratio (z) = 0.02430 0.05584
#
# Static dielectric constant tensor:
#      x y z
#    x 1.782740 -0.010030 0.032070 
#    y -0.010030 1.679380 0.006280 
#    z 0.032070 0.006280 1.755970 
# 
# From -- ./inp_files/436857.got.cif
#   From: 2010.05.17/outbox.cif.g08.bks.cpg/sg2_219_cif.got.tgz:436857.got - 2010.06.03 11:33:40.
