data_PCOD9076709
_publ_section_title
;
Structure prediction by ZEFSAII (Michael W. Deem and Ramdas Pophale) SiO2 
 PCOD9076709
Probable space group: P -1
;
_chemical_formula_sum "Si O2"
_cell_formula_units_Z 12
_cell_length_a 4.995970
_cell_length_b 8.605422
_cell_length_c 19.347145
_cell_angle_alpha 143.502034
_cell_angle_beta 90.461128
_cell_angle_gamma 71.085421
_cell_volume 418.238814
_symmetry_space_group_name_H-M "P -1"
_symmetry_group_IT_number 2
_symmetry_cell_setting 'triclinic'
loop_
_space_group_symop_operation_xyz
x,y,z
-x,-y,-z
loop_
_atom_site_type_symbol
_atom_site_label
_atom_site_fract_x
_atom_site_fract_y
_atom_site_fract_z
Si Si1 0.952152 0.730046 0.878329
Si Si2 0.915929 0.873736 0.585345
Si Si3 0.625965 0.765237 0.019578
Si Si4 0.799625 0.336055 0.357850
Si Si5 0.538746 0.280887 0.622564
Si Si6 0.547212 0.204870 0.831570
O O1 0.241125 0.502529 0.749558
O O2 0.626517 0.901952 0.894866
O O3 0.900812 0.604316 0.905274
O O4 0.000000 0.000000 0.000000
O O5 0.909597 0.581018 0.454577
O O6 0.202128 0.774079 0.603456
O O7 0.851228 0.116899 0.612286
O O8 0.616629 0.052826 0.702006
O O9 0.681865 0.797509 0.112056
O O10 0.494589 0.538678 0.941302
O O11 0.499937 0.513135 0.370431
O O12 0.104207 0.031919 0.217940
O O13 0.500000 0.000000 0.500000
#
# Coordination Sequence:
#
# PCOD9076709 Si02
#       6
#     2   2   2   2   2   2
#     4  11  22  38  58  89 119 155 202 248 290 362
#     4   8  15  28  54  84 107 151 193 232 291 351
#     4  10  21  35  61  83 120 160 191 243 309 345
#     4   8  15  29  55  79 113 151 184 243 293 338
#     4  10  18  33  59  80 113 156 194 245 290 343
#     4   9  16  35  56  83 113 151 192 238 294 351
#
# _framework density 28.691744
#
# number of rings (size 3 to 8) (size 9 to 14) (size 15 to 20)
#    1.000    1.667    1.667    1.000    0.000    0.000 
#    0.000    7.500    7.333    6.000    0.000    0.000 
#    0.000    0.000    0.000    0.000    0.000    0.000 
#
# Total GULP energy -67147.134467 kJ/mol
# GULP energy per Si atom -5595.594539 kJ/mol
# Density = 2.862644 g / cm^3
# Si number density = 28.691744 Si / 1000 Ang^3
#
#
#
# Elastic Constant Matrix: (Units=GPa)
#
#
# Indices 1 2 3 4 5 6 
#
# 1 77.7252 40.3256 29.3363 -8.5131 -5.7530 9.1401
# 2 40.3256 255.7867 25.4500 -5.7688 -17.7482 -15.9559
# 3 29.3363 25.4500 172.8276 -2.9437 -15.3437 9.4926
# 4 -8.5131 -5.7688 -2.9437 47.3576 -0.2682 -22.2620
# 5 -5.7530 -17.7482 -15.3437 -0.2682 29.8957 8.3502
# 6 9.1401 -15.9559 9.4926 -22.2620 8.3502 43.4938
#
#
#
# Elastic Compliance Matrix: (Units=1/GPa)
#
#
# Indices 1 2 3 4 5 6 
#
# 1 0.015427 -0.002342 -0.001918 0.000659 0.001621 -0.003657
# 2 -0.002342 0.004603 -0.000280 0.001393 0.001401 0.002686
# 3 -0.001918 -0.000280 0.006573 -0.001051 0.003483 -0.002341
# 4 0.000659 0.001393 -0.001051 0.028899 -0.003832 0.016129
# 5 0.001621 0.001401 0.003483 -0.003832 0.039158 -0.010066
# 6 -0.003657 0.002686 -0.002341 0.016129 -0.010066 0.035444
#
#
# Mechanical properties :
#
#
# Convention : Reuss Voigt Hill
#
# Bulk Modulus (GPa) = 57.06660 77.39592 67.23126
# Shear Modulus (GPa) = 34.47713 51.56457 43.02085
#
# Velocity S-wave (km/s) = 3.47023 4.24393 3.87643
# Velocity P-wave (km/s) = 5.99911 7.14480 6.59687
#
# Compressibility (1/GPa) = 0.01752339
#
# Stress axis : x y z
#
# Youngs Moduli (GPa) = 64.82164 217.26423 152.14531
#
# Poissons Ratio (x) = 0.50884 0.29178
# Poissons Ratio (y) = 0.15181 0.04255
# Poissons Ratio (z) = 0.12431 0.06076
#
# Static dielectric constant tensor:
#      x y z
#    x 2.198950 -0.089360 -0.061230 
#    y -0.089360 2.346800 -0.051260 
#    z -0.061230 -0.051260 2.287010 
# 
# From -- ./inp_files/57312.got.cif
#   From: 2010.05.17/outbox.cif.g08.bks.cpg/sg2_29_cif.got.tgz:57312.got - 2010.06.03 11:33:40.
