data_PCOD9076196
_publ_section_title
;
Structure prediction by ZEFSAII (Michael W. Deem and Ramdas Pophale) SiO2 
 PCOD9076196
Probable space group: P -1
;
_chemical_formula_sum "Si O2"
_cell_formula_units_Z 16
_cell_length_a 15.543375
_cell_length_b 5.128242
_cell_length_c 11.206280
_cell_angle_alpha 107.247443
_cell_angle_beta 107.814085
_cell_angle_gamma 118.312249
_cell_volume 636.356287
_symmetry_space_group_name_H-M "P -1"
_symmetry_group_IT_number 2
_symmetry_cell_setting 'triclinic'
loop_
_space_group_symop_operation_xyz
x,y,z
-x,-y,-z
loop_
_atom_site_type_symbol
_atom_site_label
_atom_site_fract_x
_atom_site_fract_y
_atom_site_fract_z
Si Si1 0.944233 0.672123 0.051224
Si Si2 0.426858 0.142555 0.253094
Si Si3 0.174246 0.375522 0.638909
Si Si4 0.225251 0.567778 0.235460
Si Si5 0.907926 0.209808 0.300503
Si Si6 0.599596 0.369512 0.532028
Si Si7 0.114207 0.885715 0.337943
Si Si8 0.730550 0.115985 0.058693
O O1 0.831696 0.384125 0.043884
O O2 0.041565 0.940287 0.223273
O O3 0.885932 0.737586 0.928782
O O4 0.000000 0.500000 0.000000
O O5 0.556678 0.306291 0.368065
O O6 0.407490 0.366003 0.360588
O O7 0.333060 0.755498 0.214628
O O8 0.385329 0.130845 0.100540
O O9 0.276903 0.670644 0.810155
O O10 0.121388 0.569628 0.606281
O O11 0.093147 0.054899 0.652948
O O12 0.180532 0.183555 0.505833
O O13 0.277659 0.527300 0.369126
O O14 0.193072 0.814979 0.293481
O O15 0.793608 0.982354 0.135255
O O16 0.015783 0.510432 0.308600
O O17 0.500000 0.000000 0.500000
#
# Coordination Sequence:
#
# PCOD9076196 Si02
#       8
#     2   2   2   2   2   2   2   2
#     4   8  15  29  48  71 110 142 174 216 266 314
#     4   9  17  35  54  80 108 133 173 221 280 330
#     4  10  20  36  54  79 109 151 193 225 264 314
#     4   9  18  33  51  80 108 139 180 217 278 324
#     4   9  20  34  52  78 108 149 192 224 263 309
#     4   9  18  32  55  79 104 136 172 219 272 341
#     4  10  18  33  52  76 111 145 185 229 263 315
#     4   8  18  30  52  76 106 140 181 226 263 326
#
# _framework density 25.143146999999999
#
# number of rings (size 3 to 8) (size 9 to 14) (size 15 to 20)
#    0.750    2.250    0.000    0.750    0.000    3.000 
#    4.500    0.000    0.000    9.750    0.000    8.750 
#    0.000    0.000    0.000    0.000    0.000    0.000 
#
# Total GULP energy -89180.800632 kJ/mol
# GULP energy per Si atom -5573.800040 kJ/mol
# Density = 2.508592 g / cm^3
# Si number density = 25.143147 Si / 1000 Ang^3
#
#
#
# Elastic Constant Matrix: (Units=GPa)
#
#
# Indices 1 2 3 4 5 6 
#
# 1 54.9593 17.1163 55.1112 -2.1772 22.9699 -6.5573
# 2 17.1163 70.2575 16.9042 -5.9641 3.4643 -3.4048
# 3 55.1112 16.9042 223.6340 3.1409 33.0159 -6.7213
# 4 -2.1772 -5.9641 3.1409 38.3357 -0.0424 -4.5469
# 5 22.9699 3.4643 33.0159 -0.0424 48.9417 3.3141
# 6 -6.5573 -3.4048 -6.7213 -4.5469 3.3141 24.6026
#
#
#
# Elastic Compliance Matrix: (Units=1/GPa)
#
#
# Indices 1 2 3 4 5 6 
#
# 1 0.030816 -0.005087 -0.005377 0.002330 -0.011012 0.007954
# 2 -0.005087 0.015683 -0.000124 0.002284 0.001293 0.001029
# 3 -0.005377 -0.000124 0.006058 -0.000791 -0.001573 0.000270
# 4 0.002330 0.002284 -0.000791 0.027339 -0.001099 0.005922
# 5 -0.011012 0.001293 -0.001573 -0.001099 0.027045 -0.007032
# 6 0.007954 0.001029 0.000270 0.005922 -0.007032 0.045024
#
#
# Mechanical properties :
#
#
# Convention : Reuss Voigt Hill
#
# Bulk Modulus (GPa) = 31.86899 58.56825 45.21862
# Shear Modulus (GPa) = 27.23298 39.69058 33.46178
#
# Velocity S-wave (km/s) = 3.29465 3.97745 3.65204
# Velocity P-wave (km/s) = 5.21301 6.66618 5.98387
#
# Compressibility (1/GPa) = 0.03137847
#
# Stress axis : x y z
#
# Youngs Moduli (GPa) = 32.45112 63.76521 165.08235
#
# Poissons Ratio (x) = 0.32439 0.88773
# Poissons Ratio (y) = 0.16509 0.02045
# Poissons Ratio (z) = 0.17451 0.00790
#
# Static dielectric constant tensor:
#      x y z
#    x 1.972510 0.014390 0.029000 
#    y 0.014390 2.049750 -0.044010 
#    z 0.029000 -0.044010 2.122600 
# 
# From -- ./inp_files/458924.got.cif
#   From: 2010.05.17/outbox.cif.g08.bks.cpg/sg2_230_cif.got.tgz:458924.got - 2010.06.03 11:33:40.
