data_PCOD9076747
_publ_section_title
;
Structure prediction by ZEFSAII (Michael W. Deem and Ramdas Pophale) SiO2 
 PCOD9076747
Probable space group: P -1
;
_chemical_formula_sum "Si O2"
_cell_formula_units_Z 14
_cell_length_a 8.494116
_cell_length_b 11.615191
_cell_length_c 9.667304
_cell_angle_alpha 75.176830
_cell_angle_beta 91.573694
_cell_angle_gamma 52.024625
_cell_volume 705.106743
_symmetry_space_group_name_H-M "P -1"
_symmetry_group_IT_number 2
_symmetry_cell_setting 'triclinic'
loop_
_space_group_symop_operation_xyz
x,y,z
-x,-y,-z
loop_
_atom_site_type_symbol
_atom_site_label
_atom_site_fract_x
_atom_site_fract_y
_atom_site_fract_z
Si Si1 0.610824 0.470725 0.659288
Si Si2 0.948865 0.653176 0.389677
Si Si3 0.180034 0.370325 0.874612
Si Si4 0.737673 0.927461 0.520532
Si Si5 0.604744 0.210644 0.277857
Si Si6 0.182140 0.274114 0.189829
Si Si7 0.563659 0.349453 0.965271
O O1 0.500000 0.500000 0.500000
O O2 0.839652 0.401340 0.650863
O O3 0.478660 0.638242 0.680743
O O4 0.634717 0.356234 0.812424
O O5 0.000000 0.500000 0.500000
O O6 0.789280 0.709664 0.244175
O O7 0.855876 0.785778 0.459410
O O8 0.365756 0.364569 0.924082
O O9 0.983219 0.553149 0.804650
O O10 0.140752 0.295740 0.019148
O O11 0.500000 0.000000 0.500000
O O12 0.744786 0.057548 0.423087
O O13 0.171938 0.152992 0.303325
O O14 0.404121 0.226754 0.234084
O O15 0.687346 0.216443 0.128850
O O16 0.500000 0.500000 0.000000
#
# Coordination Sequence:
#
# PCOD9076747 Si02
#       7
#     2   2   2   2   2   2   2
#     4  11  22  37  58  86 113 150 193 238 281 336
#     4  12  21  36  59  89 111 146 197 243 274 334
#     4  10  18  33  59  89 108 141 197 243 269 330
#     4  10  20  36  57  84 119 148 183 242 295 332
#     4   9  18  39  56  80 115 153 183 232 288 343
#     4   9  17  31  58  86 111 141 188 235 285 324
#     4   9  20  35  57  81 115 152 186 227 288 340
#
# _framework density 19.855150999999999
#
# number of rings (size 3 to 8) (size 9 to 14) (size 15 to 20)
#    0.000    2.000    2.857    1.714    2.000    0.000 
#    0.000    9.286    0.000    0.000    0.000    0.000 
#    0.000    0.000    0.000    0.000    0.000    0.000 
#
# Total GULP energy -78008.698551 kJ/mol
# GULP energy per Si atom -5572.049896 kJ/mol
# Density = 1.980996 g / cm^3
# Si number density = 19.855151 Si / 1000 Ang^3
#
#
#
# Elastic Constant Matrix: (Units=GPa)
#
#
# Indices 1 2 3 4 5 6 
#
# 1 54.9276 12.9539 45.7293 -0.7480 -17.1556 2.6473
# 2 12.9539 63.6146 42.5628 -11.3477 -22.2957 4.5399
# 3 45.7293 42.5628 173.2028 -19.6356 -38.2629 12.6290
# 4 -0.7480 -11.3477 -19.6356 36.8779 11.4652 -7.4551
# 5 -17.1556 -22.2957 -38.2629 11.4652 40.5591 0.3741
# 6 2.6473 4.5399 12.6290 -7.4551 0.3741 16.1388
#
#
#
# Elastic Compliance Matrix: (Units=1/GPa)
#
#
# Indices 1 2 3 4 5 6 
#
# 1 0.024941 0.000332 -0.005527 -0.004960 0.006941 -0.002312
# 2 0.000332 0.021151 -0.002994 0.001651 0.008505 -0.003096
# 3 -0.005527 -0.002994 0.009539 0.001581 0.004615 -0.005092
# 4 -0.004960 0.001651 0.001581 0.034421 -0.009569 0.015234
# 5 0.006941 0.008505 0.004615 -0.009569 0.039441 -0.012477
# 6 -0.002312 -0.003096 -0.005092 0.015234 -0.012477 0.074524
#
#
# Mechanical properties :
#
#
# Convention : Reuss Voigt Hill
#
# Bulk Modulus (GPa) = 25.47490 54.91522 40.19506
# Shear Modulus (GPa) = 21.41542 31.41508 26.41525
#
# Velocity S-wave (km/s) = 3.28774 3.98202 3.65142
# Velocity P-wave (km/s) = 5.22212 6.98999 6.16970
#
# Compressibility (1/GPa) = 0.03925432
#
# Stress axis : x y z
#
# Youngs Moduli (GPa) = 40.09522 47.27817 104.83816
#
# Poissons Ratio (x) = -0.01571 0.57942
# Poissons Ratio (y) = -0.01332 0.31384
# Poissons Ratio (z) = 0.22160 0.14153
#
# Static dielectric constant tensor:
#      x y z
#    x 1.718200 0.007760 -0.005100 
#    y 0.007760 1.664080 -0.033330 
#    z -0.005100 -0.033330 1.792420 
# 
# From -- ./inp_files/177742.got.cif
#   From: 2010.05.17/outbox.cif.g08.bks.cpg/sg2_89_cif.got.tgz:177742.got - 2010.06.03 11:33:40.
