data_PCOD9076217
_publ_section_title
;
Structure prediction by ZEFSAII (Michael W. Deem and Ramdas Pophale) SiO2 
 PCOD9076217
Probable space group: P -1
;
_chemical_formula_sum "Si O2"
_cell_formula_units_Z 16
_cell_length_a 14.938684
_cell_length_b 9.697235
_cell_length_c 5.059323
_cell_angle_alpha 58.403760
_cell_angle_beta 103.284709
_cell_angle_gamma 112.755070
_cell_volume 575.334844
_symmetry_space_group_name_H-M "P -1"
_symmetry_group_IT_number 2
_symmetry_cell_setting 'triclinic'
loop_
_space_group_symop_operation_xyz
x,y,z
-x,-y,-z
loop_
_atom_site_type_symbol
_atom_site_label
_atom_site_fract_x
_atom_site_fract_y
_atom_site_fract_z
Si Si1 0.531503 0.207006 0.241129
Si Si2 0.432646 0.256190 0.611839
Si Si3 0.212266 0.908727 0.303984
Si Si4 0.058942 0.183693 0.451646
Si Si5 0.310072 0.856722 0.916225
Si Si6 0.139514 0.426684 0.647728
Si Si7 0.944956 0.341628 0.886354
Si Si8 0.739772 0.711643 0.843817
O O1 0.521778 0.292441 0.428633
O O2 0.626868 0.241825 0.089304
O O3 0.500000 0.000000 0.500000
O O4 0.462621 0.267553 0.926840
O O5 0.354377 0.337249 0.357680
O O6 0.375225 0.055051 0.742903
O O7 0.221105 0.841538 0.671358
O O8 0.110542 0.822237 0.172170
O O9 0.249790 0.114353 0.157158
O O10 0.282983 0.847574 0.215456
O O11 0.092776 0.229867 0.724181
O O12 0.162164 0.241511 0.313145
O O13 0.000000 0.000000 0.500000
O O14 0.981400 0.279503 0.238167
O O15 0.129963 0.550110 0.281056
O O16 0.054519 0.447519 0.752642
O O17 0.243612 0.437248 0.814289
#
# Coordination Sequence:
#
# PCOD9076217 Si02
#       8
#     2   2   2   2   2   2   2   2
#     4  10  18  33  52  83 122 160 188 234 310 362
#     4  10  19  30  55  82 121 158 192 238 299 366
#     4  11  22  35  58  88 121 153 198 245 302 350
#     4  11  22  36  61  85 121 153 197 247 305 356
#     4  10  20  33  53  84 121 154 189 244 295 364
#     4  10  22  41  58  77 123 152 214 244 294 355
#     4  10  23  39  57  85 109 168 201 250 295 353
#     4  10  23  35  54  90 114 158 194 251 296 352
#
# _framework density 27.809895000000001
#
# number of rings (size 3 to 8) (size 9 to 14) (size 15 to 20)
#    0.000    1.750    0.000    6.375   10.500    2.000 
#    0.000    0.000    0.000    0.000    0.000    5.250 
#    0.000    0.000    0.000    0.000    0.000    0.000 
#
# Total GULP energy -89278.046192 kJ/mol
# GULP energy per Si atom -5579.877887 kJ/mol
# Density = 2.774660 g / cm^3
# Si number density = 27.809895 Si / 1000 Ang^3
#
#
#
# Elastic Constant Matrix: (Units=GPa)
#
#
# Indices 1 2 3 4 5 6 
#
# 1 105.9941 10.7610 19.9136 -1.7535 -2.0704 -19.9003
# 2 10.7610 99.7618 28.9974 4.6756 1.8327 -7.9363
# 3 19.9136 28.9974 142.3610 13.4594 30.3659 -18.1597
# 4 -1.7535 4.6756 13.4594 34.6849 -13.4383 4.0833
# 5 -2.0704 1.8327 30.3659 -13.4383 43.1615 8.3313
# 6 -19.9003 -7.9363 -18.1597 4.0833 8.3313 24.4883
#
#
#
# Elastic Compliance Matrix: (Units=1/GPa)
#
#
# Indices 1 2 3 4 5 6 
#
# 1 0.011277 -0.000405 0.000516 -0.001733 -0.002374 0.010512
# 2 -0.000405 0.010796 -0.001855 -0.000908 0.000181 0.001884
# 3 0.000516 -0.001855 0.015860 -0.016184 -0.020175 0.021142
# 4 -0.001733 -0.000908 -0.016184 0.052428 0.034247 -0.034097
# 5 -0.002374 0.000181 -0.020175 0.034247 0.055927 -0.041569
# 6 0.010512 0.001884 0.021142 -0.034097 -0.041569 0.085495
#
#
# Mechanical properties :
#
#
# Convention : Reuss Voigt Hill
#
# Bulk Modulus (GPa) = 29.03141 51.94010 40.48575
# Shear Modulus (GPa) = 20.26309 39.69658 29.97984
#
# Velocity S-wave (km/s) = 2.70224 3.78223 3.28690
# Velocity P-wave (km/s) = 4.49422 6.14744 5.38466
#
# Compressibility (1/GPa) = 0.03444545
#
# Stress axis : x y z
#
# Youngs Moduli (GPa) = 88.67361 92.62865 63.05073
#
# Poissons Ratio (x) = 0.03755 -0.03254
# Poissons Ratio (y) = 0.03595 0.11694
# Poissons Ratio (z) = -0.04577 0.17180
#
# Static dielectric constant tensor:
#      x y z
#    x 2.227900 0.053720 -0.055710 
#    y 0.053720 2.259100 -0.091960 
#    z -0.055710 -0.091960 2.277450 
# 
# From -- ./inp_files/94492.got.cif
#   From: 2010.05.17/outbox.cif.g08.bks.cpg/sg2_48_cif.got.tgz:94492.got - 2010.06.03 11:33:40.
