data_PCOD9076129
_publ_section_title
;
Structure prediction by ZEFSAII (Michael W. Deem and Ramdas Pophale) SiO2 
 PCOD9076129
Probable space group: P -1
;
_chemical_formula_sum "Si O2"
_cell_formula_units_Z 16
_cell_length_a 5.816386
_cell_length_b 15.880680
_cell_length_c 8.149029
_cell_angle_alpha 103.359458
_cell_angle_beta 85.381368
_cell_angle_gamma 121.666874
_cell_volume 622.551051
_symmetry_space_group_name_H-M "P -1"
_symmetry_group_IT_number 2
_symmetry_cell_setting 'triclinic'
loop_
_space_group_symop_operation_xyz
x,y,z
-x,-y,-z
loop_
_atom_site_type_symbol
_atom_site_label
_atom_site_fract_x
_atom_site_fract_y
_atom_site_fract_z
Si Si1 0.909253 0.754276 0.057663
Si Si2 0.450958 0.199864 0.764875
Si Si3 0.147143 0.640943 0.931186
Si Si4 0.289627 0.068919 0.422839
Si Si5 0.070019 0.553968 0.339822
Si Si6 0.646926 0.769362 0.751505
Si Si7 0.637149 0.606668 0.440229
Si Si8 0.520335 0.051870 0.850121
O O1 0.801225 0.780821 0.915709
O O2 0.883428 0.648127 0.976521
O O3 0.782630 0.775079 0.230747
O O4 0.218535 0.836885 0.097341
O O5 0.495326 0.161600 0.572953
O O6 0.326334 0.092908 0.827798
O O7 0.672621 0.302390 0.893231
O O8 0.072443 0.530889 0.831597
O O9 0.331974 0.711525 0.799664
O O10 0.257477 0.125780 0.295002
O O11 0.426161 0.008179 0.320411
O O12 0.000000 0.000000 0.500000
O O13 0.918544 0.617591 0.368331
O O14 0.000000 0.500000 0.500000
O O15 0.392051 0.596459 0.336828
O O16 0.694492 0.696702 0.600313
O O17 0.500000 0.500000 0.500000
O O18 0.500000 0.000000 0.000000
#
# Coordination Sequence:
#
# PCOD9076129 Si02
#       8
#     2   2   2   2   2   2   2   2
#     4  10  20  37  59  90 120 159 219 271 324 383
#     4  10  23  40  59  84 128 169 213 263 331 396
#     4  10  20  37  63  98 123 167 213 281 327 392
#     4  12  25  44  61  89 133 182 216 263 334 407
#     4  10  18  32  62  96 135 162 212 282 352 395
#     4  11  23  37  62  93 128 168 218 278 327 397
#     4  10  19  35  60 100 132 165 215 286 345 395
#     4  11  23  41  65  89 118 167 226 283 324 381
#
# _framework density 25.700707000000001
#
# number of rings (size 3 to 8) (size 9 to 14) (size 15 to 20)
#    0.000    1.500    3.750    4.125    3.500    1.000 
#    2.250    0.000    0.000    1.500    0.000    0.000 
#    0.000    0.000    0.000    0.000    0.000    0.000 
#
# Total GULP energy -89315.193230 kJ/mol
# GULP energy per Si atom -5582.199577 kJ/mol
# Density = 2.564221 g / cm^3
# Si number density = 25.700707 Si / 1000 Ang^3
#
#
#
# Elastic Constant Matrix: (Units=GPa)
#
#
# Indices 1 2 3 4 5 6 
#
# 1 101.4892 44.7897 47.0022 24.7440 -20.0251 -32.5480
# 2 44.7897 83.6214 43.1032 11.3466 -20.0337 -12.2101
# 3 47.0022 43.1032 151.3996 34.9361 -14.1435 -16.5958
# 4 24.7440 11.3466 34.9361 62.2385 -11.6462 -10.2692
# 5 -20.0251 -20.0337 -14.1435 -11.6462 44.9017 14.6523
# 6 -32.5480 -12.2101 -16.5958 -10.2692 14.6523 41.3908
#
#
#
# Elastic Compliance Matrix: (Units=1/GPa)
#
#
# Indices 1 2 3 4 5 6 
#
# 1 0.017718 -0.006599 -0.001742 -0.003103 0.000194 0.010449
# 2 -0.006599 0.017796 -0.003216 0.001736 0.005308 -0.002677
# 3 -0.001742 -0.003216 0.008934 -0.003751 -0.000542 0.000524
# 4 -0.003103 0.001736 -0.003751 0.019747 0.003225 0.000326
# 5 0.000194 0.005308 -0.000542 0.003225 0.027859 -0.007560
# 6 0.010449 -0.002677 0.000524 0.000326 -0.007560 0.034555
#
#
# Mechanical properties :
#
#
# Convention : Reuss Voigt Hill
#
# Bulk Modulus (GPa) = 46.87453 67.36671 57.12062
# Shear Modulus (GPa) = 31.88074 43.14723 37.51398
#
# Velocity S-wave (km/s) = 3.52584 4.10180 3.82468
# Velocity P-wave (km/s) = 5.90369 6.97868 6.46357
#
# Compressibility (1/GPa) = 0.02133355
#
# Stress axis : x y z
#
# Youngs Moduli (GPa) = 56.43852 56.19200 111.93262
#
# Poissons Ratio (x) = 0.37081 0.19504
# Poissons Ratio (y) = 0.37243 0.35998
# Poissons Ratio (z) = 0.09834 0.18072
#
# Static dielectric constant tensor:
#      x y z
#    x 4.326620 -0.953000 0.382660 
#    y -0.953000 2.480270 -0.259490 
#    z 0.382660 -0.259490 2.090420 
# 
# From -- ./inp_files/135711.got.cif
#   From: 2010.05.17/outbox.cif.g08.bks.cpg/sg2_68_cif.got.tgz:135711.got - 2010.06.03 11:33:40.
