data_PCOD9076338
_publ_section_title
;
Structure prediction by ZEFSAII (Michael W. Deem and Ramdas Pophale) SiO2 
 PCOD9076338
Probable space group: P -1
;
_chemical_formula_sum "Si O2"
_cell_formula_units_Z 16
_cell_length_a 14.796496
_cell_length_b 5.898330
_cell_length_c 19.411507
_cell_angle_alpha 53.092366
_cell_angle_beta 28.106695
_cell_angle_gamma 53.172782
_cell_volume 627.171251
_symmetry_space_group_name_H-M "P -1"
_symmetry_group_IT_number 2
_symmetry_cell_setting 'triclinic'
loop_
_space_group_symop_operation_xyz
x,y,z
-x,-y,-z
loop_
_atom_site_type_symbol
_atom_site_label
_atom_site_fract_x
_atom_site_fract_y
_atom_site_fract_z
Si Si1 0.885691 0.714082 0.701606
Si Si2 0.213923 0.617753 0.397854
Si Si3 0.377815 0.291843 0.837532
Si Si4 0.673701 0.140947 0.389710
Si Si5 0.144069 0.892603 0.859306
Si Si6 0.620033 0.452039 0.837118
Si Si7 0.482660 0.172162 0.643304
Si Si8 0.735885 0.783611 0.924103
O O1 0.684613 0.619396 0.828307
O O2 0.913858 0.674765 0.771882
O O3 0.935557 0.454247 0.432127
O O4 0.856582 0.048282 0.638182
O O5 0.428000 0.592680 0.291070
O O6 0.247827 0.461092 0.330321
O O7 0.205834 0.548897 0.884410
O O8 0.460858 0.098593 0.751702
O O9 0.285867 0.170826 0.988236
O O10 0.862737 0.047607 0.230007
O O11 0.675847 0.093488 0.479913
O O12 0.593091 0.483513 0.372300
O O13 0.500000 0.000000 0.500000
O O14 0.327274 0.024699 0.736216
O O15 0.000000 0.000000 0.000000
O O16 0.674536 0.109855 0.878265
O O17 0.403046 0.452275 0.954942
#
# Coordination Sequence:
#
# PCOD9076338 Si02
#       8
#     2   2   2   2   2   2   2   2
#     4  10  18  33  55  76 106 148 181 218 268 311
#     4   9  20  34  51  79 108 137 185 227 257 318
#     4  10  21  36  52  78 114 143 178 224 270 319
#     4   8  16  34  58  81 102 131 177 217 261 328
#     4  10  21  37  58  82 107 138 180 226 269 322
#     4   9  17  32  54  74 104 147 181 216 265 315
#     4   9  18  35  59  79 103 141 174 214 276 327
#     4   9  19  32  48  79 110 138 183 222 256 316
#
# _framework density 25.511371
#
# number of rings (size 3 to 8) (size 9 to 14) (size 15 to 20)
#    0.000    2.750    0.000    1.500    0.000    5.000 
#    0.000    8.750    0.000    3.000    0.000    0.000 
#    0.000    0.000    0.000    0.000    0.000    0.000 
#
# Total GULP energy -89106.186511 kJ/mol
# GULP energy per Si atom -5569.136657 kJ/mol
# Density = 2.545331 g / cm^3
# Si number density = 25.511371 Si / 1000 Ang^3
#
#
#
# Elastic Constant Matrix: (Units=GPa)
#
#
# Indices 1 2 3 4 5 6 
#
# 1 64.8439 4.6169 69.4516 22.4130 36.4512 26.6964
# 2 4.6169 70.8106 34.5217 16.6527 17.2497 -6.4423
# 3 69.4516 34.5217 197.2641 37.9908 71.9259 11.5107
# 4 22.4130 16.6527 37.9908 37.2073 23.0274 5.9116
# 5 36.4512 17.2497 71.9259 23.0274 59.1225 15.3484
# 6 26.6964 -6.4423 11.5107 5.9116 15.3484 26.4552
#
#
#
# Elastic Compliance Matrix: (Units=1/GPa)
#
#
# Indices 1 2 3 4 5 6 
#
# 1 0.051897 0.002100 -0.013952 -0.011011 -0.000117 -0.043260
# 2 0.002100 0.017758 -0.001681 -0.006249 -0.003676 0.006465
# 3 -0.013952 -0.001681 0.013439 -0.000064 -0.010910 0.014166
# 4 -0.011011 -0.006249 -0.000064 0.040850 -0.008650 0.005508
# 5 -0.000117 -0.003676 -0.010910 -0.008650 0.039050 -0.016752
# 6 -0.043260 0.006465 0.014166 0.005508 -0.016752 0.085354
#
#
# Mechanical properties :
#
#
# Convention : Reuss Voigt Hill
#
# Bulk Modulus (GPa) = 17.84745 61.12213 39.48479
# Shear Modulus (GPa) = 17.00164 39.51222 28.25693
#
# Velocity S-wave (km/s) = 2.58434 3.93976 3.33170
# Velocity P-wave (km/s) = 3.98950 6.68628 5.50557
#
# Compressibility (1/GPa) = 0.05603042
#
# Stress axis : x y z
#
# Youngs Moduli (GPa) = 19.26883 56.31314 74.40862
#
# Poissons Ratio (x) = -0.11827 1.03812
# Poissons Ratio (y) = -0.04047 0.12505
# Poissons Ratio (z) = 0.26883 0.09464
#
# Static dielectric constant tensor:
#      x y z
#    x 2.103540 -0.019520 0.077950 
#    y -0.019520 2.000020 0.054620 
#    z 0.077950 0.054620 2.158630 
# 
# From -- ./inp_files/571630.got.cif
#   From: 2010.05.17/outbox.cif.g08.bks.cpg/sg2_286_cif.got.tgz:571630.got - 2010.06.03 11:33:40.
