data_PCOD9076160
_publ_section_title
;
Structure prediction by ZEFSAII (Michael W. Deem and Ramdas Pophale) SiO2 
 PCOD9076160
Probable space group: P -1
;
_chemical_formula_sum "Si O2"
_cell_formula_units_Z 16
_cell_length_a 5.373666
_cell_length_b 13.728171
_cell_length_c 24.586701
_cell_angle_alpha 23.078861
_cell_angle_beta 93.224838
_cell_angle_gamma 105.296919
_cell_volume 596.626503
_symmetry_space_group_name_H-M "P -1"
_symmetry_group_IT_number 2
_symmetry_cell_setting 'triclinic'
loop_
_space_group_symop_operation_xyz
x,y,z
-x,-y,-z
loop_
_atom_site_type_symbol
_atom_site_label
_atom_site_fract_x
_atom_site_fract_y
_atom_site_fract_z
Si Si1 0.479902 0.298108 0.151998
Si Si2 0.761021 0.910408 0.481830
Si Si3 0.538824 0.957733 0.930372
Si Si4 0.627684 0.900094 0.636478
Si Si5 0.463828 0.233785 0.691903
Si Si6 0.341994 0.263455 0.857124
Si Si7 0.913681 0.533321 0.376764
Si Si8 0.817904 0.986192 0.312973
O O1 0.746754 0.245058 0.180098
O O2 0.133676 0.048725 0.267019
O O3 0.460717 0.346744 0.191300
O O4 0.500000 0.500000 0.000000
O O5 0.667065 0.144815 0.370682
O O6 0.502440 0.596833 0.664369
O O7 0.102940 0.022607 0.438972
O O8 0.778895 0.894719 0.423041
O O9 0.506010 0.702108 0.099500
O O10 0.391293 0.947138 0.875488
O O11 0.439275 0.120537 0.886074
O O12 0.887310 0.200205 0.799514
O O13 0.752045 0.213771 0.510294
O O14 0.819237 0.430475 0.601580
O O15 0.291149 0.372445 0.645249
O O16 0.387167 0.181619 0.655033
O O17 0.000000 0.000000 0.000000
#
# Coordination Sequence:
#
# PCOD9076160 Si02
#       8
#     2   2   2   2   2   2   2   2
#     4  10  21  37  57  78 103 136 175 221 276 315
#     4  10  20  32  48  70 101 135 176 215 261 291
#     4   9  20  29  48  69 105 141 190 207 251 290
#     4  10  18  34  49  71 104 135 172 217 254 307
#     4  10  20  34  52  75 108 147 185 202 252 306
#     4  11  19  31  48  69 101 150 184 223 248 284
#     4  10  18  33  49  73 106 146 179 210 244 303
#     4  10  21  38  56  79 110 141 174 218 257 323
#
# _framework density 26.817449
#
# number of rings (size 3 to 8) (size 9 to 14) (size 15 to 20)
#    0.750    1.250    1.250    4.125    1.750    0.000 
#    0.000   20.625    0.000    0.000    0.000    0.000 
#    0.000   24.000    0.000    0.000    0.000    0.000 
#
# Total GULP energy -89139.928283 kJ/mol
# GULP energy per Si atom -5571.245518 kJ/mol
# Density = 2.675641 g / cm^3
# Si number density = 26.817449 Si / 1000 Ang^3
#
#
#
# Elastic Constant Matrix: (Units=GPa)
#
#
# Indices 1 2 3 4 5 6 
#
# 1 153.4146 5.9571 38.1567 9.0793 1.7245 -7.3539
# 2 5.9571 76.5067 29.8215 16.2075 3.2952 -5.0543
# 3 38.1567 29.8215 184.5133 58.9519 16.0528 -0.6996
# 4 9.0793 16.2075 58.9519 30.9647 9.6686 -5.4398
# 5 1.7245 3.2952 16.0528 9.6686 37.9146 13.7900
# 6 -7.3539 -5.0543 -0.6996 -5.4398 13.7900 36.1579
#
#
#
# Elastic Compliance Matrix: (Units=1/GPa)
#
#
# Indices 1 2 3 4 5 6 
#
# 1 0.007038 -0.000113 -0.002357 0.003153 -0.000914 0.002193
# 2 -0.000113 0.014739 0.000171 -0.008037 0.000463 0.000655
# 3 -0.002357 0.000171 0.015480 -0.031148 0.003765 -0.006278
# 4 0.003153 -0.008037 -0.031148 0.105665 -0.021584 0.023044
# 5 -0.000914 0.000463 0.003765 -0.021584 0.036556 -0.017237
# 6 0.002193 0.000655 -0.006278 0.023044 -0.017237 0.038113
#
#
# Mechanical properties :
#
#
# Convention : Reuss Voigt Hill
#
# Bulk Modulus (GPa) = 30.61922 62.47838 46.54880
# Shear Modulus (GPa) = 21.45242 43.70740 32.57991
#
# Velocity S-wave (km/s) = 2.83139 4.04147 3.48929
# Velocity P-wave (km/s) = 4.70441 6.71761 5.79904
#
# Compressibility (1/GPa) = 0.03265922
#
# Stress axis : x y z
#
# Youngs Moduli (GPa) = 142.09410 67.84867 64.60080
#
# Poissons Ratio (x) = 0.00767 0.15224
# Poissons Ratio (y) = 0.01607 -0.01107
# Poissons Ratio (z) = 0.33485 -0.01162
#
# Static dielectric constant tensor:
#      x y z
#    x 2.188460 0.101220 0.025770 
#    y 0.101220 2.173250 -0.093690 
#    z 0.025770 -0.093690 2.382460 
# 
# From -- ./inp_files/621970.got.cif
#   From: 2010.05.17/outbox.cif.g08.bks.cpg/sg2_311_cif.got.tgz:621970.got - 2010.06.03 11:33:40.
