data_PCOD9076662
_publ_section_title
;
Structure prediction by ZEFSAII (Michael W. Deem and Ramdas Pophale) SiO2 
 PCOD9076662
Probable space group: P -1
;
_chemical_formula_sum "Si O2"
_cell_formula_units_Z 16
_cell_length_a 19.465148
_cell_length_b 8.147295
_cell_length_c 5.604224
_cell_angle_alpha 56.722964
_cell_angle_beta 53.320276
_cell_angle_gamma 72.846502
_cell_volume 595.187120
_symmetry_space_group_name_H-M "P -1"
_symmetry_group_IT_number 2
_symmetry_cell_setting 'triclinic'
loop_
_space_group_symop_operation_xyz
x,y,z
-x,-y,-z
loop_
_atom_site_type_symbol
_atom_site_label
_atom_site_fract_x
_atom_site_fract_y
_atom_site_fract_z
Si Si1 0.640531 0.766866 0.518148
Si Si2 0.747318 0.976693 0.507791
Si Si3 0.723233 0.377670 0.991596
Si Si4 0.942116 0.297491 0.241403
Si Si5 0.921265 0.958439 0.949618
Si Si6 0.569682 0.451464 0.587672
Si Si7 0.819789 0.603146 0.246238
Si Si8 0.627264 0.146598 0.996013
O O1 0.677355 0.816677 0.668381
O O2 0.574107 0.610169 0.662044
O O3 0.731527 0.696529 0.275394
O O4 0.601489 0.970840 0.361016
O O5 0.707070 0.057945 0.763305
O O6 0.846893 0.933110 0.324383
O O7 0.749525 0.161778 0.175325
O O8 0.799550 0.520325 0.624466
O O9 0.662787 0.333662 0.922678
O O10 0.661494 0.448059 0.267251
O O11 0.857994 0.402333 0.223530
O O12 0.990315 0.147527 0.087804
O O13 0.929416 0.162470 0.617123
O O14 0.000000 0.500000 0.000000
O O15 0.883810 0.793244 0.966631
O O16 0.500000 0.500000 0.500000
O O17 0.560924 0.229125 0.881754
#
# Coordination Sequence:
#
# PCOD9076662 Si02
#       8
#     2   2   2   2   2   2   2   2
#     4  10  22  37  63  91 115 162 203 248 311 360
#     4   9  19  37  62  89 121 158 211 255 296 358
#     4  10  20  39  62  90 119 160 208 252 305 361
#     4   9  17  30  52  90 129 162 199 248 308 352
#     4   9  17  29  54  91 120 164 202 248 309 349
#     4  11  25  42  63  91 123 158 200 255 315 370
#     4  10  18  33  58  87 118 157 209 256 290 362
#     4  10  22  41  60  90 122 154 205 254 300 370
#
# _framework density 26.882303
#
# number of rings (size 3 to 8) (size 9 to 14) (size 15 to 20)
#    0.000    2.250    2.500    0.000    3.500    1.000 
#    0.000    5.625    0.000    1.500    6.500    0.000 
#    0.000    0.000    0.000    0.000    0.000    0.000 
#
# Total GULP energy -89176.644079 kJ/mol
# GULP energy per Si atom -5573.540255 kJ/mol
# Density = 2.682112 g / cm^3
# Si number density = 26.882303 Si / 1000 Ang^3
#
#
#
# Elastic Constant Matrix: (Units=GPa)
#
#
# Indices 1 2 3 4 5 6 
#
# 1 71.4976 35.5700 4.1790 -18.6757 -8.1241 -1.8536
# 2 35.5700 129.2666 38.1814 -12.2751 -1.0341 -3.4534
# 3 4.1790 38.1814 89.8387 -8.3372 -12.9759 5.9049
# 4 -18.6757 -12.2751 -8.3372 65.4943 -5.1790 6.2918
# 5 -8.1241 -1.0341 -12.9759 -5.1790 29.4338 -8.6966
# 6 -1.8536 -3.4534 5.9049 6.2918 -8.6966 55.2211
#
#
#
# Elastic Compliance Matrix: (Units=1/GPa)
#
#
# Indices 1 2 3 4 5 6 
#
# 1 0.018750 -0.005465 0.002965 0.005231 0.007369 0.000535
# 2 -0.005465 0.010597 -0.004789 -0.000485 -0.003171 0.000547
# 3 0.002965 -0.004789 0.014342 0.002423 0.007138 -0.000886
# 4 0.005231 -0.000485 0.002423 0.017512 0.005195 -0.001291
# 5 0.007369 -0.003171 0.007138 0.005195 0.041503 0.005230
# 6 0.000535 0.000547 -0.000886 -0.001291 0.005230 0.019227
#
#
# Mechanical properties :
#
#
# Convention : Reuss Voigt Hill
#
# Bulk Modulus (GPa) = 34.35012 49.60708 41.97860
# Shear Modulus (GPa) = 34.19672 44.20801 39.20236
#
# Velocity S-wave (km/s) = 3.57051 4.05965 3.82291
# Velocity P-wave (km/s) = 5.45928 6.36143 5.92754
#
# Compressibility (1/GPa) = 0.02911198
#
# Stress axis : x y z
#
# Youngs Moduli (GPa) = 53.33455 94.36303 69.72367
#
# Poissons Ratio (x) = 0.51570 -0.20674
# Poissons Ratio (y) = 0.29148 0.33388
# Poissons Ratio (z) = -0.15814 0.45187
#
# Static dielectric constant tensor:
#      x y z
#    x 2.215800 -0.024930 -0.065310 
#    y -0.024930 2.120320 0.031220 
#    z -0.065310 0.031220 2.181840 
# 
# From -- ./inp_files/116578.got.cif
#   From: 2010.05.17/outbox.cif.g08.bks.cpg/sg2_59_cif.got.tgz:116578.got - 2010.06.03 11:33:40.
