data_PCOD9076808
_publ_section_title
;
Structure prediction by ZEFSAII (Michael W. Deem and Ramdas Pophale) SiO2 
 PCOD9076808
Probable space group: P -1
;
_chemical_formula_sum "Si O2"
_cell_formula_units_Z 14
_cell_length_a 8.546688
_cell_length_b 12.003561
_cell_length_c 18.123498
_cell_angle_alpha 39.987489
_cell_angle_beta 105.734146
_cell_angle_gamma 136.323456
_cell_volume 635.635441
_symmetry_space_group_name_H-M "P -1"
_symmetry_group_IT_number 2
_symmetry_cell_setting 'triclinic'
loop_
_space_group_symop_operation_xyz
x,y,z
-x,-y,-z
loop_
_atom_site_type_symbol
_atom_site_label
_atom_site_fract_x
_atom_site_fract_y
_atom_site_fract_z
Si Si1 0.776972 0.860981 0.760809
Si Si2 0.330096 0.273389 0.713486
Si Si3 0.004401 0.859420 0.508918
Si Si4 0.511775 0.258322 0.079783
Si Si5 0.038868 0.536646 0.220166
Si Si6 0.709960 0.158195 0.051888
Si Si7 0.086288 0.232005 0.838761
O O1 0.559290 0.785216 0.820886
O O2 0.665930 0.567615 0.911082
O O3 0.104912 0.162271 0.684812
O O4 0.795696 0.919211 0.647898
O O5 0.666859 0.552559 0.591898
O O6 0.322458 0.369746 0.741192
O O7 0.208442 0.970355 0.864599
O O8 0.077067 0.741474 0.616769
O O9 0.000000 0.000000 0.500000
O O10 0.681922 0.242041 0.080741
O O11 0.194596 0.978397 0.141904
O O12 0.865203 0.550920 0.218745
O O13 0.376428 0.858634 0.128821
O O14 0.081325 0.569188 0.120984
O O15 0.000000 0.000000 0.000000
#
# Coordination Sequence:
#
# PCOD9076808 Si02
#       7
#     2   2   2   2   2   2   2
#     4  10  21  39  56  82 116 149 188 228 285 337
#     4  10  21  36  58  86 111 150 187 234 282 327
#     4  11  23  38  59  80 117 155 186 228 282 339
#     4   9  20  35  58  83 109 151 189 232 283 328
#     4   9  18  32  54  87 114 145 184 232 282 332
#     4   9  16  32  56  85 111 139 191 233 278 330
#     4  10  18  33  60  87 113 142 186 239 278 327
#
# _framework density 22.025203999999999
#
# number of rings (size 3 to 8) (size 9 to 14) (size 15 to 20)
#    0.000    2.286    1.429    1.286    4.000    0.571 
#    0.000   13.571    0.000    0.000    0.000    0.000 
#    0.000    0.000    0.000    0.000    0.000    0.000 
#
# Total GULP energy -78215.964939 kJ/mol
# GULP energy per Si atom -5586.854638 kJ/mol
# Density = 2.197507 g / cm^3
# Si number density = 22.025204 Si / 1000 Ang^3
#
#
#
# Elastic Constant Matrix: (Units=GPa)
#
#
# Indices 1 2 3 4 5 6 
#
# 1 142.4158 43.2239 59.1451 24.4168 5.4178 -32.8597
# 2 43.2239 72.9262 42.8360 24.0514 -5.8062 -21.1158
# 3 59.1451 42.8360 127.0398 39.0434 -7.3201 -28.7303
# 4 24.4168 24.0514 39.0434 34.9479 -4.8872 -15.9777
# 5 5.4178 -5.8062 -7.3201 -4.8872 26.2877 -7.2123
# 6 -32.8597 -21.1158 -28.7303 -15.9777 -7.2123 45.5908
#
#
#
# Elastic Compliance Matrix: (Units=1/GPa)
#
#
# Indices 1 2 3 4 5 6 
#
# 1 0.010223 -0.003501 -0.002860 -0.000398 -0.002830 0.003357
# 2 -0.003501 0.020884 -0.002025 -0.007158 0.004561 0.004086
# 3 -0.002860 -0.002025 0.013847 -0.010582 0.002702 0.002445
# 4 -0.000398 -0.007158 -0.010582 0.050608 0.007329 0.008625
# 5 -0.002830 0.004561 0.002702 0.007329 0.044886 0.011445
# 6 0.003357 0.004086 0.002445 0.008625 0.011445 0.032620
#
#
# Mechanical properties :
#
#
# Convention : Reuss Voigt Hill
#
# Bulk Modulus (GPa) = 35.48501 70.31022 52.89761
# Shear Modulus (GPa) = 25.09610 34.51041 29.80326
#
# Velocity S-wave (km/s) = 3.37920 3.96265 3.68250
# Velocity P-wave (km/s) = 5.60102 7.27521 6.49231
#
# Compressibility (1/GPa) = 0.02818091
#
# Stress axis : x y z
#
# Youngs Moduli (GPa) = 97.82310 47.88338 72.21888
#
# Poissons Ratio (x) = 0.16763 0.20657
# Poissons Ratio (y) = 0.34246 0.14625
# Poissons Ratio (z) = 0.27980 0.09697
#
# Static dielectric constant tensor:
#      x y z
#    x 1.822250 0.033360 -0.036080 
#    y 0.033360 1.854450 -0.029680 
#    z -0.036080 -0.029680 1.770790 
# 
# From -- ./inp_files/159258.got.cif
#   From: 2010.05.17/outbox.cif.g08.bks.cpg/sg2_80_cif.got.tgz:159258.got - 2010.06.03 11:33:40.
