data_PCOD9076985
_publ_section_title
;
Structure prediction by ZEFSAII (Michael W. Deem and Ramdas Pophale) SiO2 
 PCOD9076985
Probable space group: P -1
;
_chemical_formula_sum "Si O2"
_cell_formula_units_Z 14
_cell_length_a 11.427953
_cell_length_b 26.378815
_cell_length_c 11.714138
_cell_angle_alpha 149.576885
_cell_angle_beta 34.932494
_cell_angle_gamma 162.135821
_cell_volume 548.536692
_symmetry_space_group_name_H-M "P -1"
_symmetry_group_IT_number 2
_symmetry_cell_setting 'triclinic'
loop_
_space_group_symop_operation_xyz
x,y,z
-x,-y,-z
loop_
_atom_site_type_symbol
_atom_site_label
_atom_site_fract_x
_atom_site_fract_y
_atom_site_fract_z
Si Si1 0.299100 0.761024 0.716416
Si Si2 0.983957 0.174814 0.049065
Si Si3 0.246543 0.212592 0.283646
Si Si4 0.753485 0.465087 0.765725
Si Si5 0.233624 0.337026 0.735846
Si Si6 0.361532 0.904573 0.593030
Si Si7 0.397205 0.194256 0.900773
O O1 0.011815 0.733353 0.866106
O O2 0.301281 0.675524 0.453839
O O3 0.142242 0.646751 0.736562
O O4 0.710630 0.978712 0.829858
O O5 0.765375 0.136929 0.255950
O O6 0.326836 0.256814 0.992950
O O7 0.419042 0.361652 0.524747
O O8 0.917738 0.139779 0.340837
O O9 0.512080 0.280308 0.101981
O O10 0.020802 0.029979 0.174016
O O11 0.418180 0.362482 0.749025
O O12 0.757908 0.540815 0.015407
O O13 0.791731 0.122501 0.664750
O O14 0.356635 0.791663 0.324368
#
# Coordination Sequence:
#
# PCOD9076985 Si02
#       7
#     2   2   2   2   2   2   2
#     4  10  20  38  51  82 106 155 177 224 270 322
#     4  10  20  35  58  79 116 137 188 227 269 317
#     4   9  18  31  56  85 110 136 185 232 268 309
#     4  10  21  35  56  77 116 143 183 215 275 335
#     4  10  18  34  53  84 107 142 180 227 268 327
#     4  10  18  34  56  88 108 138 183 237 265 318
#     4   9  17  31  51  85 107 136 172 234 273 309
#
# _framework density 25.522449000000002
#
# number of rings (size 3 to 8) (size 9 to 14) (size 15 to 20)
#    0.000    2.286    1.429    3.429    0.000    0.000 
#   10.286    2.143    0.000    6.857    0.000    0.000 
#    0.000    0.000    0.000    0.000    0.000    0.000 
#
# Total GULP energy -78375.844963 kJ/mol
# GULP energy per Si atom -5598.274640 kJ/mol
# Density = 2.546436 g / cm^3
# Si number density = 25.522449 Si / 1000 Ang^3
#
#
#
# Elastic Constant Matrix: (Units=GPa)
#
#
# Indices 1 2 3 4 5 6 
#
# 1 87.4110 14.0120 39.3199 1.3685 -19.9399 3.8624
# 2 14.0120 38.9334 28.6078 -10.3072 0.6796 3.3480
# 3 39.3199 28.6078 231.9343 -31.0281 -0.9070 -6.3667
# 4 1.3685 -10.3072 -31.0281 31.6389 4.1832 -3.3124
# 5 -19.9399 0.6796 -0.9070 4.1832 41.9026 1.9692
# 6 3.8624 3.3480 -6.3667 -3.3124 1.9692 28.9283
#
#
#
# Elastic Compliance Matrix: (Units=1/GPa)
#
#
# Indices 1 2 3 4 5 6 
#
# 1 0.015788 -0.005102 -0.003019 -0.006782 0.008373 -0.003528
# 2 -0.005102 0.031525 -0.001906 0.008899 -0.003770 -0.002111
# 3 -0.003019 -0.001906 0.005909 0.005853 -0.001990 0.002730
# 4 -0.006782 0.008899 0.005853 0.042250 -0.007770 0.006530
# 5 0.008373 -0.003770 -0.001990 -0.007770 0.028830 -0.003972
# 6 -0.003528 -0.002111 0.002730 0.006530 -0.003972 0.036902
#
#
# Mechanical properties :
#
#
# Convention : Reuss Voigt Hill
#
# Bulk Modulus (GPa) = 30.14904 58.01756 44.08330
# Shear Modulus (GPa) = 25.99927 38.91656 32.45791
#
# Velocity S-wave (km/s) = 3.19514 3.90910 3.57001
# Velocity P-wave (km/s) = 5.04483 6.56933 5.85689
#
# Compressibility (1/GPa) = 0.03316855
#
# Stress axis : x y z
#
# Youngs Moduli (GPa) = 63.33878 31.72114 169.24655
#
# Poissons Ratio (x) = 0.16185 0.51089
# Poissons Ratio (y) = 0.32317 0.32251
# Poissons Ratio (z) = 0.19120 0.06045
#
# Static dielectric constant tensor:
#      x y z
#    x 2.004010 -0.019360 0.014150 
#    y -0.019360 2.072720 -0.001700 
#    z 0.014150 -0.001700 2.011040 
# 
# From -- ./inp_files/306290.got.cif
#   From: 2010.05.17/outbox.cif.g08.bks.cpg/sg2_154_cif.got.tgz:306290.got - 2010.06.03 11:33:40.
