data_PCOD9076264
_publ_section_title
;
Structure prediction by ZEFSAII (Michael W. Deem and Ramdas Pophale) SiO2 
 PCOD9076264
Probable space group: P -1
;
_chemical_formula_sum "Si O2"
_cell_formula_units_Z 16
_cell_length_a 10.827215
_cell_length_b 10.366364
_cell_length_c 14.217162
_cell_angle_alpha 89.504221
_cell_angle_beta 125.207117
_cell_angle_gamma 133.458087
_cell_volume 715.933413
_symmetry_space_group_name_H-M "P -1"
_symmetry_group_IT_number 2
_symmetry_cell_setting 'triclinic'
loop_
_space_group_symop_operation_xyz
x,y,z
-x,-y,-z
loop_
_atom_site_type_symbol
_atom_site_label
_atom_site_fract_x
_atom_site_fract_y
_atom_site_fract_z
Si Si1 0.118724 0.825051 0.867966
Si Si2 0.986431 0.643678 0.014827
Si Si3 0.310992 0.698356 0.858543
Si Si4 0.767379 0.240697 0.560581
Si Si5 0.343840 0.538839 0.480615
Si Si6 0.765081 0.802070 0.510322
Si Si7 0.615169 0.804213 0.248810
Si Si8 0.405151 0.921938 0.711950
O O1 0.223720 0.756468 0.885829
O O2 0.873187 0.670498 0.690016
O O3 0.012052 0.738158 0.927321
O O4 0.376424 0.106353 0.974496
O O5 0.679894 0.451000 0.919832
O O6 0.283141 0.879164 0.190700
O O7 0.000000 0.500000 0.000000
O O8 0.340340 0.769078 0.762734
O O9 0.048619 0.418341 0.741030
O O10 0.737828 0.374743 0.532284
O O11 0.780259 0.198061 0.460560
O O12 0.500000 0.000000 0.500000
O O13 0.628851 0.745876 0.548723
O O14 0.320265 0.408662 0.546835
O O15 0.627636 0.786249 0.366907
O O16 0.094731 0.047706 0.656589
O O17 0.618106 0.961235 0.241725
#
# Coordination Sequence:
#
# PCOD9076264 Si02
#       8
#     2   2   2   2   2   2   2   2
#     4   9  16  32  51  75 109 137 177 221 268 321
#     4   9  18  29  53  80 114 136 170 231 277 316
#     4   9  19  31  52  78 109 145 170 216 279 324
#     4  11  22  34  54  80 116 145 175 223 280 331
#     4  10  20  36  53  80 108 147 183 222 266 320
#     4  10  20  32  55  80 106 146 183 223 264 310
#     4  10  18  33  53  86 110 135 181 230 269 316
#     4  10  20  35  54  84 113 143 174 223 283 332
#
# _framework density 22.348448000000001
#
# number of rings (size 3 to 8) (size 9 to 14) (size 15 to 20)
#    0.000    2.250    1.250    2.625    5.250    1.000 
#    0.000    0.000    0.000    1.500   13.000    0.000 
#    0.000    0.000    0.000    0.000    0.000    0.000 
#
# Total GULP energy -89229.766154 kJ/mol
# GULP energy per Si atom -5576.860385 kJ/mol
# Density = 2.229758 g / cm^3
# Si number density = 22.348448 Si / 1000 Ang^3
#
#
#
# Elastic Constant Matrix: (Units=GPa)
#
#
# Indices 1 2 3 4 5 6 
#
# 1 30.4428 -2.8786 12.3731 9.8089 10.7324 11.4954
# 2 -2.8786 66.6673 11.2722 11.1277 0.0691 6.8679
# 3 12.3731 11.2722 109.8850 29.3404 11.8088 12.5181
# 4 9.8089 11.1277 29.3404 40.7478 10.5150 14.6030
# 5 10.7324 0.0691 11.8088 10.5150 31.8919 5.7512
# 6 11.4954 6.8679 12.5181 14.6030 5.7512 28.5894
#
#
#
# Elastic Compliance Matrix: (Units=1/GPa)
#
#
# Indices 1 2 3 4 5 6 
#
# 1 0.044040 0.004130 -0.001948 -0.002372 -0.010715 -0.014480
# 2 0.004130 0.016306 -0.000805 -0.003838 0.000754 -0.003417
# 3 -0.001948 -0.000805 0.011472 -0.007223 -0.001188 -0.000118
# 4 -0.002372 -0.003838 -0.007223 0.037685 -0.006622 -0.012879
# 5 -0.010715 0.000754 -0.001188 -0.006622 0.037495 0.000487
# 6 -0.014480 -0.003417 -0.000118 -0.012879 0.000487 0.048153
#
#
# Mechanical properties :
#
#
# Convention : Reuss Voigt Hill
#
# Bulk Modulus (GPa) = 13.40985 27.61427 20.51206
# Shear Modulus (GPa) = 23.01437 32.66105 27.83771
#
# Velocity S-wave (km/s) = 3.21253 3.82703 3.53317
# Velocity P-wave (km/s) = 4.44678 5.64901 5.08356
#
# Compressibility (1/GPa) = 0.07457203
#
# Stress axis : x y z
#
# Youngs Moduli (GPa) = 22.70643 61.32698 87.16863
#
# Poissons Ratio (x) = -0.25327 0.16982
# Poissons Ratio (y) = -0.09377 0.07016
# Poissons Ratio (z) = 0.04424 0.04936
#
# Static dielectric constant tensor:
#      x y z
#    x 1.817880 0.015310 0.040030 
#    y 0.015310 1.913400 0.022970 
#    z 0.040030 0.022970 1.877720 
# 
# From -- ./inp_files/252572.got.cif
#   From: 2010.05.17/outbox.cif.g08.bks.cpg/sg2_127_cif.got.tgz:252572.got - 2010.06.03 11:33:40.
