data_PCOD9076540
_publ_section_title
;
Structure prediction by ZEFSAII (Michael W. Deem and Ramdas Pophale) SiO2 
 PCOD9076540
Probable space group: P -1
;
_chemical_formula_sum "Si O2"
_cell_formula_units_Z 16
_cell_length_a 8.061899
_cell_length_b 12.564974
_cell_length_c 10.805999
_cell_angle_alpha 75.119364
_cell_angle_beta 136.661761
_cell_angle_gamma 90.146220
_cell_volume 697.481163
_symmetry_space_group_name_H-M "P -1"
_symmetry_group_IT_number 2
_symmetry_cell_setting 'triclinic'
loop_
_space_group_symop_operation_xyz
x,y,z
-x,-y,-z
loop_
_atom_site_type_symbol
_atom_site_label
_atom_site_fract_x
_atom_site_fract_y
_atom_site_fract_z
Si Si1 0.348772 0.855178 0.789393
Si Si2 0.464494 0.663841 0.078122
Si Si3 0.047850 0.930653 0.392283
Si Si4 0.538171 0.448671 0.327871
Si Si5 0.232925 0.812871 0.133701
Si Si6 0.191013 0.067625 0.986042
Si Si7 0.680043 0.621651 0.546229
Si Si8 0.048805 0.298734 0.537354
O O1 0.315865 0.887277 0.617306
O O2 0.403419 0.722958 0.894590
O O3 0.578223 0.895912 0.955414
O O4 0.098793 0.941072 0.685659
O O5 0.437625 0.539989 0.136128
O O6 0.283509 0.753985 0.045831
O O7 0.744649 0.665785 0.274612
O O8 0.910104 0.837525 0.396646
O O9 0.023567 0.925540 0.234776
O O10 0.649141 0.517271 0.473828
O O11 0.329920 0.408171 0.305776
O O12 0.776029 0.353991 0.431235
O O13 0.428275 0.725234 0.353619
O O14 0.946456 0.841233 0.013717
O O15 0.280555 0.937537 0.118230
O O16 0.902125 0.660043 0.586249
#
# Coordination Sequence:
#
# PCOD9076540 Si02
#       8
#     2   2   2   2   2   2   2   2
#     4  11  22  36  58  85 115 149 188 231 284 343
#     4  10  18  35  57  82 114 150 188 233 286 336
#     4  11  22  35  59  85 115 148 188 235 281 345
#     4   9  18  31  53  85 114 145 193 239 277 342
#     4   9  19  31  56  83 113 148 187 236 279 339
#     4  11  19  36  58  83 115 149 189 229 286 342
#     4   9  17  30  50  86 114 143 190 237 285 333
#     4  10  18  33  57  83 111 150 192 233 284 338
#
# _framework density 22.939689000000001
#
# number of rings (size 3 to 8) (size 9 to 14) (size 15 to 20)
#    0.000    2.250    2.500    4.125    0.000    0.000 
#    2.250    3.125    8.250    0.750    0.000    0.000 
#    0.000    0.000    0.000    0.000    0.000    0.000 
#
# Total GULP energy -89235.492809 kJ/mol
# GULP energy per Si atom -5577.218301 kJ/mol
# Density = 2.288748 g / cm^3
# Si number density = 22.939689 Si / 1000 Ang^3
#
#
#
# Elastic Constant Matrix: (Units=GPa)
#
#
# Indices 1 2 3 4 5 6 
#
# 1 77.1213 25.1338 33.1171 -19.1844 -3.5477 2.3438
# 2 25.1338 54.1369 25.5942 -18.5909 -4.6729 -0.0208
# 3 33.1171 25.5942 84.9984 -18.6144 -19.1377 -4.7469
# 4 -19.1844 -18.5909 -18.6144 26.9790 7.1484 -3.0569
# 5 -3.5477 -4.6729 -19.1377 7.1484 25.5878 -18.0577
# 6 2.3438 -0.0208 -4.7469 -3.0569 -18.0577 31.6051
#
#
#
# Elastic Compliance Matrix: (Units=1/GPa)
#
#
# Indices 1 2 3 4 5 6 
#
# 1 0.019251 -0.003455 -0.008046 0.008079 -0.012646 -0.009082
# 2 -0.003455 0.026574 -0.004597 0.013527 -0.003711 -0.001229
# 3 -0.008046 -0.004597 0.025677 0.002712 0.033207 0.023685
# 4 0.008079 0.013527 0.002712 0.056786 -0.010888 -0.000912
# 5 -0.012646 -0.003711 0.033207 -0.010888 0.113884 0.069938
# 6 -0.009082 -0.001229 0.023685 -0.000912 0.069938 0.075741
#
#
# Mechanical properties :
#
#
# Convention : Reuss Voigt Hill
#
# Bulk Modulus (GPa) = 25.44054 42.66077 34.05066
# Shear Modulus (GPa) = 13.76611 25.66180 19.71395
#
# Velocity S-wave (km/s) = 2.45235 3.34827 2.93470
# Velocity P-wave (km/s) = 4.37412 5.79527 5.13411
#
# Compressibility (1/GPa) = 0.03930734
#
# Stress axis : x y z
#
# Youngs Moduli (GPa) = 51.94426 37.63145 38.94480
#
# Poissons Ratio (x) = 0.13000 0.31333
# Poissons Ratio (y) = 0.17944 0.17904
# Poissons Ratio (z) = 0.41792 0.17301
#
# Static dielectric constant tensor:
#      x y z
#    x 1.893060 0.016940 -0.058830 
#    y 0.016940 1.865950 0.029200 
#    z -0.058830 0.029200 1.899430 
# 
# From -- ./inp_files/399004.got.cif
#   From: 2010.05.17/outbox.cif.g08.bks.cpg/sg2_200_cif.got.tgz:399004.got - 2010.06.03 11:33:40.
