data_PCOD9076153
_publ_section_title
;
Structure prediction by ZEFSAII (Michael W. Deem and Ramdas Pophale) SiO2 
 PCOD9076153
Probable space group: P -1
;
_chemical_formula_sum "Si O2"
_cell_formula_units_Z 14
_cell_length_a 8.197922
_cell_length_b 14.280066
_cell_length_c 10.787073
_cell_angle_alpha 129.467069
_cell_angle_beta 39.736634
_cell_angle_gamma 127.654170
_cell_volume 603.824294
_symmetry_space_group_name_H-M "P -1"
_symmetry_group_IT_number 2
_symmetry_cell_setting 'triclinic'
loop_
_space_group_symop_operation_xyz
x,y,z
-x,-y,-z
loop_
_atom_site_type_symbol
_atom_site_label
_atom_site_fract_x
_atom_site_fract_y
_atom_site_fract_z
Si Si1 0.958447 0.637020 0.155183
Si Si2 0.234782 0.687897 0.604661
Si Si3 0.707688 0.252095 0.736142
Si Si4 0.279843 0.216112 0.767941
Si Si5 0.998932 0.039009 0.388757
Si Si6 0.166508 0.396663 0.413133
Si Si7 0.568093 0.721338 0.653408
O O1 0.857816 0.682574 0.124608
O O2 0.740910 0.665863 0.403384
O O3 0.222922 0.717536 0.135413
O O4 0.000000 0.500000 0.000000
O O5 0.467534 0.777880 0.466248
O O6 0.242816 0.542558 0.460713
O O7 0.300830 0.716140 0.733082
O O8 0.955704 0.684659 0.703069
O O9 0.422804 0.243110 0.838631
O O10 0.789390 0.121973 0.557693
O O11 0.917727 0.358529 0.623003
O O12 0.078716 0.082557 0.753055
O O13 0.277321 0.137612 0.287290
O O14 0.000000 0.000000 0.500000
O O15 0.407285 0.361436 0.312344
#
# Coordination Sequence:
#
# PCOD9076153 Si02
#       7
#     2   2   2   2   2   2   2
#     4   9  17  28  39  54  79 108 138 164 187 224
#     4   9  14  23  38  53  79 106 124 151 189 233
#     4   9  18  27  41  60  82 106 130 159 197 232
#     4  10  17  27  41  60  83 107 129 158 196 234
#     4  10  14  27  40  57  82 107 129 156 195 238
#     4   8  15  24  35  56  78 102 129 151 185 237
#     4   9  17  26  39  57  81 104 128 156 195 226
#
# _framework density 23.185549999999999
#
# number of rings (size 3 to 8) (size 9 to 14) (size 15 to 20)
#    0.000    3.143    4.286    0.857    0.000    0.571 
#    0.000    0.000    0.000    0.000    0.000    0.000 
#    0.000  114.286    0.000  302.714    0.000    0.000 
#
# Total GULP energy -78047.091660 kJ/mol
# GULP energy per Si atom -5574.792261 kJ/mol
# Density = 2.313278 g / cm^3
# Si number density = 23.185550 Si / 1000 Ang^3
#
#
#
# Elastic Constant Matrix: (Units=GPa)
#
#
# Indices 1 2 3 4 5 6 
#
# 1 192.1997 9.4868 -21.6830 2.9411 -3.7643 16.8571
# 2 9.4868 62.2843 23.4903 15.8612 -5.8534 11.6420
# 3 -21.6830 23.4903 38.7868 -10.9445 -5.5306 4.3684
# 4 2.9411 15.8612 -10.9445 36.5481 -3.7288 3.6401
# 5 -3.7643 -5.8534 -5.5306 -3.7288 -17.1247 22.0216
# 6 16.8571 11.6420 4.3684 3.6401 22.0216 35.6948
#
#
#
# Elastic Compliance Matrix: (Units=1/GPa)
#
#
# Indices 1 2 3 4 5 6 
#
# 1 0.006088 -0.004379 0.006514 0.003077 -0.003293 -0.000527
# 2 -0.004379 0.034181 -0.029312 -0.022973 -0.000169 -0.003046
# 3 0.006514 -0.029312 0.052907 0.026688 -0.009925 0.003411
# 4 0.003077 -0.022973 0.026688 0.044039 -0.007383 0.002837
# 5 -0.003293 -0.000169 -0.009925 -0.007383 -0.026877 0.020159
# 6 -0.000527 -0.003046 0.003411 0.002837 0.020159 0.016114
#
#
# Mechanical properties :
#
#
# Convention : Reuss Voigt Hill
#
# Bulk Modulus (GPa) = 25.75862 35.09545 30.42704
# Shear Modulus (GPa) = 25.80684 29.82210 27.81447
#
# Velocity S-wave (km/s) = 3.33987 3.59030 3.46735
# Velocity P-wave (km/s) = 5.09969 5.68829 5.40202
#
# Compressibility (1/GPa) = 0.03882195
#
# Stress axis : x y z
#
# Youngs Moduli (GPa) = 164.24425 29.25600 18.90124
#
# Poissons Ratio (x) = 0.12810 -0.12311
# Poissons Ratio (y) = 0.71916 0.55403
# Poissons Ratio (z) = -1.06982 0.85755
#
# Static dielectric constant tensor:
#      x y z
#    x 1.967560 -0.002390 -0.004470 
#    y -0.002390 1.864260 -0.030220 
#    z -0.004470 -0.030220 1.844270 
# 
# From -- ./inp_files/202590.got.cif
#   From: 2010.05.17/outbox.cif.g08.bks.cpg/sg2_102_cif.got.tgz:202590.got - 2010.06.03 11:33:40.
