data_PCOD9076128
_publ_section_title
;
Structure prediction by ZEFSAII (Michael W. Deem and Ramdas Pophale) SiO2 
 PCOD9076128
Probable space group: P -1
;
_chemical_formula_sum "Si O2"
_cell_formula_units_Z 16
_cell_length_a 12.012974
_cell_length_b 15.310893
_cell_length_c 7.832274
_cell_angle_alpha 117.770975
_cell_angle_beta 67.761376
_cell_angle_gamma 140.332495
_cell_volume 813.151587
_symmetry_space_group_name_H-M "P -1"
_symmetry_group_IT_number 2
_symmetry_cell_setting 'triclinic'
loop_
_space_group_symop_operation_xyz
x,y,z
-x,-y,-z
loop_
_atom_site_type_symbol
_atom_site_label
_atom_site_fract_x
_atom_site_fract_y
_atom_site_fract_z
Si Si1 0.233325 0.499650 0.108998
Si Si2 0.059174 0.716007 0.398059
Si Si3 0.525185 0.379847 0.231098
Si Si4 0.115512 0.594750 0.792544
Si Si5 0.624244 0.020116 0.715345
Si Si6 0.682693 0.260173 0.537453
Si Si7 0.292399 0.431258 0.372621
Si Si8 0.483063 0.848508 0.984650
O O1 0.316220 0.656483 0.242791
O O2 0.282266 0.464995 0.215702
O O3 0.028372 0.404648 0.130487
O O4 0.317009 0.509537 0.895282
O O5 0.173075 0.846148 0.319315
O O6 0.205855 0.767531 0.494017
O O7 0.976592 0.562439 0.243195
O O8 0.902891 0.681962 0.543387
O O9 0.381443 0.377517 0.279890
O O10 0.596360 0.435983 0.434904
O O11 0.458361 0.229151 0.099068
O O12 0.200221 0.628803 0.587028
O O13 0.280821 0.718108 0.923534
O O14 0.510108 0.879900 0.537990
O O15 0.593303 0.962201 0.870824
O O16 0.530720 0.072167 0.798230
#
# Coordination Sequence:
#
# PCOD9076128 Si02
#       8
#     2   2   2   2   2   2   2   2
#     4  11  20  37  65  91 117 153 200 245 303 351
#     4  11  18  33  56  85 116 153 195 238 302 345
#     4  11  24  37  62  84 122 163 195 244 297 349
#     4  10  18  32  62  88 122 147 187 260 301 340
#     4  10  22  32  58  84 122 161 184 243 305 355
#     4  10  18  35  55  88 122 154 183 245 304 349
#     4  11  22  40  56  90 124 152 201 251 286 348
#     4  10  20  39  52  90 123 150 199 242 296 360
#
# _framework density 19.676528999999999
#
# number of rings (size 3 to 8) (size 9 to 14) (size 15 to 20)
#    0.000    1.500    3.750    3.750    1.750    1.000 
#    0.000    0.625    0.000    3.000    0.000    0.000 
#    0.000    0.000    0.000    0.000    0.000    0.000 
#
# Total GULP energy -89331.028429 kJ/mol
# GULP energy per Si atom -5583.189277 kJ/mol
# Density = 1.963174 g / cm^3
# Si number density = 19.676529 Si / 1000 Ang^3
#
#
#
# Elastic Constant Matrix: (Units=GPa)
#
#
# Indices 1 2 3 4 5 6 
#
# 1 110.5139 21.1372 26.2325 -15.9968 -19.5622 -9.9608
# 2 21.1372 107.8048 15.0438 -18.5846 -5.2004 -1.8646
# 3 26.2325 15.0438 60.4017 -9.7505 -8.2182 -5.2436
# 4 -15.9968 -18.5846 -9.7505 27.8108 0.4858 2.7942
# 5 -19.5622 -5.2004 -8.2182 0.4858 35.0667 2.0125
# 6 -9.9608 -1.8646 -5.2436 2.7942 2.0125 22.1095
#
#
#
# Elastic Compliance Matrix: (Units=1/GPa)
#
#
# Indices 1 2 3 4 5 6 
#
# 1 0.011930 -0.000741 -0.003167 0.004814 0.005539 0.003449
# 2 -0.000741 0.010720 -0.001265 0.006341 0.000827 -0.000606
# 3 -0.003167 -0.001265 0.019401 0.003856 0.002404 0.002362
# 4 0.004814 0.006341 0.003856 0.044483 0.004049 -0.002372
# 5 0.005539 0.000827 0.002404 0.004049 0.032255 -0.000313
# 6 0.003449 -0.000606 0.002362 -0.002372 -0.000313 0.047620
#
#
# Mechanical properties :
#
#
# Convention : Reuss Voigt Hill
#
# Bulk Modulus (GPa) = 31.53909 44.83859 38.18884
# Shear Modulus (GPa) = 26.69200 31.41786 29.05493
#
# Velocity S-wave (km/s) = 3.68712 4.00023 3.84686
# Velocity P-wave (km/s) = 5.84723 6.64629 6.25952
#
# Compressibility (1/GPa) = 0.03170668
#
# Stress axis : x y z
#
# Youngs Moduli (GPa) = 83.82247 93.28128 51.54460
#
# Poissons Ratio (x) = 0.06908 0.16323
# Poissons Ratio (y) = 0.06207 0.06520
# Poissons Ratio (z) = 0.26544 0.11799
#
# Static dielectric constant tensor:
#      x y z
#    x 1.693080 -0.036450 0.033700 
#    y -0.036450 1.721550 -0.018590 
#    z 0.033700 -0.018590 1.752480 
# 
# From -- ./inp_files/223478.got.cif
#   From: 2010.05.17/outbox.cif.g08.bks.cpg/sg2_112_cif.got.tgz:223478.got - 2010.06.03 11:33:40.
