data_PCOD9076050
_publ_section_title
;
Structure prediction by ZEFSAII (Michael W. Deem and Ramdas Pophale) SiO2 
 PCOD9076050
Probable space group: P -1
;
_chemical_formula_sum "Si O2"
_cell_formula_units_Z 16
_cell_length_a 9.591611
_cell_length_b 7.890219
_cell_length_c 13.693286
_cell_angle_alpha 116.798110
_cell_angle_beta 122.900995
_cell_angle_gamma 46.578517
_cell_volume 626.842254
_symmetry_space_group_name_H-M "P -1"
_symmetry_group_IT_number 2
_symmetry_cell_setting 'triclinic'
loop_
_space_group_symop_operation_xyz
x,y,z
-x,-y,-z
loop_
_atom_site_type_symbol
_atom_site_label
_atom_site_fract_x
_atom_site_fract_y
_atom_site_fract_z
Si Si1 0.268533 0.230283 0.033182
Si Si2 0.221245 0.886385 0.323927
Si Si3 0.867644 0.179825 0.406988
Si Si4 0.534369 0.283231 0.816926
Si Si5 0.405762 0.366147 0.472054
Si Si6 0.329095 0.076771 0.757161
Si Si7 0.591439 0.245041 0.057502
Si Si8 0.877770 0.481180 0.764567
O O1 0.360380 0.326013 0.020023
O O2 0.114304 0.403494 0.102921
O O3 0.476697 0.052503 0.129871
O O4 0.242755 0.035204 0.929352
O O5 0.283674 0.861624 0.228846
O O6 0.406316 0.844952 0.450287
O O7 0.205784 0.669718 0.278032
O O8 0.012523 0.101768 0.348201
O O9 0.767688 0.442639 0.469926
O O10 0.698627 0.127935 0.322246
O O11 0.000000 0.000000 0.500000
O O12 0.397805 0.186380 0.733278
O O13 0.398285 0.566990 0.829147
O O14 0.611924 0.259394 0.952411
O O15 0.500000 0.500000 0.500000
O O16 0.283298 0.340831 0.333024
O O17 0.104616 0.300964 0.762305
#
# Coordination Sequence:
#
# PCOD9076050 Si02
#       8
#     2   2   2   2   2   2   2   2
#     4  10  19  37  65  88 105 154 205 238 280 350
#     4  10  20  34  59  82 116 161 185 232 287 347
#     4  11  19  34  59  87 116 149 206 231 266 342
#     4  10  20  40  58  85 122 155 181 245 316 332
#     4  10  18  32  59  87 112 152 195 232 273 335
#     4  10  21  35  60  86 117 152 188 242 285 342
#     4   9  20  37  64  82 113 153 198 243 292 351
#     4  10  19  34  61  86 117 146 200 238 278 342
#
# _framework density 25.524763
#
# number of rings (size 3 to 8) (size 9 to 14) (size 15 to 20)
#    0.000    2.000    5.000    1.500    0.000    0.000 
#    0.000   10.000    0.000    0.000    0.000    0.000 
#    0.000    0.000    0.000    0.000    0.000    0.000 
#
# Total GULP energy -89343.006648 kJ/mol
# GULP energy per Si atom -5583.937915 kJ/mol
# Density = 2.546667 g / cm^3
# Si number density = 25.524763 Si / 1000 Ang^3
#
#
#
# Elastic Constant Matrix: (Units=GPa)
#
#
# Indices 1 2 3 4 5 6 
#
# 1 120.0553 33.9478 43.5199 17.7596 -32.0492 -7.0128
# 2 33.9478 56.0265 30.7558 18.4506 -4.8786 -7.1849
# 3 43.5199 30.7558 120.5256 20.0516 -14.2517 -11.8649
# 4 17.7596 18.4506 20.0516 47.8783 -22.5913 -2.5021
# 5 -32.0492 -4.8786 -14.2517 -22.5913 46.6748 8.7188
# 6 -7.0128 -7.1849 -11.8649 -2.5021 8.7188 28.9004
#
#
#
# Elastic Compliance Matrix: (Units=1/GPa)
#
#
# Indices 1 2 3 4 5 6 
#
# 1 0.013219 -0.007135 -0.002595 0.003331 0.009567 -0.002229
# 2 -0.007135 0.027320 -0.003166 -0.010598 -0.009189 0.005616
# 3 -0.002595 -0.003166 0.010661 -0.002395 -0.000562 0.002923
# 4 0.003331 -0.010598 -0.002395 0.032574 0.017181 -0.005173
# 5 0.009567 -0.009189 -0.000562 0.017181 0.037022 -0.009875
# 6 -0.002229 0.005616 0.002923 -0.005173 -0.009875 0.039188
#
#
# Mechanical properties :
#
#
# Convention : Reuss Voigt Hill
#
# Bulk Modulus (GPa) = 39.35556 57.00604 48.18080
# Shear Modulus (GPa) = 25.74073 37.24963 31.49518
#
# Velocity S-wave (km/s) = 3.17907 3.82429 3.51651
# Velocity P-wave (km/s) = 5.37842 6.47166 5.95020
#
# Compressibility (1/GPa) = 0.02540937
#
# Stress axis : x y z
#
# Youngs Moduli (GPa) = 75.65102 36.60344 93.79599
#
# Poissons Ratio (x) = 0.26116 0.24337
# Poissons Ratio (y) = 0.53975 0.29694
# Poissons Ratio (z) = 0.19629 0.11588
#
# Static dielectric constant tensor:
#      x y z
#    x 2.048010 0.079120 0.019110 
#    y 0.079120 2.172210 0.044490 
#    z 0.019110 0.044490 2.222850 
# 
# From -- ./inp_files/495461.got.cif
#   From: 2010.05.17/outbox.cif.g08.bks.cpg/sg2_248_cif.got.tgz:495461.got - 2010.06.03 11:33:40.
