data_PCOD9076229
_publ_section_title
;
Structure prediction by ZEFSAII (Michael W. Deem and Ramdas Pophale) SiO2 
 PCOD9076229
Probable space group: P -1
;
_chemical_formula_sum "Si O2"
_cell_formula_units_Z 16
_cell_length_a 9.100372
_cell_length_b 14.636743
_cell_length_c 8.601837
_cell_angle_alpha 110.837526
_cell_angle_beta 80.102368
_cell_angle_gamma 124.612212
_cell_volume 880.624844
_symmetry_space_group_name_H-M "P -1"
_symmetry_group_IT_number 2
_symmetry_cell_setting 'triclinic'
loop_
_space_group_symop_operation_xyz
x,y,z
-x,-y,-z
loop_
_atom_site_type_symbol
_atom_site_label
_atom_site_fract_x
_atom_site_fract_y
_atom_site_fract_z
Si Si1 0.662853 0.210821 0.704415
Si Si2 0.737549 0.666703 0.002927
Si Si3 0.069220 0.826960 0.546374
Si Si4 0.023785 0.892037 0.931500
Si Si5 0.729893 0.718346 0.376157
Si Si6 0.655347 0.054358 0.876415
Si Si7 0.612863 0.419113 0.820640
Si Si8 0.308837 0.065765 0.489037
O O1 0.801469 0.212058 0.559727
O O2 0.678347 0.162961 0.839371
O O3 0.683919 0.335276 0.771620
O O4 0.463186 0.115242 0.621070
O O5 0.748975 0.557697 0.887683
O O6 0.836101 0.774161 0.935216
O O7 0.809915 0.713120 0.192007
O O8 0.527635 0.616241 0.032402
O O9 0.089290 0.871130 0.744244
O O10 0.863115 0.726976 0.486954
O O11 0.137149 0.942667 0.499336
O O12 0.164094 0.910678 0.048035
O O13 0.000000 0.000000 0.000000
O O14 0.519910 0.617736 0.327538
O O15 0.732316 0.835850 0.463495
O O16 0.619343 0.959154 0.694660
O O17 0.500000 0.000000 0.000000
#
# Coordination Sequence:
#
# PCOD9076229 Si02
#       8
#     2   2   2   2   2   2   2   2
#     4  10  20  36  56  78 108 149 183 219 278 330
#     4   9  18  38  62  80 106 137 197 223 268 315
#     4  11  20  32  50  81 113 142 179 225 273 325
#     4  12  24  35  55  84 117 146 176 232 273 321
#     4   9  17  33  55  77 100 141 187 221 261 321
#     4  11  22  34  51  84 117 144 179 223 277 329
#     4   8  19  37  65  76 102 146 191 228 262 325
#     4  10  18  33  53  75 108 150 179 216 269 335
#
# _framework density 18.168917
#
# number of rings (size 3 to 8) (size 9 to 14) (size 15 to 20)
#    0.750    1.250    0.000    6.375    1.750    0.000 
#    0.000    3.750    0.000    0.000    0.000    0.000 
#    0.000    0.000    0.000    0.000    0.000    0.000 
#
# Total GULP energy -89110.703729 kJ/mol
# GULP energy per Si atom -5569.418983 kJ/mol
# Density = 1.812756 g / cm^3
# Si number density = 18.168917 Si / 1000 Ang^3
#
#
#
# Elastic Constant Matrix: (Units=GPa)
#
#
# Indices 1 2 3 4 5 6 
#
# 1 87.3183 28.4553 19.6253 3.2189 -0.4197 -16.0843
# 2 28.4553 91.5721 35.7112 12.5465 -17.6348 -13.2037
# 3 19.6253 35.7112 75.0954 2.5857 -8.4315 -22.2531
# 4 3.2189 12.5465 2.5857 22.0309 -11.3986 -9.0821
# 5 -0.4197 -17.6348 -8.4315 -11.3986 17.0493 7.4791
# 6 -16.0843 -13.2037 -22.2531 -9.0821 7.4791 13.7618
#
#
#
# Elastic Compliance Matrix: (Units=1/GPa)
#
#
# Indices 1 2 3 4 5 6 
#
# 1 0.021074 -0.008747 0.012760 0.014641 -0.016863 0.055698
# 2 -0.008747 0.019884 -0.014125 -0.011414 0.019925 -0.032349
# 3 0.012760 -0.014125 0.046034 0.038629 -0.013313 0.108528
# 4 0.014641 -0.011414 0.038629 0.111461 0.026003 0.128052
# 5 -0.016863 0.019925 -0.013313 0.026003 0.120568 -0.070484
# 6 0.055698 -0.032349 0.108528 0.128052 -0.070484 0.405033
#
#
# Mechanical properties :
#
#
# Convention : Reuss Voigt Hill
#
# Bulk Modulus (GPa) = 14.97751 46.84105 30.90928
# Shear Modulus (GPa) = 6.52286 21.91467 14.21877
#
# Velocity S-wave (km/s) = 1.89682 3.47675 2.80051
# Velocity P-wave (km/s) = 3.61367 6.47718 5.24464
#
# Compressibility (1/GPa) = 0.06676679
#
# Stress axis : x y z
#
# Youngs Moduli (GPa) = 47.45176 50.29219 21.72293
#
# Poissons Ratio (x) = 0.43991 -0.27718
# Poissons Ratio (y) = 0.41507 0.30685
# Poissons Ratio (z) = -0.60548 0.71040
#
# Static dielectric constant tensor:
#      x y z
#    x 1.651930 0.018260 0.005510 
#    y 0.018260 1.620140 0.004890 
#    z 0.005510 0.004890 1.648710 
# 
# From -- ./inp_files/208296.got.cif
#   From: 2010.05.17/outbox.cif.g08.bks.cpg/sg2_105_cif.got.tgz:208296.got - 2010.06.03 11:33:40.
