data_PCOD9076768
_publ_section_title
;
Structure prediction by ZEFSAII (Michael W. Deem and Ramdas Pophale) SiO2 
 PCOD9076768
Probable space group: P -1
;
_chemical_formula_sum "Si O2"
_cell_formula_units_Z 13
_cell_length_a 15.237030
_cell_length_b 10.834855
_cell_length_c 10.409869
_cell_angle_alpha 36.956316
_cell_angle_beta 30.868199
_cell_angle_gamma 37.480359
_cell_volume 496.771063
_symmetry_space_group_name_H-M "P -1"
_symmetry_group_IT_number 2
_symmetry_cell_setting 'triclinic'
loop_
_space_group_symop_operation_xyz
x,y,z
-x,-y,-z
loop_
_atom_site_type_symbol
_atom_site_label
_atom_site_fract_x
_atom_site_fract_y
_atom_site_fract_z
Si Si1 0.132206 0.112465 0.464993
Si Si2 0.829767 0.754731 0.951857
Si Si3 0.674752 0.378567 0.467644
Si Si4 0.814138 0.855590 0.173535
Si Si5 0.510946 0.837059 0.945029
Si Si6 0.498159 0.269872 0.238990
Si Si7 0.000000 0.000000 0.000000
O O1 0.048996 0.225954 0.338574
O O2 0.287721 0.216344 0.211992
O O3 0.229985 0.858096 0.517092
O O4 0.032105 0.106435 0.728895
O O5 0.805555 0.521347 0.191741
O O6 0.865126 0.850573 0.964564
O O7 0.624384 0.925316 0.038714
O O8 0.500000 0.500000 0.500000
O O9 0.586826 0.332022 0.749287
O O10 0.675552 0.723021 0.466704
O O11 0.978289 0.790374 0.120603
O O12 0.692347 0.098587 0.186310
O O13 0.522301 0.846420 0.770840
O O14 0.500000 0.500000 0.000000
#
# Coordination Sequence:
#
# PCOD9076768 Si02
#       7
#     2   2   2   2   2   2   1
#     4  11  22  38  59  89 128 167 203 254 314 379
#     4  10  20  38  62  92 117 155 216 267 311 360
#     4  11  18  32  65  96 119 154 210 271 314 357
#     4  10  23  41  64  90 127 174 208 265 318 371
#     4  10  18  33  59  94 121 152 205 269 316 355
#     4  10  20  38  65  93 126 161 219 267 314 371
#     4  12  26  46  60  88 142 180 206 246 326 400
#
# _framework density 26.168996
#
# number of rings (size 3 to 8) (size 9 to 14) (size 15 to 20)
#    0.000    1.538    4.615    1.846    0.000    1.846 
#    0.000    3.846    0.000    0.000    0.000    0.000 
#    0.000    0.000    0.000    0.000    0.000    0.000 
#
# Total GULP energy -72422.842683 kJ/mol
# GULP energy per Si atom -5570.987899 kJ/mol
# Density = 2.610943 g / cm^3
# Si number density = 26.168996 Si / 1000 Ang^3
#
#
#
# Elastic Constant Matrix: (Units=GPa)
#
#
# Indices 1 2 3 4 5 6 
#
# 1 72.5903 17.5287 57.4620 27.1581 32.3525 34.9258
# 2 17.5287 49.7736 44.0161 -10.1325 6.9367 -0.6859
# 3 57.4620 44.0161 201.2406 3.2374 24.9321 12.6544
# 4 27.1581 -10.1325 3.2374 47.4153 10.0108 10.2589
# 5 32.3525 6.9367 24.9321 10.0108 59.2324 9.8216
# 6 34.9258 -0.6859 12.6544 10.2589 9.8216 30.2661
#
#
#
# Elastic Compliance Matrix: (Units=1/GPa)
#
#
# Indices 1 2 3 4 5 6 
#
# 1 0.095945 -0.028276 -0.012297 -0.036554 -0.023443 -0.086219
# 2 -0.028276 0.035128 -0.002188 0.016976 0.004906 0.026994
# 3 -0.012297 -0.002188 0.008158 0.003776 0.001410 0.008993
# 4 -0.036554 0.016976 0.003776 0.038578 0.005538 0.026114
# 5 -0.023443 0.004906 0.001410 0.005538 0.024824 0.016641
# 6 -0.086219 0.026994 0.008993 0.026114 0.016641 0.115133
#
#
# Mechanical properties :
#
#
# Convention : Reuss Voigt Hill
#
# Bulk Modulus (GPa) = 18.61907 62.40200 40.51054
# Shear Modulus (GPa) = 11.87110 41.02260 26.44685
#
# Velocity S-wave (km/s) = 2.13217 3.96359 3.18247
# Velocity P-wave (km/s) = 3.63207 6.69659 5.38685
#
# Compressibility (1/GPa) = 0.05370837
#
# Stress axis : x y z
#
# Youngs Moduli (GPa) = 10.42259 28.46765 122.57679
#
# Poissons Ratio (x) = 0.80496 1.50737
# Poissons Ratio (y) = 0.29471 0.26815
# Poissons Ratio (z) = 0.12817 0.06228
#
# Static dielectric constant tensor:
#      x y z
#    x 1.905760 -0.065180 -0.044970 
#    y -0.065180 2.164540 0.049620 
#    z -0.044970 0.049620 2.142890 
# 
# From -- ./inp_files/333086.got.cif
#   From: 2010.05.17/outbox.cif.g08.bks.cpg/sg2_167_cif.got.tgz:333086.got - 2010.06.03 11:33:40.
