data_PCOD9076956
_publ_section_title
;
Structure prediction by ZEFSAII (Michael W. Deem and Ramdas Pophale) SiO2 
 PCOD9076956
Probable space group: P -1
;
_chemical_formula_sum "Si O2"
_cell_formula_units_Z 16
_cell_length_a 11.974788
_cell_length_b 22.116353
_cell_length_c 22.146259
_cell_angle_alpha 161.408910
_cell_angle_beta 30.819222
_cell_angle_gamma 149.396314
_cell_volume 917.951841
_symmetry_space_group_name_H-M "P -1"
_symmetry_group_IT_number 2
_symmetry_cell_setting 'triclinic'
loop_
_space_group_symop_operation_xyz
x,y,z
-x,-y,-z
loop_
_atom_site_type_symbol
_atom_site_label
_atom_site_fract_x
_atom_site_fract_y
_atom_site_fract_z
Si Si1 0.494450 0.324442 0.790010
Si Si2 0.694221 0.587663 0.834336
Si Si3 0.067649 0.225431 0.610465
Si Si4 0.710591 0.101389 0.759728
Si Si5 0.512315 0.418297 0.208061
Si Si6 0.264044 0.924530 0.482298
Si Si7 0.036799 0.414154 0.467347
Si Si8 0.360715 0.984659 0.712015
O O1 0.553786 0.433558 0.802170
O O2 0.675485 0.217071 0.630062
O O3 0.269224 0.136570 0.709570
O O4 0.500000 0.500000 0.000000
O O5 0.568248 0.539349 0.782140
O O6 0.947206 0.561914 0.690978
O O7 0.700368 0.810048 0.057696
O O8 0.283227 0.409988 0.696863
O O9 0.878903 0.234159 0.756934
O O10 0.948924 0.193694 0.570463
O O11 0.147630 0.029791 0.399763
O O12 0.507860 0.965325 0.684430
O O13 0.604535 0.228573 0.974337
O O14 0.290071 0.394963 0.330436
O O15 0.473722 0.987369 0.396087
O O16 0.000000 0.500000 0.500000
O O17 0.858780 0.201963 0.362754
#
# Coordination Sequence:
#
# PCOD9076956 Si02
#       8
#     2   2   2   2   2   2   2   2
#     4  11  21  36  57  83 107 139 179 226 281 312
#     4  10  20  33  56  82 112 141 177 227 268 322
#     4  10  20  34  52  77 111 145 173 218 269 320
#     4   9  19  30  50  76 108 146 172 215 264 322
#     4  10  21  33  52  82 112 146 177 209 265 331
#     4  10  22  35  56  82 109 138 180 225 269 327
#     4  10  20  32  52  78 113 149 178 217 263 319
#     4  10  18  34  52  81 112 140 179 219 267 316
#
# _framework density 17.430108000000001
#
# number of rings (size 3 to 8) (size 9 to 14) (size 15 to 20)
#    0.000    2.000    2.500    1.875    3.500    6.500 
#    0.000    0.000    0.000    0.750    0.000    2.625 
#    0.000    0.000    0.000    0.000    0.000    0.000 
#
# Total GULP energy -89132.683781 kJ/mol
# GULP energy per Si atom -5570.792736 kJ/mol
# Density = 1.739044 g / cm^3
# Si number density = 17.430108 Si / 1000 Ang^3
#
#
#
# Elastic Constant Matrix: (Units=GPa)
#
#
# Indices 1 2 3 4 5 6 
#
# 1 64.9442 11.1551 17.7214 5.1781 5.5484 7.3745
# 2 11.1551 49.9726 20.4678 -0.0933 4.0919 16.5410
# 3 17.7214 20.4678 91.9311 2.8611 3.1588 12.6022
# 4 5.1781 -0.0933 2.8611 22.3965 3.8954 -8.8102
# 5 5.5484 4.0919 3.1588 3.8954 21.1132 7.3278
# 6 7.3745 16.5410 12.6022 -8.8102 7.3278 27.3131
#
#
#
# Elastic Compliance Matrix: (Units=1/GPa)
#
#
# Indices 1 2 3 4 5 6 
#
# 1 0.017244 -0.001533 -0.002247 -0.004926 -0.001659 -0.003835
# 2 -0.001533 0.027208 -0.003274 -0.006454 0.002849 -0.017399
# 3 -0.002247 -0.003274 0.012741 -0.003272 0.001577 -0.004768
# 4 -0.004926 -0.006454 -0.003272 0.062194 -0.019567 0.032059
# 5 -0.001659 0.002849 0.001577 -0.019567 0.059002 -0.024146
# 6 -0.003835 -0.017399 -0.004768 0.032059 -0.024146 0.067204
#
#
# Mechanical properties :
#
#
# Convention : Reuss Voigt Hill
#
# Bulk Modulus (GPa) = 23.20990 33.94849 28.57920
# Shear Modulus (GPa) = 18.24400 24.66479 21.45440
#
# Velocity S-wave (km/s) = 3.23878 3.76582 3.51220
# Velocity P-wave (km/s) = 5.22792 6.19901 5.73406
#
# Compressibility (1/GPa) = 0.04308506
#
# Stress axis : x y z
#
# Youngs Moduli (GPa) = 57.99050 36.75410 78.48701
#
# Poissons Ratio (x) = 0.05635 0.17634
# Poissons Ratio (y) = 0.08891 0.25697
# Poissons Ratio (z) = 0.13029 0.12033
#
# Static dielectric constant tensor:
#      x y z
#    x 1.546440 -0.046960 0.036030 
#    y -0.046960 1.541940 0.015150 
#    z 0.036030 0.015150 1.630280 
# 
# From -- ./inp_files/423555.got.cif
#   From: 2010.05.17/outbox.cif.g08.bks.cpg/sg2_212_cif.got.tgz:423555.got - 2010.06.03 11:33:40.
