data_PCOD9076333
_publ_section_title
;
Structure prediction by ZEFSAII (Michael W. Deem and Ramdas Pophale) SiO2 
 PCOD9076333
Probable space group: P -1
;
_chemical_formula_sum "Si O2"
_cell_formula_units_Z 16
_cell_length_a 11.851377
_cell_length_b 21.328915
_cell_length_c 14.977157
_cell_angle_alpha 150.592337
_cell_angle_beta 132.581430
_cell_angle_gamma 27.436371
_cell_volume 774.663667
_symmetry_space_group_name_H-M "P -1"
_symmetry_group_IT_number 2
_symmetry_cell_setting 'triclinic'
loop_
_space_group_symop_operation_xyz
x,y,z
-x,-y,-z
loop_
_atom_site_type_symbol
_atom_site_label
_atom_site_fract_x
_atom_site_fract_y
_atom_site_fract_z
Si Si1 0.168321 0.277674 0.761974
Si Si2 0.689259 0.414599 0.356867
Si Si3 0.853957 0.166126 0.967996
Si Si4 0.421491 0.316928 0.833809
Si Si5 0.275098 0.826058 0.519755
Si Si6 0.226050 0.994661 0.529117
Si Si7 0.186045 0.670088 0.027399
Si Si8 0.154731 0.689718 0.501919
O O1 0.361876 0.226017 0.737686
O O2 0.278261 0.108456 0.688434
O O3 0.005430 0.294012 0.629581
O O4 0.000000 0.500000 0.000000
O O5 0.518529 0.631958 0.475874
O O6 0.453491 0.492744 0.374709
O O7 0.844640 0.362669 0.461309
O O8 0.869543 0.210141 0.130486
O O9 0.549181 0.321950 0.982566
O O10 0.873485 0.267801 0.032439
O O11 0.042960 0.913561 0.732389
O O12 0.183244 0.542613 0.926738
O O13 0.655812 0.139003 0.665484
O O14 0.090846 0.825206 0.408908
O O15 0.367612 0.821179 0.469521
O O16 0.046904 0.081044 0.747434
O O17 0.500000 0.500000 0.000000
#
# Coordination Sequence:
#
# PCOD9076333 Si02
#       8
#     2   2   2   2   2   2   2   2
#     4  12  23  39  58  87 122 157 194 238 302 357
#     4  11  22  37  62  86 121 157 193 250 292 349
#     4  11  20  37  60  91 117 151 200 242 302 341
#     4  11  21  34  57  87 124 151 190 244 297 361
#     4  11  20  36  59  88 124 145 200 251 296 347
#     4  11  21  34  56  88 117 154 190 248 299 342
#     4  10  18  33  54  90 121 148 192 247 296 347
#     4  11  23  41  56  90 120 155 203 238 295 352
#
# _framework density 20.654126000000002
#
# number of rings (size 3 to 8) (size 9 to 14) (size 15 to 20)
#    0.000    1.000    6.250    3.000    5.250    0.000 
#    0.000    0.000    0.000    6.000    0.000    0.000 
#    0.000    0.000    0.000    0.000    0.000    0.000 
#
# Total GULP energy -89148.124170 kJ/mol
# GULP energy per Si atom -5571.757761 kJ/mol
# Density = 2.060712 g / cm^3
# Si number density = 20.654126 Si / 1000 Ang^3
#
#
#
# Elastic Constant Matrix: (Units=GPa)
#
#
# Indices 1 2 3 4 5 6 
#
# 1 126.6612 21.2237 17.5858 -4.6971 8.6318 32.4483
# 2 21.2237 59.3587 17.4874 -1.6715 -1.2505 32.8242
# 3 17.5858 17.4874 94.4689 4.3817 -7.8192 11.1246
# 4 -4.6971 -1.6715 4.3817 31.4025 14.0225 -1.2334
# 5 8.6318 -1.2505 -7.8192 14.0225 37.2145 2.0740
# 6 32.4483 32.8242 11.1246 -1.2334 2.0740 35.6301
#
#
#
# Elastic Compliance Matrix: (Units=1/GPa)
#
#
# Indices 1 2 3 4 5 6 
#
# 1 0.011064 0.003404 -0.001638 0.003026 -0.003245 -0.012407
# 2 0.003404 0.036292 -0.003073 0.000817 0.001462 -0.035632
# 3 -0.001638 -0.003073 0.011975 -0.003984 0.004283 0.000196
# 4 0.003026 0.000817 -0.003984 0.040371 -0.016730 0.000106
# 5 -0.003245 0.001462 0.004283 -0.016730 0.035007 -0.002346
# 6 -0.012407 -0.035632 0.000196 0.000106 -0.002346 0.072270
#
#
# Mechanical properties :
#
#
# Convention : Reuss Voigt Hill
#
# Bulk Modulus (GPa) = 17.63066 43.67588 30.65327
# Shear Modulus (GPa) = 21.88189 35.79556 28.83872
#
# Velocity S-wave (km/s) = 3.25844 4.16756 3.74072
# Velocity P-wave (km/s) = 4.76563 6.65960 5.79058
#
# Compressibility (1/GPa) = 0.05671936
#
# Stress axis : x y z
#
# Youngs Moduli (GPa) = 90.38452 27.55398 83.50438
#
# Poissons Ratio (x) = -0.09380 0.13675
# Poissons Ratio (y) = -0.30770 0.25660
# Poissons Ratio (z) = 0.14802 0.08467
#
# Static dielectric constant tensor:
#      x y z
#    x 1.829950 0.054510 0.030260 
#    y 0.054510 1.792750 0.026300 
#    z 0.030260 0.026300 1.842010 
# 
# From -- ./inp_files/524099.got.cif
#   From: 2010.05.17/outbox.cif.g08.bks.cpg/sg2_263_cif.got.tgz:524099.got - 2010.06.03 11:33:40.
