data_PCOD9076868
_publ_section_title
;
Structure prediction by ZEFSAII (Michael W. Deem and Ramdas Pophale) SiO2 
 PCOD9076868
Probable space group: P -1
;
_chemical_formula_sum "Si O2"
_cell_formula_units_Z 16
_cell_length_a 25.771166
_cell_length_b 8.257110
_cell_length_c 14.783785
_cell_angle_alpha 41.474185
_cell_angle_beta 158.482407
_cell_angle_gamma 127.223826
_cell_volume 707.134077
_symmetry_space_group_name_H-M "P -1"
_symmetry_group_IT_number 2
_symmetry_cell_setting 'triclinic'
loop_
_space_group_symop_operation_xyz
x,y,z
-x,-y,-z
loop_
_atom_site_type_symbol
_atom_site_label
_atom_site_fract_x
_atom_site_fract_y
_atom_site_fract_z
Si Si1 0.477658 0.847768 0.328186
Si Si2 0.108035 0.995037 0.260423
Si Si3 0.091812 0.060146 0.403316
Si Si4 0.642904 0.782248 0.437926
Si Si5 0.714504 0.571284 0.256866
Si Si6 0.737434 0.409632 0.992964
Si Si7 0.354142 0.306182 0.710001
Si Si8 0.013613 0.716716 0.680765
O O1 0.575930 0.737232 0.442286
O O2 0.590845 0.677771 0.660422
O O3 0.332302 0.770236 0.104554
O O4 0.421083 0.163554 0.108049
O O5 0.026108 0.063164 0.195931
O O6 0.237909 0.701714 0.603533
O O7 0.196186 0.187789 0.302808
O O8 0.000000 0.000000 0.000000
O O9 0.225207 0.176251 0.559099
O O10 0.177280 0.770645 0.708405
O O11 0.971159 0.236790 0.207183
O O12 0.647441 0.600352 0.434666
O O13 0.517057 0.070887 0.087418
O O14 0.679443 0.521779 0.325386
O O15 0.864552 0.645232 0.464826
O O16 0.859212 0.469913 0.102489
O O17 0.000000 0.000000 0.500000
#
# Coordination Sequence:
#
# PCOD9076868 Si02
#       8
#     2   2   2   2   2   2   2   2
#     4  10  19  32  60  90 114 137 189 241 293 331
#     4  11  25  38  54  80 121 161 189 228 284 351
#     4   9  17  38  58  85 116 146 190 238 286 333
#     4   9  17  34  56  81 113 143 190 234 286 329
#     4  10  19  37  55  83 119 150 187 233 290 339
#     4  10  18  33  61  93 111 140 186 246 289 329
#     4   8  15  32  60  83 102 142 194 240 284 324
#     4   9  16  34  63  84 110 148 190 237 285 327
#
# _framework density 22.626543999999999
#
# number of rings (size 3 to 8) (size 9 to 14) (size 15 to 20)
#    0.000    2.500    5.000    0.000    1.750    2.000 
#    2.250    5.000    0.000    0.000    0.000    0.000 
#    0.000    0.000    0.000    0.000    0.000    0.000 
#
# Total GULP energy -89175.725032 kJ/mol
# GULP energy per Si atom -5573.482815 kJ/mol
# Density = 2.257505 g / cm^3
# Si number density = 22.626544 Si / 1000 Ang^3
#
#
#
# Elastic Constant Matrix: (Units=GPa)
#
#
# Indices 1 2 3 4 5 6 
#
# 1 100.2921 9.5918 12.2111 9.2009 6.2667 -0.6529
# 2 9.5918 38.3274 -0.6465 -14.2332 -2.7478 0.9269
# 3 12.2111 -0.6465 65.7547 -3.1839 -10.6332 6.0700
# 4 9.2009 -14.2332 -3.1839 31.3676 0.2409 -2.9841
# 5 6.2667 -2.7478 -10.6332 0.2409 25.9975 -0.6542
# 6 -0.6529 0.9269 6.0700 -2.9841 -0.6542 17.0788
#
#
#
# Elastic Compliance Matrix: (Units=1/GPa)
#
#
# Indices 1 2 3 4 5 6 
#
# 1 0.011809 -0.005708 -0.003387 -0.006296 -0.004759 0.000682
# 2 -0.005708 0.034572 0.003250 0.017650 0.006198 0.000072
# 3 -0.003387 0.003250 0.017918 0.003680 0.008311 -0.005713
# 4 -0.006296 0.017650 0.003680 0.042560 0.004622 0.005107
# 5 -0.004759 0.006198 0.008311 0.004622 0.043599 -0.000994
# 6 0.000682 0.000072 -0.005713 0.005107 -0.000994 0.061459
#
#
# Mechanical properties :
#
#
# Convention : Reuss Voigt Hill
#
# Bulk Modulus (GPa) = 19.00800 27.40969 23.20884
# Shear Modulus (GPa) = 20.73472 27.10332 23.91902
#
# Velocity S-wave (km/s) = 3.03048 3.46476 3.25487
# Velocity P-wave (km/s) = 4.54577 5.30531 4.94016
#
# Compressibility (1/GPa) = 0.05260942
#
# Stress axis : x y z
#
# Youngs Moduli (GPa) = 84.68425 28.92550 55.80866
#
# Poissons Ratio (x) = 0.16511 0.18900
# Poissons Ratio (y) = 0.48339 -0.18139
# Poissons Ratio (z) = 0.28679 -0.09401
#
# Static dielectric constant tensor:
#      x y z
#    x 1.880140 0.002190 -0.020670 
#    y 0.002190 1.825480 -0.032540 
#    z -0.020670 -0.032540 1.938060 
# 
# From -- ./inp_files/543811.got.cif
#   From: 2010.05.17/outbox.cif.g08.bks.cpg/sg2_272_cif.got.tgz:543811.got - 2010.06.03 11:33:40.
