data_PCOD9076571
_publ_section_title
;
Structure prediction by ZEFSAII (Michael W. Deem and Ramdas Pophale) SiO2 
 PCOD9076571
Probable space group: P -1
;
_chemical_formula_sum "Si O2"
_cell_formula_units_Z 14
_cell_length_a 8.874379
_cell_length_b 14.867640
_cell_length_c 22.280107
_cell_angle_alpha 20.462228
_cell_angle_beta 40.487913
_cell_angle_gamma 38.298754
_cell_volume 632.566977
_symmetry_space_group_name_H-M "P -1"
_symmetry_group_IT_number 2
_symmetry_cell_setting 'triclinic'
loop_
_space_group_symop_operation_xyz
x,y,z
-x,-y,-z
loop_
_atom_site_type_symbol
_atom_site_label
_atom_site_fract_x
_atom_site_fract_y
_atom_site_fract_z
Si Si1 0.231065 0.630093 0.131182
Si Si2 0.351810 0.181542 0.066788
Si Si3 0.025327 0.741323 0.759891
Si Si4 0.868162 0.139384 0.741565
Si Si5 0.402679 0.020271 0.449458
Si Si6 0.148401 0.479544 0.383913
Si Si7 0.794105 0.389367 0.976546
O O1 0.128490 0.570998 0.263209
O O2 0.096767 0.732282 0.045484
O O3 0.377037 0.327356 0.251425
O O4 0.398014 0.814789 0.981407
O O5 0.163684 0.164326 0.186939
O O6 0.242044 0.479225 0.883189
O O7 0.350836 0.954261 0.160648
O O8 0.145597 0.962737 0.563665
O O9 0.893531 0.630843 0.816399
O O10 0.935818 0.353095 0.544117
O O11 0.839958 0.281046 0.725838
O O12 0.090388 0.855346 0.858146
O O13 0.607059 0.767283 0.517181
O O14 0.500000 0.000000 0.500000
O O15 0.500000 0.500000 0.000000
#
# Coordination Sequence:
#
# PCOD9076571 Si02
#       7
#     2   2   2   2   2   2   2
#     4  11  21  35  62  88 119 147 190 244 294 325
#     4  10  18  33  57  87 109 151 195 238 277 346
#     4  10  19  32  57  86 117 148 190 232 296 335
#     4  10  23  39  61  80 117 157 201 228 294 345
#     4  10  18  34  57  89 112 142 193 245 275 337
#     4  10  21  39  60  84 113 158 194 244 278 341
#     4  11  22  38  57  91 120 151 186 244 293 346
#
# _framework density 22.132044
#
# number of rings (size 3 to 8) (size 9 to 14) (size 15 to 20)
#    0.000    1.714    4.286    2.571    2.000    1.714 
#    0.000    0.000    0.000    1.714    0.000    0.000 
#    0.000    0.000    0.000    0.000    0.000    0.000 
#
# Total GULP energy -78071.566223 kJ/mol
# GULP energy per Si atom -5576.540444 kJ/mol
# Density = 2.208167 g / cm^3
# Si number density = 22.132044 Si / 1000 Ang^3
#
#
#
# Elastic Constant Matrix: (Units=GPa)
#
#
# Indices 1 2 3 4 5 6 
#
# 1 100.4335 11.7073 42.5483 8.8634 -27.1836 28.7808
# 2 11.7073 40.5599 29.1314 -4.1581 -2.0310 22.0304
# 3 42.5483 29.1314 101.2008 -6.5728 -25.2189 21.0311
# 4 8.8634 -4.1581 -6.5728 28.8452 12.6584 7.0103
# 5 -27.1836 -2.0310 -25.2189 12.6584 39.4875 -0.3107
# 6 28.7808 22.0304 21.0311 7.0103 -0.3107 30.9139
#
#
#
# Elastic Compliance Matrix: (Units=1/GPa)
#
#
# Indices 1 2 3 4 5 6 
#
# 1 0.021440 0.007874 -0.003591 -0.007787 0.015200 -0.021210
# 2 0.007874 0.053814 -0.009819 0.014787 -0.003157 -0.042385
# 3 -0.003591 -0.009819 0.016187 0.000365 0.007238 -0.000682
# 4 -0.007787 0.014787 0.000365 0.052421 -0.021294 -0.015638
# 5 0.015200 -0.003157 0.007238 -0.021294 0.046985 -0.011525
# 6 -0.021210 -0.042385 -0.000682 -0.015638 -0.011525 0.086194
#
#
# Mechanical properties :
#
#
# Convention : Reuss Voigt Hill
#
# Bulk Modulus (GPa) = 12.44266 45.44090 28.94178
# Shear Modulus (GPa) = 15.87799 30.43646 23.15723
#
# Velocity S-wave (km/s) = 2.68138 3.71242 3.23820
# Velocity P-wave (km/s) = 3.90136 6.24118 5.20447
#
# Compressibility (1/GPa) = 0.08036867
#
# Stress axis : x y z
#
# Youngs Moduli (GPa) = 46.64274 18.58238 61.77934
#
# Poissons Ratio (x) = -0.14631 0.22182
# Poissons Ratio (y) = -0.36725 0.60662
# Poissons Ratio (z) = 0.16747 0.18246
#
# Static dielectric constant tensor:
#      x y z
#    x 1.867210 -0.034970 0.093190 
#    y -0.034970 1.871920 -0.044820 
#    z 0.093190 -0.044820 1.887330 
# 
# From -- ./inp_files/174803.got.cif
#   From: 2010.05.17/outbox.cif.g08.bks.cpg/sg2_88_cif.got.tgz:174803.got - 2010.06.03 11:33:40.
