data_PCOD9076746
_publ_section_title
;
Structure prediction by ZEFSAII (Michael W. Deem and Ramdas Pophale) SiO2 
 PCOD9076746
Probable space group: P -1
;
_chemical_formula_sum "Si O2"
_cell_formula_units_Z 16
_cell_length_a 8.885574
_cell_length_b 14.168733
_cell_length_c 13.946246
_cell_angle_alpha 137.551619
_cell_angle_beta 46.749074
_cell_angle_gamma 134.846285
_cell_volume 788.769713
_symmetry_space_group_name_H-M "P -1"
_symmetry_group_IT_number 2
_symmetry_cell_setting 'triclinic'
loop_
_space_group_symop_operation_xyz
x,y,z
-x,-y,-z
loop_
_atom_site_type_symbol
_atom_site_label
_atom_site_fract_x
_atom_site_fract_y
_atom_site_fract_z
Si Si1 0.216981 0.544186 0.501644
Si Si2 0.082250 0.565237 0.120134
Si Si3 0.368538 0.873469 0.741643
Si Si4 0.592849 0.810706 0.085014
Si Si5 0.969024 0.742346 0.980629
Si Si6 0.286396 0.007721 0.158213
Si Si7 0.278389 0.505142 0.651923
Si Si8 0.621825 0.719022 0.788358
O O1 0.359239 0.725960 0.577163
O O2 0.145246 0.504346 0.613509
O O3 0.334248 0.433133 0.334612
O O4 0.000000 0.500000 0.500000
O O5 0.327295 0.701727 0.123105
O O6 0.086369 0.426316 0.080372
O O7 0.892271 0.612456 0.288105
O O8 0.000000 0.500000 0.000000
O O9 0.605331 0.950017 0.752941
O O10 0.159645 0.807206 0.860456
O O11 0.348289 0.009875 0.792533
O O12 0.748161 0.756835 0.043873
O O13 0.642432 0.793051 0.937857
O O14 0.076357 0.853916 0.108181
O O15 0.229057 0.145959 0.245994
O O16 0.500000 0.000000 0.000000
O O17 0.500000 0.500000 0.500000
O O18 0.384438 0.655578 0.786103
#
# Coordination Sequence:
#
# PCOD9076746 Si02
#       8
#     2   2   2   2   2   2   2   2
#     4  11  23  36  63  95 128 170 225 272 322 389
#     4  12  23  41  65  98 136 174 218 280 338 391
#     4  11  21  39  63  93 133 175 224 269 327 392
#     4  12  24  37  63 100 137 166 216 284 342 377
#     4  11  22  37  60  96 135 170 215 276 331 395
#     4  10  18  33  59  88 129 164 218 269 322 374
#     4  10  21  41  63  92 126 175 220 262 319 409
#     4  11  20  36  61  96 125 168 219 270 318 394
#
# _framework density 20.284755000000001
#
# number of rings (size 3 to 8) (size 9 to 14) (size 15 to 20)
#    0.000    1.000    6.250    3.000    1.750    0.000 
#    0.000    0.000    0.000    6.750    0.000    0.000 
#    0.000    0.000    0.000    0.000    0.000    0.000 
#
# Total GULP energy -89088.252712 kJ/mol
# GULP energy per Si atom -5568.015794 kJ/mol
# Density = 2.023859 g / cm^3
# Si number density = 20.284755 Si / 1000 Ang^3
#
#
#
# Elastic Constant Matrix: (Units=GPa)
#
#
# Indices 1 2 3 4 5 6 
#
# 1 110.2566 22.5357 30.9725 -3.2364 2.8964 0.5020
# 2 22.5357 79.0628 21.7694 8.2648 -19.1064 -6.2867
# 3 30.9725 21.7694 63.9459 16.0078 -10.1434 -1.4963
# 4 -3.2364 8.2648 16.0078 35.4160 -4.3604 -3.6558
# 5 2.8964 -19.1064 -10.1434 -4.3604 28.7243 9.9016
# 6 0.5020 -6.2867 -1.4963 -3.6558 9.9016 31.9932
#
#
#
# Elastic Compliance Matrix: (Units=1/GPa)
#
#
# Indices 1 2 3 4 5 6 
#
# 1 0.011817 -0.003230 -0.006505 0.004220 -0.005345 0.001012
# 2 -0.003230 0.016879 -0.001988 -0.002053 0.010625 -0.000248
# 3 -0.006505 -0.001988 0.022970 -0.009930 0.006781 -0.002448
# 4 0.004220 -0.002053 -0.009930 0.033771 -0.001320 0.003333
# 5 -0.005345 0.010625 0.006781 -0.001320 0.049040 -0.012839
# 6 0.001012 -0.000248 -0.002448 0.003333 -0.012839 0.035432
#
#
# Mechanical properties :
#
#
# Convention : Reuss Voigt Hill
#
# Bulk Modulus (GPa) = 35.43569 44.86892 40.15231
# Shear Modulus (GPa) = 24.65975 31.09254 27.87615
#
# Velocity S-wave (km/s) = 3.49044 3.91935 3.71110
# Velocity P-wave (km/s) = 5.80959 6.53064 6.18064
#
# Compressibility (1/GPa) = 0.02822014
#
# Stress axis : x y z
#
# Youngs Moduli (GPa) = 84.62569 59.24667 43.53513
#
# Poissons Ratio (x) = 0.19134 0.28318
# Poissons Ratio (y) = 0.27330 0.08657
# Poissons Ratio (z) = 0.55046 0.11781
#
# Static dielectric constant tensor:
#      x y z
#    x 2.298420 -0.028050 0.010840 
#    y -0.028050 1.768570 -0.013340 
#    z 0.010840 -0.013340 1.842930 
# 
# From -- ./inp_files/504351.got.cif
#   From: 2010.05.17/outbox.cif.g08.bks.cpg/sg2_253_cif.got.tgz:504351.got - 2010.06.03 11:33:40.
