data_PCOD9076570
_publ_section_title
;
Structure prediction by ZEFSAII (Michael W. Deem and Ramdas Pophale) SiO2 
 PCOD9076570
Probable space group: P -1
;
_chemical_formula_sum "Si O2"
_cell_formula_units_Z 16
_cell_length_a 17.252273
_cell_length_b 11.567040
_cell_length_c 21.794003
_cell_angle_alpha 26.232547
_cell_angle_beta 158.022877
_cell_angle_gamma 142.414969
_cell_volume 698.751294
_symmetry_space_group_name_H-M "P -1"
_symmetry_group_IT_number 2
_symmetry_cell_setting 'triclinic'
loop_
_space_group_symop_operation_xyz
x,y,z
-x,-y,-z
loop_
_atom_site_type_symbol
_atom_site_label
_atom_site_fract_x
_atom_site_fract_y
_atom_site_fract_z
Si Si1 0.865320 0.206467 0.387282
Si Si2 0.890589 0.724634 0.733845
Si Si3 0.471382 0.637774 0.681845
Si Si4 0.936087 0.524853 0.511195
Si Si5 0.277534 0.580856 0.336090
Si Si6 0.535463 0.110845 0.578474
Si Si7 0.295671 0.099402 0.673477
Si Si8 0.699721 0.133203 0.032511
O O1 0.869585 0.477336 0.298669
O O2 0.085483 0.144363 0.539631
O O3 0.856139 0.974257 0.541078
O O4 0.689356 0.174095 0.223983
O O5 0.892528 0.452881 0.825492
O O6 0.693883 0.791796 0.603611
O O7 0.114378 0.742454 0.919349
O O8 0.223454 0.659131 0.503372
O O9 0.473047 0.731455 0.567553
O O10 0.563900 0.808878 0.718108
O O11 0.608977 0.332197 0.927023
O O12 0.000000 0.500000 0.500000
O O13 0.798451 0.831136 0.269222
O O14 0.500000 0.500000 0.500000
O O15 0.296757 0.829186 0.276296
O O16 0.261460 0.350019 0.482459
O O17 0.507450 0.116273 0.855754
#
# Coordination Sequence:
#
# PCOD9076570 Si02
#       8
#     2   2   2   2   2   2   2   2
#     4   9  18  33  57  81 111 145 187 227 284 339
#     4   9  20  33  56  84 112 148 187 232 282 334
#     4  11  21  34  58  84 114 148 190 236 275 336
#     4  11  22  38  59  85 116 148 186 237 293 337
#     4   9  17  35  55  79 112 154 188 222 279 346
#     4  10  20  37  56  82 114 154 192 225 281 339
#     4  10  18  33  57  87 108 146 191 233 276 335
#     4  11  21  36  58  89 112 142 195 240 281 329
#
# _framework density 22.897991000000001
#
# number of rings (size 3 to 8) (size 9 to 14) (size 15 to 20)
#    0.000    2.000    2.500    1.875    1.750    0.500 
#    0.000    1.250    0.000    0.000    3.250    0.000 
#    0.000    0.000    0.000    0.000    0.000    0.000 
#
# Total GULP energy -89196.955071 kJ/mol
# GULP energy per Si atom -5574.809692 kJ/mol
# Density = 2.284587 g / cm^3
# Si number density = 22.897991 Si / 1000 Ang^3
#
#
#
# Elastic Constant Matrix: (Units=GPa)
#
#
# Indices 1 2 3 4 5 6 
#
# 1 144.1575 47.3203 11.9621 10.8368 23.7020 5.0040
# 2 47.3203 137.6337 20.4460 26.5295 7.7813 -23.9547
# 3 11.9621 20.4460 23.6242 10.2071 4.0458 -3.6286
# 4 10.8368 26.5295 10.2071 34.4949 4.5650 3.8088
# 5 23.7020 7.7813 4.0458 4.5650 16.7976 7.2267
# 6 5.0040 -23.9547 -3.6286 3.8088 7.2267 45.2776
#
#
#
# Elastic Compliance Matrix: (Units=1/GPa)
#
#
# Indices 1 2 3 4 5 6 
#
# 1 0.009972 -0.002954 -0.001008 0.001175 -0.012407 -0.000864
# 2 -0.002954 0.011585 -0.004068 -0.007386 -0.001198 0.006942
# 3 -0.001008 -0.004068 0.053602 -0.011815 -0.008365 0.004584
# 4 0.001175 -0.007386 -0.011815 0.039010 -0.002615 -0.007849
# 5 -0.012407 -0.001198 -0.008365 -0.002615 0.086109 -0.013457
# 6 -0.000864 0.006942 0.004584 -0.007849 -0.013457 0.029030
#
#
# Mechanical properties :
#
#
# Convention : Reuss Voigt Hill
#
# Bulk Modulus (GPa) = 16.92091 51.65248 34.28669
# Shear Modulus (GPa) = 18.86304 34.35980 26.61142
#
# Velocity S-wave (km/s) = 2.87328 3.87791 3.41276
# Velocity P-wave (km/s) = 4.29108 6.53127 5.52589
#
# Compressibility (1/GPa) = 0.05909848
#
# Stress axis : x y z
#
# Youngs Moduli (GPa) = 100.28286 86.31491 18.65597
#
# Poissons Ratio (x) = 0.25499 0.01881
# Poissons Ratio (y) = 0.29625 0.07590
# Poissons Ratio (z) = 0.10110 0.35114
#
# Static dielectric constant tensor:
#      x y z
#    x 1.915280 -0.047980 -0.025430 
#    y -0.047980 1.979700 0.023310 
#    z -0.025430 0.023310 1.898250 
# 
# From -- ./inp_files/332102.got.cif
#   From: 2010.05.17/outbox.cif.g08.bks.cpg/sg2_167_cif.got.tgz:332102.got - 2010.06.03 11:33:40.
