data_PCOD9076475
_publ_section_title
;
Structure prediction by ZEFSAII (Michael W. Deem and Ramdas Pophale) SiO2 
 PCOD9076475
Probable space group: P -1
;
_chemical_formula_sum "Si O2"
_cell_formula_units_Z 16
_cell_length_a 7.630961
_cell_length_b 12.064996
_cell_length_c 14.270908
_cell_angle_alpha 125.732050
_cell_angle_beta 49.186581
_cell_angle_gamma 90.567616
_cell_volume 642.628754
_symmetry_space_group_name_H-M "P -1"
_symmetry_group_IT_number 2
_symmetry_cell_setting 'triclinic'
loop_
_space_group_symop_operation_xyz
x,y,z
-x,-y,-z
loop_
_atom_site_type_symbol
_atom_site_label
_atom_site_fract_x
_atom_site_fract_y
_atom_site_fract_z
Si Si1 0.203878 0.101706 0.987559
Si Si2 0.817420 0.742189 0.646963
Si Si3 0.021256 0.925637 0.770205
Si Si4 0.383078 0.027546 0.674106
Si Si5 0.745544 0.451071 0.317196
Si Si6 0.081001 0.615672 0.077191
Si Si7 0.085619 0.309762 0.627660
Si Si8 0.560924 0.326998 0.147335
O O1 0.968920 0.102745 0.134431
O O2 0.083333 0.296471 0.147977
O O3 0.237644 0.088396 0.857877
O O4 0.512661 0.934011 0.830646
O O5 0.997398 0.785021 0.665895
O O6 0.964812 0.674713 0.459295
O O7 0.720419 0.642891 0.690310
O O8 0.268888 0.920859 0.629025
O O9 0.745192 0.125685 0.954758
O O10 0.216502 0.193626 0.749974
O O11 0.721278 0.892572 0.512682
O O12 0.500000 0.500000 0.500000
O O13 0.729303 0.616954 0.391587
O O14 0.681402 0.376340 0.215271
O O15 0.126661 0.596024 0.163414
O O16 0.000000 0.500000 0.000000
O O17 0.357966 0.596338 0.926578
#
# Coordination Sequence:
#
# PCOD9076475 Si02
#       8
#     2   2   2   2   2   2   2   2
#     4  10  18  33  56  85 111 149 188 239 286 333
#     4  10  22  37  60  86 118 153 193 234 289 350
#     4  10  19  35  60  86 114 155 192 233 290 349
#     4  10  20  35  59  86 117 147 196 242 284 337
#     4  12  20  32  56  87 117 147 186 242 293 330
#     4  11  20  35  58  89 116 150 189 244 288 338
#     4  11  22  36  58  89 119 149 192 240 290 338
#     4  10  19  34  55  83 114 145 191 231 289 327
#
# _framework density 24.897735000000001
#
# number of rings (size 3 to 8) (size 9 to 14) (size 15 to 20)
#    0.000    1.500    5.000    3.000    1.750    0.000 
#    0.000    3.125    2.750    1.500    0.000   30.625 
#    0.000    0.000    0.000    0.000    0.000    0.000 
#
# Total GULP energy -89097.724604 kJ/mol
# GULP energy per Si atom -5568.607788 kJ/mol
# Density = 2.484107 g / cm^3
# Si number density = 24.897735 Si / 1000 Ang^3
#
#
#
# Elastic Constant Matrix: (Units=GPa)
#
#
# Indices 1 2 3 4 5 6 
#
# 1 60.1110 34.6843 36.8159 -10.7297 32.2509 2.3219
# 2 34.6843 129.9222 52.3059 -22.1806 21.3330 -3.5081
# 3 36.8159 52.3059 120.5478 -31.3697 22.1036 -5.4217
# 4 -10.7297 -22.1806 -31.3697 50.3662 -11.2327 7.8210
# 5 32.2509 21.3330 22.1036 -11.2327 49.6983 4.6653
# 6 2.3219 -3.5081 -5.4217 7.8210 4.6653 32.2163
#
#
#
# Elastic Compliance Matrix: (Units=1/GPa)
#
#
# Indices 1 2 3 4 5 6 
#
# 1 0.030297 -0.003681 -0.005227 -0.001916 -0.016127 -0.000664
# 2 -0.003681 0.010165 -0.002712 0.001831 -0.000404 0.000530
# 3 -0.005227 -0.002712 0.012477 0.005360 0.000138 0.000860
# 4 -0.001916 0.001831 0.005360 0.025423 0.004341 -0.005561
# 5 -0.016127 -0.000404 0.000138 0.004341 0.032108 -0.004562
# 6 -0.000664 0.000530 0.000860 -0.005561 -0.004562 0.033301
#
#
# Mechanical properties :
#
#
# Convention : Reuss Voigt Hill
#
# Bulk Modulus (GPa) = 33.67134 62.02148 47.84641
# Shear Modulus (GPa) = 28.26282 38.90781 33.58531
#
# Velocity S-wave (km/s) = 3.37286 3.95739 3.67676
# Velocity P-wave (km/s) = 5.35924 6.77096 6.10604
#
# Compressibility (1/GPa) = 0.02969885
#
# Stress axis : x y z
#
# Youngs Moduli (GPa) = 33.00626 98.38065 80.14810
#
# Poissons Ratio (x) = 0.36212 0.41895
# Poissons Ratio (y) = 0.12149 0.21736
# Poissons Ratio (z) = 0.17253 0.26680
#
# Static dielectric constant tensor:
#      x y z
#    x 2.079080 -0.020060 -0.070250 
#    y -0.020060 2.001780 0.012800 
#    z -0.070250 0.012800 2.047440 
# 
# From -- ./inp_files/187641.got.cif
#   From: 2010.05.17/outbox.cif.g08.bks.cpg/sg2_94_cif.got.tgz:187641.got - 2010.06.03 11:33:40.
