data_PCOD9076096
_publ_section_title
;
Structure prediction by ZEFSAII (Michael W. Deem and Ramdas Pophale) SiO2 
 PCOD9076096
Probable space group: P -1
;
_chemical_formula_sum "Si O2"
_cell_formula_units_Z 16
_cell_length_a 20.600409
_cell_length_b 9.612315
_cell_length_c 12.404908
_cell_angle_alpha 128.876635
_cell_angle_beta 24.841037
_cell_angle_gamma 138.924228
_cell_volume 663.710481
_symmetry_space_group_name_H-M "P -1"
_symmetry_group_IT_number 2
_symmetry_cell_setting 'triclinic'
loop_
_space_group_symop_operation_xyz
x,y,z
-x,-y,-z
loop_
_atom_site_type_symbol
_atom_site_label
_atom_site_fract_x
_atom_site_fract_y
_atom_site_fract_z
Si Si1 0.843288 0.875373 0.391710
Si Si2 0.080962 0.904756 0.408458
Si Si3 0.567803 0.304638 0.042019
Si Si4 0.516763 0.140817 0.816940
Si Si5 0.492387 0.240201 0.477421
Si Si6 0.921499 0.479143 0.726125
Si Si7 0.419123 0.577517 0.343238
Si Si8 0.178565 0.284096 0.875644
O O1 0.963057 0.065857 0.387928
O O2 0.776286 0.649153 0.443677
O O3 0.910298 0.866973 0.168651
O O4 0.643993 0.847664 0.669020
O O5 0.028450 0.665056 0.353238
O O6 0.303965 0.052282 0.126423
O O7 0.000000 0.000000 0.500000
O O8 0.612758 0.216475 0.826308
O O9 0.702418 0.352225 0.961008
O O10 0.566593 0.508720 0.099772
O O11 0.583704 0.332581 0.723931
O O12 0.520407 0.955581 0.659522
O O13 0.523521 0.249802 0.563868
O O14 0.308492 0.235534 0.724165
O O15 0.669542 0.474947 0.285769
O O16 0.000000 0.500000 0.500000
O O17 0.961699 0.685259 0.829529
#
# Coordination Sequence:
#
# PCOD9076096 Si02
#       8
#     2   2   2   2   2   2   2   2
#     4   8  20  37  66  85 118 147 196 249 298 339
#     4  11  26  39  59  89 124 162 195 242 296 361
#     4   9  20  36  60  91 112 154 195 246 290 343
#     4  11  21  33  63  90 124 148 199 245 297 349
#     4  10  18  32  60  92 117 147 193 252 295 343
#     4  12  25  41  62  85 120 164 201 240 298 358
#     4   9  18  34  56  91 120 152 183 246 301 343
#     4  10  18  38  59  86 115 149 199 251 296 339
#
# _framework density 24.106895999999999
#
# number of rings (size 3 to 8) (size 9 to 14) (size 15 to 20)
#    0.750    1.250    2.500    1.500    3.500    1.000 
#    0.000    1.250    5.500    0.000    0.000    0.000 
#    0.000    0.000    0.000    0.000    0.000    0.000 
#
# Total GULP energy -89451.662921 kJ/mol
# GULP energy per Si atom -5590.728933 kJ/mol
# Density = 2.405203 g / cm^3
# Si number density = 24.106896 Si / 1000 Ang^3
#
#
#
# Elastic Constant Matrix: (Units=GPa)
#
#
# Indices 1 2 3 4 5 6 
#
# 1 82.6467 34.2703 47.4733 30.2224 24.9111 -7.0323
# 2 34.2703 90.8474 31.9544 33.9865 2.9400 -6.9201
# 3 47.4733 31.9544 110.1986 32.4703 31.9356 3.8354
# 4 30.2224 33.9865 32.4703 49.2614 7.0195 7.0356
# 5 24.9111 2.9400 31.9356 7.0195 44.8948 9.0835
# 6 -7.0323 -6.9201 3.8354 7.0356 9.0835 37.5456
#
#
#
# Elastic Compliance Matrix: (Units=1/GPa)
#
#
# Indices 1 2 3 4 5 6 
#
# 1 0.022322 -0.002805 -0.003499 -0.009202 -0.009923 0.008146
# 2 -0.002805 0.016355 -0.001556 -0.009413 0.002284 0.003859
# 3 -0.003499 -0.001556 0.014915 -0.005566 -0.007789 0.000462
# 4 -0.009202 -0.009413 -0.005566 0.036837 0.006208 -0.011295
# 5 -0.009923 0.002284 -0.007789 0.006208 0.034242 -0.010089
# 6 0.008146 0.003859 0.000462 -0.011295 -0.010089 0.033382
#
#
# Mechanical properties :
#
#
# Convention : Reuss Voigt Hill
#
# Bulk Modulus (GPa) = 26.40663 56.78763 41.59713
# Shear Modulus (GPa) = 26.82435 37.67335 32.24885
#
# Velocity S-wave (km/s) = 3.33937 3.95747 3.66149
# Velocity P-wave (km/s) = 5.08393 6.67007 5.93027
#
# Compressibility (1/GPa) = 0.03786928
#
# Stress axis : x y z
#
# Youngs Moduli (GPa) = 44.79847 61.14435 67.04842
#
# Poissons Ratio (x) = 0.17154 0.23462
# Poissons Ratio (y) = 0.12568 0.10435
# Poissons Ratio (z) = 0.15676 0.09516
#
# Static dielectric constant tensor:
#      x y z
#    x 1.884440 0.036600 0.022610 
#    y 0.036600 2.028030 -0.030300 
#    z 0.022610 -0.030300 1.966900 
# 
# From -- ./inp_files/262138.got.cif
#   From: 2010.05.17/outbox.cif.g08.bks.cpg/sg2_132_cif.got.tgz:262138.got - 2010.06.03 11:33:40.
