data_PCOD9076959
_publ_section_title
;
Structure prediction by ZEFSAII (Michael W. Deem and Ramdas Pophale) SiO2 
 PCOD9076959
Probable space group: P -1
;
_chemical_formula_sum "Si O2"
_cell_formula_units_Z 16
_cell_length_a 12.291306
_cell_length_b 20.270951
_cell_length_c 15.449511
_cell_angle_alpha 42.555237
_cell_angle_beta 163.258371
_cell_angle_gamma 135.573280
_cell_volume 749.145750
_symmetry_space_group_name_H-M "P -1"
_symmetry_group_IT_number 2
_symmetry_cell_setting 'triclinic'
loop_
_space_group_symop_operation_xyz
x,y,z
-x,-y,-z
loop_
_atom_site_type_symbol
_atom_site_label
_atom_site_fract_x
_atom_site_fract_y
_atom_site_fract_z
Si Si1 0.655259 0.318814 0.668011
Si Si2 0.692547 0.157000 0.367017
Si Si3 0.633410 0.959472 0.923716
Si Si4 0.675339 0.799523 0.625274
Si Si5 0.440709 0.520093 0.334881
Si Si6 0.735520 0.084748 0.147272
Si Si7 0.745394 0.723471 0.422122
Si Si8 0.691469 0.899770 0.713973
O O1 0.579431 0.261187 0.577717
O O2 0.667833 0.434352 0.546553
O O3 0.314489 0.299859 0.498181
O O4 0.018315 0.276087 0.032261
O O5 0.394630 0.172706 0.201368
O O6 0.060125 0.116668 0.734498
O O7 0.843999 0.242441 0.335228
O O8 0.507800 0.073275 0.245749
O O9 0.285951 0.945150 0.739619
O O10 0.876896 0.061795 0.011402
O O11 0.527782 0.851013 0.549236
O O12 0.891955 0.883959 0.651903
O O13 0.500000 0.500000 0.500000
O O14 0.585458 0.632380 0.330654
O O15 0.000000 0.500000 0.000000
O O16 0.507145 0.183617 0.871937
O O17 0.500000 0.000000 0.000000
O O18 0.500000 0.000000 0.500000
#
# Coordination Sequence:
#
# PCOD9076959 Si02
#       8
#     2   2   2   2   2   2   2   2
#     4  10  21  37  58  86 111 142 184 237 292 334
#     4  10  21  35  55  76 110 143 192 230 267 323
#     4  10  20  36  52  77 107 150 189 228 267 326
#     4  11  22  37  56  83 115 149 187 234 285 335
#     4  10  19  35  61  86 116 144 182 232 285 346
#     4  10  18  34  52  82 116 145 177 223 281 334
#     4   9  20  36  56  87 115 148 183 226 284 343
#     4  10  22  39  56  78 110 157 200 232 270 330
#
# _framework density 21.357658000000001
#
# number of rings (size 3 to 8) (size 9 to 14) (size 15 to 20)
#    0.000    2.000    1.250    3.375    0.000    7.000 
#    0.000    2.500    0.000    1.500    0.000    0.000 
#    0.000    0.000    0.000    0.000    0.000    0.000 
#
# Total GULP energy -89329.735733 kJ/mol
# GULP energy per Si atom -5583.108483 kJ/mol
# Density = 2.130905 g / cm^3
# Si number density = 21.357658 Si / 1000 Ang^3
#
#
#
# Elastic Constant Matrix: (Units=GPa)
#
#
# Indices 1 2 3 4 5 6 
#
# 1 127.6943 26.6166 7.3625 5.9508 -0.2504 -15.4014
# 2 26.6166 142.3868 20.9030 -6.4347 -6.4988 -20.5673
# 3 7.3625 20.9030 74.5301 -1.4018 -9.0795 -4.3010
# 4 5.9508 -6.4347 -1.4018 31.7102 -2.1131 -1.7329
# 5 -0.2504 -6.4988 -9.0795 -2.1131 25.8307 5.4315
# 6 -15.4014 -20.5673 -4.3010 -1.7329 5.4315 30.6098
#
#
#
# Elastic Compliance Matrix: (Units=1/GPa)
#
#
# Indices 1 2 3 4 5 6 
#
# 1 0.008617 -0.001152 -0.000510 -0.001761 -0.001291 0.003619
# 2 -0.001152 0.008319 -0.001830 0.002124 0.000610 0.004765
# 3 -0.000510 -0.001830 0.014559 0.000672 0.004759 -0.000247
# 4 -0.001761 0.002124 0.000672 0.032634 0.003013 0.001948
# 5 -0.001291 0.000610 0.004759 0.003013 0.042223 -0.006892
# 6 0.003619 0.004765 -0.000247 0.001948 -0.006892 0.038991
#
#
# Mechanical properties :
#
#
# Convention : Reuss Voigt Hill
#
# Bulk Modulus (GPa) = 40.79604 50.48616 45.64110
# Shear Modulus (GPa) = 31.15320 36.94540 34.04930
#
# Velocity S-wave (km/s) = 3.82336 4.16365 3.99713
# Velocity P-wave (km/s) = 6.21560 6.84137 6.53598
#
# Compressibility (1/GPa) = 0.02451218
#
# Stress axis : x y z
#
# Youngs Moduli (GPa) = 116.05331 120.20292 68.68515
#
# Poissons Ratio (x) = 0.13843 0.03501
# Poissons Ratio (y) = 0.13365 0.12571
# Poissons Ratio (z) = 0.05915 0.21999
#
# Static dielectric constant tensor:
#      x y z
#    x 1.840050 0.024770 0.042140 
#    y 0.024770 1.826350 -0.060330 
#    z 0.042140 -0.060330 1.886460 
# 
# From -- ./inp_files/118178.got.cif
#   From: 2010.05.17/outbox.cif.g08.bks.cpg/sg2_60_cif.got.tgz:118178.got - 2010.06.03 11:33:40.
