data_PCOD9076855
_publ_section_title
;
Structure prediction by ZEFSAII (Michael W. Deem and Ramdas Pophale) SiO2 
 PCOD9076855
Probable space group: P -1
;
_chemical_formula_sum "Si O2"
_cell_formula_units_Z 14
_cell_length_a 9.153964
_cell_length_b 8.564395
_cell_length_c 8.422349
_cell_angle_alpha 106.586989
_cell_angle_beta 68.348981
_cell_angle_gamma 89.848229
_cell_volume 583.836574
_symmetry_space_group_name_H-M "P -1"
_symmetry_group_IT_number 2
_symmetry_cell_setting 'triclinic'
loop_
_space_group_symop_operation_xyz
x,y,z
-x,-y,-z
loop_
_atom_site_type_symbol
_atom_site_label
_atom_site_fract_x
_atom_site_fract_y
_atom_site_fract_z
Si Si1 0.849100 0.582606 0.683775
Si Si2 0.380924 0.893299 0.103695
Si Si3 0.890111 0.358375 0.178490
Si Si4 0.814301 0.026441 0.071993
Si Si5 0.584654 0.802052 0.265950
Si Si6 0.283473 0.558507 0.019349
Si Si7 0.365868 0.374958 0.501375
O O1 0.765135 0.452289 0.781810
O O2 0.708956 0.667691 0.651466
O O3 0.000000 0.500000 0.500000
O O4 0.939866 0.672836 0.812998
O O5 0.423692 0.880802 0.267408
O O6 0.392871 0.701902 0.992597
O O7 0.222741 0.968721 0.100746
O O8 0.500000 0.000000 0.000000
O O9 0.784163 0.211125 0.208528
O O10 0.790573 0.521775 0.331200
O O11 0.875938 0.385225 0.002525
O O12 0.717336 0.908379 0.177082
O O13 0.000000 0.000000 0.000000
O O14 0.581707 0.777138 0.447987
O O15 0.632895 0.616518 0.124242
O O16 0.500000 0.500000 0.500000
#
# Coordination Sequence:
#
# PCOD9076855 Si02
#       7
#     2   2   2   2   2   2   2
#     4  10  20  33  53  82 114 146 181 224 276 332
#     4   9  19  33  53  84 112 137 179 235 281 321
#     4   9  20  37  57  83 112 145 188 234 278 329
#     4  10  20  35  56  84 114 143 184 239 281 321
#     4  10  20  36  58  84 109 145 191 230 275 334
#     4  10  18  33  61  86 107 143 189 235 277 329
#     4  10  21  37  57  83 115 147 183 231 281 336
#
# _framework density 23.979312
#
# number of rings (size 3 to 8) (size 9 to 14) (size 15 to 20)
#    0.000    2.286    0.000    2.571    0.000    8.000 
#    0.000    2.857    0.000   15.429    0.000    0.000 
#    0.000    0.000    0.000    0.000    0.000    0.000 
#
# Total GULP energy -78007.596756 kJ/mol
# GULP energy per Si atom -5571.971197 kJ/mol
# Density = 2.392473 g / cm^3
# Si number density = 23.979312 Si / 1000 Ang^3
#
#
#
# Elastic Constant Matrix: (Units=GPa)
#
#
# Indices 1 2 3 4 5 6 
#
# 1 192.3123 33.3715 62.8789 -34.6777 67.8739 -6.8259
# 2 33.3715 121.0457 30.9436 -26.4681 22.8903 14.1298
# 3 62.8789 30.9436 85.1091 -29.9170 33.7132 -12.8001
# 4 -34.6777 -26.4681 -29.9170 39.6678 -18.4120 5.5581
# 5 67.8739 22.8903 33.7132 -18.4120 57.6413 -9.2717
# 6 -6.8259 14.1298 -12.8001 5.5581 -9.2717 33.2535
#
#
#
# Elastic Compliance Matrix: (Units=1/GPa)
#
#
# Indices 1 2 3 4 5 6 
#
# 1 0.009931 0.000830 -0.003276 0.002643 -0.009700 -0.002722
# 2 0.000830 0.011521 -0.002483 0.006031 -0.003402 -0.007637
# 3 -0.003276 -0.002483 0.020222 0.008345 -0.003380 0.005829
# 4 0.002643 0.006031 0.008345 0.039146 0.001315 -0.004985
# 5 -0.009700 -0.003402 -0.003380 0.001315 0.033698 0.007329
# 6 -0.002722 -0.007637 0.005829 -0.004985 0.007329 0.037879
#
#
# Mechanical properties :
#
#
# Convention : Reuss Voigt Hill
#
# Bulk Modulus (GPa) = 31.43185 72.53944 51.98564
# Shear Modulus (GPa) = 28.92516 44.19740 36.56128
#
# Velocity S-wave (km/s) = 3.47689 4.29785 3.90898
# Velocity P-wave (km/s) = 5.40876 7.41250 6.48844
#
# Compressibility (1/GPa) = 0.03181487
#
# Stress axis : x y z
#
# Youngs Moduli (GPa) = 100.69756 86.79873 49.45185
#
# Poissons Ratio (x) = -0.07202 0.16202
# Poissons Ratio (y) = -0.08355 0.12277
# Poissons Ratio (z) = 0.32991 0.21549
#
# Static dielectric constant tensor:
#      x y z
#    x 1.997860 -0.013290 0.099120 
#    y -0.013290 2.032570 0.056990 
#    z 0.099120 0.056990 1.978790 
# 
# From -- ./inp_files/154023.got.cif
#   From: 2010.05.17/outbox.cif.g08.bks.cpg/sg2_78_cif.got.tgz:154023.got - 2010.06.03 11:33:40.
