data_PCOD9076088
_publ_section_title
;
Structure prediction by ZEFSAII (Michael W. Deem and Ramdas Pophale) SiO2 
 PCOD9076088
Probable space group: P -1
;
_chemical_formula_sum "Si O2"
_cell_formula_units_Z 16
_cell_length_a 30.774839
_cell_length_b 9.668167
_cell_length_c 5.731289
_cell_angle_alpha 82.843281
_cell_angle_beta 89.375182
_cell_angle_gamma 23.912759
_cell_volume 662.970647
_symmetry_space_group_name_H-M "P -1"
_symmetry_group_IT_number 2
_symmetry_cell_setting 'triclinic'
loop_
_space_group_symop_operation_xyz
x,y,z
-x,-y,-z
loop_
_atom_site_type_symbol
_atom_site_label
_atom_site_fract_x
_atom_site_fract_y
_atom_site_fract_z
Si Si1 0.690526 0.607454 0.444563
Si Si2 0.198304 0.754969 0.977201
Si Si3 0.346325 0.007586 0.811185
Si Si4 0.616148 0.511578 0.443432
Si Si5 0.809306 0.749315 0.355172
Si Si6 0.768345 0.054383 0.906731
Si Si7 0.524508 0.307895 0.727491
Si Si8 0.036191 0.521750 0.327650
O O1 0.749748 0.437034 0.731390
O O2 0.628153 0.643381 0.402855
O O3 0.619091 0.958212 0.343526
O O4 0.767191 0.400809 0.250491
O O5 0.231748 0.818953 0.942320
O O6 0.065463 0.139423 0.903893
O O7 0.429749 0.631699 0.852827
O O8 0.233301 0.282331 0.646584
O O9 0.359474 0.008973 0.081964
O O10 0.503814 0.768818 0.315221
O O11 0.713182 0.131485 0.395908
O O12 0.647706 0.390012 0.736465
O O13 0.920341 0.472980 0.531352
O O14 0.813009 0.785003 0.079072
O O15 0.857636 0.837999 0.753778
O O16 0.500000 0.500000 0.500000
O O17 0.000000 0.500000 0.500000
#
# Coordination Sequence:
#
# PCOD9076088 Si02
#       8
#     2   2   2   2   2   2   2   2
#     4  11  24  42  62  90 131 169 200 252 318 376
#     4  11  22  38  61  90 130 165 206 257 310 361
#     4  10  24  41  61  90 119 162 201 256 316 374
#     4   9  19  36  59  92 119 160 201 256 310 364
#     4  10  19  36  59  85 121 156 213 254 305 355
#     4  10  18  32  60  90 119 159 206 260 303 352
#     4  10  21  41  68  89 119 152 213 258 306 374
#     4  11  20  33  58  95 122 158 216 265 298 351
#
# _framework density 24.133800999999998
#
# number of rings (size 3 to 8) (size 9 to 14) (size 15 to 20)
#    0.000    1.750    2.500    2.625    3.500    0.500 
#    0.000    1.875    0.000    0.000    0.000    0.000 
#    0.000    0.000    0.000    0.000    0.000    0.000 
#
# Total GULP energy -89139.535792 kJ/mol
# GULP energy per Si atom -5571.220987 kJ/mol
# Density = 2.407887 g / cm^3
# Si number density = 24.133801 Si / 1000 Ang^3
#
#
#
# Elastic Constant Matrix: (Units=GPa)
#
#
# Indices 1 2 3 4 5 6 
#
# 1 150.7835 23.7819 85.2477 -10.6010 38.6947 17.7719
# 2 23.7819 51.0695 23.4497 6.4878 10.2031 7.2579
# 3 85.2477 23.4497 115.0745 -16.1506 25.2536 -0.1623
# 4 -10.6010 6.4878 -16.1506 30.6139 -6.1910 -1.8774
# 5 38.6947 10.2031 25.2536 -6.1910 50.7674 -4.1235
# 6 17.7719 7.2579 -0.1623 -1.8774 -4.1235 25.9428
#
#
#
# Elastic Compliance Matrix: (Units=1/GPa)
#
#
# Indices 1 2 3 4 5 6 
#
# 1 0.015947 0.001378 -0.010646 -0.002908 -0.008542 -0.012945
# 2 0.001378 0.025582 -0.006569 -0.009998 -0.004927 -0.009648
# 3 -0.010646 -0.006569 0.018695 0.008600 0.002011 0.010190
# 4 -0.002908 -0.009998 0.008600 0.039958 0.005520 0.008612
# 5 -0.008542 -0.004927 0.002011 0.005520 0.027851 0.012069
# 6 -0.012945 -0.009648 0.010190 0.008612 0.012069 0.052718
#
#
# Mechanical properties :
#
#
# Convention : Reuss Voigt Hill
#
# Bulk Modulus (GPa) = 35.02781 64.65400 49.84090
# Shear Modulus (GPa) = 22.52823 33.76136 28.14479
#
# Velocity S-wave (km/s) = 3.05859 3.74428 3.41867
# Velocity P-wave (km/s) = 5.19796 6.74839 6.02327
#
# Compressibility (1/GPa) = 0.02854874
#
# Stress axis : x y z
#
# Youngs Moduli (GPa) = 62.70762 39.09055 53.48889
#
# Poissons Ratio (x) = -0.05386 0.56945
# Poissons Ratio (y) = -0.08640 0.35139
# Poissons Ratio (z) = 0.66760 0.25680
#
# Static dielectric constant tensor:
#      x y z
#    x 1.955380 0.021580 0.027660 
#    y 0.021580 2.053640 0.101670 
#    z 0.027660 0.101670 2.090860 
# 
# From -- ./inp_files/81544.got.cif
#   From: 2010.05.17/outbox.cif.g08.bks.cpg/sg2_41_cif.got.tgz:81544.got - 2010.06.03 11:33:40.
