data_PCOD9076055
_publ_section_title
;
Structure prediction by ZEFSAII (Michael W. Deem and Ramdas Pophale) SiO2 
 PCOD9076055
Probable space group: P -1
;
_chemical_formula_sum "Si O2"
_cell_formula_units_Z 16
_cell_length_a 8.697506
_cell_length_b 18.470775
_cell_length_c 11.996854
_cell_angle_alpha 131.732642
_cell_angle_beta 136.897674
_cell_angle_gamma 82.240573
_cell_volume 712.878393
_symmetry_space_group_name_H-M "P -1"
_symmetry_group_IT_number 2
_symmetry_cell_setting 'triclinic'
loop_
_space_group_symop_operation_xyz
x,y,z
-x,-y,-z
loop_
_atom_site_type_symbol
_atom_site_label
_atom_site_fract_x
_atom_site_fract_y
_atom_site_fract_z
Si Si1 0.709062 0.542686 0.452057
Si Si2 0.427541 0.675346 0.719228
Si Si3 0.026155 0.863279 0.091237
Si Si4 0.280139 0.744339 0.126405
Si Si5 0.044738 0.804851 0.798355
Si Si6 0.938952 0.894244 0.610645
Si Si7 0.686846 0.948376 0.223663
Si Si8 0.101931 0.478544 0.143563
O O1 0.642147 0.408312 0.292367
O O2 0.401904 0.503065 0.296819
O O3 0.848167 0.644990 0.526701
O O4 0.989136 0.639946 0.786299
O O5 0.191623 0.578202 0.394870
O O6 0.481890 0.802775 0.908770
O O7 0.758264 0.746340 0.913202
O O8 0.295109 0.865007 0.262339
O O9 0.041328 0.983070 0.238146
O O10 0.928326 0.820268 0.866182
O O11 0.577653 0.777799 0.270639
O O12 0.182723 0.671097 0.117406
O O13 0.999064 0.853692 0.713432
O O14 0.419832 0.910528 0.122522
O O15 0.178083 0.940999 0.686619
O O16 0.000000 0.000000 0.500000
O O17 0.000000 0.500000 0.000000
#
# Coordination Sequence:
#
# PCOD9076055 Si02
#       8
#     2   2   2   2   2   2   2   2
#     4  10  19  38  62  89 126 154 205 255 303 366
#     4  10  20  40  64  93 122 162 208 250 301 369
#     4  10  19  37  62  88 123 159 210 254 305 369
#     4  10  18  32  59  88 120 158 195 253 304 357
#     4  11  22  39  60  89 128 162 199 264 314 354
#     4  11  23  38  60  90 123 161 209 260 310 358
#     4  11  25  44  64  85 124 173 211 248 300 373
#     4  11  19  34  61  96 129 150 194 263 315 355
#
# _framework density 22.444222
#
# number of rings (size 3 to 8) (size 9 to 14) (size 15 to 20)
#    0.000    1.500    3.750    4.125    0.000    1.500 
#    0.000    1.250    0.000    4.500    0.000    0.000 
#    0.000    0.000    0.000    0.000    0.000    0.000 
#
# Total GULP energy -89183.586919 kJ/mol
# GULP energy per Si atom -5573.974182 kJ/mol
# Density = 2.239314 g / cm^3
# Si number density = 22.444222 Si / 1000 Ang^3
#
#
#
# Elastic Constant Matrix: (Units=GPa)
#
#
# Indices 1 2 3 4 5 6 
#
# 1 55.0077 18.9797 12.4353 9.2210 17.8976 24.0750
# 2 18.9797 144.2462 29.5935 12.1480 3.2877 40.0953
# 3 12.4353 29.5935 53.0494 4.4584 11.0418 4.5060
# 4 9.2210 12.1480 4.4584 26.6798 10.7008 10.9448
# 5 17.8976 3.2877 11.0418 10.7008 31.6948 3.3571
# 6 24.0750 40.0953 4.5060 10.9448 3.3571 30.3609
#
#
#
# Elastic Compliance Matrix: (Units=1/GPa)
#
#
# Indices 1 2 3 4 5 6 
#
# 1 0.040388 0.007366 -0.006647 0.008891 -0.019831 -0.041780
# 2 0.007366 0.013959 -0.007411 0.002753 -0.001412 -0.024011
# 3 -0.006647 -0.007411 0.024622 -0.001648 -0.004826 0.012532
# 4 0.008891 0.002753 -0.001648 0.052421 -0.019552 -0.027177
# 5 -0.019831 -0.001412 -0.004826 -0.019552 0.049068 0.019929
# 6 -0.041780 -0.024011 0.012532 -0.027177 0.019929 0.103510
#
#
# Mechanical properties :
#
#
# Convention : Reuss Voigt Hill
#
# Bulk Modulus (GPa) = 15.24790 41.59115 28.41952
# Shear Modulus (GPa) = 15.66352 30.50009 23.08181
#
# Velocity S-wave (km/s) = 2.64462 3.69036 3.21036
# Velocity P-wave (km/s) = 4.01669 6.06049 5.14117
#
# Compressibility (1/GPa) = 0.06558281
#
# Stress axis : x y z
#
# Youngs Moduli (GPa) = 24.75987 71.64087 40.61482
#
# Poissons Ratio (x) = -0.52771 0.26997
# Poissons Ratio (y) = -0.18238 0.30101
# Poissons Ratio (z) = 0.16458 0.53096
#
# Static dielectric constant tensor:
#      x y z
#    x 1.886440 -0.007810 0.019180 
#    y -0.007810 1.896830 0.053850 
#    z 0.019180 0.053850 1.863060 
# 
# From -- ./inp_files/403294.got.cif
#   From: 2010.05.17/outbox.cif.g08.bks.cpg/sg2_202_cif.got.tgz:403294.got - 2010.06.03 11:33:40.
