data_PCOD9076361
_publ_section_title
;
Structure prediction by ZEFSAII (Michael W. Deem and Ramdas Pophale) SiO2 
 PCOD9076361
Probable space group: P -1
;
_chemical_formula_sum "Si O2"
_cell_formula_units_Z 16
_cell_length_a 11.128953
_cell_length_b 26.255563
_cell_length_c 17.449000
_cell_angle_alpha 160.280368
_cell_angle_beta 147.587849
_cell_angle_gamma 32.857409
_cell_volume 892.694671
_symmetry_space_group_name_H-M "P -1"
_symmetry_group_IT_number 2
_symmetry_cell_setting 'triclinic'
loop_
_space_group_symop_operation_xyz
x,y,z
-x,-y,-z
loop_
_atom_site_type_symbol
_atom_site_label
_atom_site_fract_x
_atom_site_fract_y
_atom_site_fract_z
Si Si1 0.355471 0.924311 0.131905
Si Si2 0.329071 0.699821 0.103348
Si Si3 0.073182 0.641465 0.139152
Si Si4 0.168129 0.011925 0.538655
Si Si5 0.795476 0.534539 0.194481
Si Si6 0.902348 0.350799 0.674353
Si Si7 0.077617 0.779833 0.657978
Si Si8 0.551433 0.816014 0.244964
O O1 0.566677 0.986917 0.300002
O O2 0.453260 0.823689 0.117225
O O3 0.258382 0.825282 0.876818
O O4 0.145953 0.071092 0.251988
O O5 0.551947 0.656810 0.219125
O O6 0.425199 0.722453 0.103117
O O7 0.176191 0.868796 0.283718
O O8 0.206963 0.563579 0.868379
O O9 0.217707 0.633313 0.284617
O O10 0.939982 0.819273 0.314445
O O11 0.184467 0.583080 0.034443
O O12 0.910107 0.524123 0.899392
O O13 0.000000 0.000000 0.500000
O O14 0.987431 0.632108 0.429859
O O15 0.826828 0.263926 0.438485
O O16 0.174925 0.261181 0.706488
O O17 0.500000 0.000000 0.500000
#
# Coordination Sequence:
#
# PCOD9076361 Si02
#       8
#     2   2   2   2   2   2   2   2
#     4  11  22  35  58  88 113 150 188 234 280 340
#     4  11  20  32  57  84 113 141 195 233 278 322
#     4  10  19  31  55  82 112 140 186 230 281 319
#     4  12  21  34  55  88 114 143 187 238 275 328
#     4  10  19  36  54  85 112 151 180 232 280 340
#     4  10  18  33  55  81 112 142 184 235 277 329
#     4  10  20  38  57  84 118 150 186 226 291 340
#     4  12  17  32  57  88 109 138 197 242 268 314
#
# _framework density 17.923262000000001
#
# number of rings (size 3 to 8) (size 9 to 14) (size 15 to 20)
#    0.000    1.250    8.750    0.000    0.000    0.000 
#    0.000    3.125    0.000    0.750    6.500    0.000 
#    0.000    0.000    0.000    0.000    0.000    0.000 
#
# Total GULP energy -89102.659367 kJ/mol
# GULP energy per Si atom -5568.916210 kJ/mol
# Density = 1.788247 g / cm^3
# Si number density = 17.923262 Si / 1000 Ang^3
#
#
#
# Elastic Constant Matrix: (Units=GPa)
#
#
# Indices 1 2 3 4 5 6 
#
# 1 104.2882 20.8321 31.5447 -5.3185 -0.0164 20.8161
# 2 20.8321 57.6474 27.1158 14.8556 2.2134 19.3923
# 3 31.5447 27.1158 82.5254 3.2717 -9.5431 18.8108
# 4 -5.3185 14.8556 3.2717 34.2966 1.8248 -4.4339
# 5 -0.0164 2.2134 -9.5431 1.8248 28.4497 1.1629
# 6 20.8161 19.3923 18.8108 -4.4339 1.1629 22.3737
#
#
#
# Elastic Compliance Matrix: (Units=1/GPa)
#
#
# Indices 1 2 3 4 5 6 
#
# 1 0.012262 -0.000781 -0.002705 0.001478 -0.000602 -0.008133
# 2 -0.000781 0.033842 -0.003659 -0.018105 -0.001513 -0.029039
# 3 -0.002705 -0.003659 0.017424 -0.002108 0.006661 -0.009725
# 4 0.001478 -0.018105 -0.002108 0.040727 -0.002904 0.024311
# 5 -0.000602 -0.001513 0.006661 -0.002904 0.037944 -0.006277
# 6 -0.008133 -0.029039 -0.009725 0.024311 -0.006277 0.090752
#
#
# Mechanical properties :
#
#
# Convention : Reuss Voigt Hill
#
# Bulk Modulus (GPa) = 20.30922 44.82737 32.56830
# Shear Modulus (GPa) = 18.96421 28.02189 23.49305
#
# Velocity S-wave (km/s) = 3.25634 3.95832 3.62437
# Velocity P-wave (km/s) = 5.04917 6.77909 5.97705
#
# Compressibility (1/GPa) = 0.04923872
#
# Stress axis : x y z
#
# Youngs Moduli (GPa) = 81.55589 29.54879 57.39095
#
# Poissons Ratio (x) = 0.02307 0.15523
# Poissons Ratio (y) = 0.06366 0.21002
# Poissons Ratio (z) = 0.22059 0.10813
#
# Static dielectric constant tensor:
#      x y z
#    x 1.727760 0.000140 -0.008590 
#    y 0.000140 1.625590 0.028750 
#    z -0.008590 0.028750 1.613280 
# 
# From -- ./inp_files/259058.got.cif
#   From: 2010.05.17/outbox.cif.g08.bks.cpg/sg2_130_cif.got.tgz:259058.got - 2010.06.03 11:33:40.
