data_PCOD9076038
_publ_section_title
;
Structure prediction by ZEFSAII (Michael W. Deem and Ramdas Pophale) SiO2 
 PCOD9076038
Probable space group: P -1
;
_chemical_formula_sum "Si O2"
_cell_formula_units_Z 16
_cell_length_a 20.170289
_cell_length_b 10.739866
_cell_length_c 9.725315
_cell_angle_alpha 135.406955
_cell_angle_beta 41.938372
_cell_angle_gamma 154.587950
_cell_volume 598.242200
_symmetry_space_group_name_H-M "P -1"
_symmetry_group_IT_number 2
_symmetry_cell_setting 'triclinic'
loop_
_space_group_symop_operation_xyz
x,y,z
-x,-y,-z
loop_
_atom_site_type_symbol
_atom_site_label
_atom_site_fract_x
_atom_site_fract_y
_atom_site_fract_z
Si Si1 0.576874 0.293322 0.973141
Si Si2 0.180873 0.065299 0.826954
Si Si3 0.630275 0.762402 0.900737
Si Si4 0.275375 0.712052 0.477866
Si Si5 0.633271 0.850299 0.600809
Si Si6 0.082117 0.830820 0.366473
Si Si7 0.621132 0.377245 0.506270
Si Si8 0.108286 0.213363 0.790496
O O1 0.686106 0.627453 0.058165
O O2 0.487979 0.175652 0.165546
O O3 0.435010 0.050574 0.538097
O O4 0.691982 0.307617 0.744476
O O5 0.263143 0.009243 0.589975
O O6 0.146069 0.141212 0.806820
O O7 0.021663 0.833877 0.985485
O O8 0.620026 0.588475 0.667402
O O9 0.827225 0.051738 0.829067
O O10 0.500000 0.500000 0.000000
O O11 0.565849 0.863852 0.038816
O O12 0.294529 0.572687 0.445971
O O13 0.091129 0.511346 0.629108
O O14 0.500000 0.500000 0.500000
O O15 0.783747 0.053711 0.639661
O O16 0.045460 0.981083 0.591842
O O17 0.730411 0.476456 0.284795
#
# Coordination Sequence:
#
# PCOD9076038 Si02
#       8
#     2   2   2   2   2   2   2   2
#     4  10  18  32  59  84 108 150 189 233 288 341
#     4   9  16  30  57  85 108 138 192 242 283 323
#     4  10  19  35  56  82 109 145 194 239 279 340
#     4  11  21  37  57  81 119 155 190 235 288 345
#     4   8  16  30  52  84 108 140 177 234 280 333
#     4   9  18  31  55  82 106 145 191 232 276 336
#     4  10  23  37  54  81 121 154 189 236 295 336
#     4   9  17  32  55  84 109 143 191 243 277 333
#
# _framework density 26.745021999999999
#
# number of rings (size 3 to 8) (size 9 to 14) (size 15 to 20)
#    0.000    2.500    2.500    0.750    0.000    3.000 
#    0.000    1.250    5.500    0.750    0.000    0.000 
#    0.000    0.000    0.000    0.000    0.000    0.000 
#
# Total GULP energy -89208.437611 kJ/mol
# GULP energy per Si atom -5575.527351 kJ/mol
# Density = 2.668415 g / cm^3
# Si number density = 26.745022 Si / 1000 Ang^3
#
#
#
# Elastic Constant Matrix: (Units=GPa)
#
#
# Indices 1 2 3 4 5 6 
#
# 1 62.2173 27.1828 28.5346 -10.8676 2.4721 15.4182
# 2 27.1828 115.7614 52.7028 -47.5358 -10.3769 13.1131
# 3 28.5346 52.7028 217.2831 -57.9823 -19.5380 6.5669
# 4 -10.8676 -47.5358 -57.9823 63.4746 -6.4180 -7.1253
# 5 2.4721 -10.3769 -19.5380 -6.4180 40.6559 -2.8487
# 6 15.4182 13.1131 6.5669 -7.1253 -2.8487 29.4251
#
#
#
# Elastic Compliance Matrix: (Units=1/GPa)
#
#
# Indices 1 2 3 4 5 6 
#
# 1 0.021479 -0.004799 -0.002984 -0.004306 -0.005346 -0.010010
# 2 -0.004799 0.014782 0.000654 0.011365 0.006112 -0.000875
# 3 -0.002984 0.000654 0.007171 0.007257 0.005074 0.001921
# 4 -0.004306 0.011365 0.007257 0.031870 0.011993 0.004450
# 5 -0.005346 0.006112 0.005074 0.011993 0.031154 0.004866
# 6 -0.010010 -0.000875 0.001921 0.004450 0.004866 0.040740
#
#
# Mechanical properties :
#
#
# Convention : Reuss Voigt Hill
#
# Bulk Modulus (GPa) = 34.27891 68.01134 51.14513
# Shear Modulus (GPa) = 29.20946 45.83390 37.52168
#
# Velocity S-wave (km/s) = 3.30835 4.14422 3.74965
# Velocity P-wave (km/s) = 5.23816 6.95587 6.15721
#
# Compressibility (1/GPa) = 0.02917245
#
# Stress axis : x y z
#
# Youngs Moduli (GPa) = 46.55767 67.65189 139.46013
#
# Poissons Ratio (x) = 0.32464 0.41616
# Poissons Ratio (y) = 0.22342 -0.09115
# Poissons Ratio (z) = 0.13893 -0.04422
#
# Static dielectric constant tensor:
#      x y z
#    x 2.247080 -0.031870 0.054800 
#    y -0.031870 2.099460 -0.013610 
#    z 0.054800 -0.013610 2.186250 
# 
# From -- ./inp_files/477632.got.cif
#   From: 2010.05.17/outbox.cif.g08.bks.cpg/sg2_239_cif.got.tgz:477632.got - 2010.06.03 11:33:40.
