data_PCOD9076655
_publ_section_title
;
Structure prediction by ZEFSAII (Michael W. Deem and Ramdas Pophale) SiO2 
 PCOD9076655
Probable space group: P -1
;
_chemical_formula_sum "Si O2"
_cell_formula_units_Z 14
_cell_length_a 14.827200
_cell_length_b 16.207190
_cell_length_c 9.597525
_cell_angle_alpha 33.247677
_cell_angle_beta 57.660110
_cell_angle_gamma 35.485959
_cell_volume 652.208324
_symmetry_space_group_name_H-M "P -1"
_symmetry_group_IT_number 2
_symmetry_cell_setting 'triclinic'
loop_
_space_group_symop_operation_xyz
x,y,z
-x,-y,-z
loop_
_atom_site_type_symbol
_atom_site_label
_atom_site_fract_x
_atom_site_fract_y
_atom_site_fract_z
Si Si1 0.110172 0.587325 0.191097
Si Si2 0.076844 0.925899 0.196891
Si Si3 0.768254 0.761585 0.922583
Si Si4 0.348167 0.842975 0.010218
Si Si5 0.912926 0.801464 0.532090
Si Si6 0.628562 0.723675 0.840712
Si Si7 0.747333 0.814368 0.165830
O O1 0.221422 0.469327 0.124896
O O2 0.226861 0.374197 0.513556
O O3 0.939506 0.674830 0.189063
O O4 0.034570 0.827993 0.972013
O O5 0.032993 0.810830 0.453636
O O6 0.275089 0.767536 0.239704
O O7 0.000000 0.000000 0.000000
O O8 0.671570 0.888168 0.969469
O O9 0.958360 0.481682 0.197969
O O10 0.791769 0.889388 0.637284
O O11 0.692962 0.725564 0.927929
O O12 0.528779 0.677873 0.016947
O O13 0.201795 0.047708 0.724837
O O14 0.345012 0.968710 0.958544
O O15 0.500000 0.000000 0.500000
#
# Coordination Sequence:
#
# PCOD9076655 Si02
#       7
#     2   2   2   2   2   2   2
#     4  10  19  35  60  86 114 153 189 229 284 340
#     4   9  19  36  62  85 110 151 197 232 270 341
#     4  11  21  33  60  86 115 143 193 243 282 327
#     4  10  20  38  60  83 117 151 188 231 285 338
#     4  10  19  37  58  86 110 148 192 238 277 335
#     4  12  22  38  56  87 121 150 183 238 292 336
#     4  10  18  33  58  87 110 146 199 234 270 333
#
# _framework density 21.465534999999999
#
# number of rings (size 3 to 8) (size 9 to 14) (size 15 to 20)
#    0.000    1.714    2.857    5.143    0.000    0.571 
#    0.000   10.000    0.000    0.000    0.000    0.000 
#    0.000    0.000    0.000    0.000    0.000    0.000 
#
# Total GULP energy -78137.640317 kJ/mol
# GULP energy per Si atom -5581.260023 kJ/mol
# Density = 2.141668 g / cm^3
# Si number density = 21.465535 Si / 1000 Ang^3
#
#
#
# Elastic Constant Matrix: (Units=GPa)
#
#
# Indices 1 2 3 4 5 6 
#
# 1 80.4105 53.5004 40.3516 27.2496 -14.1974 5.8994
# 2 53.5004 126.4308 20.1752 34.6145 -11.2709 -2.3650
# 3 40.3516 20.1752 48.0196 23.7109 -13.5143 12.6568
# 4 27.2496 34.6145 23.7109 26.8474 -2.7610 -3.6513
# 5 -14.1974 -11.2709 -13.5143 -2.7610 39.5668 12.7671
# 6 5.8994 -2.3650 12.6568 -3.6513 12.7671 42.3751
#
#
#
# Elastic Compliance Matrix: (Units=1/GPa)
#
#
# Indices 1 2 3 4 5 6 
#
# 1 0.028631 -0.009545 -0.023077 0.003932 -0.001028 0.003023
# 2 -0.009545 0.018885 0.024442 -0.036636 0.011467 -0.011529
# 3 -0.023077 0.024442 0.107544 -0.105318 0.044176 -0.049929
# 4 0.003932 -0.036636 -0.105318 0.176282 -0.051963 0.059710
# 5 -0.001028 0.011467 0.044176 -0.051963 0.049938 -0.031935
# 6 0.003023 -0.011529 -0.049929 0.059710 -0.031935 0.052214
#
#
# Mechanical properties :
#
#
# Convention : Reuss Voigt Hill
#
# Bulk Modulus (GPa) = 7.20975 53.65727 30.43351
# Shear Modulus (GPa) = 10.07887 31.14676 20.61282
#
# Velocity S-wave (km/s) = 2.16923 3.81335 3.10219
# Velocity P-wave (km/s) = 3.10486 6.66634 5.20001
#
# Compressibility (1/GPa) = 0.13870105
#
# Stress axis : x y z
#
# Youngs Moduli (GPa) = 34.92678 52.95227 9.29855
#
# Poissons Ratio (x) = 0.50542 0.21458
# Poissons Ratio (y) = 0.33337 -0.22728
# Poissons Ratio (z) = 0.80600 -1.29427
#
# Static dielectric constant tensor:
#      x y z
#    x 1.798870 -0.053860 0.019500 
#    y -0.053860 1.835640 0.026120 
#    z 0.019500 0.026120 1.811630 
# 
# From -- ./inp_files/310740.got.cif
#   From: 2010.05.17/outbox.cif.g08.bks.cpg/sg2_156_cif.got.tgz:310740.got - 2010.06.03 11:33:40.
