data_PCOD9076099
_publ_section_title
;
Structure prediction by ZEFSAII (Michael W. Deem and Ramdas Pophale) SiO2 
 PCOD9076099
Probable space group: P -1
;
_chemical_formula_sum "Si O2"
_cell_formula_units_Z 15
_cell_length_a 26.183356
_cell_length_b 11.951625
_cell_length_c 7.731373
_cell_angle_alpha 37.369072
_cell_angle_beta 37.486369
_cell_angle_gamma 24.922334
_cell_volume 593.220181
_symmetry_space_group_name_H-M "P -1"
_symmetry_group_IT_number 2
_symmetry_cell_setting 'triclinic'
loop_
_space_group_symop_operation_xyz
x,y,z
-x,-y,-z
loop_
_atom_site_type_symbol
_atom_site_label
_atom_site_fract_x
_atom_site_fract_y
_atom_site_fract_z
Si Si1 0.791430 0.894883 0.552288
Si Si2 0.057045 0.205177 0.032828
Si Si3 0.597782 0.848888 0.656480
Si Si4 0.168529 0.665802 0.520123
Si Si5 0.342199 0.220476 0.035121
Si Si6 0.445197 0.425570 0.378333
Si Si7 0.806206 0.042990 0.697107
Si Si8 0.500000 0.500000 0.500000
O O1 0.829675 0.921606 0.597194
O O2 0.658005 0.202664 0.467138
O O3 0.760259 0.728630 0.851144
O O4 0.898805 0.750571 0.300297
O O5 0.911826 0.386292 0.211923
O O6 0.120193 0.895054 0.227316
O O7 0.120310 0.175192 0.075958
O O8 0.687041 0.608821 0.575400
O O9 0.667877 0.788063 0.721557
O O10 0.538703 0.131868 0.391170
O O11 0.480638 0.920060 0.960596
O O12 0.151341 0.814616 0.556379
O O13 0.357828 0.410864 0.726009
O O14 0.346726 0.700576 0.191506
O O15 0.507952 0.432307 0.356413
#
# Coordination Sequence:
#
# PCOD9076099 Si02
#       8
#     2   2   2   2   2   2   2   1
#     4  11  20  35  63  86 129 156 201 251 302 367
#     4   9  22  40  59  89 119 164 214 250 297 352
#     4   9  17  34  62  84 124 159 198 246 306 373
#     4   9  20  41  58  86 121 163 211 254 297 351
#     4   9  19  34  56  99 117 162 195 237 324 372
#     4   9  18  33  59  93 122 152 199 245 312 358
#     4   9  21  37  60  95 116 157 209 254 301 356
#     4  10  18  32  60  96 116 154 202 248 300 360
#
# _framework density 25.285720000000001
#
# number of rings (size 3 to 8) (size 9 to 14) (size 15 to 20)
#    1.600    1.067    1.333    0.000    5.600    1.067 
#    0.000    8.000    0.000    1.600    0.000    0.933 
#    0.000    0.000    0.000    0.000    0.000    0.000 
#
# Total GULP energy -83515.133968 kJ/mol
# GULP energy per Si atom -5567.675598 kJ/mol
# Density = 2.522817 g / cm^3
# Si number density = 25.285720 Si / 1000 Ang^3
#
#
#
# Elastic Constant Matrix: (Units=GPa)
#
#
# Indices 1 2 3 4 5 6 
#
# 1 194.3285 50.7970 65.9812 4.5739 13.9708 35.3235
# 2 50.7970 28.1301 15.6718 -2.8613 -16.4573 -32.7906
# 3 65.9812 15.6718 98.7876 1.8565 -9.2411 6.9961
# 4 4.5739 -2.8613 1.8565 10.8703 4.1098 3.3352
# 5 13.9708 -16.4573 -9.2411 4.1098 10.8782 -29.5383
# 6 35.3235 -32.7906 6.9961 3.3352 -29.5383 -5.1569
#
#
#
# Elastic Compliance Matrix: (Units=1/GPa)
#
#
# Indices 1 2 3 4 5 6 
#
# 1 0.005284 -0.000213 -0.003319 -0.004801 0.004422 0.004617
# 2 -0.000213 0.016360 -0.003334 0.014467 -0.015501 -0.011868
# 3 -0.003319 -0.003334 0.013421 -0.002060 0.003206 -0.003017
# 4 -0.004801 0.014467 -0.002060 0.102115 -0.010851 0.000525
# 5 0.004422 -0.015501 0.003206 -0.010851 0.024904 -0.016468
# 6 0.004617 -0.011868 -0.003017 0.000525 -0.016468 0.003748
#
#
# Mechanical properties :
#
#
# Convention : Reuss Voigt Hill
#
# Bulk Modulus (GPa) = 46.87704 65.12734 56.00219
# Shear Modulus (GPa) = 26.78435 15.90474 21.34454
#
# Velocity S-wave (km/s) = 3.25817 2.51071 2.90855
# Velocity P-wave (km/s) = 5.72131 5.84956 5.78579
#
# Compressibility (1/GPa) = 0.02133240
#
# Stress axis : x y z
#
# Youngs Moduli (GPa) = 189.23699 61.12401 74.51261
#
# Poissons Ratio (x) = 0.01303 0.24729
# Poissons Ratio (y) = 0.04034 0.24846
# Poissons Ratio (z) = 0.62803 0.20381
#
# Static dielectric constant tensor:
#      x y z
#    x 1.971480 -0.052590 -0.032560 
#    y -0.052590 2.161670 -0.142780 
#    z -0.032560 -0.142780 2.072800 
# 
# From -- ./inp_files/356649.got.cif
#   From: 2010.05.17/outbox.cif.g08.bks.cpg/sg2_179_cif.got.tgz:356649.got - 2010.06.03 11:33:40.
