data_PCOD9076146
_publ_section_title
;
Structure prediction by ZEFSAII (Michael W. Deem and Ramdas Pophale) SiO2 
 PCOD9076146
Probable space group: P -1
;
_chemical_formula_sum "Si O2"
_cell_formula_units_Z 16
_cell_length_a 17.942166
_cell_length_b 5.299230
_cell_length_c 13.369584
_cell_angle_alpha 120.461265
_cell_angle_beta 47.608494
_cell_angle_gamma 104.185910
_cell_volume 799.854605
_symmetry_space_group_name_H-M "P -1"
_symmetry_group_IT_number 2
_symmetry_cell_setting 'triclinic'
loop_
_space_group_symop_operation_xyz
x,y,z
-x,-y,-z
loop_
_atom_site_type_symbol
_atom_site_label
_atom_site_fract_x
_atom_site_fract_y
_atom_site_fract_z
Si Si1 0.192260 0.070757 0.135187
Si Si2 0.698734 0.977599 0.167422
Si Si3 0.514047 0.784554 0.668271
Si Si4 0.365960 0.363044 0.657480
Si Si5 0.762657 0.347127 0.671034
Si Si6 0.358873 0.798449 0.057235
Si Si7 0.575390 0.644789 0.804078
Si Si8 0.013047 0.845945 0.565950
O O1 0.209076 0.344560 0.246954
O O2 0.079264 0.009153 0.250279
O O3 0.282706 0.807786 0.034389
O O4 0.214892 0.144147 0.015268
O O5 0.688716 0.811359 0.246395
O O6 0.589346 0.990365 0.212667
O O7 0.701874 0.327093 0.250331
O O8 0.468953 0.471090 0.632268
O O9 0.593336 0.810915 0.513638
O O10 0.562188 0.779910 0.732494
O O11 0.709404 0.216269 0.786919
O O12 0.675666 0.404429 0.677116
O O13 0.870203 0.156004 0.506196
O O14 0.401745 0.109141 0.087374
O O15 0.463385 0.569598 0.915897
O O16 0.000000 0.500000 0.500000
O O17 0.000000 0.000000 0.500000
#
# Coordination Sequence:
#
# PCOD9076146 Si02
#       8
#     2   2   2   2   2   2   2   2
#     4  10  20  31  53  74 102 136 174 212 260 295
#     4  10  19  32  50  75 100 126 167 213 254 303
#     4   9  19  32  50  71 103 135 169 206 260 300
#     4   9  20  33  51  72 103 128 170 214 255 307
#     4  10  21  32  49  71 108 139 174 207 246 309
#     4  10  18  33  44  73 105 138 173 202 243 304
#     4  10  20  31  46  75 104 142 169 204 247 313
#     4  10  20  35  54  73 100 138 174 217 251 289
#
# _framework density 20.003634999999999
#
# number of rings (size 3 to 8) (size 9 to 14) (size 15 to 20)
#    0.750    1.500    2.500    0.750    3.500    1.000 
#    0.000    0.000    0.000    0.000    0.000    1.750 
#    0.000    0.000    0.000    0.000    0.000    0.000 
#
# Total GULP energy -89132.656439 kJ/mol
# GULP energy per Si atom -5570.791027 kJ/mol
# Density = 1.995811 g / cm^3
# Si number density = 20.003635 Si / 1000 Ang^3
#
#
#
# Elastic Constant Matrix: (Units=GPa)
#
#
# Indices 1 2 3 4 5 6 
#
# 1 42.7454 16.4729 50.9271 2.2623 -22.7278 -9.4445
# 2 16.4729 73.8024 31.8031 -25.1008 -10.2671 -6.9577
# 3 50.9271 31.8031 149.2421 -26.7941 -27.6488 -12.0982
# 4 2.2623 -25.1008 -26.7941 31.2667 -6.3031 2.5254
# 5 -22.7278 -10.2671 -27.6488 -6.3031 36.0766 4.9205
# 6 -9.4445 -6.9577 -12.0982 2.5254 4.9205 14.3802
#
#
#
# Elastic Compliance Matrix: (Units=1/GPa)
#
#
# Indices 1 2 3 4 5 6 
#
# 1 0.069404 -0.013461 -0.022727 -0.034290 0.013575 0.021326
# 2 -0.013461 0.024288 0.005611 0.026726 0.007344 0.000425
# 3 -0.022727 0.005611 0.018240 0.023162 0.005698 -0.002883
# 4 -0.034290 0.026726 0.023162 0.080537 0.019306 -0.010853
# 5 0.013575 0.007344 0.005698 0.019306 0.046373 -0.001995
# 6 0.021326 0.000425 -0.002883 -0.010853 -0.001995 0.083915
#
#
# Mechanical properties :
#
#
# Convention : Reuss Voigt Hill
#
# Bulk Modulus (GPa) = 19.69354 51.57737 35.63545
# Shear Modulus (GPa) = 12.47391 27.45048 19.96219
#
# Velocity S-wave (km/s) = 2.49987 3.70844 3.16243
# Velocity P-wave (km/s) = 4.26601 6.64655 5.58460
#
# Compressibility (1/GPa) = 0.05077808
#
# Stress axis : x y z
#
# Youngs Moduli (GPa) = 14.40846 41.17282 54.82308
#
# Poissons Ratio (x) = 0.55421 1.24598
# Poissons Ratio (y) = 0.19395 -0.30761
# Poissons Ratio (z) = 0.32746 -0.23102
#
# Static dielectric constant tensor:
#      x y z
#    x 1.700700 -0.010490 -0.035400 
#    y -0.010490 1.797230 0.034390 
#    z -0.035400 0.034390 1.747390 
# 
# From -- ./inp_files/459181.got.cif
#   From: 2010.05.17/outbox.cif.g08.bks.cpg/sg2_230_cif.got.tgz:459181.got - 2010.06.03 11:33:40.
