data_PCOD9076445
_publ_section_title
;
Structure prediction by ZEFSAII (Michael W. Deem and Ramdas Pophale) SiO2 
 PCOD9076445
Probable space group: P -1
;
_chemical_formula_sum "Si O2"
_cell_formula_units_Z 16
_cell_length_a 13.026819
_cell_length_b 12.326494
_cell_length_c 14.123263
_cell_angle_alpha 149.777784
_cell_angle_beta 120.870283
_cell_angle_gamma 80.989059
_cell_volume 732.928794
_symmetry_space_group_name_H-M "P -1"
_symmetry_group_IT_number 2
_symmetry_cell_setting 'triclinic'
loop_
_space_group_symop_operation_xyz
x,y,z
-x,-y,-z
loop_
_atom_site_type_symbol
_atom_site_label
_atom_site_fract_x
_atom_site_fract_y
_atom_site_fract_z
Si Si1 0.867524 0.354503 0.045862
Si Si2 0.818399 0.207910 0.217839
Si Si3 0.279135 0.463584 0.659397
Si Si4 0.427077 0.718214 0.124333
Si Si5 0.835166 0.935675 0.858890
Si Si6 0.719443 0.887987 0.330349
Si Si7 0.844153 0.032785 0.296353
Si Si8 0.972265 0.117469 0.779770
O O1 0.976863 0.687512 0.374253
O O2 0.684425 0.216990 0.848068
O O3 0.950315 0.318319 0.974092
O O4 0.874277 0.201719 0.022481
O O5 0.724261 0.299938 0.204007
O O6 0.800841 0.128964 0.259516
O O7 0.000000 0.500000 0.500000
O O8 0.778164 0.946349 0.941838
O O9 0.291774 0.336336 0.473989
O O10 0.120137 0.161215 0.402829
O O11 0.386677 0.605714 0.910965
O O12 0.618300 0.948735 0.384673
O O13 0.373261 0.449901 0.958173
O O14 0.000000 0.000000 0.000000
O O15 0.740834 0.954845 0.280710
O O16 0.882045 0.043676 0.582256
O O17 0.860722 0.801896 0.100286
#
# Coordination Sequence:
#
# PCOD9076445 Si02
#       8
#     2   2   2   2   2   2   2   2
#     4  11  20  33  62  86 112 145 187 236 282 336
#     4  12  17  31  53  84 114 145 179 227 282 337
#     4  10  18  33  56  81 110 146 185 230 271 331
#     4  10  20  42  60  80 110 156 196 226 281 341
#     4  11  18  28  54  91 112 141 183 232 278 330
#     4  10  23  39  60  79 114 156 190 234 282 333
#     4  12  21  37  57  87 118 145 185 239 288 330
#     4  10  20  35  58  88 112 143 187 238 288 327
#
# _framework density 21.830224000000001
#
# number of rings (size 3 to 8) (size 9 to 14) (size 15 to 20)
#    0.000    1.250    7.500    1.125    0.000    1.000 
#    0.000    0.625    0.000    0.750    0.000    0.000 
#    0.000    0.000    0.000    0.000    0.000    0.000 
#
# Total GULP energy -89173.844285 kJ/mol
# GULP energy per Si atom -5573.365268 kJ/mol
# Density = 2.178054 g / cm^3
# Si number density = 21.830224 Si / 1000 Ang^3
#
#
#
# Elastic Constant Matrix: (Units=GPa)
#
#
# Indices 1 2 3 4 5 6 
#
# 1 94.9774 39.4887 16.6859 13.2812 -22.3982 0.6626
# 2 39.4887 129.4552 12.0614 8.9333 -1.3344 21.0001
# 3 16.6859 12.0614 13.0315 -1.8524 -16.8547 1.8687
# 4 13.2812 8.9333 -1.8524 11.1143 5.3079 -7.0453
# 5 -22.3982 -1.3344 -16.8547 5.3079 29.0873 -4.9436
# 6 0.6626 21.0001 1.8687 -7.0453 -4.9436 40.1597
#
#
#
# Elastic Compliance Matrix: (Units=1/GPa)
#
#
# Indices 1 2 3 4 5 6 
#
# 1 0.022978 -0.004025 0.001110 -0.036902 0.024585 -0.001774
# 2 -0.004025 0.015608 -0.049798 -0.007924 -0.031674 -0.011067
# 3 0.001110 -0.049798 0.486117 0.008802 0.285459 0.040085
# 4 -0.036902 -0.007924 0.008802 0.186354 -0.052489 0.030574
# 5 0.024585 -0.031674 0.285459 -0.052489 0.230593 0.022051
# 6 -0.001774 -0.011067 0.040085 0.030574 0.022051 0.036930
#
#
# Mechanical properties :
#
#
# Convention : Reuss Voigt Hill
#
# Bulk Modulus (GPa) = 2.38506 41.54846 21.96676
# Shear Modulus (GPa) = 4.08576 27.35414 15.71995
#
# Velocity S-wave (km/s) = 1.36955 3.54367 2.68638
# Velocity P-wave (km/s) = 1.89626 5.98476 4.43921
#
# Compressibility (1/GPa) = 0.41927726
#
# Stress axis : x y z
#
# Youngs Moduli (GPa) = 43.52079 64.07102 2.05712
#
# Poissons Ratio (x) = 0.25787 -0.00228
# Poissons Ratio (y) = 0.17516 0.10244
# Poissons Ratio (z) = -0.04832 3.19061
#
# Static dielectric constant tensor:
#      x y z
#    x 1.909530 0.005270 -0.003670 
#    y 0.005270 1.783650 -0.025350 
#    z -0.003670 -0.025350 1.851200 
# 
# From -- ./inp_files/273016.got.cif
#   From: 2010.05.17/outbox.cif.g08.bks.cpg/sg2_137_cif.got.tgz:273016.got - 2010.06.03 11:33:40.
