data_PCOD9076251
_publ_section_title
;
Structure prediction by ZEFSAII (Michael W. Deem and Ramdas Pophale) SiO2 
 PCOD9076251
Probable space group: P -1
;
_chemical_formula_sum "Si O2"
_cell_formula_units_Z 16
_cell_length_a 11.158028
_cell_length_b 13.307398
_cell_length_c 15.748042
_cell_angle_alpha 101.064192
_cell_angle_beta 22.217853
_cell_angle_gamma 104.301064
_cell_volume 852.469005
_symmetry_space_group_name_H-M "P -1"
_symmetry_group_IT_number 2
_symmetry_cell_setting 'triclinic'
loop_
_space_group_symop_operation_xyz
x,y,z
-x,-y,-z
loop_
_atom_site_type_symbol
_atom_site_label
_atom_site_fract_x
_atom_site_fract_y
_atom_site_fract_z
Si Si1 0.944114 0.090757 0.801684
Si Si2 0.201291 0.846861 0.331485
Si Si3 0.992168 0.361205 0.035575
Si Si4 0.264092 0.025881 0.731170
Si Si5 0.232954 0.065593 0.244694
Si Si6 0.771493 0.720502 0.453247
Si Si7 0.153566 0.443591 0.755559
Si Si8 0.244401 0.165939 0.912553
O O1 0.000998 0.078037 0.861058
O O2 0.220641 0.175659 0.592085
O O3 0.911146 0.980179 0.757369
O O4 0.602550 0.122507 0.010042
O O5 0.532549 0.824506 0.148901
O O6 0.976791 0.863863 0.560152
O O7 0.000683 0.759797 0.388520
O O8 0.244049 0.958987 0.273662
O O9 0.599087 0.324567 0.284030
O O10 0.040917 0.464064 0.080449
O O11 0.138216 0.388937 0.849933
O O12 0.154876 0.272194 0.955823
O O13 0.409086 0.107326 0.721006
O O14 0.500000 0.000000 0.500000
O O15 0.081705 0.917811 0.871374
O O16 0.930803 0.643457 0.276001
O O17 0.500000 0.500000 0.500000
#
# Coordination Sequence:
#
# PCOD9076251 Si02
#       8
#     2   2   2   2   2   2   2   2
#     4  10  18  33  53  81 111 155 200 226 259 325
#     4  10  20  35  51  82 121 153 191 229 277 327
#     4  10  21  39  64  85 111 142 185 242 291 338
#     4  11  22  34  52  78 121 157 193 224 273 328
#     4   9  19  32  53  74 117 162 193 227 262 317
#     4  10  21  34  61  88 109 147 196 234 278 335
#     4   9  20  41  64  86 106 138 190 242 289 343
#     4  11  23  36  54  85 119 152 186 231 285 333
#
# _framework density 18.769010999999999
#
# number of rings (size 3 to 8) (size 9 to 14) (size 15 to 20)
#    0.000    2.000    1.250    2.250    3.500    3.000 
#    0.000    0.625    0.000    6.750    0.000    0.000 
#    0.000    0.000    0.000    0.000    0.000    0.000 
#
# Total GULP energy -89154.730841 kJ/mol
# GULP energy per Si atom -5572.170678 kJ/mol
# Density = 1.872629 g / cm^3
# Si number density = 18.769011 Si / 1000 Ang^3
#
#
#
# Elastic Constant Matrix: (Units=GPa)
#
#
# Indices 1 2 3 4 5 6 
#
# 1 104.8716 48.6224 28.8518 7.6810 -0.7045 13.9976
# 2 48.6224 89.0898 31.7557 8.6164 -4.4081 3.8039
# 3 28.8518 31.7557 70.1191 5.4723 14.5656 4.7404
# 4 7.6810 8.6164 5.4723 25.0096 -2.1221 5.7246
# 5 -0.7045 -4.4081 14.5656 -2.1221 31.9706 0.4690
# 6 13.9976 3.8039 4.7404 5.7246 0.4690 35.4518
#
#
#
# Elastic Compliance Matrix: (Units=1/GPa)
#
#
# Indices 1 2 3 4 5 6 
#
# 1 0.013817 -0.006347 -0.002619 -0.000429 0.000658 -0.004364
# 2 -0.006347 0.017298 -0.006143 -0.002677 0.004839 0.001840
# 3 -0.002619 -0.006143 0.020497 -0.002323 -0.010389 -0.000535
# 4 -0.000429 -0.002677 -0.002323 0.043292 0.003646 -0.006272
# 5 0.000658 0.004839 -0.010389 0.003646 0.036943 -0.000467
# 6 -0.004364 0.001840 -0.000535 -0.006272 -0.000467 0.030823
#
#
# Mechanical properties :
#
#
# Convention : Reuss Voigt Hill
#
# Bulk Modulus (GPa) = 46.74299 53.61559 50.17929
# Shear Modulus (GPa) = 24.99763 28.80978 26.90370
#
# Velocity S-wave (km/s) = 3.65342 3.92211 3.79015
# Velocity P-wave (km/s) = 6.53873 7.00990 6.77841
#
# Compressibility (1/GPa) = 0.02139358
#
# Stress axis : x y z
#
# Youngs Moduli (GPa) = 72.37480 57.80995 48.78802
#
# Poissons Ratio (x) = 0.36692 0.12778
# Poissons Ratio (y) = 0.45936 0.29971
# Poissons Ratio (z) = 0.18955 0.35514
#
# Static dielectric constant tensor:
#      x y z
#    x 1.691110 -0.000210 0.024100 
#    y -0.000210 1.672700 -0.007080 
#    z 0.024100 -0.007080 1.705920 
# 
# From -- ./inp_files/569176.got.cif
#   From: 2010.05.17/outbox.cif.g08.bks.cpg/sg2_285_cif.got.tgz:569176.got - 2010.06.03 11:33:40.
