data_PCOD9076520
_publ_section_title
;
Structure prediction by ZEFSAII (Michael W. Deem and Ramdas Pophale) SiO2 
 PCOD9076520
Probable space group: P -1
;
_chemical_formula_sum "Si O2"
_cell_formula_units_Z 16
_cell_length_a 14.022987
_cell_length_b 25.750792
_cell_length_c 20.209936
_cell_angle_alpha 21.011422
_cell_angle_beta 161.938035
_cell_angle_gamma 157.222063
_cell_volume 771.220539
_symmetry_space_group_name_H-M "P -1"
_symmetry_group_IT_number 2
_symmetry_cell_setting 'triclinic'
loop_
_space_group_symop_operation_xyz
x,y,z
-x,-y,-z
loop_
_atom_site_type_symbol
_atom_site_label
_atom_site_fract_x
_atom_site_fract_y
_atom_site_fract_z
Si Si1 0.885022 0.511984 0.333951
Si Si2 0.218286 0.276961 0.194556
Si Si3 0.534117 0.311623 0.700242
Si Si4 0.863180 0.988746 0.243365
Si Si5 0.506183 0.835497 0.003243
Si Si6 0.833443 0.144119 0.907959
Si Si7 0.226195 0.264133 0.369510
Si Si8 0.589645 0.542141 0.356279
O O1 0.533378 0.391752 0.233642
O O2 0.000000 0.500000 0.500000
O O3 0.919051 0.690745 0.139213
O O4 0.116129 0.476180 0.472718
O O5 0.268538 0.307889 0.268361
O O6 0.126502 0.095630 0.338220
O O7 0.888161 0.304754 0.920192
O O8 0.560479 0.475833 0.491562
O O9 0.221080 0.192255 0.600590
O O10 0.505488 0.240875 0.839673
O O11 0.962570 0.068346 0.143746
O O12 0.500000 0.000000 0.000000
O O13 0.143581 0.834658 0.750398
O O14 0.736904 0.009095 0.951029
O O15 0.594730 0.715400 0.157125
O O16 0.495960 0.179665 0.661172
O O17 0.294422 0.420439 0.268858
#
# Coordination Sequence:
#
# PCOD9076520 Si02
#       8
#     2   2   2   2   2   2   2   2
#     4  11  21  37  55  78 114 144 194 226 254 321
#     4  10  18  33  57  80 108 146 184 227 267 310
#     4   9  20  35  56  84 112 138 177 229 277 331
#     4   9  17  31  52  86 111 128 177 233 275 316
#     4  10  21  36  56  83 112 144 177 226 286 328
#     4  10  20  34  55  80 108 146 178 233 268 316
#     4  10  19  33  56  82 110 140 186 226 272 327
#     4  11  21  36  56  80 114 148 178 224 279 324
#
# _framework density 20.746334999999998
#
# number of rings (size 3 to 8) (size 9 to 14) (size 15 to 20)
#    0.000    2.000    2.500    4.875    0.000    3.000 
#    0.000    0.625    0.000    8.250    0.000    0.000 
#    0.000    0.000    0.000    0.000    0.000    0.000 
#
# Total GULP energy -89074.973335 kJ/mol
# GULP energy per Si atom -5567.185833 kJ/mol
# Density = 2.069912 g / cm^3
# Si number density = 20.746335 Si / 1000 Ang^3
#
#
#
# Elastic Constant Matrix: (Units=GPa)
#
#
# Indices 1 2 3 4 5 6 
#
# 1 47.1071 32.7410 13.9845 -5.8121 -7.2367 -2.3787
# 2 32.7410 166.6376 37.7083 -13.0494 8.8417 4.6102
# 3 13.9845 37.7083 43.1551 -22.1079 -3.0423 -4.8775
# 4 -5.8121 -13.0494 -22.1079 31.0866 -7.5336 -3.2044
# 5 -7.2367 8.8417 -3.0423 -7.5336 17.0057 -6.1686
# 6 -2.3787 4.6102 -4.8775 -3.2044 -6.1686 32.5056
#
#
#
# Elastic Compliance Matrix: (Units=1/GPa)
#
#
# Indices 1 2 3 4 5 6 
#
# 1 0.033931 -0.010730 0.015040 0.023629 0.038976 0.015987
# 2 -0.010730 0.013757 -0.023575 -0.021944 -0.030841 -0.014290
# 3 0.015040 -0.023575 0.094565 0.086526 0.089951 0.044234
# 4 0.023629 -0.021944 0.086526 0.120391 0.108518 0.050287
# 5 0.038976 -0.030841 0.089951 0.108518 0.179334 0.065454
# 6 0.015987 -0.014290 0.044234 0.050287 0.065454 0.057976
#
#
# Mechanical properties :
#
#
# Convention : Reuss Voigt Hill
#
# Bulk Modulus (GPa) = 9.64102 47.30749 28.47425
# Shear Modulus (GPa) = 8.72510 27.61732 18.17121
#
# Velocity S-wave (km/s) = 2.05298 3.65251 2.96273
# Velocity P-wave (km/s) = 3.20575 6.37496 5.04564
#
# Compressibility (1/GPa) = 0.10372349
#
# Stress axis : x y z
#
# Youngs Moduli (GPa) = 29.47121 72.68854 10.57477
#
# Poissons Ratio (x) = 0.77996 -0.15904
# Poissons Ratio (y) = 0.31623 0.24930
# Poissons Ratio (z) = -0.44324 1.71361
#
# Static dielectric constant tensor:
#      x y z
#    x 1.813670 -0.051950 -0.033170 
#    y -0.051950 1.788810 -0.018970 
#    z -0.033170 -0.018970 1.785780 
# 
# From -- ./inp_files/543762.got.cif
#   From: 2010.05.17/outbox.cif.g08.bks.cpg/sg2_272_cif.got.tgz:543762.got - 2010.06.03 11:33:40.
