data_PCOD9076627
_publ_section_title
;
Structure prediction by ZEFSAII (Michael W. Deem and Ramdas Pophale) SiO2 
 PCOD9076627
Probable space group: P -1
;
_chemical_formula_sum "Si O2"
_cell_formula_units_Z 12
_cell_length_a 18.481508
_cell_length_b 5.332269
_cell_length_c 16.738689
_cell_angle_alpha 99.289638
_cell_angle_beta 16.531253
_cell_angle_gamma 95.580920
_cell_volume 453.394687
_symmetry_space_group_name_H-M "P -1"
_symmetry_group_IT_number 2
_symmetry_cell_setting 'triclinic'
loop_
_space_group_symop_operation_xyz
x,y,z
-x,-y,-z
loop_
_atom_site_type_symbol
_atom_site_label
_atom_site_fract_x
_atom_site_fract_y
_atom_site_fract_z
Si Si1 0.145982 0.450369 0.757498
Si Si2 0.169887 0.486885 0.063644
Si Si3 0.959592 0.756193 0.438124
Si Si4 0.706617 0.052295 0.348883
Si Si5 0.337296 0.988201 0.961739
Si Si6 0.633206 0.690258 0.920898
O O1 0.281528 0.150132 0.602440
O O2 0.937678 0.504874 0.910970
O O3 0.337529 0.650770 0.562754
O O4 0.000000 0.500000 0.000000
O O5 0.276540 0.196998 0.966375
O O6 0.917097 0.608024 0.393354
O O7 0.354920 0.693989 0.896782
O O8 0.755803 0.832302 0.727143
O O9 0.170999 0.523875 0.244296
O O10 0.085696 0.990885 0.285808
O O11 0.500000 0.000000 0.500000
O O12 0.000000 0.000000 0.000000
O O13 0.510805 0.104103 0.849548
O O14 0.500000 0.500000 0.000000
#
# Coordination Sequence:
#
# PCOD9076627 Si02
#       6
#     2   2   2   2   2   2
#     4  10  20  36  64  90 120 165 210 261 313 377
#     4   9  18  34  60  79 115 156 195 243 301 359
#     4   8  19  34  54  80 113 150 189 240 298 345
#     4  10  21  38  65  97 124 161 212 267 317 378
#     4   9  18  34  55  80 114 155 189 241 300 354
#     4  10  18  33  58  83 110 150 196 238 292 363
#
# _framework density 26.467006000000001
#
# number of rings (size 3 to 8) (size 9 to 14) (size 15 to 20)
#    1.000    1.667    0.000    2.000    0.000    0.667 
#    0.000    0.000   36.667    0.000    0.000    0.000 
#    0.000    0.000    0.000    0.000    0.000    0.000 
#
# Total GULP energy -66981.055836 kJ/mol
# GULP energy per Si atom -5581.754653 kJ/mol
# Density = 2.640677 g / cm^3
# Si number density = 26.467006 Si / 1000 Ang^3
#
#
#
# Elastic Constant Matrix: (Units=GPa)
#
#
# Indices 1 2 3 4 5 6 
#
# 1 207.5160 59.1493 43.2866 -4.5179 -10.9024 1.0537
# 2 59.1493 226.4055 45.9014 -28.3468 5.8864 -1.2075
# 3 43.2866 45.9014 82.0507 0.6933 -8.5735 4.3344
# 4 -4.5179 -28.3468 0.6933 42.2210 11.4676 7.3992
# 5 -10.9024 5.8864 -8.5735 11.4676 34.2568 -8.5898
# 6 1.0537 -1.2075 4.3344 7.3992 -8.5898 55.2865
#
#
#
# Elastic Compliance Matrix: (Units=1/GPa)
#
#
# Indices 1 2 3 4 5 6 
#
# 1 0.005685 -0.001180 -0.002165 -0.000713 0.001812 0.000413
# 2 -0.001180 0.006175 -0.003277 0.005418 -0.004316 -0.000981
# 3 -0.002165 -0.003277 0.015738 -0.004124 0.005218 0.000099
# 4 -0.000713 0.005418 -0.004124 0.032342 -0.014555 -0.006135
# 5 0.001812 -0.004316 0.005218 -0.014555 0.038543 0.007398
# 6 0.000413 -0.000981 0.000099 -0.006135 0.007398 0.020021
#
#
# Mechanical properties :
#
#
# Convention : Reuss Voigt Hill
#
# Bulk Modulus (GPa) = 69.67148 90.29408 79.98278
# Shear Modulus (GPa) = 36.62158 50.86185 43.74172
#
# Velocity S-wave (km/s) = 3.72381 4.38848 4.06974
# Velocity P-wave (km/s) = 6.69851 7.73745 7.23665
#
# Compressibility (1/GPa) = 0.01435308
#
# Stress axis : x y z
#
# Youngs Moduli (GPa) = 175.91514 161.94808 63.54197
#
# Poissons Ratio (x) = 0.19116 0.13757
# Poissons Ratio (y) = 0.20765 0.20820
# Poissons Ratio (z) = 0.38085 0.53063
#
# Static dielectric constant tensor:
#      x y z
#    x 2.040950 0.020730 -0.031030 
#    y 0.020730 2.085040 -0.073730 
#    z -0.031030 -0.073730 2.146430 
# 
# From -- ./inp_files/54594.got.cif
#   From: 2010.05.17/outbox.cif.g08.bks.cpg/sg2_28_cif.got.tgz:54594.got - 2010.06.03 11:33:40.
