data_PCOD9076434
_publ_section_title
;
Structure prediction by ZEFSAII (Michael W. Deem and Ramdas Pophale) SiO2 
 PCOD9076434
Probable space group: P -1
;
_chemical_formula_sum "Si O2"
_cell_formula_units_Z 16
_cell_length_a 21.930053
_cell_length_b 13.070110
_cell_length_c 8.874545
_cell_angle_alpha 79.877731
_cell_angle_beta 119.671557
_cell_angle_gamma 154.632764
_cell_volume 647.652868
_symmetry_space_group_name_H-M "P -1"
_symmetry_group_IT_number 2
_symmetry_cell_setting 'triclinic'
loop_
_space_group_symop_operation_xyz
x,y,z
-x,-y,-z
loop_
_atom_site_type_symbol
_atom_site_label
_atom_site_fract_x
_atom_site_fract_y
_atom_site_fract_z
Si Si1 0.216943 0.119028 0.753342
Si Si2 0.245254 0.350167 0.119006
Si Si3 0.150442 0.804322 0.681700
Si Si4 0.792804 0.148535 0.923005
Si Si5 0.726938 0.397472 0.810610
Si Si6 0.777531 0.904182 0.879145
Si Si7 0.289333 0.446638 0.808914
Si Si8 0.584714 0.216012 0.351392
O O1 0.153856 0.022040 0.879861
O O2 0.202260 0.220990 0.670236
O O3 0.121295 0.887497 0.594981
O O4 0.500000 0.500000 0.000000
O O5 0.358506 0.395205 0.247764
O O6 0.188996 0.302230 0.891105
O O7 0.375176 0.633136 0.272791
O O8 0.000000 0.000000 0.000000
O O9 0.000000 0.500000 0.500000
O O10 0.096050 0.722915 0.813417
O O11 0.428319 0.169499 0.913722
O O12 0.580142 0.923825 0.757883
O O13 0.000000 0.500000 0.000000
O O14 0.695377 0.906228 0.790358
O O15 0.699570 0.335813 0.614101
O O16 0.593048 0.127023 0.821960
O O17 0.008954 0.791502 0.059336
O O18 0.264670 0.517829 0.664739
#
# Coordination Sequence:
#
# PCOD9076434 Si02
#       8
#     2   2   2   2   2   2   2   2
#     4   8  15  31  55  77 108 149 181 220 281 340
#     4   9  19  36  58  79 108 152 190 227 282 337
#     4   9  18  31  52  85 116 141 180 233 286 331
#     4  10  18  33  56  79 108 145 188 223 275 334
#     4  10  20  36  55  80 114 148 189 228 281 335
#     4   9  17  34  58  78 103 148 188 223 281 336
#     4   9  18  35  56  79 111 150 191 226 276 341
#     4  10  21  35  55  83 114 147 188 231 281 335
#
# _framework density 24.704591000000001
#
# number of rings (size 3 to 8) (size 9 to 14) (size 15 to 20)
#    0.000    2.750    1.250    0.750    0.000    1.500 
#    2.250    7.500    2.750    0.000    0.000    0.000 
#    0.000    0.000    0.000    0.000    0.000    0.000 
#
# Total GULP energy -89189.916899 kJ/mol
# GULP energy per Si atom -5574.369806 kJ/mol
# Density = 2.464836 g / cm^3
# Si number density = 24.704591 Si / 1000 Ang^3
#
#
#
# Elastic Constant Matrix: (Units=GPa)
#
#
# Indices 1 2 3 4 5 6 
#
# 1 115.4976 45.7140 16.1390 15.1908 -22.1383 -36.3706
# 2 45.7140 171.0004 26.6094 -2.6803 -20.2389 -13.9196
# 3 16.1390 26.6094 58.7630 7.0031 -26.3503 -9.8465
# 4 15.1908 -2.6803 7.0031 25.4172 -7.9153 -13.8417
# 5 -22.1383 -20.2389 -26.3503 -7.9153 33.6160 7.0490
# 6 -36.3706 -13.9196 -9.8465 -13.8417 7.0490 53.8821
#
#
#
# Elastic Compliance Matrix: (Units=1/GPa)
#
#
# Indices 1 2 3 4 5 6 
#
# 1 0.013247 -0.002539 0.001998 -0.002832 0.006614 0.007058
# 2 -0.002539 0.007157 -0.002123 0.003646 0.001735 0.000457
# 3 0.001998 -0.002123 0.027246 -0.000974 0.020570 0.002838
# 4 -0.002832 0.003646 -0.000974 0.050311 0.009196 0.010574
# 5 0.006614 0.001735 0.020570 0.009196 0.052566 0.004157
# 6 0.007058 0.000457 0.002838 0.010574 0.004157 0.026132
#
#
# Mechanical properties :
#
#
# Convention : Reuss Voigt Hill
#
# Bulk Modulus (GPa) = 23.62975 58.02064 40.82519
# Shear Modulus (GPa) = 25.49791 39.70297 32.60044
#
# Velocity S-wave (km/s) = 3.21614 4.01323 3.63659
# Velocity P-wave (km/s) = 4.83498 6.70905 5.84758
#
# Compressibility (1/GPa) = 0.04231954
#
# Stress axis : x y z
#
# Youngs Moduli (GPa) = 75.48916 139.72629 36.70299
#
# Poissons Ratio (x) = 0.35479 -0.07332
# Poissons Ratio (y) = 0.19168 0.07794
# Poissons Ratio (z) = -0.15081 0.29671
#
# Static dielectric constant tensor:
#      x y z
#    x 1.969210 0.075610 0.022590 
#    y 0.075610 1.892830 0.134110 
#    z 0.022590 0.134110 2.041670 
# 
# From -- ./inp_files/345358.got.cif
#   From: 2010.05.17/outbox.cif.g08.bks.cpg/sg2_173_cif.got.tgz:345358.got - 2010.06.03 11:33:40.
