data_PCOD9076066
_publ_section_title
;
Structure prediction by ZEFSAII (Michael W. Deem and Ramdas Pophale) SiO2 
 PCOD9076066
Probable space group: P -1
;
_chemical_formula_sum "Si O2"
_cell_formula_units_Z 15
_cell_length_a 12.140136
_cell_length_b 8.532821
_cell_length_c 7.188898
_cell_angle_alpha 89.691616
_cell_angle_beta 96.770719
_cell_angle_gamma 62.923808
_cell_volume 656.983837
_symmetry_space_group_name_H-M "P -1"
_symmetry_group_IT_number 2
_symmetry_cell_setting 'triclinic'
loop_
_space_group_symop_operation_xyz
x,y,z
-x,-y,-z
loop_
_atom_site_type_symbol
_atom_site_label
_atom_site_fract_x
_atom_site_fract_y
_atom_site_fract_z
Si Si1 0.709197 0.360088 0.608611
Si Si2 0.135052 0.452270 0.293003
Si Si3 0.686040 0.829190 0.924641
Si Si4 0.261669 0.954154 0.573353
Si Si5 0.541329 0.639508 0.294131
Si Si6 0.500000 0.000000 0.500000
Si Si7 0.857340 0.682608 0.293075
Si Si8 0.452045 0.800875 0.909136
O O1 0.789102 0.436938 0.733386
O O2 0.782064 0.154097 0.570753
O O3 0.657739 0.483031 0.416045
O O4 0.583234 0.379547 0.680069
O O5 0.203311 0.269399 0.196077
O O6 0.143197 0.411966 0.514807
O O7 0.989241 0.565696 0.222355
O O8 0.630512 0.030806 0.977240
O O9 0.744305 0.723541 0.128244
O O10 0.559294 0.829931 0.818003
O O11 0.358187 0.016926 0.505795
O O12 0.157596 0.125185 0.651996
O O13 0.352747 0.808622 0.742245
O O14 0.534534 0.816071 0.384604
O O15 0.532358 0.650237 0.069234
#
# Coordination Sequence:
#
# PCOD9076066 Si02
#       8
#     2   2   2   2   2   1   2   2
#     4  10  23  36  55  90 120 159 193 238 307 357
#     4  11  23  40  65  84 118 163 200 253 299 347
#     4  10  21  37  63  92 118 148 201 258 289 355
#     4  10  22  37  59  86 124 151 193 251 289 364
#     4  10  21  35  54  88 124 148 196 237 297 367
#     4  10  18  32  60  80 112 154 184 236 288 342
#     4  10  23  42  62  89 112 158 216 244 289 355
#     4  10  21  35  58  94 116 155 192 242 312 354
#
# _framework density 22.831610000000001
#
# number of rings (size 3 to 8) (size 9 to 14) (size 15 to 20)
#    0.000    1.867    0.000    4.400   13.067    1.067 
#    2.400    0.000    0.000    1.600    0.000    0.000 
#    0.000    0.000    0.000    0.000    0.000    0.000 
#
# Total GULP energy -83525.287317 kJ/mol
# GULP energy per Si atom -5568.352488 kJ/mol
# Density = 2.277964 g / cm^3
# Si number density = 22.831610 Si / 1000 Ang^3
#
#
#
# Elastic Constant Matrix: (Units=GPa)
#
#
# Indices 1 2 3 4 5 6 
#
# 1 57.9437 36.9651 4.6264 9.6271 1.1055 -4.9344
# 2 36.9651 78.4747 13.3221 13.3321 0.4255 -16.7635
# 3 4.6264 13.3221 36.0522 4.8248 -0.9176 -0.8615
# 4 9.6271 13.3321 4.8248 37.8939 -6.9256 -5.5347
# 5 1.1055 0.4255 -0.9176 -6.9256 27.0084 6.4612
# 6 -4.9344 -16.7635 -0.8615 -5.5347 6.4612 36.2344
#
#
#
# Elastic Compliance Matrix: (Units=1/GPa)
#
#
# Indices 1 2 3 4 5 6 
#
# 1 0.025168 -0.012150 0.001559 -0.002843 -0.000935 -0.002424
# 2 -0.012150 0.021800 -0.005951 -0.003130 -0.002841 0.008318
# 3 0.001559 -0.005951 0.030012 -0.002280 0.001029 -0.002359
# 4 -0.002843 -0.003130 -0.002280 0.030069 0.007470 0.001371
# 5 -0.000935 -0.002841 0.001029 0.007470 0.040868 -0.007564
# 6 -0.002424 0.008318 -0.002359 0.001371 -0.007564 0.032618
#
#
# Mechanical properties :
#
#
# Convention : Reuss Voigt Hill
#
# Bulk Modulus (GPa) = 22.78139 31.36641 27.07390
# Shear Modulus (GPa) = 21.90554 28.06449 24.98501
#
# Velocity S-wave (km/s) = 3.10084 3.50979 3.31163
# Velocity P-wave (km/s) = 4.77702 5.49480 5.14844
#
# Compressibility (1/GPa) = 0.04389547
#
# Stress axis : x y z
#
# Youngs Moduli (GPa) = 39.73235 45.87069 33.32044
#
# Poissons Ratio (x) = 0.55732 -0.05194
# Poissons Ratio (y) = 0.48274 0.19830
# Poissons Ratio (z) = -0.06193 0.27299
#
# Static dielectric constant tensor:
#      x y z
#    x 1.826150 -0.030160 0.023760 
#    y -0.030160 1.691380 0.215890 
#    z 0.023760 0.215890 1.608080 
# 
# From -- ./inp_files/239085.got.cif
#   From: 2010.05.17/outbox.cif.g08.bks.cpg/sg2_120_cif.got.tgz:239085.got - 2010.06.03 11:33:40.
