data_PCOD9076610
_publ_section_title
;
Structure prediction by ZEFSAII (Michael W. Deem and Ramdas Pophale) SiO2 
 PCOD9076610
Probable space group: P -1
;
_chemical_formula_sum "Si O2"
_cell_formula_units_Z 16
_cell_length_a 14.009567
_cell_length_b 12.552409
_cell_length_c 7.052408
_cell_angle_alpha 44.679858
_cell_angle_beta 57.666594
_cell_angle_gamma 53.174546
_cell_volume 684.902591
_symmetry_space_group_name_H-M "P -1"
_symmetry_group_IT_number 2
_symmetry_cell_setting 'triclinic'
loop_
_space_group_symop_operation_xyz
x,y,z
-x,-y,-z
loop_
_atom_site_type_symbol
_atom_site_label
_atom_site_fract_x
_atom_site_fract_y
_atom_site_fract_z
Si Si1 0.519094 0.717651 0.177170
Si Si2 0.202425 0.535637 0.386457
Si Si3 0.058383 0.341888 0.401968
Si Si4 0.290112 0.639505 0.524854
Si Si5 0.534600 0.959529 0.293186
Si Si6 0.445692 0.366989 0.180449
Si Si7 0.968728 0.294866 0.150531
Si Si8 0.808686 0.800932 0.195361
O O1 0.392209 0.708647 0.394430
O O2 0.634110 0.556274 0.302081
O O3 0.504598 0.702769 0.985480
O O4 0.540174 0.887047 0.951274
O O5 0.245851 0.644751 0.345926
O O6 0.301182 0.468068 0.203941
O O7 0.198077 0.363569 0.686915
O O8 0.061601 0.628522 0.379018
O O9 0.165928 0.238682 0.557072
O O10 0.030050 0.272321 0.323292
O O11 0.062642 0.516478 0.118911
O O12 0.164176 0.714379 0.678462
O O13 0.527843 0.779961 0.510306
O O14 0.675793 0.935160 0.147404
O O15 0.500000 0.000000 0.500000
O O16 0.500000 0.500000 0.000000
O O17 0.075473 0.177916 0.051049
#
# Coordination Sequence:
#
# PCOD9076610 Si02
#       8
#     2   2   2   2   2   2   2   2
#     4  10  21  36  54  81 118 152 190 228 293 340
#     4   9  17  31  50  84 105 138 186 237 283 320
#     4   9  18  30  52  83 114 140 183 247 288 330
#     4  10  20  33  56  80 113 148 190 241 280 334
#     4   9  21  37  57  83 112 156 183 235 291 343
#     4  10  18  33  58  80 108 145 193 235 274 341
#     4   9  18  31  52  85 109 145 194 243 279 334
#     4  10  19  34  56  80 114 148 192 232 295 341
#
# _framework density 23.360984999999999
#
# number of rings (size 3 to 8) (size 9 to 14) (size 15 to 20)
#    0.000    2.500    1.250    2.250    7.000    0.000 
#    0.000    3.125    2.750    3.000    0.000    0.000 
#    0.000    0.000    0.000    0.000    0.000    0.000 
#
# Total GULP energy -89147.914517 kJ/mol
# GULP energy per Si atom -5571.744657 kJ/mol
# Density = 2.330781 g / cm^3
# Si number density = 23.360985 Si / 1000 Ang^3
#
#
#
# Elastic Constant Matrix: (Units=GPa)
#
#
# Indices 1 2 3 4 5 6 
#
# 1 74.5109 5.3049 25.7738 3.1676 0.3204 -4.6150
# 2 5.3049 63.0850 27.1839 19.4037 -11.7810 -11.7752
# 3 25.7738 27.1839 67.6276 9.4671 -6.5022 -10.7521
# 4 3.1676 19.4037 9.4671 44.9296 -13.4464 -10.2487
# 5 0.3204 -11.7810 -6.5022 -13.4464 28.0765 5.2312
# 6 -4.6150 -11.7752 -10.7521 -10.2487 5.2312 33.3537
#
#
#
# Elastic Compliance Matrix: (Units=1/GPa)
#
#
# Indices 1 2 3 4 5 6 
#
# 1 0.015645 0.001553 -0.006533 -0.000701 -0.001492 0.000626
# 2 0.001553 0.022316 -0.007826 -0.006210 0.003994 0.003036
# 3 -0.006533 -0.007826 0.020961 0.000514 0.001325 0.003040
# 4 -0.000701 -0.006210 0.000514 0.029223 0.010548 0.005201
# 5 -0.001492 0.003994 0.001325 0.010548 0.043017 -0.001875
# 6 0.000626 0.003036 0.003040 0.005201 -0.001875 0.034013
#
#
# Mechanical properties :
#
#
# Convention : Reuss Voigt Hill
#
# Bulk Modulus (GPa) = 30.02018 35.74986 32.88502
# Shear Modulus (GPa) = 24.76589 31.06934 27.91762
#
# Velocity S-wave (km/s) = 3.25951 3.65083 3.46070
# Velocity P-wave (km/s) = 5.20042 5.75394 5.48417
#
# Compressibility (1/GPa) = 0.03331093
#
# Stress axis : x y z
#
# Youngs Moduli (GPa) = 63.91839 44.81076 47.70710
#
# Poissons Ratio (x) = -0.06960 0.31165
# Poissons Ratio (y) = -0.09928 0.37336
# Poissons Ratio (z) = 0.41756 0.35070
#
# Static dielectric constant tensor:
#      x y z
#    x 1.944980 0.041940 -0.011000 
#    y 0.041940 1.942500 -0.003490 
#    z -0.011000 -0.003490 1.975500 
# 
# From -- ./inp_files/312318.got.cif
#   From: 2010.05.17/outbox.cif.g08.bks.cpg/sg2_157_cif.got.tgz:312318.got - 2010.06.03 11:33:40.
