data_PCOD9076060
_publ_section_title
;
Structure prediction by ZEFSAII (Michael W. Deem and Ramdas Pophale) SiO2 
 PCOD9076060
Probable space group: P -1
;
_chemical_formula_sum "Si O2"
_cell_formula_units_Z 14
_cell_length_a 7.070559
_cell_length_b 10.630109
_cell_length_c 9.175994
_cell_angle_alpha 71.322531
_cell_angle_beta 53.406493
_cell_angle_gamma 80.354771
_cell_volume 524.320956
_symmetry_space_group_name_H-M "P -1"
_symmetry_group_IT_number 2
_symmetry_cell_setting 'triclinic'
loop_
_space_group_symop_operation_xyz
x,y,z
-x,-y,-z
loop_
_atom_site_type_symbol
_atom_site_label
_atom_site_fract_x
_atom_site_fract_y
_atom_site_fract_z
Si Si1 0.875734 0.498491 0.215433
Si Si2 0.631741 0.284405 0.776996
Si Si3 0.679500 0.550050 0.773286
Si Si4 0.702211 0.819125 0.780437
Si Si5 0.328263 0.955833 0.739172
Si Si6 0.745343 0.210012 0.435851
Si Si7 0.043387 0.214385 0.836969
O O1 0.065370 0.467032 0.266370
O O2 0.720824 0.362494 0.335351
O O3 0.819519 0.651202 0.221191
O O4 0.000000 0.500000 0.000000
O O5 0.633354 0.445481 0.705520
O O6 0.865558 0.253499 0.774865
O O7 0.653616 0.216825 0.638785
O O8 0.414670 0.233114 0.995756
O O9 0.655365 0.706252 0.719414
O O10 0.500000 0.500000 0.000000
O O11 0.980030 0.831478 0.667531
O O12 0.549842 0.938800 0.751380
O O13 0.367969 0.894761 0.584290
O O14 0.204125 0.095964 0.756367
O O15 0.128873 0.848419 0.936614
#
# Coordination Sequence:
#
# PCOD9076060 Si02
#       7
#     2   2   2   2   2   2   2
#     4  10  18  32  59  92 118 156 211 255 305 372
#     4   9  19  38  60  92 126 164 201 268 314 363
#     4   8  16  31  58  78 119 159 190 246 316 350
#     4   9  20  39  62  89 128 164 209 257 311 375
#     4  10  20  39  63  88 125 173 204 254 317 374
#     4  11  22  37  69  94 119 165 217 252 316 376
#     4   9  19  37  61  86 129 168 200 257 322 360
#
# _framework density 26.701205000000002
#
# number of rings (size 3 to 8) (size 9 to 14) (size 15 to 20)
#    0.000    2.571    1.429    0.857    0.000    5.714 
#    0.000   10.714    6.286    0.000    0.000    0.000 
#    0.000    0.000    0.000    0.000    0.000    0.000 
#
# Total GULP energy -78464.014500 kJ/mol
# GULP energy per Si atom -5604.572464 kJ/mol
# Density = 2.664043 g / cm^3
# Si number density = 26.701205 Si / 1000 Ang^3
#
#
#
# Elastic Constant Matrix: (Units=GPa)
#
#
# Indices 1 2 3 4 5 6 
#
# 1 116.4580 70.2415 29.9376 11.3084 -9.4218 8.2320
# 2 70.2415 232.8551 57.3235 1.6997 6.5656 23.8739
# 3 29.9376 57.3235 99.7801 33.3663 1.9072 12.7505
# 4 11.3084 1.6997 33.3663 41.3824 3.3262 -0.0583
# 5 -9.4218 6.5656 1.9072 3.3262 22.6376 11.1157
# 6 8.2320 23.8739 12.7505 -0.0583 11.1157 62.0107
#
#
#
# Elastic Compliance Matrix: (Units=1/GPa)
#
#
# Indices 1 2 3 4 5 6 
#
# 1 0.011797 -0.003502 -0.000354 -0.003371 0.007153 -0.001430
# 2 -0.003502 0.006428 -0.003860 0.004069 -0.003289 -0.000623
# 3 -0.000354 -0.003860 0.017261 -0.013891 0.002802 -0.002531
# 4 -0.003371 0.004069 -0.013891 0.036802 -0.008432 0.003283
# 5 0.007153 -0.003289 0.002802 -0.008432 0.053992 -0.009946
# 6 -0.001430 -0.000623 -0.002531 0.003283 -0.009946 0.018862
#
#
# Mechanical properties :
#
#
# Convention : Reuss Voigt Hill
#
# Bulk Modulus (GPa) = 49.86772 84.89982 67.38377
# Shear Modulus (GPa) = 29.89358 44.64550 37.26954
#
# Velocity S-wave (km/s) = 3.34961 4.09350 3.74009
# Velocity P-wave (km/s) = 5.80316 7.36258 6.62888
#
# Compressibility (1/GPa) = 0.02005305
#
# Stress axis : x y z
#
# Youngs Moduli (GPa) = 84.76586 155.56686 57.93327
#
# Poissons Ratio (x) = 0.54477 0.02053
# Poissons Ratio (y) = 0.29684 0.22365
# Poissons Ratio (z) = 0.03004 0.60057
#
# Static dielectric constant tensor:
#      x y z
#    x 2.007620 0.018110 -0.028840 
#    y 0.018110 2.067740 -0.080700 
#    z -0.028840 -0.080700 2.095460 
# 
# From -- ./inp_files/167572.got.cif
#   From: 2010.05.17/outbox.cif.g08.bks.cpg/sg2_84_cif.got.tgz:167572.got - 2010.06.03 11:33:40.
