data_PCOD9076597
_publ_section_title
;
Structure prediction by ZEFSAII (Michael W. Deem and Ramdas Pophale) SiO2 
 PCOD9076597
Probable space group: P -1
;
_chemical_formula_sum "Si O2"
_cell_formula_units_Z 16
_cell_length_a 17.580034
_cell_length_b 8.449299
_cell_length_c 12.157343
_cell_angle_alpha 95.673878
_cell_angle_beta 138.956675
_cell_angle_gamma 114.949880
_cell_volume 767.308477
_symmetry_space_group_name_H-M "P -1"
_symmetry_group_IT_number 2
_symmetry_cell_setting 'triclinic'
loop_
_space_group_symop_operation_xyz
x,y,z
-x,-y,-z
loop_
_atom_site_type_symbol
_atom_site_label
_atom_site_fract_x
_atom_site_fract_y
_atom_site_fract_z
Si Si1 0.064701 0.810932 0.910139
Si Si2 0.942586 0.996999 0.291364
Si Si3 0.582177 0.147721 0.941777
Si Si4 0.170678 0.743909 0.443091
Si Si5 0.979795 0.658117 0.036492
Si Si6 0.662809 0.181476 0.775621
Si Si7 0.682377 0.599216 0.160626
Si Si8 0.858208 0.218803 0.349884
O O1 0.937647 0.535209 0.705285
O O2 0.075233 0.973790 0.853730
O O3 0.995242 0.780513 0.954477
O O4 0.247219 0.900864 0.128522
O O5 0.781939 0.732999 0.158247
O O6 0.908520 0.126761 0.324572
O O7 0.150673 0.182451 0.562005
O O8 0.637363 0.201372 0.876759
O O9 0.372743 0.910171 0.690131
O O10 0.633188 0.362121 0.077100
O O11 0.671070 0.094517 0.099371
O O12 0.135526 0.822054 0.307023
O O13 0.120253 0.788373 0.499017
O O14 0.000000 0.500000 0.000000
O O15 0.797090 0.452992 0.889507
O O16 0.500000 0.000000 0.500000
O O17 0.500000 0.500000 0.000000
O O18 0.000000 0.500000 0.500000
#
# Coordination Sequence:
#
# PCOD9076597 Si02
#       8
#     2   2   2   2   2   2   2   2
#     4  10  18  36  56  89 119 155 202 247 320 360
#     4  11  23  42  65  84 130 166 201 264 313 370
#     4  12  21  35  61  92 123 158 208 261 308 375
#     4  10  19  30  53  87 124 150 191 254 304 368
#     4   8  17  31  50  80 122 154 187 240 311 368
#     4  10  18  33  57  94 125 152 195 259 321 363
#     4  11  26  44  58  90 129 175 212 241 312 385
#     4  12  19  35  58  94 115 146 204 263 319 358
#
# _framework density 20.852108999999999
#
# number of rings (size 3 to 8) (size 9 to 14) (size 15 to 20)
#    0.000    1.750    3.750    4.125    0.000    1.000 
#    2.250    0.000    0.000    3.750    0.000    0.000 
#    0.000    0.000    0.000    0.000    0.000    0.000 
#
# Total GULP energy -89107.938525 kJ/mol
# GULP energy per Si atom -5569.246158 kJ/mol
# Density = 2.080465 g / cm^3
# Si number density = 20.852109 Si / 1000 Ang^3
#
#
#
# Elastic Constant Matrix: (Units=GPa)
#
#
# Indices 1 2 3 4 5 6 
#
# 1 74.9192 12.0034 18.2586 -11.6387 -8.0407 21.3880
# 2 12.0034 55.4147 26.0364 -12.1661 -0.6510 16.2574
# 3 18.2586 26.0364 118.0239 -10.8945 12.7053 13.2142
# 4 -11.6387 -12.1661 -10.8945 25.3821 12.0126 -15.2200
# 5 -8.0407 -0.6510 12.7053 12.0126 39.9806 -9.9803
# 6 21.3880 16.2574 13.2142 -15.2200 -9.9803 39.7158
#
#
#
# Elastic Compliance Matrix: (Units=1/GPa)
#
#
# Indices 1 2 3 4 5 6 
#
# 1 0.016235 -0.000284 -0.001674 0.001628 0.001541 -0.007058
# 2 -0.000284 0.022980 -0.003499 0.006767 -0.002108 -0.006026
# 3 -0.001674 -0.003499 0.010531 0.003947 -0.005165 -0.000955
# 4 0.001628 0.006767 0.003947 0.061189 -0.015562 0.014579
# 5 0.001541 -0.002108 -0.005165 -0.015562 0.032598 0.003979
# 6 -0.007058 -0.006026 -0.000955 0.014579 0.003979 0.038351
#
#
# Mechanical properties :
#
#
# Convention : Reuss Voigt Hill
#
# Bulk Modulus (GPa) = 25.75251 40.10607 32.92929
# Shear Modulus (GPa) = 24.30224 33.81966 29.06095
#
# Velocity S-wave (km/s) = 3.41758 4.03163 3.73724
# Velocity P-wave (km/s) = 5.28678 6.39901 5.86930
#
# Compressibility (1/GPa) = 0.03883116
#
# Stress axis : x y z
#
# Youngs Moduli (GPa) = 61.59701 43.51571 94.95745
#
# Poissons Ratio (x) = 0.01234 0.15899
# Poissons Ratio (y) = 0.01747 0.33228
# Poissons Ratio (z) = 0.10314 0.15227
#
# Static dielectric constant tensor:
#      x y z
#    x 1.832030 0.111340 -0.011870 
#    y 0.111340 1.573980 0.058800 
#    z -0.011870 0.058800 1.700640 
# 
# From -- ./inp_files/461434.got.cif
#   From: 2010.05.17/outbox.cif.g08.bks.cpg/sg2_231_cif.got.tgz:461434.got - 2010.06.03 11:33:40.
