data_PCOD9076175
_publ_section_title
;
Structure prediction by ZEFSAII (Michael W. Deem and Ramdas Pophale) SiO2 
 PCOD9076175
Probable space group: P -1
;
_chemical_formula_sum "Si O2"
_cell_formula_units_Z 16
_cell_length_a 9.463211
_cell_length_b 16.291752
_cell_length_c 9.522657
_cell_angle_alpha 124.343785
_cell_angle_beta 42.300665
_cell_angle_gamma 112.872603
_cell_volume 814.747631
_symmetry_space_group_name_H-M "P -1"
_symmetry_group_IT_number 2
_symmetry_cell_setting 'triclinic'
loop_
_space_group_symop_operation_xyz
x,y,z
-x,-y,-z
loop_
_atom_site_type_symbol
_atom_site_label
_atom_site_fract_x
_atom_site_fract_y
_atom_site_fract_z
Si Si1 0.946297 0.478813 0.851996
Si Si2 0.920660 0.290983 0.838384
Si Si3 0.711719 0.084237 0.786662
Si Si4 0.659757 0.664706 0.260724
Si Si5 0.831429 0.017034 0.352958
Si Si6 0.337637 0.577947 0.619887
Si Si7 0.305291 0.989292 0.952199
Si Si8 0.501764 0.859793 0.430565
O O1 0.145993 0.511623 0.649938
O O2 0.913272 0.362226 0.775056
O O3 0.000000 0.500000 0.000000
O O4 0.758718 0.558356 0.031194
O O5 0.831746 0.184471 0.777200
O O6 0.154889 0.290997 0.735152
O O7 0.765134 0.344108 0.118571
O O8 0.826425 0.009123 0.518238
O O9 0.708203 0.053582 0.921923
O O10 0.464574 0.078691 0.921896
O O11 0.461080 0.637293 0.472157
O O12 0.585915 0.747618 0.283455
O O13 0.688044 0.115103 0.512454
O O14 0.697612 0.926089 0.309465
O O15 0.064228 0.018823 0.124767
O O16 0.500000 0.500000 0.500000
O O17 0.406401 0.906438 0.691952
#
# Coordination Sequence:
#
# PCOD9076175 Si02
#       8
#     2   2   2   2   2   2   2   2
#     4   8  16  27  42  71 103 129 161 203 253 298
#     4  10  18  28  47  76 104 132 163 201 259 303
#     4  10  21  33  52  78 104 135 171 205 262 308
#     4  10  17  29  48  75 104 127 167 211 250 299
#     4  10  21  38  52  72 107 139 169 213 255 303
#     4  10  14  27  44  70 103 131 156 206 254 290
#     4  10  20  37  52  77 104 130 176 218 252 298
#     4  10  21  34  56  77  98 139 177 208 254 302
#
# _framework density 19.637981
#
# number of rings (size 3 to 8) (size 9 to 14) (size 15 to 20)
#    0.000    2.500    3.750    2.250    0.000    4.000 
#    0.000    0.000    0.000    0.750    0.000    1.750 
#    0.000    0.000    0.000    0.000    0.000    0.000 
#
# Total GULP energy -89115.872790 kJ/mol
# GULP energy per Si atom -5569.742049 kJ/mol
# Density = 1.959328 g / cm^3
# Si number density = 19.637981 Si / 1000 Ang^3
#
#
#
# Elastic Constant Matrix: (Units=GPa)
#
#
# Indices 1 2 3 4 5 6 
#
# 1 52.7932 19.1301 19.6957 -4.9612 -11.3766 -7.3033
# 2 19.1301 111.7142 22.2435 -14.1828 -22.2008 3.4952
# 3 19.6957 22.2435 71.3827 -27.3904 -25.3610 4.6056
# 4 -4.9612 -14.1828 -27.3904 29.9208 2.6934 -13.8539
# 5 -11.3766 -22.2008 -25.3610 2.6934 31.1624 0.9339
# 6 -7.3033 3.4952 4.6056 -13.8539 0.9339 30.3892
#
#
#
# Elastic Compliance Matrix: (Units=1/GPa)
#
#
# Indices 1 2 3 4 5 6 
#
# 1 0.023287 -0.002592 -0.004562 0.001567 0.002591 0.007221
# 2 -0.002592 0.011510 0.003218 0.007460 0.009207 0.000683
# 3 -0.004562 0.003218 0.037777 0.036900 0.027919 0.008772
# 4 0.001567 0.007460 0.036900 0.082749 0.027842 0.030794
# 5 0.002591 0.009207 0.027919 0.027842 0.059725 0.006189
# 6 0.007221 0.000683 0.008772 0.030794 0.006189 0.047082
#
#
# Mechanical properties :
#
#
# Convention : Reuss Voigt Hill
#
# Bulk Modulus (GPa) = 15.45530 39.78099 27.61814
# Shear Modulus (GPa) = 17.14861 29.94919 23.54890
#
# Velocity S-wave (km/s) = 2.95826 3.90944 3.46663
# Velocity P-wave (km/s) = 4.42217 6.37805 5.48795
#
# Compressibility (1/GPa) = 0.06470272
#
# Stress axis : x y z
#
# Youngs Moduli (GPa) = 42.94193 86.88168 26.47112
#
# Poissons Ratio (x) = 0.22516 0.12076
# Poissons Ratio (y) = 0.11129 -0.08518
# Poissons Ratio (z) = 0.19591 -0.27958
#
# Static dielectric constant tensor:
#      x y z
#    x 1.745170 -0.005250 -0.006230 
#    y -0.005250 1.752330 -0.002370 
#    z -0.006230 -0.002370 1.700800 
# 
# From -- ./inp_files/435910.got.cif
#   From: 2010.05.17/outbox.cif.g08.bks.cpg/sg2_218_cif.got.tgz:435910.got - 2010.06.03 11:33:40.
