data_PCOD9076397
_publ_section_title
;
Structure prediction by ZEFSAII (Michael W. Deem and Ramdas Pophale) SiO2 
 PCOD9076397
Probable space group: P -1
;
_chemical_formula_sum "Si O2"
_cell_formula_units_Z 14
_cell_length_a 8.155473
_cell_length_b 11.354064
_cell_length_c 9.175076
_cell_angle_alpha 70.189541
_cell_angle_beta 71.289010
_cell_angle_gamma 120.200274
_cell_volume 550.480109
_symmetry_space_group_name_H-M "P -1"
_symmetry_group_IT_number 2
_symmetry_cell_setting 'triclinic'
loop_
_space_group_symop_operation_xyz
x,y,z
-x,-y,-z
loop_
_atom_site_type_symbol
_atom_site_label
_atom_site_fract_x
_atom_site_fract_y
_atom_site_fract_z
Si Si1 0.610212 0.254124 0.945222
Si Si2 0.733525 0.416984 0.577246
Si Si3 0.299069 0.553902 0.742868
Si Si4 0.266245 0.028583 0.785203
Si Si5 0.152083 0.880936 0.187190
Si Si6 0.851197 0.849278 0.485696
Si Si7 0.155190 0.716064 0.850989
O O1 0.638428 0.391197 0.781188
O O2 0.732449 0.195153 0.853217
O O3 0.735496 0.315825 0.038013
O O4 0.345370 0.073753 0.116292
O O5 0.727635 0.499916 0.397307
O O6 0.519687 0.212758 0.679469
O O7 0.000000 0.500000 0.500000
O O8 0.571578 0.688215 0.660537
O O9 0.204299 0.652085 0.727547
O O10 0.114193 0.394194 0.970806
O O11 0.143960 0.064569 0.698152
O O12 0.291714 0.913464 0.735356
O O13 0.117073 0.919379 0.017968
O O14 0.968295 0.781478 0.415214
O O15 0.000000 0.000000 0.500000
#
# Coordination Sequence:
#
# PCOD9076397 Si02
#       7
#     2   2   2   2   2   2   2
#     4   9  17  32  59  82 105 143 184 228 269 331
#     4  10  18  33  55  87 114 136 182 234 273 323
#     4  10  22  35  58  83 117 145 181 238 277 329
#     4   9  21  36  59  80 111 150 188 226 275 336
#     4   9  18  34  56  82 109 143 188 222 272 332
#     4  11  22  36  55  81 114 149 186 230 280 330
#     4  10  19  38  57  83 113 145 187 230 280 328
#
# _framework density 25.432345000000002
#
# number of rings (size 3 to 8) (size 9 to 14) (size 15 to 20)
#    0.000    2.286    1.429    2.143    0.000    3.429 
#    0.000    3.571    6.286    0.000    0.000    0.000 
#    0.000    0.000    0.000    0.000    0.000    0.000 
#
# Total GULP energy -78021.548955 kJ/mol
# GULP energy per Si atom -5572.967783 kJ/mol
# Density = 2.537446 g / cm^3
# Si number density = 25.432345 Si / 1000 Ang^3
#
#
#
# Elastic Constant Matrix: (Units=GPa)
#
#
# Indices 1 2 3 4 5 6 
#
# 1 42.4743 13.0315 19.0941 3.1002 -5.6550 20.4776
# 2 13.0315 84.5057 7.1729 1.1175 -20.6842 23.9775
# 3 19.0941 7.1729 111.3902 -4.7468 -21.1729 7.6796
# 4 3.1002 1.1175 -4.7468 37.9961 2.5814 -4.5555
# 5 -5.6550 -20.6842 -21.1729 2.5814 43.3266 -1.9739
# 6 20.4776 23.9775 7.6796 -4.5555 -1.9739 37.5364
#
#
#
# Elastic Compliance Matrix: (Units=1/GPa)
#
#
# Indices 1 2 3 4 5 6 
#
# 1 0.035576 0.001210 -0.004605 -0.006058 0.002428 -0.019847
# 2 0.001210 0.016899 0.000977 -0.002419 0.008323 -0.011511
# 3 -0.004605 0.000977 0.010708 0.001359 0.005023 0.000126
# 4 -0.006058 -0.002419 0.001359 0.028172 -0.002602 0.007855
# 5 0.002428 0.008323 0.005023 -0.002602 0.029688 -0.006423
# 6 -0.019847 -0.011511 0.000126 0.007855 -0.006423 0.045411
#
#
# Mechanical properties :
#
#
# Convention : Reuss Voigt Hill
#
# Bulk Modulus (GPa) = 17.13851 35.21858 26.17854
# Shear Modulus (GPa) = 26.21393 37.04325 31.62859
#
# Velocity S-wave (km/s) = 3.21398 3.82061 3.53035
# Velocity P-wave (km/s) = 4.53061 5.77414 5.18976
#
# Compressibility (1/GPa) = 0.05834814
#
# Stress axis : x y z
#
# Youngs Moduli (GPa) = 28.10862 59.17447 93.39002
#
# Poissons Ratio (x) = -0.07162 0.43003
# Poissons Ratio (y) = -0.03402 -0.09122
# Poissons Ratio (z) = 0.12943 -0.05780
#
# Static dielectric constant tensor:
#      x y z
#    x 2.164320 -0.141310 -0.010390 
#    y -0.141310 2.179110 0.000620 
#    z -0.010390 0.000620 2.135610 
# 
# From -- ./inp_files/206848.got.cif
#   From: 2010.05.17/outbox.cif.g08.bks.cpg/sg2_104_cif.got.tgz:206848.got - 2010.06.03 11:33:40.
