data_PCOD9076550
_publ_section_title
;
Structure prediction by ZEFSAII (Michael W. Deem and Ramdas Pophale) SiO2 
 PCOD9076550
Probable space group: P -1
;
_chemical_formula_sum "Si O2"
_cell_formula_units_Z 16
_cell_length_a 8.147150
_cell_length_b 13.318903
_cell_length_c 22.322718
_cell_angle_alpha 152.330420
_cell_angle_beta 146.911881
_cell_angle_gamma 45.653914
_cell_volume 605.167758
_symmetry_space_group_name_H-M "P -1"
_symmetry_group_IT_number 2
_symmetry_cell_setting 'triclinic'
loop_
_space_group_symop_operation_xyz
x,y,z
-x,-y,-z
loop_
_atom_site_type_symbol
_atom_site_label
_atom_site_fract_x
_atom_site_fract_y
_atom_site_fract_z
Si Si1 0.421450 0.920899 0.337253
Si Si2 0.756304 0.844881 0.110148
Si Si3 0.552767 0.650551 0.345013
Si Si4 0.549289 0.893717 0.680793
Si Si5 0.236725 0.391234 0.215742
Si Si6 0.230908 0.915754 0.920247
Si Si7 0.426026 0.646968 0.002185
Si Si8 0.772551 0.334124 0.427839
O O1 0.521091 0.730932 0.309150
O O2 0.570577 0.029028 0.378729
O O3 0.066718 0.837936 0.167284
O O4 0.435213 0.125888 0.494624
O O5 0.421122 0.769774 0.940268
O O6 0.771484 0.096735 0.269224
O O7 0.724242 0.684647 0.071728
O O8 0.302607 0.483501 0.217342
O O9 0.872018 0.567008 0.409837
O O10 0.343727 0.718420 0.567809
O O11 0.582201 0.113335 0.846906
O O12 0.891848 0.835708 0.750687
O O13 0.198186 0.128426 0.061933
O O14 0.536992 0.454042 0.381900
O O15 0.920958 0.446004 0.173149
O O16 0.500000 0.000000 0.000000
O O17 0.500000 0.500000 0.000000
#
# Coordination Sequence:
#
# PCOD9076550 Si02
#       8
#     2   2   2   2   2   2   2   2
#     4  10  20  36  58  79 107 149 185 224 263 327
#     4   9  17  33  56  80 108 142 179 213 275 328
#     4  10  21  37  56  77 109 150 188 219 269 317
#     4  10  20  36  58  83 108 141 187 221 274 324
#     4  10  20  36  58  81 109 144 183 219 271 330
#     4  10  18  33  57  85 108 137 173 226 276 320
#     4  10  20  35  55  83 113 143 173 223 277 329
#     4   9  19  35  57  78 105 145 182 226 261 317
#
# _framework density 26.438952
#
# number of rings (size 3 to 8) (size 9 to 14) (size 15 to 20)
#    0.000    2.250    1.250    1.875    0.000    4.500 
#    2.250    2.500    0.000    0.000    0.000    0.000 
#    0.000    0.000    0.000    0.000    0.000    0.000 
#
# Total GULP energy -89364.427011 kJ/mol
# GULP energy per Si atom -5585.276688 kJ/mol
# Density = 2.637878 g / cm^3
# Si number density = 26.438952 Si / 1000 Ang^3
#
#
#
# Elastic Constant Matrix: (Units=GPa)
#
#
# Indices 1 2 3 4 5 6 
#
# 1 63.6959 2.2257 6.6975 -0.3621 16.7329 14.4127
# 2 2.2257 90.9039 -4.3828 -3.6863 5.9177 11.3607
# 3 6.6975 -4.3828 74.8411 -11.3853 -11.4846 -9.6253
# 4 -0.3621 -3.6863 -11.3853 27.7645 0.0784 -0.7239
# 5 16.7329 5.9177 -11.4846 0.0784 38.8489 8.5486
# 6 14.4127 11.3607 -9.6253 -0.7239 8.5486 45.6972
#
#
#
# Elastic Compliance Matrix: (Units=1/GPa)
#
#
# Indices 1 2 3 4 5 6 
#
# 1 0.019569 0.000520 -0.003949 -0.001417 -0.008446 -0.005576
# 2 0.000520 0.011488 0.000326 0.001600 -0.001290 -0.002685
# 3 -0.003949 0.000326 0.016070 0.006660 0.005595 0.003608
# 4 -0.001417 0.001600 0.006660 0.038982 0.001879 0.001718
# 5 -0.008446 -0.001290 0.005595 0.001879 0.031603 -0.001720
# 6 -0.005576 -0.002685 0.003608 0.001718 -0.001720 0.025418
#
#
# Mechanical properties :
#
#
# Convention : Reuss Voigt Hill
#
# Bulk Modulus (GPa) = 24.43795 26.50243 25.47019
# Shear Modulus (GPa) = 30.67928 37.45548 34.06738
#
# Velocity S-wave (km/s) = 3.41013 3.76796 3.59350
# Velocity P-wave (km/s) = 4.97680 5.38292 5.18384
#
# Compressibility (1/GPa) = 0.04091996
#
# Stress axis : x y z
#
# Youngs Moduli (GPa) = 51.10145 87.04766 62.22819
#
# Poissons Ratio (x) = -0.04523 0.24576
# Poissons Ratio (y) = -0.02655 -0.02031
# Poissons Ratio (z) = 0.20182 -0.02841
#
# Static dielectric constant tensor:
#      x y z
#    x 2.307300 0.128890 -0.259580 
#    y 0.128890 2.267890 0.038490 
#    z -0.259580 0.038490 2.400100 
# 
# From -- ./inp_files/181322.got.cif
#   From: 2010.05.17/outbox.cif.g08.bks.cpg/sg2_91_cif.got.tgz:181322.got - 2010.06.03 11:33:40.
