data_PCOD9076997
_publ_section_title
;
Structure prediction by ZEFSAII (Michael W. Deem and Ramdas Pophale) SiO2 
 PCOD9076997
Probable space group: P -1
;
_chemical_formula_sum "Si O2"
_cell_formula_units_Z 16
_cell_length_a 13.888361
_cell_length_b 7.311186
_cell_length_c 7.989149
_cell_angle_alpha 102.140080
_cell_angle_beta 98.752600
_cell_angle_gamma 58.988261
_cell_volume 678.788006
_symmetry_space_group_name_H-M "P -1"
_symmetry_group_IT_number 2
_symmetry_cell_setting 'triclinic'
loop_
_space_group_symop_operation_xyz
x,y,z
-x,-y,-z
loop_
_atom_site_type_symbol
_atom_site_label
_atom_site_fract_x
_atom_site_fract_y
_atom_site_fract_z
Si Si1 0.611347 0.050566 0.696668
Si Si2 0.066653 0.167325 0.004846
Si Si3 0.137213 0.733539 0.248058
Si Si4 0.183620 0.064004 0.507742
Si Si5 0.647163 0.325783 0.321874
Si Si6 0.009726 0.448414 0.734294
Si Si7 0.557167 0.695244 0.604451
Si Si8 0.294983 0.722717 0.032073
O O1 0.729477 0.946289 0.609245
O O2 0.593419 0.858247 0.719581
O O3 0.518369 0.184547 0.557323
O O4 0.615873 0.212939 0.862495
O O5 0.025085 0.307228 0.190490
O O6 0.183244 0.952842 0.013817
O O7 0.078441 0.320834 0.897227
O O8 0.966207 0.149044 0.888636
O O9 0.251688 0.625430 0.147656
O O10 0.100999 0.577566 0.299621
O O11 0.132418 0.918779 0.399571
O O12 0.091993 0.304178 0.582014
O O13 0.261181 0.920572 0.656198
O O14 0.650865 0.472523 0.502440
O O15 0.525253 0.344647 0.307429
O O16 0.668705 0.391460 0.158798
#
# Coordination Sequence:
#
# PCOD9076997 Si02
#       8
#     2   2   2   2   2   2   2   2
#     4   9  21  37  55  74 107 128 168 215 261 307
#     4   9  19  33  49  74 109 139 167 209 243 292
#     4   9  19  32  50  73 109 136 169 207 247 289
#     4  10  18  34  54  77  99 143 174 201 247 304
#     4  10  20  34  59  75 102 129 175 209 254 315
#     4   9  18  33  50  71 107 145 165 205 245 292
#     4   9  20  41  53  76 100 134 162 217 269 302
#     4  11  20  34  53  81 101 135 172 211 249 301
#
# _framework density 23.571422999999999
#
# number of rings (size 3 to 8) (size 9 to 14) (size 15 to 20)
#    0.750    1.750    1.250    0.750    0.000    3.000 
#    0.000    2.500    0.000    0.000    0.000    0.875 
#    0.000    0.000    0.000    0.000    0.000    0.000 
#
# Total GULP energy -89351.307295 kJ/mol
# GULP energy per Si atom -5584.456706 kJ/mol
# Density = 2.351777 g / cm^3
# Si number density = 23.571423 Si / 1000 Ang^3
#
#
#
# Elastic Constant Matrix: (Units=GPa)
#
#
# Indices 1 2 3 4 5 6 
#
# 1 53.4743 25.9583 23.2850 9.8759 10.4377 6.4252
# 2 25.9583 76.2575 8.0604 14.5910 -3.8514 -7.5369
# 3 23.2850 8.0604 92.9575 14.7191 -13.1710 -9.8274
# 4 9.8759 14.5910 14.7191 28.8825 -0.2637 -5.0885
# 5 10.4377 -3.8514 -13.1710 -0.2637 37.4183 2.4551
# 6 6.4252 -7.5369 -9.8274 -5.0885 2.4551 23.7334
#
#
#
# Elastic Compliance Matrix: (Units=1/GPa)
#
#
# Indices 1 2 3 4 5 6 
#
# 1 0.034848 -0.012489 -0.010902 -0.003203 -0.013739 -0.017180
# 2 -0.012489 0.019295 0.004282 -0.005954 0.006322 0.009351
# 3 -0.010902 0.004282 0.016060 -0.004954 0.008508 0.009019
# 4 -0.003203 -0.005954 -0.004954 0.042322 -0.001569 0.006161
# 5 -0.013739 0.006322 0.008508 -0.001569 0.033837 0.005413
# 6 -0.017180 0.009351 0.009019 0.006161 0.005413 0.054251
#
#
# Mechanical properties :
#
#
# Convention : Reuss Voigt Hill
#
# Bulk Modulus (GPa) = 31.26341 37.47740 34.37040
# Shear Modulus (GPa) = 20.04076 29.03256 24.53666
#
# Velocity S-wave (km/s) = 2.91901 3.51334 3.22988
# Velocity P-wave (km/s) = 4.96516 5.69141 5.34065
#
# Compressibility (1/GPa) = 0.03198628
#
# Stress axis : x y z
#
# Youngs Moduli (GPa) = 28.69626 51.82728 62.26457
#
# Poissons Ratio (x) = 0.64727 0.67880
# Poissons Ratio (y) = 0.35839 -0.26664
# Poissons Ratio (z) = 0.31284 -0.22195
#
# Static dielectric constant tensor:
#      x y z
#    x 1.901760 0.015650 0.001950 
#    y 0.015650 1.976150 -0.058050 
#    z 0.001950 -0.058050 1.929060 
# 
# From -- ./inp_files/293018.got.cif
#   From: 2010.05.17/outbox.cif.g08.bks.cpg/sg2_147_cif.got.tgz:293018.got - 2010.06.03 11:33:40.
