data_PCOD9076842
_publ_section_title
;
Structure prediction by ZEFSAII (Michael W. Deem and Ramdas Pophale) SiO2 
 PCOD9076842
Probable space group: P -1
;
_chemical_formula_sum "Si O2"
_cell_formula_units_Z 16
_cell_length_a 13.215070
_cell_length_b 18.695250
_cell_length_c 31.700276
_cell_angle_alpha 15.746327
_cell_angle_beta 160.772786
_cell_angle_gamma 158.176942
_cell_volume 682.971778
_symmetry_space_group_name_H-M "P -1"
_symmetry_group_IT_number 2
_symmetry_cell_setting 'triclinic'
loop_
_space_group_symop_operation_xyz
x,y,z
-x,-y,-z
loop_
_atom_site_type_symbol
_atom_site_label
_atom_site_fract_x
_atom_site_fract_y
_atom_site_fract_z
Si Si1 0.152586 0.496253 0.907913
Si Si2 0.158176 0.293781 0.653172
Si Si3 0.664423 0.302395 0.578160
Si Si4 0.774744 0.957486 0.091873
Si Si5 0.144330 0.816010 0.871004
Si Si6 0.222649 0.747630 0.709106
Si Si7 0.943325 0.400035 0.724350
Si Si8 0.511243 0.086080 0.134027
O O1 0.043533 0.559623 0.782681
O O2 0.286320 0.774718 0.825880
O O3 0.455270 0.362480 0.101562
O O4 0.904889 0.279124 0.959362
O O5 0.352987 0.468962 0.593028
O O6 0.965413 0.027239 0.703538
O O7 0.000000 0.500000 0.500000
O O8 0.295031 0.162005 0.821466
O O9 0.781340 0.410304 0.609379
O O10 0.351628 0.061814 0.592364
O O11 0.946044 0.169373 0.746360
O O12 0.480870 0.872795 0.994046
O O13 0.238294 0.898610 0.813363
O O14 0.000000 0.500000 0.000000
O O15 0.058146 0.673176 0.641560
O O16 0.695117 0.198355 0.770682
O O17 0.249956 0.263502 0.918427
#
# Coordination Sequence:
#
# PCOD9076842 Si02
#       8
#     2   2   2   2   2   2   2   2
#     4   9  16  30  57  89 124 155 214 262 313 365
#     4  10  24  44  63  87 129 176 214 262 330 392
#     4  10  19  39  60  92 131 165 209 261 329 395
#     4  10  20  39  64  87 122 171 217 269 317 375
#     4  12  24  41  65  98 125 165 228 275 317 377
#     4   9  17  28  55  92 122 167 203 256 313 384
#     4  10  18  33  60  96 130 163 212 265 325 380
#     4  10  19  32  59  95 128 160 212 278 313 372
#
# _framework density 23.427029000000001
#
# number of rings (size 3 to 8) (size 9 to 14) (size 15 to 20)
#    0.000    2.000    2.500    1.875    3.500    1.000 
#    2.250    1.875    0.000    1.500    0.000    0.000 
#    0.000    0.000    0.000    0.000    0.000    0.000 
#
# Total GULP energy -89337.314670 kJ/mol
# GULP energy per Si atom -5583.582167 kJ/mol
# Density = 2.337371 g / cm^3
# Si number density = 23.427029 Si / 1000 Ang^3
#
#
#
# Elastic Constant Matrix: (Units=GPa)
#
#
# Indices 1 2 3 4 5 6 
#
# 1 102.7193 33.7080 42.9594 -8.9460 -18.8031 -3.3561
# 2 33.7080 133.9931 40.1603 -14.6884 -18.0728 -6.1527
# 3 42.9594 40.1603 96.1855 -14.2092 -24.3569 -9.3007
# 4 -8.9460 -14.6884 -14.2092 26.7418 -0.9712 -2.2915
# 5 -18.8031 -18.0728 -24.3569 -0.9712 53.6929 0.0294
# 6 -3.3561 -6.1527 -9.3007 -2.2915 0.0294 40.3330
#
#
#
# Elastic Compliance Matrix: (Units=1/GPa)
#
#
# Indices 1 2 3 4 5 6 
#
# 1 0.012468 -0.001464 -0.004310 0.001137 0.001939 -0.000116
# 2 -0.001464 0.009123 -0.002116 0.003541 0.001662 0.000982
# 3 -0.004310 -0.002116 0.015710 0.006208 0.005016 0.003290
# 4 0.001137 0.003541 0.006208 0.043596 0.005192 0.004539
# 5 0.001939 0.001662 0.005016 0.005192 0.022231 0.001850
# 6 -0.000116 0.000982 0.003290 0.004539 0.001850 0.025949
#
#
# Mechanical properties :
#
#
# Convention : Reuss Voigt Hill
#
# Bulk Modulus (GPa) = 46.46515 62.95038 54.70776
# Shear Modulus (GPa) = 32.88787 38.55823 35.72305
#
# Velocity S-wave (km/s) = 3.75085 4.06135 3.90919
# Velocity P-wave (km/s) = 6.21575 6.99442 6.61655
#
# Compressibility (1/GPa) = 0.02152151
#
# Stress axis : x y z
#
# Youngs Moduli (GPa) = 80.20335 109.61209 63.65232
#
# Poissons Ratio (x) = 0.16047 0.27432
# Poissons Ratio (y) = 0.11742 0.13472
# Poissons Ratio (z) = 0.34565 0.23199
#
# Static dielectric constant tensor:
#      x y z
#    x 2.103570 -0.079530 0.158040 
#    y -0.079530 1.914030 -0.084380 
#    z 0.158040 -0.084380 1.947840 
# 
# From -- ./inp_files/280504.got.cif
#   From: 2010.05.17/outbox.cif.g08.bks.cpg/sg2_141_cif.got.tgz:280504.got - 2010.06.03 11:33:40.
