data_PCOD9076623
_publ_section_title
;
Structure prediction by ZEFSAII (Michael W. Deem and Ramdas Pophale) SiO2 
 PCOD9076623
Probable space group: P -1
;
_chemical_formula_sum "Si O2"
_cell_formula_units_Z 16
_cell_length_a 17.963355
_cell_length_b 22.893330
_cell_length_c 7.028113
_cell_angle_alpha 37.204005
_cell_angle_beta 129.480982
_cell_angle_gamma 156.063367
_cell_volume 657.109628
_symmetry_space_group_name_H-M "P -1"
_symmetry_group_IT_number 2
_symmetry_cell_setting 'triclinic'
loop_
_space_group_symop_operation_xyz
x,y,z
-x,-y,-z
loop_
_atom_site_type_symbol
_atom_site_label
_atom_site_fract_x
_atom_site_fract_y
_atom_site_fract_z
Si Si1 0.811585 0.107931 0.353250
Si Si2 0.194980 0.839313 0.247257
Si Si3 0.201855 0.383281 0.178738
Si Si4 0.358886 0.255598 0.925527
Si Si5 0.100854 0.039286 0.381491
Si Si6 0.442649 0.941710 0.836046
Si Si7 0.249520 0.565572 0.429333
Si Si8 0.377276 0.199037 0.709054
O O1 0.703343 0.096284 0.326958
O O2 0.042153 0.291170 0.302334
O O3 0.692469 0.903424 0.707927
O O4 0.252337 0.508808 0.778913
O O5 0.352568 0.889975 0.384271
O O6 0.975102 0.621189 0.513825
O O7 0.191096 0.862522 0.952112
O O8 0.259579 0.994855 0.050676
O O9 0.059567 0.179883 0.375575
O O10 0.410959 0.525988 0.221278
O O11 0.195198 0.169608 0.007334
O O12 0.328759 0.230708 0.715145
O O13 0.305786 0.180371 0.442972
O O14 0.000000 0.000000 0.500000
O O15 0.339044 0.748865 0.134090
O O16 0.500000 0.000000 0.000000
O O17 0.394157 0.631210 0.358342
#
# Coordination Sequence:
#
# PCOD9076623 Si02
#       8
#     2   2   2   2   2   2   2   2
#     4   9  18  34  55  85 121 157 200 244 287 333
#     4   9  17  34  56  82 115 162 198 239 291 333
#     4  10  19  38  61  86 115 158 196 236 297 345
#     4  11  22  39  63  87 120 154 197 235 289 355
#     4  11  24  44  65  89 118 146 189 244 296 355
#     4   9  17  27  51  88 119 152 202 248 284 325
#     4  10  18  33  58  82 117 158 204 231 288 351
#     4  11  21  39  62  87 117 160 188 239 294 346
#
# _framework density 24.349056000000001
#
# number of rings (size 3 to 8) (size 9 to 14) (size 15 to 20)
#    0.000    2.000    5.000    1.500    0.000    8.500 
#    0.000    3.125    0.000    4.500    0.000    0.000 
#    0.000    0.000    0.000    0.000    0.000    0.000 
#
# Total GULP energy -89396.929442 kJ/mol
# GULP energy per Si atom -5587.308090 kJ/mol
# Density = 2.429364 g / cm^3
# Si number density = 24.349056 Si / 1000 Ang^3
#
#
#
# Elastic Constant Matrix: (Units=GPa)
#
#
# Indices 1 2 3 4 5 6 
#
# 1 134.3617 38.3047 16.4625 -19.5034 -27.0697 13.1035
# 2 38.3047 124.9380 28.7657 -28.1699 -17.0927 12.6286
# 3 16.4625 28.7657 72.6095 -20.3819 -10.0485 0.9199
# 4 -19.5034 -28.1699 -20.3819 41.3105 9.4017 -12.5011
# 5 -27.0697 -17.0927 -10.0485 9.4017 21.2629 -0.0966
# 6 13.1035 12.6286 0.9199 -12.5011 -0.0966 38.9981
#
#
#
# Elastic Compliance Matrix: (Units=1/GPa)
#
#
# Indices 1 2 3 4 5 6 
#
# 1 0.010630 -0.001138 -0.000076 0.000480 0.012356 -0.003017
# 2 -0.001138 0.010513 -0.002152 0.004129 0.004152 -0.001637
# 3 -0.000076 -0.002152 0.016993 0.006936 0.003147 0.002553
# 4 0.000480 0.004129 0.006936 0.035535 -0.008460 0.009708
# 5 0.012356 0.004152 0.003147 -0.008460 0.071289 -0.008106
# 6 -0.003017 -0.001637 0.002553 0.009708 -0.008106 0.030218
#
#
# Mechanical properties :
#
#
# Convention : Reuss Voigt Hill
#
# Bulk Modulus (GPa) = 31.84533 55.44168 43.64351
# Shear Modulus (GPa) = 25.99057 36.87271 31.43164
#
# Velocity S-wave (km/s) = 3.27068 3.89567 3.59678
# Velocity P-wave (km/s) = 5.23165 6.56155 5.93398
#
# Compressibility (1/GPa) = 0.03140178
#
# Stress axis : x y z
#
# Youngs Moduli (GPa) = 94.07780 95.12066 58.84889
#
# Poissons Ratio (x) = 0.10823 0.00450
# Poissons Ratio (y) = 0.10704 0.12667
# Poissons Ratio (z) = 0.00719 0.20475
#
# Static dielectric constant tensor:
#      x y z
#    x 1.984010 0.070340 -0.044830 
#    y 0.070340 2.001440 0.042920 
#    z -0.044830 0.042920 1.913270 
# 
# From -- ./inp_files/338441.got.cif
#   From: 2010.05.17/outbox.cif.g08.bks.cpg/sg2_170_cif.got.tgz:338441.got - 2010.06.03 11:33:40.
