data_PCOD9076086
_publ_section_title
;
Structure prediction by ZEFSAII (Michael W. Deem and Ramdas Pophale) SiO2 
 PCOD9076086
Probable space group: P -1
;
_chemical_formula_sum "Si O2"
_cell_formula_units_Z 14
_cell_length_a 11.263139
_cell_length_b 10.443999
_cell_length_c 8.290165
_cell_angle_alpha 78.972918
_cell_angle_beta 119.092914
_cell_angle_gamma 55.836408
_cell_volume 540.504060
_symmetry_space_group_name_H-M "P -1"
_symmetry_group_IT_number 2
_symmetry_cell_setting 'triclinic'
loop_
_space_group_symop_operation_xyz
x,y,z
-x,-y,-z
loop_
_atom_site_type_symbol
_atom_site_label
_atom_site_fract_x
_atom_site_fract_y
_atom_site_fract_z
Si Si1 0.317108 0.740748 0.821713
Si Si2 0.390378 0.284409 0.550139
Si Si3 0.842653 0.503029 0.952613
Si Si4 0.050599 0.348897 0.449109
Si Si5 0.200142 0.742299 0.079699
Si Si6 0.705241 0.350780 0.500634
Si Si7 0.640688 0.027803 0.068462
O O1 0.214325 0.776006 0.577594
O O2 0.500000 0.500000 0.000000
O O3 0.183969 0.822179 0.877904
O O4 0.417051 0.810132 0.891951
O O5 0.248257 0.262376 0.501474
O O6 0.289444 0.493971 0.506869
O O7 0.599804 0.106950 0.838434
O O8 0.369984 0.312660 0.335960
O O9 0.864885 0.471385 0.167501
O O10 0.923299 0.302975 0.995963
O O11 0.000000 0.500000 0.000000
O O12 0.000000 0.500000 0.500000
O O13 0.131452 0.175664 0.660843
O O14 0.451599 0.518562 0.297539
O O15 0.186931 0.801073 0.239773
O O16 0.500000 0.000000 0.000000
#
# Coordination Sequence:
#
# PCOD9076086 Si02
#       7
#     2   2   2   2   2   2   2
#     4  10  18  32  60  89 117 150 195 250 307 342
#     4   9  17  36  61  80 113 153 201 249 289 350
#     4   9  19  35  55  81 116 163 189 239 309 355
#     4  10  22  35  57  82 122 159 196 236 305 363
#     4   9  17  29  55  83 119 148 196 244 291 359
#     4   9  17  30  56  91 111 148 199 246 303 342
#     4  10  20  36  60  88 117 155 201 253 287 353
#
# _framework density 25.90175
#
# number of rings (size 3 to 8) (size 9 to 14) (size 15 to 20)
#    0.000    2.571    2.857    0.000    2.000    1.143 
#    0.000    1.429   12.571    1.714    0.000    0.000 
#    0.000    0.000    0.000    0.000    0.000    0.000 
#
# Total GULP energy -77959.002669 kJ/mol
# GULP energy per Si atom -5568.500191 kJ/mol
# Density = 2.584280 g / cm^3
# Si number density = 25.901750 Si / 1000 Ang^3
#
#
#
# Elastic Constant Matrix: (Units=GPa)
#
#
# Indices 1 2 3 4 5 6 
#
# 1 66.7672 29.3321 36.4347 8.7667 -3.3183 17.9205
# 2 29.3321 108.7182 75.7663 20.5859 -4.0898 19.7431
# 3 36.4347 75.7663 303.8157 22.7105 -48.5864 -25.7172
# 4 8.7667 20.5859 22.7105 54.5272 -10.4714 -1.2502
# 5 -3.3183 -4.0898 -48.5864 -10.4714 35.1743 11.8768
# 6 17.9205 19.7431 -25.7172 -1.2502 11.8768 37.9872
#
#
#
# Elastic Compliance Matrix: (Units=1/GPa)
#
#
# Indices 1 2 3 4 5 6 
#
# 1 0.020321 -0.001103 -0.002795 -0.001706 0.001254 -0.011354
# 2 -0.001103 0.015202 -0.004587 -0.004389 -0.002672 -0.009795
# 3 -0.002795 -0.004587 0.006166 0.000893 0.005944 0.006048
# 4 -0.001706 -0.004389 0.000893 0.021108 0.005999 0.002510
# 5 0.001254 -0.002672 0.005944 0.005999 0.040852 -0.007754
# 6 -0.011354 -0.009795 0.006048 0.002510 -0.007754 0.043373
#
#
# Mechanical properties :
#
#
# Convention : Reuss Voigt Hill
#
# Bulk Modulus (GPa) = 40.45419 84.70750 62.58084
# Shear Modulus (GPa) = 29.03062 48.05559 38.54311
#
# Velocity S-wave (km/s) = 3.35146 4.31200 3.86171
# Velocity P-wave (km/s) = 5.53431 7.58719 6.64056
#
# Compressibility (1/GPa) = 0.02471932
#
# Stress axis : x y z
#
# Youngs Moduli (GPa) = 49.21096 65.78185 162.16843
#
# Poissons Ratio (x) = 0.07254 0.45325
# Poissons Ratio (y) = 0.05426 0.74389
# Poissons Ratio (z) = 0.13754 0.30175
#
# Static dielectric constant tensor:
#      x y z
#    x 4.904560 0.680730 7.094100 
#    y 0.680730 2.178100 1.694600 
#    z 7.094100 1.694600 20.267210 
# 
# From -- ./inp_files/243495.got.cif
#   From: 2010.05.17/outbox.cif.g08.bks.cpg/sg2_122_cif.got.tgz:243495.got - 2010.06.03 11:33:40.
