data_PCOD9076777
_publ_section_title
;
Structure prediction by ZEFSAII (Michael W. Deem and Ramdas Pophale) SiO2 
 PCOD9076777
Probable space group: P -1
;
_chemical_formula_sum "Si O2"
_cell_formula_units_Z 16
_cell_length_a 19.320297
_cell_length_b 7.833642
_cell_length_c 19.997515
_cell_angle_alpha 135.527453
_cell_angle_beta 20.480856
_cell_angle_gamma 140.554914
_cell_volume 672.156277
_symmetry_space_group_name_H-M "P -1"
_symmetry_group_IT_number 2
_symmetry_cell_setting 'triclinic'
loop_
_space_group_symop_operation_xyz
x,y,z
-x,-y,-z
loop_
_atom_site_type_symbol
_atom_site_label
_atom_site_fract_x
_atom_site_fract_y
_atom_site_fract_z
Si Si1 0.541503 0.119611 0.070962
Si Si2 0.906713 0.356556 0.905627
Si Si3 0.644979 0.233789 0.358597
Si Si4 0.557028 0.349943 0.322195
Si Si5 0.842244 0.889417 0.917466
Si Si6 0.811336 0.241922 0.497711
Si Si7 0.403118 0.680917 0.175184
Si Si8 0.548433 0.696629 0.247497
O O1 0.504048 0.385238 0.193101
O O2 0.784888 0.198131 0.904624
O O3 0.500000 0.000000 0.000000
O O4 0.386151 0.882235 0.192839
O O5 0.127931 0.613677 0.765898
O O6 0.974079 0.183898 0.850448
O O7 0.723031 0.409430 0.127142
O O8 0.663493 0.286176 0.274872
O O9 0.494821 0.391637 0.552399
O O10 0.577630 0.916290 0.340008
O O11 0.332870 0.074570 0.439275
O O12 0.604901 0.825602 0.083994
O O13 0.959477 0.720863 0.730160
O O14 0.781193 0.831593 0.033569
O O15 0.668438 0.300127 0.587840
O O16 0.802034 0.420091 0.618675
O O17 0.500000 0.500000 0.000000
#
# Coordination Sequence:
#
# PCOD9076777 Si02
#       8
#     2   2   2   2   2   2   2   2
#     4  11  23  42  64  84 124 172 203 251 316 365
#     4  11  20  36  62  91 122 163 214 255 296 362
#     4  10  20  32  62  93 128 158 201 252 312 367
#     4  10  18  33  59  97 122 156 198 260 308 356
#     4  10  19  35  61  90 120 156 205 256 299 359
#     4  10  18  36  61  88 120 156 203 257 300 359
#     4  10  21  40  65  86 111 154 214 266 300 351
#     4  10  22  38  57  94 132 161 195 251 315 375
#
# _framework density 23.803988
#
# number of rings (size 3 to 8) (size 9 to 14) (size 15 to 20)
#    0.000    1.750    6.250    1.875    0.000    1.000 
#    0.000    4.375    0.000    9.000    0.000    0.000 
#    0.000    0.000    0.000    0.000    0.000    0.000 
#
# Total GULP energy -89077.921771 kJ/mol
# GULP energy per Si atom -5567.370111 kJ/mol
# Density = 2.374981 g / cm^3
# Si number density = 23.803988 Si / 1000 Ang^3
#
#
#
# Elastic Constant Matrix: (Units=GPa)
#
#
# Indices 1 2 3 4 5 6 
#
# 1 61.8034 7.2163 9.1399 -1.9058 1.8940 9.4999
# 2 7.2163 92.1665 20.7320 38.0466 -8.9293 -4.9697
# 3 9.1399 20.7320 144.2731 30.8664 2.4866 -1.7694
# 4 -1.9058 38.0466 30.8664 41.8452 11.2746 -9.3374
# 5 1.8940 -8.9293 2.4866 11.2746 19.7552 5.8534
# 6 9.4999 -4.9697 -1.7694 -9.3374 5.8534 31.1831
#
#
#
# Elastic Compliance Matrix: (Units=1/GPa)
#
#
# Indices 1 2 3 4 5 6 
#
# 1 0.018145 -0.006292 -0.002356 0.010562 -0.009824 -0.001658
# 2 -0.006292 0.040936 0.006870 -0.063921 0.061180 -0.021794
# 3 -0.002356 0.006870 0.009807 -0.018886 0.014665 -0.006039
# 4 0.010562 -0.063921 -0.018886 0.140904 -0.122997 0.050803
# 5 -0.009824 0.061180 0.014665 -0.122997 0.163551 -0.053955
# 6 -0.001658 -0.021794 -0.006039 0.050803 -0.053955 0.054098
#
#
# Mechanical properties :
#
#
# Convention : Reuss Voigt Hill
#
# Bulk Modulus (GPa) = 15.30638 41.37995 28.34316
# Shear Modulus (GPa) = 11.04301 35.96705 23.50503
#
# Velocity S-wave (km/s) = 2.15620 3.89133 3.14577
# Velocity P-wave (km/s) = 3.55571 6.13281 5.01270
#
# Compressibility (1/GPa) = 0.06533225
#
# Stress axis : x y z
#
# Youngs Moduli (GPa) = 55.11174 24.42832 101.96626
#
# Poissons Ratio (x) = 0.15370 0.24024
# Poissons Ratio (y) = 0.34675 -0.70050
# Poissons Ratio (z) = 0.12985 -0.16782
#
# Static dielectric constant tensor:
#      x y z
#    x 2.040550 -0.019030 0.077030 
#    y -0.019030 2.066580 0.030270 
#    z 0.077030 0.030270 1.935740 
# 
# From -- ./inp_files/601222.got.cif
#   From: 2010.05.17/outbox.cif.g08.bks.cpg/sg2_301_cif.got.tgz:601222.got - 2010.06.03 11:33:40.
