data_PCOD9076981
_publ_section_title
;
Structure prediction by ZEFSAII (Michael W. Deem and Ramdas Pophale) SiO2 
 PCOD9076981
Probable space group: P -1
;
_chemical_formula_sum "Si O2"
_cell_formula_units_Z 16
_cell_length_a 9.190228
_cell_length_b 17.309104
_cell_length_c 10.999193
_cell_angle_alpha 72.643564
_cell_angle_beta 110.259305
_cell_angle_gamma 153.725016
_cell_volume 726.323230
_symmetry_space_group_name_H-M "P -1"
_symmetry_group_IT_number 2
_symmetry_cell_setting 'triclinic'
loop_
_space_group_symop_operation_xyz
x,y,z
-x,-y,-z
loop_
_atom_site_type_symbol
_atom_site_label
_atom_site_fract_x
_atom_site_fract_y
_atom_site_fract_z
Si Si1 0.205666 0.816386 0.574543
Si Si2 0.332623 0.802000 0.113741
Si Si3 0.476478 0.699352 0.910697
Si Si4 0.745276 0.980500 0.773103
Si Si5 0.670494 0.636797 0.332890
Si Si6 0.711148 0.402644 0.826421
Si Si7 0.637245 0.513360 0.147987
Si Si8 0.693519 0.116462 0.159863
O O1 0.416781 0.832719 0.658967
O O2 0.144465 0.821788 0.690957
O O3 0.866167 0.672268 0.470114
O O4 0.500000 0.000000 0.500000
O O5 0.421532 0.749264 0.169642
O O6 0.036951 0.684486 0.176882
O O7 0.629976 0.001809 0.131703
O O8 0.175385 0.758140 0.958965
O O9 0.749890 0.893710 0.870114
O O10 0.503584 0.641349 0.846495
O O11 0.109197 0.571836 0.863385
O O12 0.456818 0.655968 0.062815
O O13 0.653084 0.000031 0.845961
O O14 0.053365 0.165285 0.711064
O O15 0.363244 0.556356 0.302264
O O16 0.573685 0.532800 0.243148
O O17 0.500000 0.500000 0.000000
#
# Coordination Sequence:
#
# PCOD9076981 Si02
#       8
#     2   2   2   2   2   2   2   2
#     4   8  16  33  56  78 106 142 183 220 267 319
#     4  10  18  34  53  83 105 141 174 220 276 324
#     4  10  20  36  51  78 114 145 172 222 281 316
#     4   9  18  35  57  78 102 141 180 225 259 312
#     4  11  20  36  57  84 102 147 186 222 261 327
#     4  10  20  32  54  75 114 145 175 213 280 328
#     4  11  21  34  54  80 112 141 177 221 270 328
#     4   9  17  31  58  78 104 137 181 221 268 313
#
# _framework density 22.028759000000001
#
# number of rings (size 3 to 8) (size 9 to 14) (size 15 to 20)
#    0.750    1.500    3.750    0.000    0.000    0.500 
#    4.500    1.875    0.000    0.000    0.000    0.000 
#    0.000    0.000    0.000    0.000    0.000    0.000 
#
# Total GULP energy -89075.271935 kJ/mol
# GULP energy per Si atom -5567.204496 kJ/mol
# Density = 2.197862 g / cm^3
# Si number density = 22.028759 Si / 1000 Ang^3
#
#
#
# Elastic Constant Matrix: (Units=GPa)
#
#
# Indices 1 2 3 4 5 6 
#
# 1 83.6967 29.7014 35.8692 11.9625 10.3969 -20.8453
# 2 29.7014 78.7580 27.6583 -8.8333 2.7507 -31.4676
# 3 35.8692 27.6583 132.0850 12.3970 21.7767 -17.0449
# 4 11.9625 -8.8333 12.3970 34.7021 2.6064 -0.7672
# 5 10.3969 2.7507 21.7767 2.6064 27.9702 4.2864
# 6 -20.8453 -31.4676 -17.0449 -0.7672 4.2864 43.9060
#
#
#
# Elastic Compliance Matrix: (Units=1/GPa)
#
#
# Indices 1 2 3 4 5 6 
#
# 1 0.016785 -0.004429 -0.001752 -0.005845 -0.004579 0.004460
# 2 -0.004429 0.021021 -0.002113 0.008014 -0.001427 0.012423
# 3 -0.001752 -0.002113 0.010252 -0.003006 -0.007192 0.002283
# 4 -0.005845 0.008014 -0.003006 0.033983 0.000194 0.002377
# 5 -0.004579 -0.001427 -0.007192 0.000194 0.044763 -0.010355
# 6 0.004460 0.012423 0.002283 0.002377 -0.010355 0.035736
#
#
# Mechanical properties :
#
#
# Convention : Reuss Voigt Hill
#
# Bulk Modulus (GPa) = 31.77520 53.44419 42.60970
# Shear Modulus (GPa) = 26.36881 34.73637 30.55259
#
# Velocity S-wave (km/s) = 3.46355 3.97528 3.72821
# Velocity P-wave (km/s) = 5.51821 6.73679 6.15771
#
# Compressibility (1/GPa) = 0.03147109
#
# Stress axis : x y z
#
# Youngs Moduli (GPa) = 59.57629 47.57057 97.54513
#
# Poissons Ratio (x) = 0.21067 0.17089
# Poissons Ratio (y) = 0.26384 0.20613
# Poissons Ratio (z) = 0.10437 0.10052
#
# Static dielectric constant tensor:
#      x y z
#    x 1.820730 0.058100 0.014120 
#    y 0.058100 1.884100 0.017260 
#    z 0.014120 0.017260 1.866770 
# 
# From -- ./inp_files/397368.got.cif
#   From: 2010.05.17/outbox.cif.g08.bks.cpg/sg2_199_cif.got.tgz:397368.got - 2010.06.03 11:33:40.
