data_PCOD9076073
_publ_section_title
;
Structure prediction by ZEFSAII (Michael W. Deem and Ramdas Pophale) SiO2 
 PCOD9076073
Probable space group: P -1
;
_chemical_formula_sum "Si O2"
_cell_formula_units_Z 16
_cell_length_a 8.448386
_cell_length_b 7.632421
_cell_length_c 14.362317
_cell_angle_alpha 110.145913
_cell_angle_beta 136.234301
_cell_angle_gamma 85.369624
_cell_volume 580.931422
_symmetry_space_group_name_H-M "P -1"
_symmetry_group_IT_number 2
_symmetry_cell_setting 'triclinic'
loop_
_space_group_symop_operation_xyz
x,y,z
-x,-y,-z
loop_
_atom_site_type_symbol
_atom_site_label
_atom_site_fract_x
_atom_site_fract_y
_atom_site_fract_z
Si Si1 0.840586 0.182334 0.779503
Si Si2 0.520199 0.663372 0.765739
Si Si3 0.464083 0.089814 0.852745
Si Si4 0.210891 0.238067 0.381896
Si Si5 0.733334 0.366496 0.532792
Si Si6 0.024790 0.782552 0.953650
Si Si7 0.675718 0.640540 0.032002
Si Si8 0.703697 0.928144 0.430030
O O1 0.559064 0.136528 0.647311
O O2 0.040696 0.332172 0.833353
O O3 0.877814 0.966449 0.746080
O O4 0.901568 0.268870 0.922368
O O5 0.323322 0.589325 0.591172
O O6 0.756025 0.666705 0.806675
O O7 0.483660 0.872765 0.812093
O O8 0.572572 0.587870 0.874915
O O9 0.342130 0.149114 0.901532
O O10 0.338620 0.123326 0.706809
O O11 0.739081 0.208949 0.999673
O O12 0.490062 0.310950 0.481109
O O13 0.109654 0.417228 0.339864
O O14 0.162374 0.175543 0.458730
O O15 0.800117 0.161257 0.521731
O O16 0.000000 0.000000 0.000000
O O17 0.500000 0.500000 0.000000
#
# Coordination Sequence:
#
# PCOD9076073 Si02
#       8
#     2   2   2   2   2   2   2   2
#     4   9  18  34  52  77 110 143 178 224 276 318
#     4   9  18  35  56  77 111 137 179 233 273 325
#     4   9  18  34  56  78 105 147 180 217 286 325
#     4  10  18  32  60  84 113 140 178 230 283 322
#     4   9  18  31  55  91 108 136 178 225 280 329
#     4   8  14  29  55  80 100 132 178 228 273 322
#     4  11  23  36  53  76 113 150 184 223 267 336
#     4   9  18  35  60  83 114 137 180 235 276 325
#
# _framework density 27.541975000000001
#
# number of rings (size 3 to 8) (size 9 to 14) (size 15 to 20)
#    0.000    2.750    0.000    4.125    1.750    0.000 
#    2.250    2.500   13.750    1.500    0.000    0.000 
#    0.000    0.000    0.000    0.000    0.000    0.000 
#
# Total GULP energy -89248.849049 kJ/mol
# GULP energy per Si atom -5578.053066 kJ/mol
# Density = 2.747929 g / cm^3
# Si number density = 27.541975 Si / 1000 Ang^3
#
#
#
# Elastic Constant Matrix: (Units=GPa)
#
#
# Indices 1 2 3 4 5 6 
#
# 1 80.4032 19.9493 4.7406 -8.3399 7.5272 10.1659
# 2 19.9493 139.4146 40.1353 6.8952 -8.7817 11.8938
# 3 4.7406 40.1353 77.4060 -9.6500 -26.8004 19.0173
# 4 -8.3399 6.8952 -9.6500 35.0165 14.2108 -4.2937
# 5 7.5272 -8.7817 -26.8004 14.2108 36.4873 -4.7577
# 6 10.1659 11.8938 19.0173 -4.2937 -4.7577 35.9477
#
#
#
# Elastic Compliance Matrix: (Units=1/GPa)
#
#
# Indices 1 2 3 4 5 6 
#
# 1 0.014771 -0.002455 -0.000390 0.006243 -0.006788 -0.003311
# 2 -0.002455 0.009170 -0.004811 -0.004033 0.000727 -0.000180
# 3 -0.000390 -0.004811 0.022416 0.000253 0.014214 -0.008245
# 4 0.006243 -0.004033 0.000253 0.037856 -0.016587 0.001762
# 5 -0.006788 0.000727 0.014214 -0.016587 0.045651 -0.001780
# 6 -0.003311 -0.000180 -0.008245 0.001762 -0.001780 0.033151
#
#
# Mechanical properties :
#
#
# Convention : Reuss Voigt Hill
#
# Bulk Modulus (GPa) = 32.21202 47.43047 39.82125
# Shear Modulus (GPa) = 26.50057 36.98353 31.74205
#
# Velocity S-wave (km/s) = 3.10528 3.66841 3.39853
# Velocity P-wave (km/s) = 4.95762 5.93308 5.46715
#
# Compressibility (1/GPa) = 0.03104431
#
# Stress axis : x y z
#
# Youngs Moduli (GPa) = 67.69967 109.05286 44.61138
#
# Poissons Ratio (x) = 0.26775 0.01739
# Poissons Ratio (y) = 0.16622 0.21463
# Poissons Ratio (z) = 0.02640 0.52467
#
# Static dielectric constant tensor:
#      x y z
#    x 2.143040 -0.012590 -0.025020 
#    y -0.012590 2.241220 0.012620 
#    z -0.025020 0.012620 2.273370 
# 
# From -- ./inp_files/353576.got.cif
#   From: 2010.05.17/outbox.cif.g08.bks.cpg/sg2_177_cif.got.tgz:353576.got - 2010.06.03 11:33:40.
