data_PCOD9076407
_publ_section_title
;
Structure prediction by ZEFSAII (Michael W. Deem and Ramdas Pophale) SiO2 
 PCOD9076407
Probable space group: P -1
;
_chemical_formula_sum "Si O2"
_cell_formula_units_Z 16
_cell_length_a 16.801340
_cell_length_b 11.520293
_cell_length_c 22.790248
_cell_angle_alpha 149.648731
_cell_angle_beta 20.501132
_cell_angle_gamma 139.575075
_cell_volume 752.570962
_symmetry_space_group_name_H-M "P -1"
_symmetry_group_IT_number 2
_symmetry_cell_setting 'triclinic'
loop_
_space_group_symop_operation_xyz
x,y,z
-x,-y,-z
loop_
_atom_site_type_symbol
_atom_site_label
_atom_site_fract_x
_atom_site_fract_y
_atom_site_fract_z
Si Si1 0.963407 0.530078 0.607666
Si Si2 0.540321 0.947064 0.308791
Si Si3 0.613111 0.004345 0.109915
Si Si4 0.630722 0.270520 0.772719
Si Si5 0.343314 0.776632 0.489812
Si Si6 0.888784 0.612966 0.218262
Si Si7 0.981042 0.883034 0.046544
Si Si8 0.289718 0.612739 0.867176
O O1 0.875737 0.311587 0.599456
O O2 0.000000 0.500000 0.500000
O O3 0.198176 0.583585 0.493401
O O4 0.765019 0.769017 0.868512
O O5 0.527982 0.750600 0.183373
O O6 0.434846 0.865118 0.405617
O O7 0.794945 0.982394 0.165486
O O8 0.350734 0.184159 0.520223
O O9 0.382193 0.950257 0.273439
O O10 0.574196 0.211480 0.178932
O O11 0.775157 0.056096 0.075525
O O12 0.500000 0.500000 0.000000
O O13 0.551702 0.632397 0.323984
O O14 0.178908 0.997451 0.734747
O O15 0.841474 0.454742 0.127780
O O16 0.968068 0.404051 0.119978
O O17 0.099765 0.718983 0.095611
#
# Coordination Sequence:
#
# PCOD9076407 Si02
#       8
#     2   2   2   2   2   2   2   2
#     4  10  19  37  62  86 107 156 217 247 288 345
#     4  12  20  34  64  90 121 156 202 242 303 358
#     4   9  21  38  59  84 126 160 189 247 304 360
#     4  10  23  42  63  80 120 167 206 244 299 351
#     4  11  19  33  61  95 119 152 196 257 299 354
#     4  10  19  31  57  94 129 153 182 251 295 365
#     4  10  20  35  59  98 126 149 195 243 314 355
#     4  10  18  33  55  89 131 153 187 244 314 347
#
# _framework density 21.260453999999999
#
# number of rings (size 3 to 8) (size 9 to 14) (size 15 to 20)
#    0.000    1.750    3.750    3.375    0.000    0.500 
#    0.000    3.750   13.750    0.000    0.000    0.000 
#    0.000    0.000    0.000    0.000    0.000    0.000 
#
# Total GULP energy -89153.049711 kJ/mol
# GULP energy per Si atom -5572.065607 kJ/mol
# Density = 2.121206 g / cm^3
# Si number density = 21.260454 Si / 1000 Ang^3
#
#
#
# Elastic Constant Matrix: (Units=GPa)
#
#
# Indices 1 2 3 4 5 6 
#
# 1 53.4416 15.0006 26.7490 11.2961 5.7596 14.3444
# 2 15.0006 141.9279 34.1053 -20.8874 1.5942 -2.4112
# 3 26.7490 34.1053 71.0043 1.3357 -11.4131 -8.9286
# 4 11.2961 -20.8874 1.3357 32.7113 -3.7310 -5.1032
# 5 5.7596 1.5942 -11.4131 -3.7310 27.8245 6.7863
# 6 14.3444 -2.4112 -8.9286 -5.1032 6.7863 26.3775
#
#
#
# Elastic Compliance Matrix: (Units=1/GPa)
#
#
# Indices 1 2 3 4 5 6 
#
# 1 0.046284 -0.003707 -0.021607 -0.024295 -0.013163 -0.034136
# 2 -0.003707 0.009366 -0.002924 0.007852 -0.000795 0.003606
# 3 -0.021607 -0.002924 0.027921 0.008917 0.012550 0.019430
# 4 -0.024295 0.007852 0.008917 0.048369 0.008863 0.024025
# 5 -0.013163 -0.000795 0.012550 0.008863 0.044666 0.001557
# 6 -0.034136 0.003606 0.019430 0.024025 0.001557 0.067629
#
#
# Mechanical properties :
#
#
# Convention : Reuss Voigt Hill
#
# Bulk Modulus (GPa) = 36.90847 46.45375 41.68111
# Shear Modulus (GPa) = 16.14239 30.08393 23.11316
#
# Velocity S-wave (km/s) = 2.75847 3.76575 3.30076
# Velocity P-wave (km/s) = 5.24818 6.38789 5.84588
#
# Compressibility (1/GPa) = 0.02709405
#
# Stress axis : x y z
#
# Youngs Moduli (GPa) = 21.60577 106.76728 35.81549
#
# Poissons Ratio (x) = 0.39581 0.77386
# Poissons Ratio (y) = 0.08010 0.10474
# Poissons Ratio (z) = 0.46683 0.31222
#
# Static dielectric constant tensor:
#      x y z
#    x 1.792930 -0.023260 0.005550 
#    y -0.023260 1.888980 -0.037460 
#    z 0.005550 -0.037460 1.770980 
# 
# From -- ./inp_files/388783.got.cif
#   From: 2010.05.17/outbox.cif.g08.bks.cpg/sg2_195_cif.got.tgz:388783.got - 2010.06.03 11:33:40.
