data_PCOD9076742
_publ_section_title
;
Structure prediction by ZEFSAII (Michael W. Deem and Ramdas Pophale) SiO2 
 PCOD9076742
Probable space group: P -1
;
_chemical_formula_sum "Si O2"
_cell_formula_units_Z 16
_cell_length_a 7.917785
_cell_length_b 17.804550
_cell_length_c 8.752234
_cell_angle_alpha 52.224144
_cell_angle_beta 85.532698
_cell_angle_gamma 120.202491
_cell_volume 695.350034
_symmetry_space_group_name_H-M "P -1"
_symmetry_group_IT_number 2
_symmetry_cell_setting 'triclinic'
loop_
_space_group_symop_operation_xyz
x,y,z
-x,-y,-z
loop_
_atom_site_type_symbol
_atom_site_label
_atom_site_fract_x
_atom_site_fract_y
_atom_site_fract_z
Si Si1 0.118582 0.320289 0.246632
Si Si2 0.883255 0.854611 0.743753
Si Si3 0.277470 0.580245 0.892218
Si Si4 0.681483 0.206164 0.237940
Si Si5 0.304916 0.987342 0.766893
Si Si6 0.395227 0.221601 0.633751
Si Si7 0.903007 0.130622 0.765616
Si Si8 0.440417 0.151997 0.021187
O O1 0.288335 0.475665 0.076120
O O2 0.949500 0.293508 0.157892
O O3 0.971715 0.242657 0.508340
O O4 0.188072 0.244488 0.265605
O O5 0.680882 0.808553 0.929956
O O6 0.000000 0.000000 0.500000
O O7 0.087517 0.888353 0.791267
O O8 0.373653 0.705465 0.829275
O O9 0.422952 0.646033 0.642980
O O10 0.000000 0.500000 0.000000
O O11 0.532235 0.082924 0.520569
O O12 0.606777 0.166817 0.116302
O O13 0.305561 0.095434 0.700957
O O14 0.259577 0.912595 0.021427
O O15 0.153842 0.183846 0.735408
O O16 0.530639 0.232561 0.757391
O O17 0.761671 0.000312 0.831968
#
# Coordination Sequence:
#
# PCOD9076742 Si02
#       8
#     2   2   2   2   2   2   2   2
#     4  11  24  39  58  85 121 157 205 240 286 348
#     4  12  19  35  58  89 123 152 185 241 296 346
#     4   9  22  45  61  79 115 161 206 241 283 348
#     4  10  22  40  62  86 116 164 195 239 296 346
#     4  10  18  33  59  87 120 150 189 236 293 354
#     4  10  19  37  64  88 113 160 195 238 297 345
#     4  11  20  34  59  93 123 149 190 243 297 352
#     4  11  20  36  63  93 121 150 192 244 299 352
#
# _framework density 23.009993000000001
#
# number of rings (size 3 to 8) (size 9 to 14) (size 15 to 20)
#    0.000    1.500    5.000    0.750    1.750    3.000 
#    0.000    8.125    0.000    0.000    0.000    0.000 
#    0.000    0.000    0.000    0.000    0.000    0.000 
#
# Total GULP energy -89332.039053 kJ/mol
# GULP energy per Si atom -5583.252441 kJ/mol
# Density = 2.295762 g / cm^3
# Si number density = 23.009993 Si / 1000 Ang^3
#
#
#
# Elastic Constant Matrix: (Units=GPa)
#
#
# Indices 1 2 3 4 5 6 
#
# 1 61.9668 18.2364 3.7220 1.5443 7.2618 0.4021
# 2 18.2364 98.8292 65.5828 10.0155 11.1950 -20.4627
# 3 3.7220 65.5828 152.4355 -7.4383 17.8997 -12.2631
# 4 1.5443 10.0155 -7.4383 30.3540 -1.7184 11.3889
# 5 7.2618 11.1950 17.8997 -1.7184 36.7703 4.6929
# 6 0.4021 -20.4627 -12.2631 11.3889 4.6929 49.4901
#
#
#
# Elastic Compliance Matrix: (Units=1/GPa)
#
#
# Indices 1 2 3 4 5 6 
#
# 1 0.017698 -0.004719 0.001848 0.001618 -0.002658 -0.001757
# 2 -0.004719 0.019597 -0.007803 -0.011755 -0.002959 0.009193
# 3 0.001848 -0.007803 0.010299 0.005505 -0.002527 -0.001716
# 4 0.001618 -0.011755 0.005505 0.043574 0.004397 -0.013954
# 5 -0.002658 -0.002959 -0.002527 0.004397 0.030792 -0.005760
# 6 -0.001757 0.009193 -0.001716 -0.013954 -0.005760 0.027353
#
#
# Mechanical properties :
#
#
# Convention : Reuss Voigt Hill
#
# Bulk Modulus (GPa) = 38.09942 54.25710 46.17826
# Shear Modulus (GPa) = 27.86915 38.36890 33.11903
#
# Velocity S-wave (km/s) = 3.48397 4.08792 3.79797
# Velocity P-wave (km/s) = 5.72519 6.77587 6.27257
#
# Compressibility (1/GPa) = 0.02624712
#
# Stress axis : x y z
#
# Youngs Moduli (GPa) = 56.50387 51.02863 97.09492
#
# Poissons Ratio (x) = 0.24078 -0.17940
# Poissons Ratio (y) = 0.26661 0.75759
# Poissons Ratio (z) = -0.10440 0.39815
#
# Static dielectric constant tensor:
#      x y z
#    x 1.997930 -0.038170 0.017890 
#    y -0.038170 1.882860 0.004010 
#    z 0.017890 0.004010 1.860790 
# 
# From -- ./inp_files/220517.got.cif
#   From: 2010.05.17/outbox.cif.g08.bks.cpg/sg2_111_cif.got.tgz:220517.got - 2010.06.03 11:33:40.
