data_PCOD9076081
_publ_section_title
;
Structure prediction by ZEFSAII (Michael W. Deem and Ramdas Pophale) SiO2 
 PCOD9076081
Probable space group: P -1
;
_chemical_formula_sum "Si O2"
_cell_formula_units_Z 16
_cell_length_a 9.556433
_cell_length_b 15.667903
_cell_length_c 9.354913
_cell_angle_alpha 136.609464
_cell_angle_beta 79.064520
_cell_angle_gamma 122.383724
_cell_volume 763.031020
_symmetry_space_group_name_H-M "P -1"
_symmetry_group_IT_number 2
_symmetry_cell_setting 'triclinic'
loop_
_space_group_symop_operation_xyz
x,y,z
-x,-y,-z
loop_
_atom_site_type_symbol
_atom_site_label
_atom_site_fract_x
_atom_site_fract_y
_atom_site_fract_z
Si Si1 0.519536 0.713779 0.286407
Si Si2 0.055559 0.561288 0.726725
Si Si3 0.191111 0.841915 0.897384
Si Si4 0.490995 0.179123 0.286841
Si Si5 0.542081 0.313297 0.160963
Si Si6 0.053263 0.729663 0.479746
Si Si7 0.331835 0.452692 0.795279
Si Si8 0.630599 0.967621 0.362472
O O1 0.456956 0.756782 0.487630
O O2 0.614667 0.642858 0.247684
O O3 0.646473 0.866273 0.352918
O O4 0.361878 0.582772 0.057611
O O5 0.079562 0.721852 0.901609
O O6 0.250272 0.610671 0.782533
O O7 0.000000 0.500000 0.500000
O O8 0.939170 0.416916 0.678137
O O9 0.354742 0.832877 0.814662
O O10 0.079119 0.794999 0.716449
O O11 0.298403 0.018348 0.133816
O O12 0.480793 0.283359 0.299529
O O13 0.532606 0.434333 0.219058
O O14 0.449059 0.148440 0.899714
O O15 0.863108 0.661117 0.366957
O O16 0.201279 0.869365 0.524387
O O17 0.500000 0.000000 0.500000
#
# Coordination Sequence:
#
# PCOD9076081 Si02
#       8
#     2   2   2   2   2   2   2   2
#     4  10  22  38  58  83 112 154 193 234 278 333
#     4   8  16  29  50  80 110 144 174 225 282 327
#     4   9  17  30  56  87 116 143 183 231 290 338
#     4  10  18  32  60  86 111 148 187 234 281 337
#     4   9  18  35  57  79 109 150 185 228 280 334
#     4  10  18  36  58  79 110 156 188 232 285 329
#     4   9  21  41  58  77 115 153 196 236 272 333
#     4  11  22  35  57  87 112 145 188 231 288 349
#
# _framework density 20.969004999999999
#
# number of rings (size 3 to 8) (size 9 to 14) (size 15 to 20)
#    0.000    2.500    1.250    0.750    3.500    1.000 
#    0.000   13.125    2.750    0.000    0.000    0.000 
#    0.000    0.000    0.000    0.000    0.000    0.000 
#
# Total GULP energy -89129.308429 kJ/mol
# GULP energy per Si atom -5570.581777 kJ/mol
# Density = 2.092128 g / cm^3
# Si number density = 20.969005 Si / 1000 Ang^3
#
#
#
# Elastic Constant Matrix: (Units=GPa)
#
#
# Indices 1 2 3 4 5 6 
#
# 1 30.3223 31.5274 24.3100 13.6503 22.5932 -10.0341
# 2 31.5274 150.7271 40.8365 38.8542 10.8328 -21.4323
# 3 24.3100 40.8365 67.9767 18.0742 24.2518 -0.9774
# 4 13.6503 38.8542 18.0742 35.7217 3.2652 9.7999
# 5 22.5932 10.8328 24.2518 3.2652 27.0149 -1.6796
# 6 -10.0341 -21.4323 -0.9774 9.7999 -1.6796 23.2874
#
#
#
# Elastic Compliance Matrix: (Units=1/GPa)
#
#
# Indices 1 2 3 4 5 6 
#
# 1 3.035215 0.355795 0.135042 -2.031645 -2.412408 2.321902
# 2 0.355795 0.059601 0.011601 -0.262952 -0.281502 0.298998
# 3 0.135042 0.011601 0.032635 -0.096855 -0.128858 0.101698
# 4 -2.031645 -0.262952 -0.096855 1.432439 1.618426 -1.607541
# 5 -2.412408 -0.281502 -0.128858 1.618426 1.972950 -1.842717
# 6 2.321902 0.298998 0.101698 -1.607541 -1.842717 1.866436
#
#
# Mechanical properties :
#
#
# Convention : Reuss Voigt Hill
#
# Bulk Modulus (GPa) = 0.24199 49.15263 24.69731
# Shear Modulus (GPa) = 0.57001 27.36162 13.96581
#
# Velocity S-wave (km/s) = 0.52194 3.61620 2.58354
# Velocity P-wave (km/s) = 0.69202 6.39745 4.55007
#
# Compressibility (1/GPa) = 4.13232434
#
# Stress axis : x y z
#
# Youngs Moduli (GPa) = 0.32947 16.77827 30.64170
#
# Poissons Ratio (x) = -5.96962 -4.13790
# Poissons Ratio (y) = -0.11722 -0.35546
# Poissons Ratio (z) = -0.04449 -0.19464
#
# Static dielectric constant tensor:
#      x y z
#    x 1.741430 -0.032590 -0.016340 
#    y -0.032590 1.843010 0.015210 
#    z -0.016340 0.015210 1.799090 
# 
# From -- ./inp_files/271098.got.cif
#   From: 2010.05.17/outbox.cif.g08.bks.cpg/sg2_136_cif.got.tgz:271098.got - 2010.06.03 11:33:40.
