data_PCOD9076302
_publ_section_title
;
Structure prediction by ZEFSAII (Michael W. Deem and Ramdas Pophale) SiO2 
 PCOD9076302
Probable space group: P -1
;
_chemical_formula_sum "Si O2"
_cell_formula_units_Z 16
_cell_length_a 8.293711
_cell_length_b 20.056077
_cell_length_c 6.026238
_cell_angle_alpha 67.798751
_cell_angle_beta 120.614969
_cell_angle_gamma 121.981940
_cell_volume 723.661881
_symmetry_space_group_name_H-M "P -1"
_symmetry_group_IT_number 2
_symmetry_cell_setting 'triclinic'
loop_
_space_group_symop_operation_xyz
x,y,z
-x,-y,-z
loop_
_atom_site_type_symbol
_atom_site_label
_atom_site_fract_x
_atom_site_fract_y
_atom_site_fract_z
Si Si1 0.119795 0.854666 0.055987
Si Si2 0.509054 0.886705 0.004275
Si Si3 0.945392 0.316338 0.739254
Si Si4 0.244026 0.614616 0.094842
Si Si5 0.191044 0.984150 0.248338
Si Si6 0.100315 0.466404 0.422683
Si Si7 0.565819 0.243991 0.221953
Si Si8 0.780824 0.889539 0.566163
O O1 0.348475 0.882132 0.085172
O O2 0.008122 0.759372 0.089946
O O3 0.134345 0.893235 0.261958
O O4 0.001347 0.890659 0.766988
O O5 0.697323 0.877318 0.274542
O O6 0.609313 0.964688 0.826902
O O7 0.396410 0.813239 0.855189
O O8 0.858582 0.345189 0.855583
O O9 0.752150 0.281483 0.477935
O O10 0.124128 0.393243 0.651250
O O11 0.276836 0.544764 0.336506
O O12 0.434604 0.683373 0.016284
O O13 0.071086 0.572594 0.838976
O O14 0.227684 0.029825 0.449463
O O15 0.000000 0.000000 0.000000
O O16 0.000000 0.500000 0.500000
O O17 0.368524 0.184354 0.294069
#
# Coordination Sequence:
#
# PCOD9076302 Si02
#       8
#     2   2   2   2   2   2   2   2
#     4  11  21  38  57  83 110 147 189 233 282 330
#     4  11  21  40  56  80 111 145 193 231 279 336
#     4  10  18  33  54  81 115 142 188 231 276 332
#     4   9  15  29  52  81 112 148 187 220 276 332
#     4   9  22  40  55  82 110 146 191 232 282 333
#     4   8  16  27  49  83 115 146 180 228 270 330
#     4  10  18  35  55  79 115 145 186 235 274 331
#     4  10  22  39  56  79 114 149 187 235 281 329
#
# _framework density 22.109772
#
# number of rings (size 3 to 8) (size 9 to 14) (size 15 to 20)
#    0.000    2.250    2.500    0.375    0.000    2.500 
#    9.000    0.000    0.000    0.750    0.000   35.875 
#    0.000    0.000    0.000    0.000    0.000    0.000 
#
# Total GULP energy -89246.141878 kJ/mol
# GULP energy per Si atom -5577.883867 kJ/mol
# Density = 2.205945 g / cm^3
# Si number density = 22.109772 Si / 1000 Ang^3
#
#
#
# Elastic Constant Matrix: (Units=GPa)
#
#
# Indices 1 2 3 4 5 6 
#
# 1 32.9617 33.4060 21.8052 -11.1072 -4.4375 -2.2111
# 2 33.4060 145.2141 43.3650 -17.9157 -21.8255 -13.6567
# 3 21.8052 43.3650 79.7208 1.3382 -14.2155 -8.4267
# 4 -11.1072 -17.9157 1.3382 55.0785 1.4086 -19.6313
# 5 -4.4375 -21.8255 -14.2155 1.4086 25.9068 -0.6792
# 6 -2.2111 -13.6567 -8.4267 -19.6313 -0.6792 32.0972
#
#
#
# Elastic Compliance Matrix: (Units=1/GPa)
#
#
# Indices 1 2 3 4 5 6 
#
# 1 0.046153 -0.007114 -0.009236 0.008276 -0.003535 0.002714
# 2 -0.007114 0.011506 -0.002418 0.004582 0.007075 0.006723
# 3 -0.009236 -0.002418 0.017704 -0.002723 0.006282 0.001451
# 4 0.008276 0.004582 -0.002723 0.028101 0.002755 0.019050
# 5 -0.003535 0.007075 0.006282 0.002755 0.047439 0.007105
# 6 0.002714 0.006723 0.001451 0.019050 0.007105 0.046386
#
#
# Mechanical properties :
#
#
# Convention : Reuss Voigt Hill
#
# Bulk Modulus (GPa) = 26.43581 50.56099 38.49840
# Shear Modulus (GPa) = 20.20743 33.23786 26.72264
#
# Velocity S-wave (km/s) = 3.02646 3.88146 3.48031
# Velocity P-wave (km/s) = 4.91886 6.55786 5.79658
#
# Compressibility (1/GPa) = 0.03782747
#
# Stress axis : x y z
#
# Youngs Moduli (GPa) = 21.66690 86.91219 56.48322
#
# Poissons Ratio (x) = 0.61831 0.52170
# Poissons Ratio (y) = 0.15414 0.13655
# Poissons Ratio (z) = 0.20012 0.21011
#
# Static dielectric constant tensor:
#      x y z
#    x 1.785480 0.020710 -0.024390 
#    y 0.020710 1.880770 -0.054940 
#    z -0.024390 -0.054940 1.818000 
# 
# From -- ./inp_files/45553.got.cif
#   From: 2010.05.17/outbox.cif.g08.bks.cpg/sg2_23_cif.got.tgz:45553.got - 2010.06.03 11:33:40.
