data_PCOD9076837
_publ_section_title
;
Structure prediction by ZEFSAII (Michael W. Deem and Ramdas Pophale) SiO2 
 PCOD9076837
Probable space group: P -1
;
_chemical_formula_sum "Si O2"
_cell_formula_units_Z 16
_cell_length_a 14.263974
_cell_length_b 10.933759
_cell_length_c 9.642662
_cell_angle_alpha 78.255044
_cell_angle_beta 46.796600
_cell_angle_gamma 45.701135
_cell_volume 667.117619
_symmetry_space_group_name_H-M "P -1"
_symmetry_group_IT_number 2
_symmetry_cell_setting 'triclinic'
loop_
_space_group_symop_operation_xyz
x,y,z
-x,-y,-z
loop_
_atom_site_type_symbol
_atom_site_label
_atom_site_fract_x
_atom_site_fract_y
_atom_site_fract_z
Si Si1 0.614514 0.163171 0.489322
Si Si2 0.381839 0.301102 0.201654
Si Si3 0.985297 0.485277 0.302985
Si Si4 0.169329 0.713577 0.387994
Si Si5 0.349942 0.114843 0.843089
Si Si6 0.286988 0.888467 0.295185
Si Si7 0.954505 0.753649 0.116585
Si Si8 0.750499 0.462239 0.371038
O O1 0.490106 0.126968 0.655040
O O2 0.644096 0.200276 0.600560
O O3 0.489485 0.338004 0.463401
O O4 0.836233 0.958515 0.253528
O O5 0.150935 0.428734 0.440416
O O6 0.335242 0.484210 0.225766
O O7 0.516867 0.110318 0.210377
O O8 0.519698 0.187267 0.950608
O O9 0.005630 0.613940 0.214049
O O10 0.837488 0.526690 0.330232
O O11 0.206320 0.256401 0.090320
O O12 0.236409 0.804246 0.274482
O O13 0.168760 0.693668 0.559364
O O14 0.934989 0.871720 0.534019
O O15 0.199391 0.195024 0.850207
O O16 0.151915 0.637138 0.853740
#
# Coordination Sequence:
#
# PCOD9076837 Si02
#       8
#     2   2   2   2   2   2   2   2
#     4  12  23  36  62  99 129 159 199 258 305 366
#     4  11  21  39  67  88 115 167 213 244 298 375
#     4  10  18  33  60  93 125 165 198 235 300 378
#     4  10  24  48  67  83 115 172 213 260 308 361
#     4  11  20  36  61  96 133 161 199 244 308 377
#     4  11  26  45  62  87 126 161 216 261 304 355
#     4  11  18  34  58  93 132 166 191 235 313 377
#     4  10  20  37  65  91 121 158 212 252 298 362
#
# _framework density 23.983775000000001
#
# number of rings (size 3 to 8) (size 9 to 14) (size 15 to 20)
#    0.000    1.250    3.750    5.250    0.000    2.000 
#    0.000    1.875    0.000    0.000    0.000    0.000 
#    0.000    0.000    0.000    0.000    0.000    0.000 
#
# Total GULP energy -89309.964887 kJ/mol
# GULP energy per Si atom -5581.872805 kJ/mol
# Density = 2.392919 g / cm^3
# Si number density = 23.983775 Si / 1000 Ang^3
#
#
#
# Elastic Constant Matrix: (Units=GPa)
#
#
# Indices 1 2 3 4 5 6 
#
# 1 46.6742 4.9903 7.2768 9.5981 -8.2993 -15.7679
# 2 4.9903 67.0542 -0.7173 33.2399 -15.2993 -16.6787
# 3 7.2768 -0.7173 109.1458 22.6540 -2.6497 -1.9127
# 4 9.5981 33.2399 22.6540 30.8331 -12.8895 11.5601
# 5 -8.2993 -15.2993 -2.6497 -12.8895 -60.2996 12.3768
# 6 -15.7679 -16.6787 -1.9127 11.5601 12.3768 3.1850
#
#
#
# Elastic Compliance Matrix: (Units=1/GPa)
#
#
# Indices 1 2 3 4 5 6 
#
# 1 0.016095 -0.011277 -0.004069 0.012627 -0.004200 -0.011328
# 2 -0.011277 0.005209 -0.000974 0.005604 -0.006164 -0.025525
# 3 -0.004069 -0.000974 0.009661 -0.001964 -0.000959 -0.008584
# 4 0.012627 0.005604 -0.001964 0.009563 0.003544 0.042201
# 5 -0.004200 -0.006164 -0.000959 0.003544 -0.016026 -0.004232
# 6 -0.011328 -0.025525 -0.008584 0.042201 -0.004232 -0.017655
#
#
# Mechanical properties :
#
#
# Convention : Reuss Voigt Hill
#
# Bulk Modulus (GPa) = -597.21777 27.33043 -284.94367
# Shear Modulus (GPa) = 128.44593 8.83199 68.63896
#
# Velocity S-wave (km/s) = 7.32609 1.92106 5.35547
# Velocity P-wave (km/s) = 13.34120 4.04237 8.99018
#
# Compressibility (1/GPa) = -0.00167443
#
# Stress axis : x y z
#
# Youngs Moduli (GPa) = 62.13172 191.99213 103.51003
#
# Poissons Ratio (x) = 2.16504 0.42113
# Poissons Ratio (y) = 0.70064 0.10083
# Poissons Ratio (z) = 0.25279 0.18702
#
# Static dielectric constant tensor:
#      x y z
#    x 1.941940 0.032220 0.019590 
#    y 0.032220 1.893350 -0.014920 
#    z 0.019590 -0.014920 1.927100 
# 
# From -- ./inp_files/465066.got.cif
#   From: 2010.05.17/outbox.cif.g08.bks.cpg/sg2_233_cif.got.tgz:465066.got - 2010.06.03 11:33:40.
