data_PCOD9076552
_publ_section_title
;
Structure prediction by ZEFSAII (Michael W. Deem and Ramdas Pophale) SiO2 
 PCOD9076552
Probable space group: P -1
;
_chemical_formula_sum "Si O2"
_cell_formula_units_Z 16
_cell_length_a 13.725049
_cell_length_b 7.982177
_cell_length_c 13.055406
_cell_angle_alpha 68.058692
_cell_angle_beta 33.413294
_cell_angle_gamma 74.418437
_cell_volume 727.948435
_symmetry_space_group_name_H-M "P -1"
_symmetry_group_IT_number 2
_symmetry_cell_setting 'triclinic'
loop_
_space_group_symop_operation_xyz
x,y,z
-x,-y,-z
loop_
_atom_site_type_symbol
_atom_site_label
_atom_site_fract_x
_atom_site_fract_y
_atom_site_fract_z
Si Si1 0.097937 0.980810 0.678179
Si Si2 0.133994 0.328757 0.718058
Si Si3 0.089211 0.542381 0.265867
Si Si4 0.417257 0.780864 0.859882
Si Si5 0.874661 0.663598 0.046951
Si Si6 0.520883 0.103470 0.568295
Si Si7 0.186448 0.270890 0.394564
Si Si8 0.472739 0.564402 0.652576
O O1 0.105708 0.150107 0.712789
O O2 0.091168 0.075017 0.552102
O O3 0.287227 0.907661 0.548424
O O4 0.957536 0.819167 0.865590
O O5 0.135192 0.256040 0.848212
O O6 0.318261 0.451401 0.511317
O O7 0.979068 0.450945 0.792158
O O8 0.158080 0.358175 0.289487
O O9 0.917353 0.593031 0.471552
O O10 0.253119 0.698171 0.090883
O O11 0.607045 0.747924 0.753700
O O12 0.419109 0.668688 0.778055
O O13 0.402935 0.985502 0.782816
O O14 0.681728 0.591115 0.193328
O O15 0.000000 0.500000 0.000000
O O16 0.523878 0.307715 0.479892
O O17 0.500000 0.000000 0.500000
#
# Coordination Sequence:
#
# PCOD9076552 Si02
#       8
#     2   2   2   2   2   2   2   2
#     4  10  19  37  57  82 114 148 191 235 277 338
#     4  11  22  37  56  83 115 153 191 231 282 336
#     4  10  19  33  58  85 111 144 191 246 276 322
#     4  10  18  33  57  85 112 147 189 233 286 334
#     4  12  24  34  55  85 117 151 190 227 285 347
#     4   9  16  30  54  79 114 146 177 230 280 332
#     4   9  19  36  55  86 112 142 193 245 277 323
#     4  11  20  36  52  83 121 153 178 234 285 343
#
# _framework density 21.979579000000001
#
# number of rings (size 3 to 8) (size 9 to 14) (size 15 to 20)
#    0.000    1.750    6.250    1.875    1.750    2.000 
#    0.000    0.000    0.000    3.750    0.000    0.000 
#    0.000    0.000    0.000    0.000    0.000    0.000 
#
# Total GULP energy -89165.296853 kJ/mol
# GULP energy per Si atom -5572.831053 kJ/mol
# Density = 2.192955 g / cm^3
# Si number density = 21.979579 Si / 1000 Ang^3
#
#
#
# Elastic Constant Matrix: (Units=GPa)
#
#
# Indices 1 2 3 4 5 6 
#
# 1 76.5318 41.0507 42.3122 -29.2000 -9.7234 -39.0682
# 2 41.0507 52.9099 41.4354 -26.7838 -10.1072 -17.3087
# 3 42.3122 41.4354 130.3587 -38.8288 -23.4068 -19.8982
# 4 -29.2000 -26.7838 -38.8288 44.1846 -1.1074 8.7020
# 5 -9.7234 -10.1072 -23.4068 -1.1074 27.6820 -2.7879
# 6 -39.0682 -17.3087 -19.8982 8.7020 -2.7879 38.0663
#
#
#
# Elastic Compliance Matrix: (Units=1/GPa)
#
#
# Indices 1 2 3 4 5 6 
#
# 1 0.054736 -0.014246 0.005696 0.023489 0.024727 0.049118
# 2 -0.014246 0.039909 -0.003140 0.012278 0.007365 -0.000383
# 3 0.005696 -0.003140 0.015181 0.013540 0.015277 0.010376
# 4 0.023489 0.012278 0.013540 0.052948 0.028999 0.026787
# 5 0.024727 0.007365 0.015277 0.028999 0.065087 0.034850
# 6 0.049118 -0.000383 0.010376 0.026787 0.034850 0.078359
#
#
# Mechanical properties :
#
#
# Convention : Reuss Voigt Hill
#
# Bulk Modulus (GPa) = 11.56812 56.59965 34.08389
# Shear Modulus (GPa) = 13.95031 30.98672 22.46851
#
# Velocity S-wave (km/s) = 2.52205 3.75880 3.20073
# Velocity P-wave (km/s) = 3.70884 6.68169 5.40373
#
# Compressibility (1/GPa) = 0.08644449
#
# Stress axis : x y z
#
# Youngs Moduli (GPa) = 18.26947 25.05711 65.87306
#
# Poissons Ratio (x) = 0.35696 -0.37518
# Poissons Ratio (y) = 0.26026 0.20687
# Poissons Ratio (z) = -0.10405 0.07869
#
# Static dielectric constant tensor:
#      x y z
#    x 1.830550 0.008020 0.021770 
#    y 0.008020 1.936430 0.056180 
#    z 0.021770 0.056180 1.899760 
# 
# From -- ./inp_files/299520.got.cif
#   From: 2010.05.17/outbox.cif.g08.bks.cpg/sg2_150_cif.got.tgz:299520.got - 2010.06.03 11:33:40.
