data_PCOD9076276
_publ_section_title
;
Structure prediction by ZEFSAII (Michael W. Deem and Ramdas Pophale) SiO2 
 PCOD9076276
Probable space group: P -1
;
_chemical_formula_sum "Si O2"
_cell_formula_units_Z 14
_cell_length_a 9.973302
_cell_length_b 18.736695
_cell_length_c 5.900478
_cell_angle_alpha 54.001957
_cell_angle_beta 137.013347
_cell_angle_gamma 121.797327
_cell_volume 598.752111
_symmetry_space_group_name_H-M "P -1"
_symmetry_group_IT_number 2
_symmetry_cell_setting 'triclinic'
loop_
_space_group_symop_operation_xyz
x,y,z
-x,-y,-z
loop_
_atom_site_type_symbol
_atom_site_label
_atom_site_fract_x
_atom_site_fract_y
_atom_site_fract_z
Si Si1 0.115843 0.954672 0.535748
Si Si2 0.373903 0.269418 0.727660
Si Si3 0.789434 0.877098 0.900833
Si Si4 0.249338 0.420433 0.599603
Si Si5 0.895550 0.403142 0.453033
Si Si6 0.992969 0.212805 0.053819
Si Si7 0.449813 0.610360 0.627383
O O1 0.168867 0.866576 0.886603
O O2 0.268489 0.037701 0.462571
O O3 0.000000 0.000000 0.500000
O O4 0.951607 0.919918 0.206826
O O5 0.315858 0.356601 0.614197
O O6 0.181662 0.227299 0.425772
O O7 0.543307 0.305194 0.686474
O O8 0.389082 0.193472 0.074596
O O9 0.915621 0.821192 0.999601
O O10 0.353995 0.523574 0.525359
O O11 0.008674 0.406967 0.344303
O O12 0.328870 0.392565 0.997803
O O13 0.669642 0.397988 0.266566
O O14 0.000000 0.500000 0.500000
O O15 0.926381 0.307417 0.767268
#
# Coordination Sequence:
#
# PCOD9076276 Si02
#       7
#     2   2   2   2   2   2   2
#     4   8  16  28  50  83 107 137 180 222 270 328
#     4  11  18  32  56  78 106 142 183 228 275 318
#     4   9  16  29  52  81 109 139 177 224 276 325
#     4  10  20  38  52  73 109 145 188 231 267 315
#     4  10  20  37  54  75 111 150 183 224 269 317
#     4  10  18  33  54  76 113 143 180 226 269 322
#     4  10  21  35  53  75 107 147 186 228 271 318
#
# _framework density 23.381962999999999
#
# number of rings (size 3 to 8) (size 9 to 14) (size 15 to 20)
#    0.000    2.286    2.857    0.429    0.000    0.000 
#    2.571    1.429    0.000    0.857    0.000   41.000 
#    0.000    0.000    0.000    0.000    0.000    0.000 
#
# Total GULP energy -77946.493364 kJ/mol
# GULP energy per Si atom -5567.606669 kJ/mol
# Density = 2.332874 g / cm^3
# Si number density = 23.381963 Si / 1000 Ang^3
#
#
#
# Elastic Constant Matrix: (Units=GPa)
#
#
# Indices 1 2 3 4 5 6 
#
# 1 84.3229 37.8069 22.5848 -1.3841 -15.9079 14.6740
# 2 37.8069 104.4379 43.2327 -14.5208 -11.0155 -2.7118
# 3 22.5848 43.2327 50.6391 -26.5017 -19.3312 8.8808
# 4 -1.3841 -14.5208 -26.5017 44.7923 7.6617 -25.0784
# 5 -15.9079 -11.0155 -19.3312 7.6617 26.7113 -11.8919
# 6 14.6740 -2.7118 8.8808 -25.0784 -11.8919 43.7854
#
#
#
# Elastic Compliance Matrix: (Units=1/GPa)
#
#
# Indices 1 2 3 4 5 6 
#
# 1 0.018417 -0.005494 -0.007213 -0.012280 0.001849 -0.011581
# 2 -0.005494 0.017433 -0.015189 -0.000073 -0.005006 0.004600
# 3 -0.007213 -0.015189 0.066485 0.039448 0.035212 0.020149
# 4 -0.012280 -0.000073 0.039448 0.062866 0.019875 0.037514
# 5 0.001849 -0.005006 0.035212 0.019875 0.065671 0.021148
# 6 -0.011581 0.004600 0.020149 0.037514 0.021148 0.050148
#
#
# Mechanical properties :
#
#
# Convention : Reuss Voigt Hill
#
# Bulk Modulus (GPa) = 21.48582 49.62764 35.55673
# Shear Modulus (GPa) = 14.19143 32.10951 23.15047
#
# Velocity S-wave (km/s) = 2.46629 3.70977 3.15000
# Velocity P-wave (km/s) = 4.16162 6.29450 5.33572
#
# Compressibility (1/GPa) = 0.04654233
#
# Stress axis : x y z
#
# Youngs Moduli (GPa) = 54.29783 57.36337 15.04100
#
# Poissons Ratio (x) = 0.31516 0.10849
# Poissons Ratio (y) = 0.29832 0.22846
# Poissons Ratio (z) = 0.39166 0.87129
#
# Static dielectric constant tensor:
#      x y z
#    x 1.942450 0.064890 -0.049510 
#    y 0.064890 1.916660 -0.027880 
#    z -0.049510 -0.027880 1.950810 
# 
# From -- ./inp_files/41576.got.cif
#   From: 2010.05.17/outbox.cif.g08.bks.cpg/sg2_21_cif.got.tgz:41576.got - 2010.06.03 11:33:40.
