data_PCOD9076015
_publ_section_title
;
Structure prediction by ZEFSAII (Michael W. Deem and Ramdas Pophale) SiO2 
 PCOD9076015
Probable space group: P -1
;
_chemical_formula_sum "Si O2"
_cell_formula_units_Z 16
_cell_length_a 9.091478
_cell_length_b 17.298523
_cell_length_c 11.521633
_cell_angle_alpha 137.506040
_cell_angle_beta 52.365772
_cell_angle_gamma 143.643143
_cell_volume 724.979603
_symmetry_space_group_name_H-M "P -1"
_symmetry_group_IT_number 2
_symmetry_cell_setting 'triclinic'
loop_
_space_group_symop_operation_xyz
x,y,z
-x,-y,-z
loop_
_atom_site_type_symbol
_atom_site_label
_atom_site_fract_x
_atom_site_fract_y
_atom_site_fract_z
Si Si1 0.066572 0.465704 0.549297
Si Si2 0.859014 0.333636 0.939979
Si Si3 0.320876 0.392222 0.792526
Si Si4 0.012677 0.170765 0.242499
Si Si5 0.408470 0.263851 0.000005
Si Si6 0.603120 0.655633 0.556579
Si Si7 0.459589 0.732180 0.316489
Si Si8 0.465413 0.988042 0.366970
O O1 0.342757 0.616565 0.621177
O O2 0.000000 0.500000 0.500000
O O3 0.062438 0.327639 0.378430
O O4 0.841029 0.394466 0.668939
O O5 0.594032 0.288552 0.036978
O O6 0.079634 0.356787 0.925427
O O7 0.761188 0.184791 0.748636
O O8 0.000000 0.500000 0.000000
O O9 0.292653 0.333054 0.608751
O O10 0.425344 0.333640 0.755349
O O11 0.514042 0.573735 0.881721
O O12 0.718954 0.041859 0.250996
O O13 0.172742 0.205424 0.318864
O O14 0.867422 0.845633 0.940995
O O15 0.457574 0.226460 0.811145
O O16 0.500000 0.500000 0.500000
O O17 0.548542 0.882047 0.508879
O O18 0.500000 0.000000 0.500000
#
# Coordination Sequence:
#
# PCOD9076015 Si02
#       8
#     2   2   2   2   2   2   2   2
#     4  10  18  34  56  91 130 170 216 270 321 385
#     4  10  24  40  66  90 129 167 223 273 325 389
#     4  11  21  38  61  98 132 169 222 274 319 383
#     4  10  22  36  64  89 128 169 221 269 320 391
#     4  11  21  39  60  96 130 175 215 261 332 388
#     4  10  18  32  58  88 131 168 220 268 309 375
#     4  11  23  36  65  95 132 177 215 274 329 390
#     4  11  22  44  66  97 125 175 223 271 330 396
#
# _framework density 22.069588
#
# number of rings (size 3 to 8) (size 9 to 14) (size 15 to 20)
#    0.000    1.500    5.000    1.125    3.500    2.000 
#    0.000    0.000    0.000    0.750    0.000    0.000 
#    0.000    0.000    0.000    0.000    0.000    0.000 
#
# Total GULP energy -89195.049103 kJ/mol
# GULP energy per Si atom -5574.690569 kJ/mol
# Density = 2.201936 g / cm^3
# Si number density = 22.069588 Si / 1000 Ang^3
#
#
#
# Elastic Constant Matrix: (Units=GPa)
#
#
# Indices 1 2 3 4 5 6 
#
# 1 120.1385 36.9984 25.8665 -6.0360 -30.5165 11.4821
# 2 36.9984 100.1108 47.2942 -17.0720 -7.3348 21.4559
# 3 25.8665 47.2942 93.1009 -1.7968 -9.6381 10.6777
# 4 -6.0360 -17.0720 -1.7968 47.9356 2.9200 1.8478
# 5 -30.5165 -7.3348 -9.6381 2.9200 40.8438 -4.6778
# 6 11.4821 21.4559 10.6777 1.8478 -4.6778 27.8483
#
#
#
# Elastic Compliance Matrix: (Units=1/GPa)
#
#
# Indices 1 2 3 4 5 6 
#
# 1 0.011502 -0.003258 -0.000662 -0.000186 0.007790 -0.000657
# 2 -0.003258 0.017568 -0.006977 0.006139 -0.002550 -0.010353
# 3 -0.000662 -0.006977 0.014564 -0.002159 0.001904 0.000528
# 4 -0.000186 0.006139 -0.002159 0.023276 -0.001861 -0.005683
# 5 0.007790 -0.002550 0.001904 -0.001861 0.030809 0.003322
# 6 -0.000657 -0.010353 0.000528 -0.005683 0.003322 0.044889
#
#
# Mechanical properties :
#
#
# Convention : Reuss Voigt Hill
#
# Bulk Modulus (GPa) = 45.78954 59.29647 52.54301
# Shear Modulus (GPa) = 29.12338 36.87162 32.99750
#
# Velocity S-wave (km/s) = 3.63659 4.09185 3.87092
# Velocity P-wave (km/s) = 6.19886 7.01788 6.62105
#
# Compressibility (1/GPa) = 0.02183905
#
# Stress axis : x y z
#
# Youngs Moduli (GPa) = 86.94138 56.92112 68.66052
#
# Poissons Ratio (x) = 0.18545 0.04547
# Poissons Ratio (y) = 0.28326 0.47907
# Poissons Ratio (z) = 0.05758 0.39716
#
# Static dielectric constant tensor:
#      x y z
#    x 1.839270 0.010770 -0.002760 
#    y 0.010770 1.874750 -0.024670 
#    z -0.002760 -0.024670 1.893740 
# 
# From -- ./inp_files/507055.got.cif
#   From: 2010.05.17/outbox.cif.g08.bks.cpg/sg2_254_cif.got.tgz:507055.got - 2010.06.03 11:33:40.
