data_PCOD9076345
_publ_section_title
;
Structure prediction by ZEFSAII (Michael W. Deem and Ramdas Pophale) SiO2 
 PCOD9076345
Probable space group: P -1
;
_chemical_formula_sum "Si O2"
_cell_formula_units_Z 16
_cell_length_a 14.944080
_cell_length_b 10.840615
_cell_length_c 13.660750
_cell_angle_alpha 149.285363
_cell_angle_beta 136.899483
_cell_angle_gamma 53.878859
_cell_volume 767.703015
_symmetry_space_group_name_H-M "P -1"
_symmetry_group_IT_number 2
_symmetry_cell_setting 'triclinic'
loop_
_space_group_symop_operation_xyz
x,y,z
-x,-y,-z
loop_
_atom_site_type_symbol
_atom_site_label
_atom_site_fract_x
_atom_site_fract_y
_atom_site_fract_z
Si Si1 0.218770 0.351438 0.325930
Si Si2 0.176935 0.664053 0.212974
Si Si3 0.001969 0.973658 0.599522
Si Si4 0.740249 0.833808 0.975806
Si Si5 0.571232 0.127969 0.508150
Si Si6 0.692045 0.060559 0.772796
Si Si7 0.483961 0.601123 0.666900
Si Si8 0.086312 0.553606 0.843318
O O1 0.246710 0.172199 0.135048
O O2 0.328341 0.582804 0.553063
O O3 0.066495 0.394451 0.236916
O O4 0.254142 0.199262 0.345250
O O5 0.215781 0.430711 0.140927
O O6 0.303558 0.868120 0.459358
O O7 0.057646 0.793062 0.246756
O O8 0.142775 0.583232 0.019276
O O9 0.917822 0.720758 0.384282
O O10 0.000000 0.000000 0.500000
O O11 0.148832 0.976016 0.759741
O O12 0.594688 0.831781 0.905003
O O13 0.630956 0.089051 0.635957
O O14 0.531186 0.400693 0.643471
O O15 0.438121 0.947420 0.267850
O O16 0.816141 0.263141 0.018534
O O17 0.500000 0.500000 0.500000
#
# Coordination Sequence:
#
# PCOD9076345 Si02
#       8
#     2   2   2   2   2   2   2   2
#     4  10  18  33  55  78 110 148 182 222 275 324
#     4  10  19  36  57  82 109 144 178 230 283 321
#     4  12  22  33  54  87 113 141 183 225 278 334
#     4  10  18  34  55  80 111 142 180 226 276 328
#     4   8  16  32  57  80 106 139 190 226 264 328
#     4   9  18  33  55  82 104 148 190 223 267 320
#     4   8  16  29  54  84 103 140 182 219 275 327
#     4  11  21  34  55  82 111 143 186 226 272 328
#
# _framework density 20.841393
#
# number of rings (size 3 to 8) (size 9 to 14) (size 15 to 20)
#    0.000    2.250    2.500    1.500    0.000    0.000 
#    0.000    1.875    0.000    0.000    0.000    0.000 
#    0.000    0.000    0.000    0.000    0.000    0.000 
#
# Total GULP energy -89067.966772 kJ/mol
# GULP energy per Si atom -5566.747923 kJ/mol
# Density = 2.079396 g / cm^3
# Si number density = 20.841393 Si / 1000 Ang^3
#
#
#
# Elastic Constant Matrix: (Units=GPa)
#
#
# Indices 1 2 3 4 5 6 
#
# 1 60.5218 16.6268 38.2834 -2.1510 36.0106 -8.7003
# 2 16.6268 67.3043 3.7773 -17.1472 -1.0462 -0.7204
# 3 38.2834 3.7773 93.4760 -3.7118 33.2726 -12.6383
# 4 -2.1510 -17.1472 -3.7118 28.8908 -2.3675 6.9517
# 5 36.0106 -1.0462 33.2726 -2.3675 46.3742 -10.5805
# 6 -8.7003 -0.7204 -12.6383 6.9517 -10.5805 27.8651
#
#
#
# Elastic Compliance Matrix: (Units=1/GPa)
#
#
# Indices 1 2 3 4 5 6 
#
# 1 0.039307 -0.011565 -0.006422 -0.007122 -0.026350 0.000833
# 2 -0.011565 0.021123 0.000889 0.013135 0.008907 -0.002557
# 3 -0.006422 0.000889 0.015687 0.000938 -0.005564 0.002786
# 4 -0.007122 0.013135 0.000938 0.045005 0.004989 -0.010792
# 5 -0.026350 0.008907 -0.005564 0.004989 0.047942 0.006438
# 6 0.000833 -0.002557 0.002786 -0.010792 0.006438 0.042481
#
#
# Mechanical properties :
#
#
# Convention : Reuss Voigt Hill
#
# Bulk Modulus (GPa) = 23.85564 37.63079 30.74322
# Shear Modulus (GPa) = 19.25180 31.46699 25.35940
#
# Velocity S-wave (km/s) = 3.04259 3.88987 3.49202
# Velocity P-wave (km/s) = 4.87999 6.18626 5.57154
#
# Compressibility (1/GPa) = 0.04191881
#
# Stress axis : x y z
#
# Youngs Moduli (GPa) = 25.44050 47.34268 63.74786
#
# Poissons Ratio (x) = 0.54753 0.40940
# Poissons Ratio (y) = 0.29423 -0.05664
# Poissons Ratio (z) = 0.16338 -0.04206
#
# Static dielectric constant tensor:
#      x y z
#    x 1.756720 0.047940 0.078990 
#    y 0.047940 1.678190 -0.026380 
#    z 0.078990 -0.026380 1.810180 
# 
# From -- ./inp_files/426975.got.cif
#   From: 2010.05.17/outbox.cif.g08.bks.cpg/sg2_214_cif.got.tgz:426975.got - 2010.06.03 11:33:40.
