data_PCOD9076839
_publ_section_title
;
Structure prediction by ZEFSAII (Michael W. Deem and Ramdas Pophale) SiO2 
 PCOD9076839
Probable space group: P -1
;
_chemical_formula_sum "Si O2"
_cell_formula_units_Z 14
_cell_length_a 8.602491
_cell_length_b 8.587703
_cell_length_c 17.587864
_cell_angle_alpha 38.496762
_cell_angle_beta 126.329093
_cell_angle_gamma 102.255383
_cell_volume 563.798731
_symmetry_space_group_name_H-M "P -1"
_symmetry_group_IT_number 2
_symmetry_cell_setting 'triclinic'
loop_
_space_group_symop_operation_xyz
x,y,z
-x,-y,-z
loop_
_atom_site_type_symbol
_atom_site_label
_atom_site_fract_x
_atom_site_fract_y
_atom_site_fract_z
Si Si1 0.614046 0.435718 0.904616
Si Si2 0.273763 0.053368 0.610897
Si Si3 0.263685 0.256958 0.912176
Si Si4 0.952043 0.857643 0.653445
Si Si5 0.928454 0.817911 0.823725
Si Si6 0.188031 0.631558 0.334142
Si Si7 0.260943 0.752474 0.154434
O O1 0.432504 0.334079 0.891715
O O2 0.696300 0.410555 0.850880
O O3 0.502648 0.751874 0.788864
O O4 0.824240 0.223045 0.096926
O O5 0.281020 0.341277 0.520436
O O6 0.188683 0.080666 0.487973
O O7 0.091195 0.022699 0.619203
O O8 0.128909 0.515231 0.833491
O O9 0.072163 0.274673 0.793586
O O10 0.374312 0.949171 0.102640
O O11 0.824557 0.904500 0.677159
O O12 0.804862 0.093714 0.736587
O O13 0.000000 0.500000 0.000000
O O14 0.313649 0.558567 0.317419
O O15 0.000000 0.000000 0.000000
#
# Coordination Sequence:
#
# PCOD9076839 Si02
#       7
#     2   2   2   2   2   2   2
#     4  11  22  38  67  98 117 157 222 264 293 361
#     4   9  21  41  65  90 119 167 215 246 301 374
#     4   9  18  36  64  92 119 156 218 253 292 364
#     4   9  20  40  64  88 131 166 194 252 322 373
#     4  12  25  39  63  93 129 166 203 256 323 364
#     4  10  21  39  64  89 129 168 200 247 318 374
#     4  10  18  33  60  94 121 158 202 260 301 356
#
# _framework density 24.831557
#
# number of rings (size 3 to 8) (size 9 to 14) (size 15 to 20)
#    0.000    2.000    2.857    2.143    4.000    3.429 
#    0.000    0.714    3.143    0.000    0.000    0.000 
#    0.000    0.000    0.000    0.000    0.000    0.000 
#
# Total GULP energy -78201.779095 kJ/mol
# GULP energy per Si atom -5585.841364 kJ/mol
# Density = 2.477504 g / cm^3
# Si number density = 24.831557 Si / 1000 Ang^3
#
#
#
# Elastic Constant Matrix: (Units=GPa)
#
#
# Indices 1 2 3 4 5 6 
#
# 1 73.9706 39.3937 18.5343 -3.7330 -9.1247 2.6215
# 2 39.3937 79.9757 16.6636 -15.5937 -25.4660 9.3430
# 3 18.5343 16.6636 62.0246 -15.6781 -18.9385 14.4908
# 4 -3.7330 -15.5937 -15.6781 42.0167 6.0582 -15.4712
# 5 -9.1247 -25.4660 -18.9385 6.0582 37.8569 -0.5556
# 6 2.6215 9.3430 14.4908 -15.4712 -0.5556 26.0178
#
#
#
# Elastic Compliance Matrix: (Units=1/GPa)
#
#
# Indices 1 2 3 4 5 6 
#
# 1 0.020148 -0.011286 -0.006157 -0.002507 -0.005358 0.003847
# 2 -0.011286 0.023425 0.004146 0.004823 0.014245 -0.006412
# 3 -0.006157 0.004146 0.024524 0.003908 0.012773 -0.011931
# 4 -0.002507 0.004823 0.003908 0.032693 -0.000405 0.015776
# 5 -0.005358 0.014245 0.012773 -0.000405 0.040999 -0.011055
# 6 0.003847 -0.006412 -0.011931 0.015776 -0.011055 0.056140
#
#
# Mechanical properties :
#
#
# Convention : Reuss Voigt Hill
#
# Bulk Modulus (GPa) = 24.09489 40.57266 32.33378
# Shear Modulus (GPa) = 20.97700 30.60358 25.79029
#
# Velocity S-wave (km/s) = 2.90965 3.51443 3.22624
# Velocity P-wave (km/s) = 4.58394 5.73087 5.18919
#
# Compressibility (1/GPa) = 0.04150257
#
# Stress axis : x y z
#
# Youngs Moduli (GPa) = 49.63217 42.69032 40.77661
#
# Poissons Ratio (x) = 0.48180 0.25107
# Poissons Ratio (y) = 0.56014 -0.16906
# Poissons Ratio (z) = 0.30559 -0.17699
#
# Static dielectric constant tensor:
#      x y z
#    x 2.022370 0.035260 0.010620 
#    y 0.035260 2.043190 0.020690 
#    z 0.010620 0.020690 2.039110 
# 
# From -- ./inp_files/472533.got.cif
#   From: 2010.05.17/outbox.cif.g08.bks.cpg/sg2_237_cif.got.tgz:472533.got - 2010.06.03 11:33:40.
