data_PCOD9076219
_publ_section_title
;
Structure prediction by ZEFSAII (Michael W. Deem and Ramdas Pophale) SiO2 
 PCOD9076219
Probable space group: P -1
;
_chemical_formula_sum "Si O2"
_cell_formula_units_Z 16
_cell_length_a 8.208144
_cell_length_b 27.147481
_cell_length_c 20.996897
_cell_angle_alpha 163.309005
_cell_angle_beta 149.903386
_cell_angle_gamma 33.974117
_cell_volume 673.847789
_symmetry_space_group_name_H-M "P -1"
_symmetry_group_IT_number 2
_symmetry_cell_setting 'triclinic'
loop_
_space_group_symop_operation_xyz
x,y,z
-x,-y,-z
loop_
_atom_site_type_symbol
_atom_site_label
_atom_site_fract_x
_atom_site_fract_y
_atom_site_fract_z
Si Si1 0.020894 0.774882 0.667423
Si Si2 0.243066 0.235356 0.912516
Si Si3 0.755805 0.798260 0.393105
Si Si4 0.113332 0.983378 0.844405
Si Si5 0.186793 0.565052 0.896890
Si Si6 0.830786 0.931372 0.447291
Si Si7 0.133210 0.613502 0.627405
Si Si8 0.781948 0.714835 0.833184
O O1 0.956378 0.941456 0.807821
O O2 0.923595 0.734688 0.658080
O O3 0.418018 0.772856 0.800047
O O4 0.875068 0.619638 0.383358
O O5 0.240675 0.211788 0.806941
O O6 0.582204 0.279995 0.113349
O O7 0.118133 0.052979 0.670916
O O8 0.002945 0.385240 0.041587
O O9 0.898667 0.849273 0.436631
O O10 0.018504 0.826365 0.571508
O O11 0.476228 0.939654 0.490600
O O12 0.556908 0.622717 0.102516
O O13 0.500000 0.000000 0.000000
O O14 0.039460 0.157405 0.996949
O O15 0.014575 0.691294 0.943024
O O16 0.261519 0.467265 0.441276
O O17 0.000000 0.500000 0.500000
#
# Coordination Sequence:
#
# PCOD9076219 Si02
#       8
#     2   2   2   2   2   2   2   2
#     4  10  20  37  55  84 111 153 183 222 280 335
#     4  10  18  33  52  85 111 144 174 235 286 314
#     4  10  20  34  56  84 108 146 184 233 274 327
#     4  10  22  35  58  81 113 145 190 225 277 337
#     4  10  18  34  61  82 113 140 190 235 273 321
#     4   9  20  32  57  85 113 137 185 235 277 323
#     4  11  22  32  58  85 115 142 186 234 273 320
#     4  10  18  37  57  84 109 149 187 228 275 330
#
# _framework density 23.744236000000001
#
# number of rings (size 3 to 8) (size 9 to 14) (size 15 to 20)
#    0.000    2.000    2.500    3.000    7.000    0.500 
#    0.000    0.625    0.000    2.250    0.000    0.000 
#    0.000    0.000    0.000    0.000    0.000    0.000 
#
# Total GULP energy -89373.288582 kJ/mol
# GULP energy per Si atom -5585.830536 kJ/mol
# Density = 2.369019 g / cm^3
# Si number density = 23.744236 Si / 1000 Ang^3
#
#
#
# Elastic Constant Matrix: (Units=GPa)
#
#
# Indices 1 2 3 4 5 6 
#
# 1 94.8132 38.0607 33.6313 -4.0738 -4.9233 43.1617
# 2 38.0607 72.3044 47.3755 -2.9551 6.1393 35.1272
# 3 33.6313 47.3755 170.2156 -30.6779 -2.1976 18.2851
# 4 -4.0738 -2.9551 -30.6779 37.8479 9.5209 4.5754
# 5 -4.9233 6.1393 -2.1976 9.5209 40.3528 0.4738
# 6 43.1617 35.1272 18.2851 4.5754 0.4738 38.3134
#
#
#
# Elastic Compliance Matrix: (Units=1/GPa)
#
#
# Indices 1 2 3 4 5 6 
#
# 1 0.023236 0.002529 -0.001396 0.004591 0.001624 -0.028397
# 2 0.002529 0.030423 -0.005452 0.002915 -0.004971 -0.028427
# 3 -0.001396 -0.005452 0.008614 0.006293 -0.000377 0.001714
# 4 0.004591 0.002915 0.006293 0.036044 -0.007868 -0.015056
# 5 0.001624 -0.004971 -0.000377 -0.007868 0.027531 0.003507
# 6 -0.028397 -0.028427 0.001714 -0.015056 0.003507 0.085090
#
#
# Mechanical properties :
#
#
# Convention : Reuss Voigt Hill
#
# Bulk Modulus (GPa) = 18.64485 63.94093 41.29289
# Shear Modulus (GPa) = 21.05674 37.85388 29.45531
#
# Velocity S-wave (km/s) = 2.98117 3.99712 3.52593
# Velocity P-wave (km/s) = 4.44064 6.94911 5.83135
#
# Compressibility (1/GPa) = 0.05363411
#
# Stress axis : x y z
#
# Youngs Moduli (GPa) = 43.03729 32.86954 116.09621
#
# Poissons Ratio (x) = -0.08313 0.16206
# Poissons Ratio (y) = -0.10884 0.63300
# Poissons Ratio (z) = 0.06008 0.17922
#
# Static dielectric constant tensor:
#      x y z
#    x 1.955310 0.036620 0.001620 
#    y 0.036620 1.975190 0.040460 
#    z 0.001620 0.040460 1.899520 
# 
# From -- ./inp_files/262805.got.cif
#   From: 2010.05.17/outbox.cif.g08.bks.cpg/sg2_132_cif.got.tgz:262805.got - 2010.06.03 11:33:40.
