data_PCOD9076336
_publ_section_title
;
Structure prediction by ZEFSAII (Michael W. Deem and Ramdas Pophale) SiO2 
 PCOD9076336
Probable space group: P -1
;
_chemical_formula_sum "Si O2"
_cell_formula_units_Z 16
_cell_length_a 30.977467
_cell_length_b 7.231416
_cell_length_c 12.130096
_cell_angle_alpha 146.390783
_cell_angle_beta 24.519275
_cell_angle_gamma 146.673968
_cell_volume 587.274493
_symmetry_space_group_name_H-M "P -1"
_symmetry_group_IT_number 2
_symmetry_cell_setting 'triclinic'
loop_
_space_group_symop_operation_xyz
x,y,z
-x,-y,-z
loop_
_atom_site_type_symbol
_atom_site_label
_atom_site_fract_x
_atom_site_fract_y
_atom_site_fract_z
Si Si1 0.955144 0.299765 0.348983
Si Si2 0.588807 0.091555 0.579577
Si Si3 0.345409 0.473062 0.557624
Si Si4 0.637406 0.277018 0.133043
Si Si5 0.238741 0.030191 0.022677
Si Si6 0.121624 0.109606 0.135255
Si Si7 0.253644 0.291624 0.347654
Si Si8 0.872130 0.089962 0.213335
O O1 0.961413 0.669232 0.575230
O O2 0.061683 0.183827 0.050404
O O3 0.857294 0.950293 0.451284
O O4 0.919564 0.358405 0.335494
O O5 0.583087 0.377429 0.641386
O O6 0.679936 0.318332 0.566627
O O7 0.464809 0.863097 0.783261
O O8 0.650536 0.858194 0.255116
O O9 0.406138 0.570725 0.580982
O O10 0.260529 0.698034 0.864913
O O11 0.259852 0.081838 0.549374
O O12 0.760328 0.563533 0.977816
O O13 0.663257 0.923315 0.929168
O O14 0.136535 0.936859 0.130180
O O15 0.231638 0.282008 0.263437
O O16 0.109824 0.851060 0.930251
#
# Coordination Sequence:
#
# PCOD9076336 Si02
#       8
#     2   2   2   2   2   2   2   2
#     4  10  20  35  58  79 100 128 175 216 256 299
#     4  10  18  33  55  73 104 139 172 212 250 296
#     4   8  17  33  53  73 101 131 171 210 246 295
#     4   9  18  32  54  78 100 132 181 212 248 294
#     4   9  21  34  50  73 112 139 167 201 258 308
#     4  10  21  36  51  79 108 134 166 212 256 306
#     4  10  19  34  54  78 104 133 173 217 249 298
#     4  10  19  37  58  78  97 134 171 216 259 298
#
# _framework density 27.244501
#
# number of rings (size 3 to 8) (size 9 to 14) (size 15 to 20)
#    0.750    1.750    1.250    1.875    0.000    1.500 
#    0.000    3.125    0.000    3.750    0.000    0.000 
#    0.000    0.000    0.000    0.000    0.000    0.000 
#
# Total GULP energy -89301.968107 kJ/mol
# GULP energy per Si atom -5581.373007 kJ/mol
# Density = 2.718249 g / cm^3
# Si number density = 27.244501 Si / 1000 Ang^3
#
#
#
# Elastic Constant Matrix: (Units=GPa)
#
#
# Indices 1 2 3 4 5 6 
#
# 1 101.3690 32.6867 26.0065 -2.7524 -1.7058 15.2140
# 2 32.6867 122.2566 34.5206 -17.5764 6.0645 30.2819
# 3 26.0065 34.5206 53.1887 -11.6396 9.4650 12.0860
# 4 -2.7524 -17.5764 -11.6396 23.6445 9.5760 -8.5960
# 5 -1.7058 6.0645 9.4650 9.5760 44.8475 12.6763
# 6 15.2140 30.2819 12.0860 -8.5960 12.6763 31.9781
#
#
#
# Elastic Compliance Matrix: (Units=1/GPa)
#
#
# Indices 1 2 3 4 5 6 
#
# 1 0.012820 -0.001287 -0.006498 -0.007225 0.005417 -0.006514
# 2 -0.001287 0.012553 -0.005050 0.002868 0.001280 -0.009103
# 3 -0.006498 -0.005050 0.029538 0.016377 -0.010822 0.005402
# 4 -0.007225 0.002868 0.016377 0.070861 -0.026001 0.023887
# 5 0.005417 0.001280 -0.010822 -0.026001 0.036102 -0.020999
# 6 -0.006514 -0.009103 0.005402 0.023887 -0.020999 0.055694
#
#
# Mechanical properties :
#
#
# Convention : Reuss Voigt Hill
#
# Bulk Modulus (GPa) = 34.19756 51.47132 42.83444
# Shear Modulus (GPa) = 19.76417 32.33405 26.04911
#
# Velocity S-wave (km/s) = 2.69632 3.44875 3.09548
# Velocity P-wave (km/s) = 4.71941 5.89846 5.34157
#
# Compressibility (1/GPa) = 0.02924185
#
# Stress axis : x y z
#
# Youngs Moduli (GPa) = 78.00601 79.66307 33.85499
#
# Poissons Ratio (x) = 0.10249 0.21998
# Poissons Ratio (y) = 0.10036 0.17096
# Poissons Ratio (z) = 0.50687 0.40227
#
# Static dielectric constant tensor:
#      x y z
#    x 2.208760 -0.120420 0.056070 
#    y -0.120420 2.226540 0.062550 
#    z 0.056070 0.062550 2.158180 
# 
# From -- ./inp_files/303242.got.cif
#   From: 2010.05.17/outbox.cif.g08.bks.cpg/sg2_152_cif.got.tgz:303242.got - 2010.06.03 11:33:40.
