data_PCOD9076814
_publ_section_title
;
Structure prediction by ZEFSAII (Michael W. Deem and Ramdas Pophale) SiO2 
 PCOD9076814
Probable space group: P -1
;
_chemical_formula_sum "Si O2"
_cell_formula_units_Z 16
_cell_length_a 18.403491
_cell_length_b 9.714411
_cell_length_c 11.441333
_cell_angle_alpha 64.860890
_cell_angle_beta 107.653607
_cell_angle_gamma 152.534942
_cell_volume 840.626695
_symmetry_space_group_name_H-M "P -1"
_symmetry_group_IT_number 2
_symmetry_cell_setting 'triclinic'
loop_
_space_group_symop_operation_xyz
x,y,z
-x,-y,-z
loop_
_atom_site_type_symbol
_atom_site_label
_atom_site_fract_x
_atom_site_fract_y
_atom_site_fract_z
Si Si1 0.134344 0.132214 0.079772
Si Si2 0.563609 0.284465 0.419548
Si Si3 0.225850 0.197509 0.855062
Si Si4 0.033022 0.466190 0.708258
Si Si5 0.215777 0.757990 0.451991
Si Si6 0.841559 0.562726 0.853503
Si Si7 0.168342 0.767994 0.919593
Si Si8 0.173875 0.375241 0.438989
O O1 0.211898 0.381876 0.120694
O O2 0.237519 0.247345 0.981297
O O3 0.042660 0.832708 0.203449
O O4 0.000000 0.000000 0.000000
O O5 0.660675 0.492690 0.274534
O O6 0.693898 0.518862 0.501797
O O7 0.500000 0.000000 0.500000
O O8 0.406553 0.112472 0.412967
O O9 0.263597 0.089170 0.877645
O O10 0.037775 0.896457 0.837447
O O11 0.148795 0.671510 0.579311
O O12 0.125405 0.673598 0.796543
O O13 0.885250 0.317923 0.660291
O O14 0.181519 0.524546 0.482425
O O15 0.798306 0.506151 0.717855
O O16 0.773641 0.290487 0.977877
O O17 0.000000 0.500000 0.000000
O O18 0.000000 0.000000 0.500000
#
# Coordination Sequence:
#
# PCOD9076814 Si02
#       8
#     2   2   2   2   2   2   2   2
#     4  10  19  32  60  92 116 148 202 250 294 351
#     4  10  23  39  59  87 125 159 198 250 299 357
#     4  10  19  35  60  87 117 155 196 241 306 348
#     4  11  20  37  62  86 118 159 203 247 292 363
#     4  10  24  38  59  86 121 161 201 243 302 355
#     4  10  19  32  60  93 115 148 203 248 295 349
#     4  10  18  33  60  89 118 146 199 253 292 350
#     4  11  20  35  63  87 118 157 205 247 292 359
#
# _framework density 19.033418999999999
#
# number of rings (size 3 to 8) (size 9 to 14) (size 15 to 20)
#    0.000    1.750    5.000    2.250    5.250    0.000 
#    0.000    1.250    0.000    3.750    0.000    0.000 
#    0.000    0.000    0.000    0.000    0.000    0.000 
#
# Total GULP energy -89209.939913 kJ/mol
# GULP energy per Si atom -5575.621245 kJ/mol
# Density = 1.899010 g / cm^3
# Si number density = 19.033419 Si / 1000 Ang^3
#
#
#
# Elastic Constant Matrix: (Units=GPa)
#
#
# Indices 1 2 3 4 5 6 
#
# 1 67.1318 30.6362 18.4964 4.9079 2.4073 -9.6842
# 2 30.6362 55.6001 20.6621 -1.4322 -4.2538 1.7173
# 3 18.4964 20.6621 87.0243 -2.2444 -4.2294 -0.3619
# 4 4.9079 -1.4322 -2.2444 32.3395 -12.5504 3.3289
# 5 2.4073 -4.2538 -4.2294 -12.5504 23.2014 3.3405
# 6 -9.6842 1.7173 -0.3619 3.3289 3.3405 36.5301
#
#
#
# Elastic Compliance Matrix: (Units=1/GPa)
#
#
# Indices 1 2 3 4 5 6 
#
# 1 0.024611 -0.014061 -0.002733 -0.010381 -0.012578 0.009254
# 2 -0.014061 0.028145 -0.002941 0.008396 0.011619 -0.006907
# 3 -0.002733 -0.002941 0.013020 0.002755 0.003760 -0.001052
# 4 -0.010381 0.008396 0.002755 0.045370 0.029088 -0.009914
# 5 -0.012578 0.011619 0.003760 0.029088 0.064744 -0.012415
# 6 0.009254 -0.006907 -0.001052 -0.009914 -0.012415 0.032181
#
#
# Mechanical properties :
#
#
# Convention : Reuss Voigt Hill
#
# Bulk Modulus (GPa) = 38.01522 38.81619 38.41571
# Shear Modulus (GPa) = 19.50778 27.74497 23.62638
#
# Velocity S-wave (km/s) = 3.20491 3.82212 3.52705
# Velocity P-wave (km/s) = 5.80616 6.31792 6.06744
#
# Compressibility (1/GPa) = 0.02630525
#
# Stress axis : x y z
#
# Youngs Moduli (GPa) = 40.63260 35.53056 76.80671
#
# Poissons Ratio (x) = 0.49958 0.20991
# Poissons Ratio (y) = 0.57132 0.22592
# Poissons Ratio (z) = 0.11105 0.10451
#
# Static dielectric constant tensor:
#      x y z
#    x 1.728290 0.044810 0.016100 
#    y 0.044810 1.718740 0.004600 
#    z 0.016100 0.004600 1.660640 
# 
# From -- ./inp_files/461094.got.cif
#   From: 2010.05.17/outbox.cif.g08.bks.cpg/sg2_231_cif.got.tgz:461094.got - 2010.06.03 11:33:40.
