data_PCOD9076237
_publ_section_title
;
Structure prediction by ZEFSAII (Michael W. Deem and Ramdas Pophale) SiO2 
 PCOD9076237
Probable space group: P -1
;
_chemical_formula_sum "Si O2"
_cell_formula_units_Z 16
_cell_length_a 9.972642
_cell_length_b 8.562497
_cell_length_c 20.199620
_cell_angle_alpha 41.162733
_cell_angle_beta 78.606057
_cell_angle_gamma 109.027999
_cell_volume 753.677098
_symmetry_space_group_name_H-M "P -1"
_symmetry_group_IT_number 2
_symmetry_cell_setting 'triclinic'
loop_
_space_group_symop_operation_xyz
x,y,z
-x,-y,-z
loop_
_atom_site_type_symbol
_atom_site_label
_atom_site_fract_x
_atom_site_fract_y
_atom_site_fract_z
Si Si1 0.689534 0.202720 0.246556
Si Si2 0.399866 0.660361 0.660522
Si Si3 0.895530 0.496266 0.706103
Si Si4 0.886147 0.427861 0.876825
Si Si5 0.805772 0.416070 0.026500
Si Si6 0.045490 0.201342 0.747503
Si Si7 0.705961 0.664250 0.589130
Si Si8 0.762619 0.768273 0.403693
O O1 0.585952 0.245809 0.294372
O O2 0.930430 0.518795 0.140512
O O3 0.643307 0.865281 0.373065
O O4 0.662806 0.214105 0.168123
O O5 0.171788 0.357972 0.753189
O O6 0.500000 0.000000 0.500000
O O7 0.509885 0.558098 0.664157
O O8 0.817286 0.315507 0.844072
O O9 0.939868 0.319823 0.715197
O O10 0.111229 0.908329 0.560858
O O11 0.754665 0.506131 0.681191
O O12 0.743323 0.255239 0.010103
O O13 0.008580 0.834329 0.735770
O O14 0.886818 0.786409 0.896842
O O15 0.000000 0.500000 0.000000
O O16 0.207056 0.354258 0.624423
O O17 0.702221 0.585012 0.538058
#
# Coordination Sequence:
#
# PCOD9076237 Si02
#       8
#     2   2   2   2   2   2   2   2
#     4   9  16  32  51  76 109 129 163 217 268 289
#     4  12  19  34  50  78 110 137 167 217 257 309
#     4  10  18  33  53  77  97 145 179 202 257 307
#     4   7  13  30  48  71 101 125 163 216 248 292
#     4   9  17  32  53  82 105 129 167 230 260 292
#     4  11  19  30  56  81 101 135 177 211 262 302
#     4  10  20  34  50  69 114 143 167 210 255 309
#     4   8  16  30  47  77 103 132 161 218 252 307
#
# _framework density 21.22925
#
# number of rings (size 3 to 8) (size 9 to 14) (size 15 to 20)
#    0.750    1.750    5.000    0.000    0.000    1.500 
#    0.000    0.000    0.000    1.500    0.000    0.000 
#    0.000    0.000    0.000    0.000    0.000    0.000 
#
# Total GULP energy -89193.134179 kJ/mol
# GULP energy per Si atom -5574.570886 kJ/mol
# Density = 2.118093 g / cm^3
# Si number density = 21.229250 Si / 1000 Ang^3
#
#
#
# Elastic Constant Matrix: (Units=GPa)
#
#
# Indices 1 2 3 4 5 6 
#
# 1 67.5418 22.0572 23.5492 9.6261 19.8811 -19.6587
# 2 22.0572 94.5355 45.4446 39.7583 2.8819 -26.5729
# 3 23.5492 45.4446 79.3262 27.6499 6.2769 -9.7892
# 4 9.6261 39.7583 27.6499 52.5078 0.4179 -3.4954
# 5 19.8811 2.8819 6.2769 0.4179 18.4086 -1.2300
# 6 -19.6587 -26.5729 -9.7892 -3.4954 -1.2300 28.5933
#
#
#
# Elastic Compliance Matrix: (Units=1/GPa)
#
#
# Indices 1 2 3 4 5 6 
#
# 1 0.031372 0.003958 -0.004861 -0.004496 -0.031293 0.021688
# 2 0.003958 0.026024 -0.007889 -0.014766 -0.003838 0.022235
# 3 -0.004861 -0.007889 0.019287 -0.003590 -0.000312 -0.004523
# 4 -0.004496 -0.014766 -0.003590 0.031964 0.006740 -0.013845
# 5 -0.031293 -0.003838 -0.000312 0.006740 0.087296 -0.020609
# 6 0.021688 0.022235 -0.004523 -0.013845 -0.020609 0.066421
#
#
# Mechanical properties :
#
#
# Convention : Reuss Voigt Hill
#
# Bulk Modulus (GPa) = 16.92120 47.05616 31.98868
# Shear Modulus (GPa) = 16.68620 29.92542 23.30581
#
# Velocity S-wave (km/s) = 2.80661 3.75858 3.31693
# Velocity P-wave (km/s) = 4.30009 6.40701 5.45621
#
# Compressibility (1/GPa) = 0.05909747
#
# Stress axis : x y z
#
# Youngs Moduli (GPa) = 31.87522 38.42588 51.84905
#
# Poissons Ratio (x) = -0.15208 0.25205
# Poissons Ratio (y) = -0.12616 0.40906
# Poissons Ratio (z) = 0.15495 0.30316
#
# Static dielectric constant tensor:
#      x y z
#    x 1.741430 0.007910 -0.039960 
#    y 0.007910 1.751560 0.012710 
#    z -0.039960 0.012710 1.830350 
# 
# From -- ./inp_files/586505.got.cif
#   From: 2010.05.17/outbox.cif.g08.bks.cpg/sg2_294_cif.got.tgz:586505.got - 2010.06.03 11:33:40.
