data_PCOD9076950
_publ_section_title
;
Structure prediction by ZEFSAII (Michael W. Deem and Ramdas Pophale) SiO2 
 PCOD9076950
Probable space group: P -1
;
_chemical_formula_sum "Si O2"
_cell_formula_units_Z 16
_cell_length_a 8.175721
_cell_length_b 15.050113
_cell_length_c 11.945547
_cell_angle_alpha 49.973085
_cell_angle_beta 48.925823
_cell_angle_gamma 72.670138
_cell_volume 828.453638
_symmetry_space_group_name_H-M "P -1"
_symmetry_group_IT_number 2
_symmetry_cell_setting 'triclinic'
loop_
_space_group_symop_operation_xyz
x,y,z
-x,-y,-z
loop_
_atom_site_type_symbol
_atom_site_label
_atom_site_fract_x
_atom_site_fract_y
_atom_site_fract_z
Si Si1 0.234879 0.367471 0.249768
Si Si2 0.757852 0.905932 0.272693
Si Si3 0.250942 0.894160 0.050853
Si Si4 0.849963 0.160594 0.618234
Si Si5 0.505083 0.208837 0.161686
Si Si6 0.717340 0.401583 0.072809
Si Si7 0.168067 0.994292 0.599690
Si Si8 0.279197 0.769982 0.617649
O O1 0.322382 0.290653 0.174399
O O2 0.458075 0.414713 0.183798
O O3 0.053646 0.269479 0.473335
O O4 0.158798 0.479074 0.140111
O O5 0.814776 0.994982 0.281787
O O6 0.544759 0.809348 0.484552
O O7 0.982406 0.861583 0.182851
O O8 0.693501 0.976131 0.137423
O O9 0.292120 0.881836 0.173634
O O10 0.386362 0.817506 0.980206
O O11 0.754895 0.214964 0.510186
O O12 0.955034 0.049600 0.622611
O O13 0.690396 0.287263 0.095373
O O14 0.378596 0.087254 0.376535
O O15 0.798446 0.358446 0.187465
O O16 0.169181 0.867188 0.651210
#
# Coordination Sequence:
#
# PCOD9076950 Si02
#       8
#     2   2   2   2   2   2   2   2
#     4   8  18  37  54  78  95 125 174 218 245 282
#     4  10  19  31  51  75 102 130 170 210 237 294
#     4  10  19  32  49  72 105 137 160 200 253 298
#     4  10  22  33  47  74 113 136 157 197 255 309
#     4   9  15  32  58  73  95 127 167 213 247 285
#     4   9  17  32  61  77  92 122 179 218 248 269
#     4  10  18  34  52  77 101 127 171 210 246 289
#     4  12  19  30  54  78 102 134 165 203 251 302
#
# _framework density 19.313089000000002
#
# number of rings (size 3 to 8) (size 9 to 14) (size 15 to 20)
#    0.750    1.500    2.500    2.250    0.000    1.000 
#    0.000    0.625    2.750    0.750    0.000    0.000 
#    0.000    0.000    0.000    0.000    0.000    0.000 
#
# Total GULP energy -89097.883465 kJ/mol
# GULP energy per Si atom -5568.617717 kJ/mol
# Density = 1.926913 g / cm^3
# Si number density = 19.313089 Si / 1000 Ang^3
#
#
#
# Elastic Constant Matrix: (Units=GPa)
#
#
# Indices 1 2 3 4 5 6 
#
# 1 39.4023 9.9002 15.9433 0.7532 28.7155 -0.5738
# 2 9.9002 54.8767 43.9232 7.8925 18.2759 -7.6428
# 3 15.9433 43.9232 96.6423 3.9935 32.3405 -3.6504
# 4 0.7532 7.8925 3.9935 35.8714 -3.5158 6.4608
# 5 28.7155 18.2759 32.3405 -3.5158 37.9005 -4.4879
# 6 -0.5738 -7.6428 -3.6504 6.4608 -4.4879 12.9249
#
#
#
# Elastic Compliance Matrix: (Units=1/GPa)
#
#
# Indices 1 2 3 4 5 6 
#
# 1 0.063830 0.000031 0.008519 -0.005808 -0.057585 -0.011834
# 2 0.000031 0.034278 -0.013087 -0.010121 -0.003924 0.020271
# 3 0.008519 -0.013087 0.020934 -0.000046 -0.018959 -0.008008
# 4 -0.005808 -0.010121 -0.000046 0.034857 0.010168 -0.020149
# 5 -0.057585 -0.003924 -0.018959 0.010168 0.090954 0.016268
# 6 -0.011834 0.020271 -0.008008 -0.020149 0.016268 0.102291
#
#
# Mechanical properties :
#
#
# Convention : Reuss Voigt Hill
#
# Bulk Modulus (GPa) = 9.09357 36.71717 22.90537
# Shear Modulus (GPa) = 12.72676 25.41634 19.07155
#
# Velocity S-wave (km/s) = 2.56983 3.63163 3.14585
# Velocity P-wave (km/s) = 3.67751 6.05292 5.00809
#
# Compressibility (1/GPa) = 0.10996779
#
# Stress axis : x y z
#
# Youngs Moduli (GPa) = 15.66664 29.17362 47.76916
#
# Poissons Ratio (x) = -0.00090 -0.40696
# Poissons Ratio (y) = -0.00049 0.62516
# Poissons Ratio (z) = -0.13347 0.38180
#
# Static dielectric constant tensor:
#      x y z
#    x 1.788610 -0.007460 0.000440 
#    y -0.007460 1.658730 -0.014830 
#    z 0.000440 -0.014830 1.667890 
# 
# From -- ./inp_files/395414.got.cif
#   From: 2010.05.17/outbox.cif.g08.bks.cpg/sg2_198_cif.got.tgz:395414.got - 2010.06.03 11:33:40.
