data_PCOD9076120
_publ_section_title
;
Structure prediction by ZEFSAII (Michael W. Deem and Ramdas Pophale) SiO2 
 PCOD9076120
Probable space group: P -1
;
_chemical_formula_sum "Si O2"
_cell_formula_units_Z 15
_cell_length_a 12.027481
_cell_length_b 11.989411
_cell_length_c 7.075792
_cell_angle_alpha 98.487897
_cell_angle_beta 97.642130
_cell_angle_gamma 36.338627
_cell_volume 597.817596
_symmetry_space_group_name_H-M "P -1"
_symmetry_group_IT_number 2
_symmetry_cell_setting 'triclinic'
loop_
_space_group_symop_operation_xyz
x,y,z
-x,-y,-z
loop_
_atom_site_type_symbol
_atom_site_label
_atom_site_fract_x
_atom_site_fract_y
_atom_site_fract_z
Si Si1 0.882330 0.223841 0.623700
Si Si2 0.762067 0.168461 0.268089
Si Si3 0.507578 0.077283 0.732360
Si Si4 0.375113 0.964842 0.825969
Si Si5 0.000000 0.000000 0.000000
Si Si6 0.055392 0.594983 0.182039
Si Si7 0.887145 0.880485 0.690093
Si Si8 0.108157 0.483621 0.740856
O O1 0.746196 0.259098 0.472511
O O2 0.826936 0.390437 0.725300
O O3 0.051414 0.108561 0.484957
O O4 0.004154 0.056737 0.767217
O O5 0.640260 0.155444 0.247507
O O6 0.777908 0.221412 0.089728
O O7 0.311785 0.284068 0.669815
O O8 0.489777 0.956235 0.713152
O O9 0.685846 0.986854 0.650882
O O10 0.540139 0.086911 0.960530
O O11 0.160424 0.186541 0.835931
O O12 0.902436 0.955603 0.881589
O O13 0.034936 0.507042 0.298899
O O14 0.123637 0.493707 0.973024
O O15 0.028994 0.662653 0.689469
#
# Coordination Sequence:
#
# PCOD9076120 Si02
#       8
#     2   2   2   2   1   2   2   2
#     4   9  19  31  57  79 114 148 181 215 291 323
#     4   9  16  32  53  86 104 145 187 227 261 338
#     4  10  19  32  57  89 106 144 185 231 271 317
#     4   9  16  31  55  80 115 134 187 231 267 318
#     4  10  18  32  62  80 104 140 194 222 262 322
#     4   9  17  34  52  83 107 148 183 232 268 328
#     4  11  20  36  56  84 110 149 180 228 270 335
#     4  10  20  33  58  79 112 138 193 230 266 317
#
# _framework density 25.091267999999999
#
# number of rings (size 3 to 8) (size 9 to 14) (size 15 to 20)
#    0.000    2.400    2.667    0.800    1.867    0.533 
#    0.000    6.667    5.867    0.800    0.000    0.000 
#    0.000    0.000    0.000    0.000    0.000    0.000 
#
# Total GULP energy -83682.870104 kJ/mol
# GULP energy per Si atom -5578.858007 kJ/mol
# Density = 2.503416 g / cm^3
# Si number density = 25.091268 Si / 1000 Ang^3
#
#
#
# Elastic Constant Matrix: (Units=GPa)
#
#
# Indices 1 2 3 4 5 6 
#
# 1 194.0068 39.4101 47.4842 7.3940 23.2374 18.7394
# 2 39.4101 59.0021 25.0429 -7.0162 1.0157 -3.4814
# 3 47.4842 25.0429 124.0059 6.9884 32.7165 10.8464
# 4 7.3940 -7.0162 6.9884 21.5297 7.9138 -0.3790
# 5 23.2374 1.0157 32.7165 7.9138 55.1642 10.9573
# 6 18.7394 -3.4814 10.8464 -0.3790 10.9573 32.5436
#
#
#
# Elastic Compliance Matrix: (Units=1/GPa)
#
#
# Indices 1 2 3 4 5 6 
#
# 1 0.007009 -0.004934 -0.000866 -0.003409 -0.001074 -0.003953
# 2 -0.004934 0.023732 -0.004454 0.010438 0.001498 0.006482
# 3 -0.000866 -0.004454 0.011020 -0.002813 -0.005309 -0.001896
# 4 -0.003409 0.010438 -0.002813 0.054339 -0.006223 0.006745
# 5 -0.001074 0.001498 -0.005309 -0.006223 0.023686 -0.005500
# 6 -0.003953 0.006482 -0.001896 0.006745 -0.005500 0.036260
#
#
# Mechanical properties :
#
#
# Convention : Reuss Voigt Hill
#
# Bulk Modulus (GPa) = 47.05134 66.76546 56.90840
# Shear Modulus (GPa) = 27.22721 39.51935 33.37328
#
# Velocity S-wave (km/s) = 3.29770 3.97296 3.65098
# Velocity P-wave (km/s) = 5.76997 6.90744 6.36417
#
# Compressibility (1/GPa) = 0.02125338
#
# Stress axis : x y z
#
# Youngs Moduli (GPa) = 142.66967 42.13639 90.74191
#
# Poissons Ratio (x) = 0.20791 0.07861
# Poissons Ratio (y) = 0.70396 0.40414
# Poissons Ratio (z) = 0.12360 0.18766
#
# Static dielectric constant tensor:
#      x y z
#    x 2.032160 0.003530 -0.051950 
#    y 0.003530 1.986170 -0.055150 
#    z -0.051950 -0.055150 2.205670 
# 
# From -- ./inp_files/259041.got.cif
#   From: 2010.05.17/outbox.cif.g08.bks.cpg/sg2_130_cif.got.tgz:259041.got - 2010.06.03 11:33:40.
