data_PCOD9076341
_publ_section_title
;
Structure prediction by ZEFSAII (Michael W. Deem and Ramdas Pophale) SiO2 
 PCOD9076341
Probable space group: P -1
;
_chemical_formula_sum "Si O2"
_cell_formula_units_Z 14
_cell_length_a 10.867190
_cell_length_b 21.788940
_cell_length_c 16.505971
_cell_angle_alpha 21.367607
_cell_angle_beta 154.655556
_cell_angle_gamma 159.433148
_cell_volume 484.525600
_symmetry_space_group_name_H-M "P -1"
_symmetry_group_IT_number 2
_symmetry_cell_setting 'triclinic'
loop_
_space_group_symop_operation_xyz
x,y,z
-x,-y,-z
loop_
_atom_site_type_symbol
_atom_site_label
_atom_site_fract_x
_atom_site_fract_y
_atom_site_fract_z
Si Si1 0.125554 0.375550 0.653625
Si Si2 0.188877 0.245594 0.619918
Si Si3 0.384254 0.734708 0.932121
Si Si4 0.310834 0.162085 0.625030
Si Si5 0.930652 0.640214 0.171646
Si Si6 0.268658 0.828760 0.907695
Si Si7 0.333571 0.670051 0.796976
O O1 0.276282 0.262151 0.840840
O O2 0.500360 0.618970 0.581633
O O3 0.011174 0.310484 0.757881
O O4 0.855431 0.412015 0.405370
O O5 0.500000 0.500000 0.500000
O O6 0.109970 0.173562 0.566884
O O7 0.362533 0.136551 0.889537
O O8 0.850883 0.230132 0.471489
O O9 0.330524 0.867489 0.799675
O O10 0.458578 0.772656 0.834747
O O11 0.000000 0.500000 0.000000
O O12 0.684781 0.215244 0.820344
O O13 0.173992 0.968619 0.723014
O O14 0.651857 0.681726 0.928332
O O15 0.960229 0.581843 0.049822
#
# Coordination Sequence:
#
# PCOD9076341 Si02
#       7
#     2   2   2   2   2   2   2
#     4   8  15  31  54  70 104 138 171 200 265 311
#     4  10  20  35  56  75 104 145 178 206 259 321
#     4   9  16  31  54  78 101 136 176 210 249 313
#     4  10  18  33  55  77 104 138 173 218 265 301
#     4   8  17  32  56  74 103 139 175 211 255 318
#     4  10  20  32  54  81 107 134 176 221 259 297
#     4   9  18  36  54  76 104 140 179 211 251 315
#
# _framework density 28.894242999999999
#
# number of rings (size 3 to 8) (size 9 to 14) (size 15 to 20)
#    0.857    2.000    0.000    3.000    0.000    0.000 
#    0.000   17.857    3.143    0.000    0.000    0.000 
#    0.000    0.000    0.000    0.000    0.000    0.000 
#
# Total GULP energy -78246.694724 kJ/mol
# GULP energy per Si atom -5589.049623 kJ/mol
# Density = 2.882848 g / cm^3
# Si number density = 28.894243 Si / 1000 Ang^3
#
#
#
# Elastic Constant Matrix: (Units=GPa)
#
#
# Indices 1 2 3 4 5 6 
#
# 1 93.2395 28.6191 43.1886 -21.2802 43.3896 -28.6205
# 2 28.6191 66.0459 62.4071 -26.6214 3.1549 -14.7262
# 3 43.1886 62.4071 178.4412 4.1415 49.9772 3.3399
# 4 -21.2802 -26.6214 4.1415 66.9477 3.4934 14.9043
# 5 43.3896 3.1549 49.9772 3.4934 68.8345 -8.4119
# 6 -28.6205 -14.7262 3.3399 14.9043 -8.4119 48.1377
#
#
#
# Elastic Compliance Matrix: (Units=1/GPa)
#
#
# Indices 1 2 3 4 5 6 
#
# 1 0.021421 -0.005583 0.000045 0.003513 -0.012511 0.007751
# 2 -0.005583 0.040225 -0.017283 0.012551 0.014670 0.008863
# 3 0.000045 -0.017283 0.014825 -0.005822 -0.010477 -0.006317
# 4 0.003513 0.012551 -0.005822 0.021444 0.000318 -0.000251
# 5 -0.012511 0.014670 -0.010477 0.000318 0.029682 0.002865
# 6 0.007751 0.008863 -0.006317 -0.000251 0.002865 0.029110
#
#
# Mechanical properties :
#
#
# Convention : Reuss Voigt Hill
#
# Bulk Modulus (GPa) = 32.43570 67.35069 49.89320
# Shear Modulus (GPa) = 23.51565 50.35144 36.93354
#
# Velocity S-wave (km/s) = 2.85590 4.17899 3.57912
# Velocity P-wave (km/s) = 4.70372 6.82973 5.86388
#
# Compressibility (1/GPa) = 0.03083023
#
# Stress axis : x y z
#
# Youngs Moduli (GPa) = 46.68425 24.85997 67.45300
#
# Poissons Ratio (x) = 0.13879 -0.00306
# Poissons Ratio (y) = 0.26064 1.16578
# Poissons Ratio (z) = -0.00212 0.42965
#
# Static dielectric constant tensor:
#      x y z
#    x 2.174920 -0.000150 -0.050900 
#    y -0.000150 2.371410 0.065260 
#    z -0.050900 0.065260 2.294030 
# 
# From -- ./inp_files/612421.got.cif
#   From: 2010.05.17/outbox.cif.g08.bks.cpg/sg2_307_cif.got.tgz:612421.got - 2010.06.03 11:33:40.
