data_PCOD9076621
_publ_section_title
;
Structure prediction by ZEFSAII (Michael W. Deem and Ramdas Pophale) SiO2 
 PCOD9076621
Probable space group: P -1
;
_chemical_formula_sum "Si O2"
_cell_formula_units_Z 16
_cell_length_a 8.464242
_cell_length_b 11.766776
_cell_length_c 8.875958
_cell_angle_alpha 84.566670
_cell_angle_beta 55.018462
_cell_angle_gamma 91.057266
_cell_volume 718.180914
_symmetry_space_group_name_H-M "P -1"
_symmetry_group_IT_number 2
_symmetry_cell_setting 'triclinic'
loop_
_space_group_symop_operation_xyz
x,y,z
-x,-y,-z
loop_
_atom_site_type_symbol
_atom_site_label
_atom_site_fract_x
_atom_site_fract_y
_atom_site_fract_z
Si Si1 0.683493 0.176607 0.407987
Si Si2 0.015674 0.253188 0.598105
Si Si3 0.459450 0.616751 0.354641
Si Si4 0.791238 0.040122 0.654987
Si Si5 0.573800 0.826672 0.722027
Si Si6 0.029090 0.331017 0.240551
Si Si7 0.480666 0.363574 0.004350
Si Si8 0.168427 0.446835 0.698640
O O1 0.582710 0.287014 0.513163
O O2 0.701110 0.091639 0.547660
O O3 0.566588 0.131317 0.333410
O O4 0.901221 0.228028 0.243897
O O5 0.229885 0.208634 0.462124
O O6 0.980846 0.314662 0.448413
O O7 0.037687 0.342702 0.709888
O O8 0.855276 0.145656 0.716924
O O9 0.320745 0.502791 0.482476
O O10 0.682527 0.589456 0.252767
O O11 0.417023 0.657420 0.205748
O O12 0.650097 0.927625 0.783561
O O13 0.000000 0.000000 0.500000
O O14 0.468832 0.714965 0.874635
O O15 0.254622 0.325809 0.108693
O O16 0.960929 0.450610 0.205854
O O17 0.500000 0.500000 0.000000
#
# Coordination Sequence:
#
# PCOD9076621 Si02
#       8
#     2   2   2   2   2   2   2   2
#     4  10  19  37  63  86 110 147 198 233 277 333
#     4   9  16  31  53  86 108 143 190 239 274 322
#     4  10  21  34  56  86 116 150 188 236 281 338
#     4   9  19  33  59  89 109 141 194 245 277 326
#     4  10  19  36  57  82 113 151 188 236 280 335
#     4   9  20  32  56  82 116 148 186 233 278 340
#     4  11  24  38  55  83 125 154 181 229 296 338
#     4  10  18  33  58  82 115 149 197 232 275 332
#
# _framework density 22.278507999999999
#
# number of rings (size 3 to 8) (size 9 to 14) (size 15 to 20)
#    0.000    2.250    1.250    3.000    3.500    2.500 
#    0.000    0.625    0.000    0.750    0.000    0.000 
#    0.000    0.000    0.000    0.000    0.000    0.000 
#
# Total GULP energy -89343.919316 kJ/mol
# GULP energy per Si atom -5583.994957 kJ/mol
# Density = 2.222780 g / cm^3
# Si number density = 22.278508 Si / 1000 Ang^3
#
#
#
# Elastic Constant Matrix: (Units=GPa)
#
#
# Indices 1 2 3 4 5 6 
#
# 1 94.3938 18.7510 -3.1223 -8.3006 1.2391 3.2095
# 2 18.7510 90.1657 -0.6845 -21.5654 -2.6800 22.7312
# 3 -3.1223 -0.6845 35.6229 -8.1624 -0.9231 8.0654
# 4 -8.3006 -21.5654 -8.1624 20.8113 -5.5069 -3.2745
# 5 1.2391 -2.6800 -0.9231 -5.5069 16.2483 -3.1638
# 6 3.2095 22.7312 8.0654 -3.2745 -3.1638 47.7664
#
#
#
# Elastic Compliance Matrix: (Units=1/GPa)
#
#
# Indices 1 2 3 4 5 6 
#
# 1 0.011269 -0.001349 0.001897 0.003902 0.000320 -0.000147
# 2 -0.001349 0.019677 0.008007 0.024469 0.010490 -0.008253
# 3 0.001897 0.008007 0.036037 0.024651 0.010086 -0.007665
# 4 0.003902 0.024469 0.024651 0.092769 0.035143 -0.007382
# 5 0.000320 0.010490 0.010086 0.035143 0.075874 0.000718
# 6 -0.000147 -0.008253 -0.007665 -0.007382 0.000718 0.025708
#
#
# Mechanical properties :
#
#
# Convention : Reuss Voigt Hill
#
# Bulk Modulus (GPa) = 11.89161 27.78563 19.83862
# Shear Modulus (GPa) = 18.36510 30.64775 24.50642
#
# Velocity S-wave (km/s) = 2.87425 3.71302 3.32023
# Velocity P-wave (km/s) = 4.04529 5.55707 4.86032
#
# Compressibility (1/GPa) = 0.08409288
#
# Stress axis : x y z
#
# Youngs Moduli (GPa) = 88.74196 50.82088 27.74921
#
# Poissons Ratio (x) = 0.06857 -0.05265
# Poissons Ratio (y) = 0.11973 -0.22219
# Poissons Ratio (z) = -0.16838 -0.40692
#
# Static dielectric constant tensor:
#      x y z
#    x 1.846020 -0.017240 -0.021420 
#    y -0.017240 1.852760 -0.012520 
#    z -0.021420 -0.012520 1.830530 
# 
# From -- ./inp_files/177434.got.cif
#   From: 2010.05.17/outbox.cif.g08.bks.cpg/sg2_89_cif.got.tgz:177434.got - 2010.06.03 11:33:40.
