data_PCOD9076220
_publ_section_title
;
Structure prediction by ZEFSAII (Michael W. Deem and Ramdas Pophale) SiO2 
 PCOD9076220
Probable space group: P -1
;
_chemical_formula_sum "Si O2"
_cell_formula_units_Z 16
_cell_length_a 11.392902
_cell_length_b 9.895307
_cell_length_c 11.433587
_cell_angle_alpha 51.977492
_cell_angle_beta 134.082628
_cell_angle_gamma 126.185586
_cell_volume 698.932574
_symmetry_space_group_name_H-M "P -1"
_symmetry_group_IT_number 2
_symmetry_cell_setting 'triclinic'
loop_
_space_group_symop_operation_xyz
x,y,z
-x,-y,-z
loop_
_atom_site_type_symbol
_atom_site_label
_atom_site_fract_x
_atom_site_fract_y
_atom_site_fract_z
Si Si1 0.326050 0.286573 0.530161
Si Si2 0.252614 0.675737 0.869768
Si Si3 0.741311 0.740612 0.069978
Si Si4 0.619883 0.310886 0.561157
Si Si5 0.009644 0.723522 0.105846
Si Si6 0.396004 0.661157 0.735685
Si Si7 0.006244 0.298310 0.148967
Si Si8 0.407409 0.146952 0.886816
O O1 0.463081 0.217418 0.587161
O O2 0.380938 0.485730 0.518986
O O3 0.173568 0.293252 0.336486
O O4 0.295626 0.172232 0.687405
O O5 0.121210 0.478915 0.870198
O O6 0.310284 0.740035 0.743219
O O7 0.148731 0.771474 0.831012
O O8 0.426452 0.682901 0.056536
O O9 0.925722 0.809214 0.104171
O O10 0.706487 0.551290 0.216487
O O11 0.700053 0.879441 0.056267
O O12 0.591941 0.695445 0.892993
O O13 0.603733 0.273664 0.431353
O O14 0.798837 0.282253 0.738074
O O15 0.995772 0.791105 0.930041
O O16 0.000000 0.500000 0.000000
O O17 0.500000 0.000000 0.000000
#
# Coordination Sequence:
#
# PCOD9076220 Si02
#       8
#     2   2   2   2   2   2   2   2
#     4  11  22  32  53  82 114 145 180 219 270 332
#     4   9  19  33  53  78 111 143 179 219 274 325
#     4   9  18  32  52  76 109 144 178 216 277 323
#     4  11  20  30  54  88 116 133 171 225 289 335
#     4  10  19  31  54  86 114 140 162 229 289 327
#     4   9  17  30  50  80 110 136 167 225 281 328
#     4  10  18  33  52  85 117 141 167 221 290 332
#     4  11  23  39  56  75 109 154 193 220 250 317
#
# _framework density 22.892050999999999
#
# number of rings (size 3 to 8) (size 9 to 14) (size 15 to 20)
#    0.000    2.000    3.750    2.250    5.250    3.000 
#    0.000    0.625    0.000    9.750    0.000    0.000 
#    0.000    0.000    0.000    0.000    0.000    0.000 
#
# Total GULP energy -89230.214406 kJ/mol
# GULP energy per Si atom -5576.888400 kJ/mol
# Density = 2.283995 g / cm^3
# Si number density = 22.892051 Si / 1000 Ang^3
#
#
#
# Elastic Constant Matrix: (Units=GPa)
#
#
# Indices 1 2 3 4 5 6 
#
# 1 196.0638 20.3926 44.2090 19.4216 8.8236 -34.8232
# 2 20.3926 45.6540 19.6879 -0.0798 -2.0763 0.8969
# 3 44.2090 19.6879 112.1454 24.7268 -10.7446 -9.3676
# 4 19.4216 -0.0798 24.7268 9.9097 -5.5532 8.0582
# 5 8.8236 -2.0763 -10.7446 -5.5532 39.2766 11.2726
# 6 -34.8232 0.8969 -9.3676 8.0582 11.2726 27.1928
#
#
#
# Elastic Compliance Matrix: (Units=1/GPa)
#
#
# Indices 1 2 3 4 5 6 
#
# 1 0.001611 0.003119 -0.007788 0.027874 0.004758 -0.010955
# 2 0.003119 0.019127 0.001689 -0.026019 -0.007096 0.014597
# 3 -0.007788 0.001689 0.006415 0.021906 0.012256 -0.019391
# 4 0.027874 -0.026019 0.021906 -0.111694 -0.044940 0.095828
# 5 0.004758 -0.007096 0.012256 -0.044940 0.016079 0.017201
# 6 -0.010955 0.014597 -0.019391 0.095828 0.017201 -0.019944
#
#
# Mechanical properties :
#
#
# Convention : Reuss Voigt Hill
#
# Bulk Modulus (GPa) = 47.18364 58.04913 52.61639
# Shear Modulus (GPa) = -66.32963 33.24741 -16.54111
#
# Velocity S-wave (km/s) = -5.38868 3.81511 -2.69098
# Velocity P-wave (km/s) = 4.24983 6.69474 3.65777
#
# Compressibility (1/GPa) = 0.02119379
#
# Stress axis : x y z
#
# Youngs Moduli (GPa) = 620.70331 52.28092 155.88367
#
# Poissons Ratio (x) = -0.16307 1.21398
# Poissons Ratio (y) = -1.93601 -0.26326
# Poissons Ratio (z) = 4.83388 -0.08829
#
# Static dielectric constant tensor:
#      x y z
#    x 1.935600 -0.037970 0.001690 
#    y -0.037970 2.001480 0.007470 
#    z 0.001690 0.007470 1.786710 
# 
# From -- ./inp_files/353450.got.cif
#   From: 2010.05.17/outbox.cif.g08.bks.cpg/sg2_177_cif.got.tgz:353450.got - 2010.06.03 11:33:40.
