data_PCOD9076082
_publ_section_title
;
Structure prediction by ZEFSAII (Michael W. Deem and Ramdas Pophale) SiO2 
 PCOD9076082
Probable space group: P -1
;
_chemical_formula_sum "Si O2"
_cell_formula_units_Z 14
_cell_length_a 9.417630
_cell_length_b 14.882901
_cell_length_c 11.994645
_cell_angle_alpha 151.572832
_cell_angle_beta 75.796500
_cell_angle_gamma 91.660361
_cell_volume 709.444674
_symmetry_space_group_name_H-M "P -1"
_symmetry_group_IT_number 2
_symmetry_cell_setting 'triclinic'
loop_
_space_group_symop_operation_xyz
x,y,z
-x,-y,-z
loop_
_atom_site_type_symbol
_atom_site_label
_atom_site_fract_x
_atom_site_fract_y
_atom_site_fract_z
Si Si1 0.520826 0.411762 0.577460
Si Si2 0.780546 0.710834 0.528665
Si Si3 0.667429 0.016199 0.509119
Si Si4 0.580575 0.123841 0.893717
Si Si5 0.354633 0.027775 0.972997
Si Si6 0.916520 0.551767 0.952401
Si Si7 0.346161 0.626739 0.241688
O O1 0.357786 0.372582 0.560757
O O2 0.592178 0.406944 0.681139
O O3 0.651307 0.195639 0.266466
O O4 0.473405 0.643624 0.794476
O O5 0.944331 0.541186 0.266929
O O6 0.724783 0.929417 0.710643
O O7 0.783756 0.778863 0.731084
O O8 0.500000 0.000000 0.500000
O O9 0.635972 0.119772 0.751107
O O10 0.704521 0.144885 0.545933
O O11 0.810941 0.794156 0.239335
O O12 0.423788 0.072619 0.891954
O O13 0.500000 0.000000 0.000000
O O14 0.792131 0.449029 0.840389
O O15 0.000000 0.500000 0.000000
O O16 0.500000 0.500000 0.000000
#
# Coordination Sequence:
#
# PCOD9076082 Si02
#       7
#     2   2   2   2   2   2   2
#     4  10  19  37  62  85 118 155 205 244 285 357
#     4  10  22  39  56  88 124 153 195 251 299 346
#     4  12  22  37  62  89 120 157 199 240 299 360
#     4  10  18  32  60  87 113 154 201 236 292 349
#     4   8  19  34  57  86 117 155 199 244 292 345
#     4  12  25  40  60  88 129 157 190 255 304 343
#     4  12  23  37  60  89 116 159 203 236 295 364
#
# _framework density 19.733746
#
# number of rings (size 3 to 8) (size 9 to 14) (size 15 to 20)
#    0.000    1.714    4.286    2.571    0.000    6.857 
#    0.000    0.714    0.000    6.000    0.000    0.000 
#    0.000    0.000    0.000    0.000    0.000    0.000 
#
# Total GULP energy -77971.863770 kJ/mol
# GULP energy per Si atom -5569.418841 kJ/mol
# Density = 1.968883 g / cm^3
# Si number density = 19.733746 Si / 1000 Ang^3
#
#
#
# Elastic Constant Matrix: (Units=GPa)
#
#
# Indices 1 2 3 4 5 6 
#
# 1 71.2075 9.9600 33.5656 3.1690 -3.5487 1.9680
# 2 9.9600 57.9375 24.9662 21.8678 -4.1198 -3.5616
# 3 33.5656 24.9662 144.0050 12.8852 -16.4383 1.1999
# 4 3.1690 21.8678 12.8852 49.6410 4.6859 -1.0133
# 5 -3.5487 -4.1198 -16.4383 4.6859 35.8251 -0.0290
# 6 1.9680 -3.5616 1.1999 -1.0133 -0.0290 21.1692
#
#
#
# Elastic Compliance Matrix: (Units=1/GPa)
#
#
# Indices 1 2 3 4 5 6 
#
# 1 0.015919 -0.001554 -0.003513 0.000577 -0.000291 -0.001515
# 2 -0.001554 0.022513 -0.002445 -0.009349 0.002539 0.003627
# 3 -0.003513 -0.002445 0.008713 -0.001308 0.003539 -0.000636
# 4 0.000577 -0.009349 -0.001308 0.025020 -0.004891 -0.000362
# 5 -0.000291 0.002539 0.003539 -0.004891 0.030440 0.000061
# 6 -0.001515 0.003627 -0.000636 -0.000362 0.000061 0.048008
#
#
# Mechanical properties :
#
#
# Convention : Reuss Voigt Hill
#
# Bulk Modulus (GPa) = 31.13252 45.57041 38.35147
# Shear Modulus (GPa) = 28.35364 34.97094 31.66229
#
# Velocity S-wave (km/s) = 3.79464 4.21424 4.00993
# Velocity P-wave (km/s) = 5.91689 6.84270 6.39657
#
# Compressibility (1/GPa) = 0.03212075
#
# Stress axis : x y z
#
# Youngs Moduli (GPa) = 62.81967 44.41913 114.76814
#
# Poissons Ratio (x) = 0.06904 0.40319
# Poissons Ratio (y) = 0.09763 0.28057
# Poissons Ratio (z) = 0.22069 0.10859
#
# Static dielectric constant tensor:
#      x y z
#    x 1.667640 -0.008180 -0.004120 
#    y -0.008180 1.817910 0.007810 
#    z -0.004120 0.007810 1.815480 
# 
# From -- ./inp_files/225277.got.cif
#   From: 2010.05.17/outbox.cif.g08.bks.cpg/sg2_113_cif.got.tgz:225277.got - 2010.06.03 11:33:40.
