data_PCOD9076122
_publ_section_title
;
Structure prediction by ZEFSAII (Michael W. Deem and Ramdas Pophale) SiO2 
 PCOD9076122
Probable space group: P -1
;
_chemical_formula_sum "Si O2"
_cell_formula_units_Z 16
_cell_length_a 9.492270
_cell_length_b 11.160469
_cell_length_c 18.327465
_cell_angle_alpha 49.269151
_cell_angle_beta 53.772499
_cell_angle_gamma 92.340772
_cell_volume 850.301231
_symmetry_space_group_name_H-M "P -1"
_symmetry_group_IT_number 2
_symmetry_cell_setting 'triclinic'
loop_
_space_group_symop_operation_xyz
x,y,z
-x,-y,-z
loop_
_atom_site_type_symbol
_atom_site_label
_atom_site_fract_x
_atom_site_fract_y
_atom_site_fract_z
Si Si1 0.782599 0.654587 0.842331
Si Si2 0.935424 0.432047 0.962847
Si Si3 0.964035 0.292133 0.606832
Si Si4 0.675220 0.331613 0.369739
Si Si5 0.703499 0.492087 0.449138
Si Si6 0.179601 0.901138 0.517490
Si Si7 0.563475 0.057249 0.718404
Si Si8 0.189863 0.151651 0.527224
O O1 0.855055 0.548664 0.908307
O O2 0.897110 0.701389 0.707293
O O3 0.500000 0.500000 0.000000
O O4 0.939398 0.903149 0.722829
O O5 0.168604 0.531760 0.803768
O O6 0.000000 0.500000 0.000000
O O7 0.709458 0.172304 0.121300
O O8 0.685611 0.090710 0.745402
O O9 0.000000 0.500000 0.500000
O O10 0.067614 0.317475 0.645260
O O11 0.140664 0.302837 0.495303
O O12 0.782089 0.485063 0.347449
O O13 0.403938 0.222372 0.484382
O O14 0.684312 0.149739 0.456742
O O15 0.500000 0.500000 0.500000
O O16 0.589311 0.260479 0.612583
O O17 0.756010 0.885785 0.554753
O O18 0.266007 0.925619 0.400183
#
# Coordination Sequence:
#
# PCOD9076122 Si02
#       8
#     2   2   2   2   2   2   2   2
#     4   9  20  36  53  83 120 153 186 221 290 373
#     4  11  23  35  57  90 128 144 182 249 307 345
#     4  10  21  36  57  87 112 148 201 249 283 326
#     4  10  19  36  58  87 113 152 200 236 289 349
#     4  10  20  38  64  80 106 160 214 232 271 353
#     4   8  19  32  59  82 115 152 188 226 295 364
#     4  10  21  38  57  87 124 148 187 253 299 330
#     4  10  18  32  62  80 117 153 194 229 286 360
#
# _framework density 18.816860999999999
#
# number of rings (size 3 to 8) (size 9 to 14) (size 15 to 20)
#    0.750    1.500    1.250    1.875    3.500    0.500 
#    2.250    1.250    0.000    3.000    0.000    0.000 
#    0.000    0.000    0.000    0.000    0.000    0.000 
#
# Total GULP energy -89083.828958 kJ/mol
# GULP energy per Si atom -5567.739310 kJ/mol
# Density = 1.877403 g / cm^3
# Si number density = 18.816861 Si / 1000 Ang^3
#
#
#
# Elastic Constant Matrix: (Units=GPa)
#
#
# Indices 1 2 3 4 5 6 
#
# 1 92.9952 46.9294 33.7312 -3.4055 -17.2836 3.3558
# 2 46.9294 100.9236 26.5903 -3.5826 -3.3448 -2.9192
# 3 33.7312 26.5903 73.9380 -3.4988 -16.9561 10.7581
# 4 -3.4055 -3.5826 -3.4988 21.7671 2.9827 -4.8243
# 5 -17.2836 -3.3448 -16.9561 2.9827 28.0438 -2.1908
# 6 3.3558 -2.9192 10.7581 -4.8243 -2.1908 46.6277
#
#
#
# Elastic Compliance Matrix: (Units=1/GPa)
#
#
# Indices 1 2 3 4 5 6 
#
# 1 0.016764 -0.006648 -0.003496 -0.000155 0.007404 -0.000484
# 2 -0.006648 0.013808 -0.003152 0.001781 -0.004386 0.002048
# 3 -0.003496 -0.003152 0.018769 -0.000077 0.008523 -0.003884
# 4 -0.000155 0.001781 -0.000077 0.047915 -0.004645 0.004880
# 5 0.007404 -0.004386 0.008523 -0.004645 0.045257 -0.001128
# 6 -0.000484 0.002048 -0.003884 0.004880 -0.001128 0.022958
#
#
# Mechanical properties :
#
#
# Convention : Reuss Voigt Hill
#
# Bulk Modulus (GPa) = 43.95982 53.59537 48.77759
# Shear Modulus (GPa) = 25.04421 29.99480 27.51950
#
# Velocity S-wave (km/s) = 3.65217 3.99687 3.82840
# Velocity P-wave (km/s) = 6.41850 7.06006 6.74691
#
# Compressibility (1/GPa) = 0.02274805
#
# Stress axis : x y z
#
# Youngs Moduli (GPa) = 59.65096 72.42398 53.27849
#
# Poissons Ratio (x) = 0.48150 0.18626
# Poissons Ratio (y) = 0.39658 0.16794
# Poissons Ratio (z) = 0.20854 0.22829
#
# Static dielectric constant tensor:
#      x y z
#    x 1.687450 0.015590 0.003290 
#    y 0.015590 1.693160 0.026650 
#    z 0.003290 0.026650 1.582870 
# 
# From -- ./inp_files/559760.got.cif
#   From: 2010.05.17/outbox.cif.g08.bks.cpg/sg2_280_cif.got.tgz:559760.got - 2010.06.03 11:33:40.
