data_PCOD9076133
_publ_section_title
;
Structure prediction by ZEFSAII (Michael W. Deem and Ramdas Pophale) SiO2 
 PCOD9076133
Probable space group: P -1
;
_chemical_formula_sum "Si O2"
_cell_formula_units_Z 16
_cell_length_a 10.014653
_cell_length_b 9.719322
_cell_length_c 14.895461
_cell_angle_alpha 56.826258
_cell_angle_beta 98.917222
_cell_angle_gamma 53.541121
_cell_volume 684.104706
_symmetry_space_group_name_H-M "P -1"
_symmetry_group_IT_number 2
_symmetry_cell_setting 'triclinic'
loop_
_space_group_symop_operation_xyz
x,y,z
-x,-y,-z
loop_
_atom_site_type_symbol
_atom_site_label
_atom_site_fract_x
_atom_site_fract_y
_atom_site_fract_z
Si Si1 0.128556 0.387941 0.960850
Si Si2 0.647794 0.816391 0.205641
Si Si3 0.385520 0.380685 0.574538
Si Si4 0.405613 0.348725 0.301245
Si Si5 0.723885 0.899553 0.629931
Si Si6 0.339186 0.606006 0.030326
Si Si7 0.296997 0.985000 0.990341
Si Si8 0.193489 0.807317 0.258086
O O1 0.983368 0.655070 0.786944
O O2 0.403274 0.151467 0.089742
O O3 0.000000 0.500000 0.000000
O O4 0.136337 0.201234 0.979360
O O5 0.734761 0.621297 0.366321
O O6 0.550985 0.796324 0.122007
O O7 0.793295 0.812504 0.174352
O O8 0.412790 0.715154 0.318663
O O9 0.341538 0.919307 0.524952
O O10 0.533247 0.134471 0.602978
O O11 0.309499 0.259974 0.335594
O O12 0.425420 0.378061 0.188781
O O13 0.244486 0.638019 0.238147
O O14 0.780379 0.331035 0.600578
O O15 0.322878 0.778955 0.033037
O O16 0.500000 0.500000 0.000000
O O17 0.064486 0.854345 0.886939
#
# Coordination Sequence:
#
# PCOD9076133 Si02
#       8
#     2   2   2   2   2   2   2   2
#     4  10  18  32  63  94 117 150 204 258 305 357
#     4   9  19  36  60  89 121 159 199 256 304 363
#     4  10  20  38  67  91 117 157 215 260 306 362
#     4  10  23  39  61  84 126 161 204 261 308 369
#     4  10  20  36  60  95 116 151 213 262 303 353
#     4  12  26  41  60  89 131 172 205 248 323 378
#     4   9  21  39  55  89 126 164 201 247 309 382
#     4  10  23  42  63  90 121 161 210 260 312 370
#
# _framework density 23.388231999999999
#
# number of rings (size 3 to 8) (size 9 to 14) (size 15 to 20)
#    0.750    1.250    1.250    1.875    3.500    1.000 
#    2.250    0.625    0.000    3.750    0.000    0.000 
#    0.000    0.000    0.000    0.000    0.000    0.000 
#
# Total GULP energy -89325.226396 kJ/mol
# GULP energy per Si atom -5582.826650 kJ/mol
# Density = 2.333500 g / cm^3
# Si number density = 23.388232 Si / 1000 Ang^3
#
#
#
# Elastic Constant Matrix: (Units=GPa)
#
#
# Indices 1 2 3 4 5 6 
#
# 1 46.1030 32.4277 24.4042 5.7244 -14.4425 -6.6293
# 2 32.4277 121.3602 31.3060 8.9633 -8.0423 -7.7021
# 3 24.4042 31.3060 168.0284 22.6910 -28.5328 -30.1546
# 4 5.7244 8.9633 22.6910 24.5568 -12.0626 -6.1541
# 5 -14.4425 -8.0423 -28.5328 -12.0626 29.5218 12.1240
# 6 -6.6293 -7.7021 -30.1546 -6.1541 12.1240 39.1468
#
#
#
# Elastic Compliance Matrix: (Units=1/GPa)
#
#
# Indices 1 2 3 4 5 6 
#
# 1 0.031416 -0.007409 -0.001477 0.003195 0.013638 -0.000997
# 2 -0.007409 0.010490 -0.000927 -0.002543 -0.002952 0.000610
# 3 -0.001477 -0.000927 0.008256 -0.004131 0.003608 0.004160
# 4 0.003195 -0.002543 -0.004131 0.053997 0.019185 -0.000594
# 5 0.013638 -0.002952 0.003608 0.019185 0.054968 -0.009500
# 6 -0.000997 0.000610 0.004160 -0.000594 -0.009500 0.031549
#
#
# Mechanical properties :
#
#
# Convention : Reuss Voigt Hill
#
# Bulk Modulus (GPa) = 32.74821 56.86305 44.80563
# Shear Modulus (GPa) = 22.67779 35.13534 28.90657
#
# Velocity S-wave (km/s) = 3.11726 3.88011 3.51941
# Velocity P-wave (km/s) = 5.19507 6.66627 5.97612
#
# Compressibility (1/GPa) = 0.03053602
#
# Stress axis : x y z
#
# Youngs Moduli (GPa) = 31.83094 95.33311 121.12980
#
# Poissons Ratio (x) = 0.70631 0.17889
# Poissons Ratio (y) = 0.23583 0.11226
# Poissons Ratio (z) = 0.04701 0.08835
#
# Static dielectric constant tensor:
#      x y z
#    x 1.982360 0.023350 0.034310 
#    y 0.023350 1.901130 0.021520 
#    z 0.034310 0.021520 1.968750 
# 
# From -- ./inp_files/530489.got.cif
#   From: 2010.05.17/outbox.cif.g08.bks.cpg/sg2_266_cif.got.tgz:530489.got - 2010.06.03 11:33:40.
