data_PCOD9076464
_publ_section_title
;
Structure prediction by ZEFSAII (Michael W. Deem and Ramdas Pophale) SiO2 
 PCOD9076464
Probable space group: P -1
;
_chemical_formula_sum "Si O2"
_cell_formula_units_Z 16
_cell_length_a 12.312305
_cell_length_b 8.223385
_cell_length_c 12.554882
_cell_angle_alpha 111.884188
_cell_angle_beta 97.606580
_cell_angle_gamma 33.388631
_cell_volume 608.020693
_symmetry_space_group_name_H-M "P -1"
_symmetry_group_IT_number 2
_symmetry_cell_setting 'triclinic'
loop_
_space_group_symop_operation_xyz
x,y,z
-x,-y,-z
loop_
_atom_site_type_symbol
_atom_site_label
_atom_site_fract_x
_atom_site_fract_y
_atom_site_fract_z
Si Si1 0.041027 0.167311 0.845299
Si Si2 0.417549 0.876625 0.056341
Si Si3 0.360303 0.657313 0.417965
Si Si4 0.305304 0.349978 0.257318
Si Si5 0.084244 0.567677 0.482803
Si Si6 0.390730 0.665952 0.191153
Si Si7 0.091773 0.475514 0.875849
Si Si8 0.116902 0.674734 0.731764
O O1 0.893857 0.334427 0.765712
O O2 0.166726 0.174124 0.833595
O O3 0.908363 0.403260 0.989954
O O4 0.149484 0.834100 0.801810
O O5 0.480298 0.677343 0.118918
O O6 0.455868 0.026118 0.125607
O O7 0.163201 0.204612 0.094086
O O8 0.523003 0.640293 0.911861
O O9 0.500000 0.500000 0.500000
O O10 0.375096 0.433255 0.338457
O O11 0.430327 0.653587 0.316233
O O12 0.116220 0.048324 0.493280
O O13 0.232779 0.332724 0.344337
O O14 0.190358 0.522685 0.585434
O O15 0.000000 0.500000 0.500000
O O16 0.137805 0.000874 0.228861
O O17 0.181753 0.450475 0.778038
#
# Coordination Sequence:
#
# PCOD9076464 Si02
#       8
#     2   2   2   2   2   2   2   2
#     4  10  18  33  56  83 117 151 195 252 309 372
#     4   9  19  36  63  82 118 156 203 258 308 379
#     4  11  24  41  63  91 129 165 210 265 311 378
#     4  11  21  39  64  90 120 167 213 255 321 377
#     4  11  22  41  67  90 121 168 215 263 316 383
#     4   9  18  38  58  86 114 163 200 246 320 371
#     4   9  19  32  53  89 116 150 193 254 312 369
#     4  10  19  36  58  82 122 159 200 253 316 380
#
# _framework density 26.314892
#
# number of rings (size 3 to 8) (size 9 to 14) (size 15 to 20)
#    0.000    2.000    2.500    3.750    0.000    1.500 
#    0.000    3.750    5.500    0.000    0.000    0.000 
#    0.000    0.000    0.000    0.000    0.000    0.000 
#
# Total GULP energy -89659.170216 kJ/mol
# GULP energy per Si atom -5603.698138 kJ/mol
# Density = 2.625500 g / cm^3
# Si number density = 26.314892 Si / 1000 Ang^3
#
#
#
# Elastic Constant Matrix: (Units=GPa)
#
#
# Indices 1 2 3 4 5 6 
#
# 1 63.3172 38.8838 32.9112 -2.5830 16.2237 18.3566
# 2 38.8838 90.3985 52.3687 -24.2491 5.7476 16.7304
# 3 32.9112 52.3687 167.9373 -23.6155 20.3977 2.7508
# 4 -2.5830 -24.2491 -23.6155 54.3407 5.9409 0.3695
# 5 16.2237 5.7476 20.3977 5.9409 49.2624 7.3604
# 6 18.3566 16.7304 2.7508 0.3695 7.3604 44.1347
#
#
#
# Elastic Compliance Matrix: (Units=1/GPa)
#
#
# Indices 1 2 3 4 5 6 
#
# 1 0.025378 -0.009261 -0.001781 -0.003083 -0.005267 -0.006030
# 2 -0.009261 0.019359 -0.003493 0.006487 0.002002 -0.003657
# 3 -0.001781 -0.003493 0.008011 0.002140 -0.002884 0.002028
# 4 -0.003083 0.006487 0.002140 0.022435 -0.003189 -0.000966
# 5 -0.005267 0.002002 -0.002884 -0.003189 0.023726 -0.002318
# 6 -0.006030 -0.003657 0.002028 -0.000966 -0.002318 0.026820
#
#
# Mechanical properties :
#
#
# Convention : Reuss Voigt Hill
#
# Bulk Modulus (GPa) = 42.23201 63.33117 52.78159
# Shear Modulus (GPa) = 30.73320 42.71350 36.72335
#
# Velocity S-wave (km/s) = 3.42116 4.03323 3.73974
# Velocity P-wave (km/s) = 5.62933 6.76817 6.22485
#
# Compressibility (1/GPa) = 0.02367872
#
# Stress axis : x y z
#
# Youngs Moduli (GPa) = 39.40392 51.65670 124.83305
#
# Poissons Ratio (x) = 0.47839 0.22228
# Poissons Ratio (y) = 0.36491 0.43603
# Poissons Ratio (z) = 0.07016 0.18043
#
# Static dielectric constant tensor:
#      x y z
#    x 2.124870 -0.013790 -0.006080 
#    y -0.013790 2.083780 0.006530 
#    z -0.006080 0.006530 1.993820 
# 
# From -- ./inp_files/446331.got.cif
#   From: 2010.05.17/outbox.cif.g08.bks.cpg/sg2_224_cif.got.tgz:446331.got - 2010.06.03 11:33:40.
