data_PCOD9076765
_publ_section_title
;
Structure prediction by ZEFSAII (Michael W. Deem and Ramdas Pophale) SiO2 
 PCOD9076765
Probable space group: P -1
;
_chemical_formula_sum "Si O2"
_cell_formula_units_Z 16
_cell_length_a 12.376879
_cell_length_b 15.072882
_cell_length_c 5.956005
_cell_angle_alpha 76.781810
_cell_angle_beta 106.667096
_cell_angle_gamma 143.963245
_cell_volume 626.205487
_symmetry_space_group_name_H-M "P -1"
_symmetry_group_IT_number 2
_symmetry_cell_setting 'triclinic'
loop_
_space_group_symop_operation_xyz
x,y,z
-x,-y,-z
loop_
_atom_site_type_symbol
_atom_site_label
_atom_site_fract_x
_atom_site_fract_y
_atom_site_fract_z
Si Si1 0.589165 0.910094 0.167185
Si Si2 0.984528 0.158439 0.380784
Si Si3 0.898030 0.633989 0.023173
Si Si4 0.569676 0.092591 0.267180
Si Si5 0.493565 0.604712 0.905694
Si Si6 0.823087 0.424682 0.797094
Si Si7 0.379947 0.327501 0.557234
Si Si8 0.044219 0.665618 0.484145
O O1 0.382520 0.748945 0.214864
O O2 0.611819 0.031109 0.175169
O O3 0.561102 0.908119 0.885543
O O4 0.775060 0.983650 0.330866
O O5 0.160281 0.210073 0.518796
O O6 0.974452 0.242164 0.485289
O O7 0.037792 0.230930 0.122489
O O8 0.729012 0.524448 0.159729
O O9 0.067564 0.694427 0.216189
O O10 0.816229 0.521660 0.841261
O O11 0.774937 0.260434 0.337086
O O12 0.500000 0.000000 0.500000
O O13 0.581962 0.689279 0.665567
O O14 0.500000 0.500000 0.000000
O O15 0.566968 0.682713 0.157544
O O16 0.884957 0.491241 0.547907
O O17 0.000000 0.500000 0.000000
O O18 0.500000 0.500000 0.500000
#
# Coordination Sequence:
#
# PCOD9076765 Si02
#       8
#     2   2   2   2   2   2   2   2
#     4  10  22  39  53  81 118 152 199 246 301 360
#     4  10  20  35  59  88 117 150 193 256 304 364
#     4  11  22  35  60  90 116 153 202 251 301 366
#     4  10  20  35  59  80 110 150 200 254 302 349
#     4  10  19  33  60  93 125 152 199 260 314 367
#     4  11  24  40  56  79 122 164 200 244 297 366
#     4  10  18  33  59  93 125 151 195 257 321 366
#     4  10  21  35  57  84 114 155 202 244 302 360
#
# _framework density 25.550716999999999
#
# number of rings (size 3 to 8) (size 9 to 14) (size 15 to 20)
#    0.000    1.750    3.750    2.250    5.250    1.500 
#    0.000    0.000    0.000    1.500    0.000    0.000 
#    0.000    0.000    0.000    0.000    0.000    0.000 
#
# Total GULP energy -89093.309898 kJ/mol
# GULP energy per Si atom -5568.331869 kJ/mol
# Density = 2.549256 g / cm^3
# Si number density = 25.550717 Si / 1000 Ang^3
#
#
#
# Elastic Constant Matrix: (Units=GPa)
#
#
# Indices 1 2 3 4 5 6 
#
# 1 46.3064 9.7767 5.0198 -0.8592 -6.3545 18.1223
# 2 9.7767 139.2071 39.8768 11.1725 11.0749 21.3826
# 3 5.0198 39.8768 114.8773 -12.3180 6.4513 9.1132
# 4 -0.8592 11.1725 -12.3180 30.6406 4.4783 -0.4513
# 5 -6.3545 11.0749 6.4513 4.4783 40.8228 5.9366
# 6 18.1223 21.3826 9.1132 -0.4513 5.9366 27.6049
#
#
#
# Elastic Compliance Matrix: (Units=1/GPa)
#
#
# Indices 1 2 3 4 5 6 
#
# 1 0.031592 0.000891 -0.000446 -0.001161 0.008229 -0.023072
# 2 0.000891 0.009542 -0.003300 -0.004824 -0.000399 -0.006880
# 3 -0.000446 -0.003300 0.010575 0.005648 -0.001430 -0.000242
# 4 -0.001161 -0.004824 0.005648 0.037349 -0.004474 0.004207
# 5 0.008229 -0.000399 -0.001430 -0.004474 0.028165 -0.010752
# 6 -0.023072 -0.006880 -0.000242 0.004207 -0.010752 0.059162
#
#
# Mechanical properties :
#
#
# Convention : Reuss Voigt Hill
#
# Bulk Modulus (GPa) = 21.73946 45.52639 33.63292
# Shear Modulus (GPa) = 25.32549 36.19484 30.76016
#
# Velocity S-wave (km/s) = 3.15172 3.76784 3.47347
# Velocity P-wave (km/s) = 4.66597 6.06511 5.41096
#
# Compressibility (1/GPa) = 0.04599931
#
# Stress axis : x y z
#
# Youngs Moduli (GPa) = 31.65316 104.79958 94.56135
#
# Poissons Ratio (x) = -0.09343 0.04220
# Poissons Ratio (y) = -0.02822 0.31208
# Poissons Ratio (z) = 0.01413 0.34587
#
# Static dielectric constant tensor:
#      x y z
#    x 2.286600 0.229350 0.291250 
#    y 0.229350 2.074670 0.093180 
#    z 0.291250 0.093180 2.380220 
# 
# From -- ./inp_files/38633.got.cif
#   From: 2010.05.17/outbox.cif.g08.bks.cpg/sg2_20_cif.got.tgz:38633.got - 2010.06.03 11:33:40.
