data_PCOD9076654
_publ_section_title
;
Structure prediction by ZEFSAII (Michael W. Deem and Ramdas Pophale) SiO2 
 PCOD9076654
Probable space group: P -1
;
_chemical_formula_sum "Si O2"
_cell_formula_units_Z 14
_cell_length_a 14.894545
_cell_length_b 7.022587
_cell_length_c 11.897218
_cell_angle_alpha 91.250424
_cell_angle_beta 27.610515
_cell_angle_gamma 78.720749
_cell_volume 510.818445
_symmetry_space_group_name_H-M "P -1"
_symmetry_group_IT_number 2
_symmetry_cell_setting 'triclinic'
loop_
_space_group_symop_operation_xyz
x,y,z
-x,-y,-z
loop_
_atom_site_type_symbol
_atom_site_label
_atom_site_fract_x
_atom_site_fract_y
_atom_site_fract_z
Si Si1 0.220840 0.631380 0.471271
Si Si2 0.115918 0.337382 0.989157
Si Si3 0.529917 0.226801 0.668027
Si Si4 0.417969 0.022926 0.963914
Si Si5 0.857342 0.138171 0.866887
Si Si6 0.960843 0.253022 0.545453
Si Si7 0.833910 0.276528 0.148144
O O1 0.446272 0.603571 0.272403
O O2 0.224430 0.595306 0.333695
O O3 0.044823 0.889604 0.671413
O O4 0.100920 0.544299 0.690000
O O5 0.313866 0.234018 0.855204
O O6 0.190704 0.483341 0.834031
O O7 0.063189 0.183708 0.962790
O O8 0.590847 0.036067 0.687717
O O9 0.669058 0.243748 0.411231
O O10 0.182239 0.234772 0.245886
O O11 0.500000 0.000000 0.000000
O O12 0.342757 0.865151 0.981763
O O13 0.932496 0.284028 0.709817
O O14 0.810618 0.221587 0.046033
O O15 0.000000 0.000000 0.500000
#
# Coordination Sequence:
#
# PCOD9076654 Si02
#       7
#     2   2   2   2   2   2   2
#     4   9  18  35  59  82 106 146 187 230 279 326
#     4  10  20  41  56  79 109 159 190 219 274 338
#     4  11  19  35  61  81 109 150 188 226 270 342
#     4  10  18  33  58  87 110 143 185 227 283 334
#     4  10  19  37  53  87 117 141 182 239 274 326
#     4   8  15  31  54  75 110 140 176 222 277 324
#     4  10  24  37  57  80 118 149 186 229 277 325
#
# _framework density 27.406998999999999
#
# number of rings (size 3 to 8) (size 9 to 14) (size 15 to 20)
#    0.000    2.571    2.857    3.000    0.000    2.857 
#    5.143    0.714    0.000    1.714    0.000    0.000 
#    0.000    0.000    0.000    0.000    0.000    0.000 
#
# Total GULP energy -78006.566124 kJ/mol
# GULP energy per Si atom -5571.897580 kJ/mol
# Density = 2.734462 g / cm^3
# Si number density = 27.406999 Si / 1000 Ang^3
#
#
#
# Elastic Constant Matrix: (Units=GPa)
#
#
# Indices 1 2 3 4 5 6 
#
# 1 273.7362 29.7449 73.7750 -17.0649 14.0384 7.1470
# 2 29.7449 45.1263 35.9946 -14.8995 12.6014 5.1479
# 3 73.7750 35.9946 118.5773 -43.8324 17.3851 1.1667
# 4 -17.0649 -14.8995 -43.8324 31.6488 -17.2287 5.2087
# 5 14.0384 12.6014 17.3851 -17.2287 70.3667 -21.3248
# 6 7.1470 5.1479 1.1667 5.2087 -21.3248 40.2167
#
#
#
# Elastic Compliance Matrix: (Units=1/GPa)
#
#
# Indices 1 2 3 4 5 6 
#
# 1 0.004605 -0.000882 -0.003766 -0.003526 -0.000877 -0.000605
# 2 -0.000882 0.031582 -0.007212 0.002756 -0.005059 -0.006716
# 3 -0.003766 -0.007212 0.022953 0.028138 0.002905 -0.001178
# 4 -0.003526 0.002756 0.028138 0.076485 0.010507 -0.004877
# 5 -0.000877 -0.005059 0.002905 0.010507 0.020198 0.010068
# 6 -0.000605 -0.006716 -0.001178 -0.004877 0.010068 0.031837
#
#
# Mechanical properties :
#
#
# Convention : Reuss Voigt Hill
#
# Bulk Modulus (GPa) = 28.23232 79.60764 53.91998
# Shear Modulus (GPa) = 22.40272 48.30813 35.35542
#
# Velocity S-wave (km/s) = 2.86214 4.20291 3.59557
# Velocity P-wave (km/s) = 4.60933 7.25687 6.07898
#
# Compressibility (1/GPa) = 0.03542040
#
# Stress axis : x y z
#
# Youngs Moduli (GPa) = 217.15667 31.66320 43.56757
#
# Poissons Ratio (x) = 0.02791 0.16410
# Poissons Ratio (y) = 0.19143 0.31421
# Poissons Ratio (z) = 0.81792 0.22835
#
# Static dielectric constant tensor:
#      x y z
#    x 2.257010 -0.035070 -0.002510 
#    y -0.035070 2.327910 0.028290 
#    z -0.002510 0.028290 2.213430 
# 
# From -- ./inp_files/444423.got.cif
#   From: 2010.05.17/outbox.cif.g08.bks.cpg/sg2_223_cif.got.tgz:444423.got - 2010.06.03 11:33:40.
