data_PCOD9076329
_publ_section_title
;
Structure prediction by ZEFSAII (Michael W. Deem and Ramdas Pophale) SiO2 
 PCOD9076329
Probable space group: P -1
;
_chemical_formula_sum "Si O2"
_cell_formula_units_Z 16
_cell_length_a 8.383220
_cell_length_b 12.661965
_cell_length_c 10.534524
_cell_angle_alpha 69.138350
_cell_angle_beta 93.232773
_cell_angle_gamma 135.688131
_cell_volume 695.397510
_symmetry_space_group_name_H-M "P -1"
_symmetry_group_IT_number 2
_symmetry_cell_setting 'triclinic'
loop_
_space_group_symop_operation_xyz
x,y,z
-x,-y,-z
loop_
_atom_site_type_symbol
_atom_site_label
_atom_site_fract_x
_atom_site_fract_y
_atom_site_fract_z
Si Si1 0.975530 0.017841 0.691725
Si Si2 0.213879 0.951452 0.849257
Si Si3 0.416920 0.058388 0.381530
Si Si4 0.724223 0.458967 0.448350
Si Si5 0.782383 0.301216 0.085747
Si Si6 0.671693 0.849850 0.004979
Si Si7 0.589390 0.625724 0.308284
Si Si8 0.277211 0.774496 0.351806
O O1 0.794905 0.962465 0.596660
O O2 0.107393 0.966687 0.721127
O O3 0.800552 0.907107 0.852079
O O4 0.189552 0.216297 0.658030
O O5 0.137705 0.783693 0.903802
O O6 0.169543 0.985049 0.968588
O O7 0.501739 0.114215 0.781141
O O8 0.647834 0.230618 0.246518
O O9 0.500000 0.000000 0.500000
O O10 0.281042 0.905895 0.338268
O O11 0.602472 0.497091 0.348996
O O12 0.646505 0.456387 0.589939
O O13 0.659364 0.291470 0.513884
O O14 0.007078 0.609110 0.368898
O O15 0.581625 0.228873 0.006513
O O16 0.000000 0.500000 0.000000
O O17 0.622361 0.711202 0.143499
#
# Coordination Sequence:
#
# PCOD9076329 Si02
#       8
#     2   2   2   2   2   2   2   2
#     4  10  19  38  59  84 117 150 200 244 290 355
#     4  10  19  38  63  88 116 155 196 241 305 349
#     4  10  22  41  59  77 114 164 197 236 295 354
#     4  10  19  31  53  86 123 141 184 240 292 338
#     4  10  23  42  58  85 120 154 202 250 289 355
#     4  10  20  37  61  86 116 156 195 239 300 358
#     4  10  18  33  54  87 118 150 183 243 298 336
#     4  10  19  34  54  85 120 151 189 240 291 350
#
# _framework density 23.008421999999999
#
# number of rings (size 3 to 8) (size 9 to 14) (size 15 to 20)
#    0.000    2.000    3.750    1.875    0.000    1.000 
#    2.250    6.250    0.000    0.000    0.000    0.000 
#    0.000    0.000    0.000    0.000    0.000    0.000 
#
# Total GULP energy -89199.566054 kJ/mol
# GULP energy per Si atom -5574.972878 kJ/mol
# Density = 2.295605 g / cm^3
# Si number density = 23.008422 Si / 1000 Ang^3
#
#
#
# Elastic Constant Matrix: (Units=GPa)
#
#
# Indices 1 2 3 4 5 6 
#
# 1 118.1652 26.3104 35.6327 -10.7051 26.5599 14.8608
# 2 26.3104 47.6370 37.1351 -21.1705 10.7963 11.7118
# 3 35.6327 37.1351 113.5309 -14.0753 20.9138 2.1368
# 4 -10.7051 -21.1705 -14.0753 38.2850 2.3383 12.4103
# 5 26.5599 10.7963 20.9138 2.3383 31.6063 -0.5982
# 6 14.8608 11.7118 2.1368 12.4103 -0.5982 31.5877
#
#
#
# Elastic Compliance Matrix: (Units=1/GPa)
#
#
# Indices 1 2 3 4 5 6 
#
# 1 0.013221 0.004214 -0.001805 0.009940 -0.012314 -0.011799
# 2 0.004214 0.066571 -0.011797 0.049948 -0.023040 -0.045927
# 3 -0.001805 -0.011797 0.013146 -0.003913 -0.002752 0.005819
# 4 0.009940 0.049948 -0.003913 0.073893 -0.029286 -0.052517
# 5 -0.012314 -0.023040 -0.002752 -0.029286 0.054357 0.027057
# 6 -0.011799 -0.045927 0.005819 -0.052517 0.027057 0.074989
#
#
# Mechanical properties :
#
#
# Convention : Reuss Voigt Hill
#
# Bulk Modulus (GPa) = 13.48383 53.05439 33.26911
# Shear Modulus (GPa) = 14.72007 32.31280 23.51644
#
# Velocity S-wave (km/s) = 2.53211 3.75159 3.20047
# Velocity P-wave (km/s) = 3.79762 6.47106 5.30549
#
# Compressibility (1/GPa) = 0.07416289
#
# Stress axis : x y z
#
# Youngs Moduli (GPa) = 75.63792 15.02154 76.07087
#
# Poissons Ratio (x) = -0.06331 0.13732
# Poissons Ratio (y) = -0.31876 0.89737
# Poissons Ratio (z) = 0.13654 0.17720
#
# Static dielectric constant tensor:
#      x y z
#    x 2.007370 0.031350 -0.009600 
#    y 0.031350 1.894850 0.058290 
#    z -0.009600 0.058290 1.889830 
# 
# From -- ./inp_files/397216.got.cif
#   From: 2010.05.17/outbox.cif.g08.bks.cpg/sg2_199_cif.got.tgz:397216.got - 2010.06.03 11:33:40.
