data_PCOD9076420
_publ_section_title
;
Structure prediction by ZEFSAII (Michael W. Deem and Ramdas Pophale) SiO2 
 PCOD9076420
Probable space group: P -1
;
_chemical_formula_sum "Si O2"
_cell_formula_units_Z 16
_cell_length_a 21.829208
_cell_length_b 14.239551
_cell_length_c 7.539505
_cell_angle_alpha 124.025484
_cell_angle_beta 125.746066
_cell_angle_gamma 20.201549
_cell_volume 656.295336
_symmetry_space_group_name_H-M "P -1"
_symmetry_group_IT_number 2
_symmetry_cell_setting 'triclinic'
loop_
_space_group_symop_operation_xyz
x,y,z
-x,-y,-z
loop_
_atom_site_type_symbol
_atom_site_label
_atom_site_fract_x
_atom_site_fract_y
_atom_site_fract_z
Si Si1 0.034599 0.274317 0.984981
Si Si2 0.358555 0.594542 0.322585
Si Si3 0.210672 0.618411 0.654251
Si Si4 0.526435 0.132074 0.081174
Si Si5 0.946220 0.613229 0.332325
Si Si6 0.174234 0.873667 0.664577
Si Si7 0.632767 0.765373 0.726647
Si Si8 0.013927 0.198490 0.262968
O O1 0.001235 0.263997 0.112784
O O2 0.067255 0.363769 0.153051
O O3 0.839794 0.525837 0.830862
O O4 0.187948 0.988818 0.850812
O O5 0.500000 0.500000 0.500000
O O6 0.443786 0.366445 0.142045
O O7 0.284646 0.669712 0.474394
O O8 0.191858 0.879712 0.242740
O O9 0.234236 0.720092 0.774925
O O10 0.366671 0.327242 0.526827
O O11 0.144331 0.663043 0.778025
O O12 0.033976 0.848801 0.465075
O O13 0.425339 0.221197 0.178777
O O14 0.736274 0.870805 0.212741
O O15 0.521098 0.034881 0.831140
O O16 0.973791 0.709936 0.487070
O O17 0.000000 0.500000 0.500000
#
# Coordination Sequence:
#
# PCOD9076420 Si02
#       8
#     2   2   2   2   2   2   2   2
#     4   9  19  35  54  80 105 139 177 216 261 310
#     4  11  20  34  54  79 109 138 178 213 260 316
#     4   9  17  32  52  77 105 137 177 216 256 307
#     4  10  18  33  56  77 101 141 176 212 261 312
#     4   9  18  35  55  74 103 140 176 214 260 312
#     4   9  18  33  51  75 106 142 172 213 262 309
#     4   9  18  34  57  78 102 136 180 217 259 312
#     4  10  20  33  55  80 106 141 175 215 260 311
#
# _framework density 24.379266000000001
#
# number of rings (size 3 to 8) (size 9 to 14) (size 15 to 20)
#    0.000    2.500    2.500    0.000    1.750    0.500 
#    2.250    3.125    0.000   13.500    0.000    0.000 
#    0.000    0.000    0.000    0.000    0.000    0.000 
#
# Total GULP energy -89302.898391 kJ/mol
# GULP energy per Si atom -5581.431149 kJ/mol
# Density = 2.432378 g / cm^3
# Si number density = 24.379266 Si / 1000 Ang^3
#
#
#
# Elastic Constant Matrix: (Units=GPa)
#
#
# Indices 1 2 3 4 5 6 
#
# 1 72.9041 28.1280 13.0192 0.0635 -8.9510 24.6276
# 2 28.1280 111.0873 48.2911 37.5306 14.4195 27.5399
# 3 13.0192 48.2911 66.9540 31.1363 14.6795 21.7589
# 4 0.0635 37.5306 31.1363 41.0711 11.4801 11.2550
# 5 -8.9510 14.4195 14.6795 11.4801 40.0156 5.7243
# 6 24.6276 27.5399 21.7589 11.2550 5.7243 36.1496
#
#
#
# Elastic Compliance Matrix: (Units=1/GPa)
#
#
# Indices 1 2 3 4 5 6 
#
# 1 0.021058 -0.004801 -0.000973 0.006856 0.006734 -0.013303
# 2 -0.004801 0.016876 -0.005091 -0.010179 -0.001931 -0.003046
# 3 -0.000973 -0.005091 0.028578 -0.013827 -0.003791 -0.007755
# 4 0.006856 -0.010179 -0.013827 0.045446 -0.002427 -0.002358
# 5 0.006734 -0.001931 -0.003791 -0.002427 0.029969 -0.004824
# 6 -0.013303 -0.003046 -0.007755 -0.002358 -0.004824 0.045213
#
#
# Mechanical properties :
#
#
# Convention : Reuss Voigt Hill
#
# Bulk Modulus (GPa) = 22.33068 47.75800 35.04434
# Shear Modulus (GPa) = 22.34171 34.21438 28.27804
#
# Velocity S-wave (km/s) = 3.03053 3.75029 3.40946
# Velocity P-wave (km/s) = 4.62872 6.19557 5.46855
#
# Compressibility (1/GPa) = 0.04478144
#
# Stress axis : x y z
#
# Youngs Moduli (GPa) = 47.48902 59.25692 34.99180
#
# Poissons Ratio (x) = 0.28450 0.03405
# Poissons Ratio (y) = 0.22800 0.17814
# Poissons Ratio (z) = 0.04620 0.30167
#
# Static dielectric constant tensor:
#      x y z
#    x 1.855340 0.038280 0.112480 
#    y 0.038280 1.927300 0.023850 
#    z 0.112480 0.023850 1.893290 
# 
# From -- ./inp_files/252197.got.cif
#   From: 2010.05.17/outbox.cif.g08.bks.cpg/sg2_127_cif.got.tgz:252197.got - 2010.06.03 11:33:40.
