data_PCOD9076644
_publ_section_title
;
Structure prediction by ZEFSAII (Michael W. Deem and Ramdas Pophale) SiO2 
 PCOD9076644
Probable space group: P -1
;
_chemical_formula_sum "Si O2"
_cell_formula_units_Z 12
_cell_length_a 9.461890
_cell_length_b 6.678046
_cell_length_c 13.006663
_cell_angle_alpha 136.568945
_cell_angle_beta 77.950551
_cell_angle_gamma 121.334771
_cell_volume 462.203907
_symmetry_space_group_name_H-M "P -1"
_symmetry_group_IT_number 2
_symmetry_cell_setting 'triclinic'
loop_
_space_group_symop_operation_xyz
x,y,z
-x,-y,-z
loop_
_atom_site_type_symbol
_atom_site_label
_atom_site_fract_x
_atom_site_fract_y
_atom_site_fract_z
Si Si1 0.010656 0.110783 0.373328
Si Si2 0.141254 0.578444 0.341732
Si Si3 0.329265 0.468330 0.549438
Si Si4 0.686266 0.547705 0.896577
Si Si5 0.353511 0.098751 0.652513
Si Si6 0.564855 0.011620 0.108235
O O1 0.103097 0.264291 0.307291
O O2 0.156948 0.094341 0.407068
O O3 0.990531 0.344981 0.552067
O O4 0.808763 0.865893 0.285058
O O5 0.160634 0.460972 0.183172
O O6 0.320130 0.940090 0.483475
O O7 0.500000 0.500000 0.500000
O O8 0.357654 0.611568 0.713417
O O9 0.322873 0.768336 0.600044
O O10 0.537318 0.406812 0.777815
O O11 0.707317 0.909749 0.056311
O O12 0.406247 0.722541 0.096316
O O13 0.500000 0.000000 0.000000
#
# Coordination Sequence:
#
# PCOD9076644 Si02
#       6
#     2   2   2   2   2   2
#     4   8  16  31  56  94 112 143 203 241 287 347
#     4   8  14  29  58  89 113 137 202 237 284 344
#     4  10  18  33  58  85 114 153 196 235 292 350
#     4  10  19  36  62  85 112 160 198 235 292 356
#     4   8  16  32  58  90 113 139 201 242 284 346
#     4  10  24  37  54  87 124 151 198 242 289 349
#
# _framework density 25.962568999999998
#
# number of rings (size 3 to 8) (size 9 to 14) (size 15 to 20)
#    1.000    2.000    1.667    0.500    4.667    0.000 
#    0.000    0.833    0.000   11.000    0.000    0.000 
#    0.000    0.000    0.000    0.000    0.000    0.000 
#
# Total GULP energy -66807.239863 kJ/mol
# GULP energy per Si atom -5567.269989 kJ/mol
# Density = 2.590348 g / cm^3
# Si number density = 25.962569 Si / 1000 Ang^3
#
#
#
# Elastic Constant Matrix: (Units=GPa)
#
#
# Indices 1 2 3 4 5 6 
#
# 1 117.9611 17.0844 23.2876 -7.8148 -5.6630 3.2596
# 2 17.0844 105.4580 35.8634 -25.9858 -24.6167 -0.0653
# 3 23.2876 35.8634 108.5850 -13.4602 -33.1349 1.3657
# 4 -7.8148 -25.9858 -13.4602 44.0058 2.9386 4.9290
# 5 -5.6630 -24.6167 -33.1349 2.9386 35.7640 -12.3517
# 6 3.2596 -0.0653 1.3657 4.9290 -12.3517 25.4535
#
#
#
# Elastic Compliance Matrix: (Units=1/GPa)
#
#
# Indices 1 2 3 4 5 6 
#
# 1 0.009055 -0.001054 -0.002104 0.000724 -0.002056 -0.002187
# 2 -0.001054 0.013697 -0.000690 0.006692 0.009246 0.003398
# 3 -0.002104 -0.000690 0.014519 0.001989 0.014621 0.006198
# 4 0.000724 0.006692 0.001989 0.027689 0.002852 -0.004160
# 5 -0.002056 0.009246 0.014621 0.002852 0.056401 0.026320
# 6 -0.002187 0.003398 0.006198 -0.004160 0.026320 0.052821
#
#
# Mechanical properties :
#
#
# Convention : Reuss Voigt Hill
#
# Bulk Modulus (GPa) = 33.81239 53.83055 43.82147
# Shear Modulus (GPa) = 26.07763 38.09591 32.08677
#
# Velocity S-wave (km/s) = 3.17272 3.83474 3.51933
# Velocity P-wave (km/s) = 5.14522 6.35499 5.78183
#
# Compressibility (1/GPa) = 0.02957496
#
# Stress axis : x y z
#
# Youngs Moduli (GPa) = 110.43456 73.00857 68.87757
#
# Poissons Ratio (x) = 0.07697 0.14491
# Poissons Ratio (y) = 0.11643 0.04750
# Poissons Ratio (z) = 0.23235 0.05035
#
# Static dielectric constant tensor:
#      x y z
#    x 2.255920 -0.142970 0.032780 
#    y -0.142970 2.157800 0.071500 
#    z 0.032780 0.071500 2.096290 
# 
# From -- ./inp_files/490181.got.cif
#   From: 2010.05.17/outbox.cif.g08.bks.cpg/sg2_246_cif.got.tgz:490181.got - 2010.06.03 11:33:40.
