data_PCOD9076467
_publ_section_title
;
Structure prediction by ZEFSAII (Michael W. Deem and Ramdas Pophale) SiO2 
 PCOD9076467
Probable space group: P -1
;
_chemical_formula_sum "Si O2"
_cell_formula_units_Z 16
_cell_length_a 18.027451
_cell_length_b 9.033534
_cell_length_c 9.272747
_cell_angle_alpha 96.015403
_cell_angle_beta 143.247713
_cell_angle_gamma 107.324479
_cell_volume 689.310292
_symmetry_space_group_name_H-M "P -1"
_symmetry_group_IT_number 2
_symmetry_cell_setting 'triclinic'
loop_
_space_group_symop_operation_xyz
x,y,z
-x,-y,-z
loop_
_atom_site_type_symbol
_atom_site_label
_atom_site_fract_x
_atom_site_fract_y
_atom_site_fract_z
Si Si1 0.877599 0.592083 0.024026
Si Si2 0.528472 0.438628 0.862798
Si Si3 0.764485 0.677272 0.492578
Si Si4 0.216061 0.593459 0.829403
Si Si5 0.993288 0.001109 0.317854
Si Si6 0.002434 0.392242 0.183352
Si Si7 0.262468 0.933810 0.087336
Si Si8 0.508375 0.357776 0.399761
O O1 0.868015 0.539605 0.174113
O O2 0.941853 0.807156 0.149185
O O3 0.993851 0.555882 0.136134
O O4 0.692972 0.454636 0.669242
O O5 0.332649 0.288365 0.548277
O O6 0.567309 0.625310 0.860588
O O7 0.611147 0.484509 0.153622
O O8 0.616220 0.368727 0.914869
O O9 0.896039 0.657369 0.746245
O O10 0.853168 0.830298 0.517268
O O11 0.104166 0.476925 0.503575
O O12 0.245585 0.790170 0.927055
O O13 0.000000 0.000000 0.500000
O O14 0.862055 0.027262 0.098982
O O15 0.812771 0.207091 0.901989
O O16 0.423369 0.149595 0.318900
O O17 0.500000 0.500000 0.500000
#
# Coordination Sequence:
#
# PCOD9076467 Si02
#       8
#     2   2   2   2   2   2   2   2
#     4  11  20  33  53  80 111 142 179 229 272 313
#     4  10  20  38  56  79 112 145 178 222 273 327
#     4   9  20  37  60  80 105 144 183 224 273 319
#     4  10  18  33  56  84 112 138 178 232 272 316
#     4  11  18  31  57  83 106 135 183 230 271 316
#     4   9  19  34  55  83 110 137 181 231 273 314
#     4  10  19  31  52  81 110 141 179 221 272 315
#     4  12  22  36  52  81 116 146 182 221 269 328
#
# _framework density 23.211607000000001
#
# number of rings (size 3 to 8) (size 9 to 14) (size 15 to 20)
#    0.000    1.750    2.500    5.250    0.000    2.000 
#    0.000    2.500    0.000    5.250    0.000    0.000 
#    0.000    0.000    0.000    0.000    0.000    0.000 
#
# Total GULP energy -89138.510866 kJ/mol
# GULP energy per Si atom -5571.156929 kJ/mol
# Density = 2.315878 g / cm^3
# Si number density = 23.211607 Si / 1000 Ang^3
#
#
#
# Elastic Constant Matrix: (Units=GPa)
#
#
# Indices 1 2 3 4 5 6 
#
# 1 97.9628 30.0048 44.7682 0.5190 33.1478 -25.2689
# 2 30.0048 116.7807 50.2153 -2.7408 7.6968 -31.0602
# 3 44.7682 50.2153 90.1278 -6.7170 27.8167 -11.1260
# 4 0.5190 -2.7408 -6.7170 43.6274 -1.8139 3.0894
# 5 33.1478 7.6968 27.8167 -1.8139 48.6554 -9.3251
# 6 -25.2689 -31.0602 -11.1260 3.0894 -9.3251 36.8311
#
#
#
# Elastic Compliance Matrix: (Units=1/GPa)
#
#
# Indices 1 2 3 4 5 6 
#
# 1 0.017442 0.001083 -0.006152 -0.002040 -0.006798 0.009471
# 2 0.001083 0.014871 -0.008719 -0.001084 0.004112 0.011783
# 3 -0.006152 -0.008719 0.020632 0.002919 -0.007553 -0.007498
# 4 -0.002040 -0.001084 0.002919 0.023571 0.000124 -0.003378
# 5 -0.006798 0.004112 -0.007553 0.000124 0.029625 0.004013
# 6 0.009471 0.011783 -0.007498 -0.003378 0.004013 0.042620
#
#
# Mechanical properties :
#
#
# Convention : Reuss Voigt Hill
#
# Bulk Modulus (GPa) = 39.41754 61.64977 50.53365
# Shear Modulus (GPa) = 27.05724 37.81496 32.43610
#
# Velocity S-wave (km/s) = 3.41791 4.04064 3.74225
# Velocity P-wave (km/s) = 5.70918 6.95605 6.36323
#
# Compressibility (1/GPa) = 0.02536942
#
# Stress axis : x y z
#
# Youngs Moduli (GPa) = 57.33431 67.24381 48.46785
#
# Poissons Ratio (x) = -0.07284 0.29817
# Poissons Ratio (y) = -0.06211 0.42260
# Poissons Ratio (z) = 0.35272 0.58631
#
# Static dielectric constant tensor:
#      x y z
#    x 1.970660 0.312330 0.120460 
#    y 0.312330 0.638240 -0.627930 
#    z 0.120460 -0.627930 1.627720 
# 
# From -- ./inp_files/274650.got.cif
#   From: 2010.05.17/outbox.cif.g08.bks.cpg/sg2_138_cif.got.tgz:274650.got - 2010.06.03 11:33:40.
