data_PCOD9076802
_publ_section_title
;
Structure prediction by ZEFSAII (Michael W. Deem and Ramdas Pophale) SiO2 
 PCOD9076802
Probable space group: P -1
;
_chemical_formula_sum "Si O2"
_cell_formula_units_Z 12
_cell_length_a 11.601089
_cell_length_b 7.842039
_cell_length_c 19.058756
_cell_angle_alpha 136.118056
_cell_angle_beta 30.487915
_cell_angle_gamma 141.834789
_cell_volume 538.399089
_symmetry_space_group_name_H-M "P -1"
_symmetry_group_IT_number 2
_symmetry_cell_setting 'triclinic'
loop_
_space_group_symop_operation_xyz
x,y,z
-x,-y,-z
loop_
_atom_site_type_symbol
_atom_site_label
_atom_site_fract_x
_atom_site_fract_y
_atom_site_fract_z
Si Si1 0.428673 0.846618 0.124447
Si Si2 0.471632 0.815359 0.570217
Si Si3 0.999501 0.986859 0.581356
Si Si4 0.201487 0.636796 0.520463
Si Si5 0.273280 0.010996 0.853712
Si Si6 0.299203 0.397967 0.172122
O O1 0.627897 0.035215 0.136273
O O2 0.286364 0.542267 0.147313
O O3 0.218165 0.947075 0.253668
O O4 0.587062 0.810336 0.966832
O O5 0.584377 0.120785 0.565403
O O6 0.290760 0.811072 0.726937
O O7 0.723197 0.818407 0.472700
O O8 0.329127 0.617215 0.521478
O O9 0.925802 0.665128 0.537218
O O10 0.000000 0.000000 0.500000
O O11 0.977804 0.716749 0.682396
O O12 0.487363 0.330410 0.819300
O O13 0.000000 0.000000 0.000000
#
# Coordination Sequence:
#
# PCOD9076802 Si02
#       6
#     2   2   2   2   2   2
#     4   9  19  34  54  90 115 145 195 239 300 333
#     4  11  24  38  63  88 117 167 195 239 296 360
#     4  12  20  39  59  94 121 148 196 257 298 334
#     4  11  23  41  61  86 123 158 205 232 295 365
#     4  10  18  33  60  86 112 154 201 238 284 349
#     4   9  18  37  59  81 120 158 187 244 288 358
#
# _framework density 22.288298999999999
#
# number of rings (size 3 to 8) (size 9 to 14) (size 15 to 20)
#    1.000    0.667    5.000    1.500    0.000    0.667 
#    3.000    0.833    0.000    3.000    0.000    0.000 
#    0.000    0.000    0.000    0.000    0.000    0.000 
#
# Total GULP energy -67014.606648 kJ/mol
# GULP energy per Si atom -5584.550554 kJ/mol
# Density = 2.223757 g / cm^3
# Si number density = 22.288299 Si / 1000 Ang^3
#
#
#
# Elastic Constant Matrix: (Units=GPa)
#
#
# Indices 1 2 3 4 5 6 
#
# 1 101.9942 5.7691 44.1068 -1.5233 -12.6624 27.3955
# 2 5.7691 44.6049 13.0580 -1.8998 -0.5716 11.8881
# 3 44.1068 13.0580 171.0581 8.5039 -25.2381 11.5723
# 4 -1.5233 -1.8998 8.5039 23.9155 7.6746 -7.5183
# 5 -12.6624 -0.5716 -25.2381 7.6746 35.9033 -5.9023
# 6 27.3955 11.8881 11.5723 -7.5183 -5.9023 37.7999
#
#
#
# Elastic Compliance Matrix: (Units=1/GPa)
#
#
# Indices 1 2 3 4 5 6 
#
# 1 0.013633 0.001522 -0.002641 -0.001653 0.001750 -0.009607
# 2 0.001522 0.025114 -0.002085 0.000829 -0.002108 -0.008527
# 3 -0.002641 -0.002085 0.007733 -0.004822 0.005519 0.000105
# 4 -0.001653 0.000829 -0.004822 0.051007 -0.013135 0.010508
# 5 0.001750 -0.002108 0.005519 -0.013135 0.035221 0.000592
# 6 -0.009607 -0.008527 0.000105 0.010508 0.000592 0.038250
#
#
# Mechanical properties :
#
#
# Convention : Reuss Voigt Hill
#
# Bulk Modulus (GPa) = 24.95501 49.28056 37.11778
# Shear Modulus (GPa) = 26.21604 36.50528 31.36066
#
# Velocity S-wave (km/s) = 3.43333 4.05145 3.75513
# Velocity P-wave (km/s) = 5.19016 6.63658 5.95743
#
# Compressibility (1/GPa) = 0.04007212
#
# Stress axis : x y z
#
# Youngs Moduli (GPa) = 73.34902 39.81919 129.31509
#
# Poissons Ratio (x) = -0.06061 0.34156
# Poissons Ratio (y) = -0.11166 0.26961
# Poissons Ratio (z) = 0.19374 0.08302
#
# Static dielectric constant tensor:
#      x y z
#    x 1.881790 -0.025370 0.003550 
#    y -0.025370 1.840480 0.002340 
#    z 0.003550 0.002340 1.782720 
# 
# From -- ./inp_files/411817.got.cif
#   From: 2010.05.17/outbox.cif.g08.bks.cpg/sg2_206_cif.got.tgz:411817.got - 2010.06.03 11:33:40.
