data_PCOD9076904
_publ_section_title
;
Structure prediction by ZEFSAII (Michael W. Deem and Ramdas Pophale) SiO2 
 PCOD9076904
Probable space group: P -1
;
_chemical_formula_sum "Si O2"
_cell_formula_units_Z 16
_cell_length_a 12.073490
_cell_length_b 14.842882
_cell_length_c 9.016932
_cell_angle_alpha 134.780484
_cell_angle_beta 46.803657
_cell_angle_gamma 139.052104
_cell_volume 710.171474
_symmetry_space_group_name_H-M "P -1"
_symmetry_group_IT_number 2
_symmetry_cell_setting 'triclinic'
loop_
_space_group_symop_operation_xyz
x,y,z
-x,-y,-z
loop_
_atom_site_type_symbol
_atom_site_label
_atom_site_fract_x
_atom_site_fract_y
_atom_site_fract_z
Si Si1 0.262622 0.017222 0.138244
Si Si2 0.897975 0.419238 0.144592
Si Si3 0.777527 0.737030 0.672664
Si Si4 0.896881 0.744678 0.233303
Si Si5 0.449040 0.829836 0.712316
Si Si6 0.296731 0.647781 0.352386
Si Si7 0.447114 0.510132 0.889928
Si Si8 0.030428 0.343406 0.399141
O O1 0.281303 0.144300 0.159799
O O2 0.358654 0.084488 0.287499
O O3 0.049330 0.910617 0.237647
O O4 0.367259 0.936399 0.894162
O O5 0.688527 0.297072 0.192647
O O6 0.934566 0.548849 0.370469
O O7 0.000000 0.500000 0.000000
O O8 0.996568 0.335145 0.003583
O O9 0.853220 0.731107 0.433792
O O10 0.608361 0.581333 0.707013
O O11 0.918542 0.770938 0.716233
O O12 0.709277 0.649540 0.210755
O O13 0.425712 0.741114 0.478768
O O14 0.163843 0.470875 0.309630
O O15 0.171188 0.715564 0.529645
O O16 0.387889 0.631985 0.104640
O O17 0.500000 0.500000 0.000000
#
# Coordination Sequence:
#
# PCOD9076904 Si02
#       8
#     2   2   2   2   2   2   2   2
#     4  10  24  45  67  97 137 180 229 273 332 407
#     4  10  18  33  64 101 125 160 221 280 325 387
#     4  12  25  41  68 103 137 175 228 280 330 402
#     4  11  24  43  68  97 136 181 220 277 342 395
#     4   9  22  42  68  94 135 181 223 275 338 397
#     4  10  21  41  68  93 136 175 217 274 342 398
#     4  12  26  42  67 107 137 168 223 288 344 393
#     4  10  20  37  63 100 130 170 219 275 336 396
#
# _framework density 22.529769000000002
#
# number of rings (size 3 to 8) (size 9 to 14) (size 15 to 20)
#    0.000    1.500    3.750    0.750    5.250    0.000 
#    2.250    3.125    0.000    0.000    0.000    0.000 
#    0.000    0.000    0.000    0.000    0.000    0.000 
#
# Total GULP energy -89227.788650 kJ/mol
# GULP energy per Si atom -5576.736791 kJ/mol
# Density = 2.247849 g / cm^3
# Si number density = 22.529769 Si / 1000 Ang^3
#
#
#
# Elastic Constant Matrix: (Units=GPa)
#
#
# Indices 1 2 3 4 5 6 
#
# 1 115.4106 49.3340 5.0001 2.8948 -8.2379 2.7273
# 2 49.3340 94.5193 17.3415 -9.4743 7.1723 11.8091
# 3 5.0001 17.3415 73.2623 -5.9259 1.4298 1.5864
# 4 2.8948 -9.4743 -5.9259 31.4014 -1.7772 -5.3565
# 5 -8.2379 7.1723 1.4298 -1.7772 28.1777 4.1439
# 6 2.7273 11.8091 1.5864 -5.3565 4.1439 36.0734
#
#
#
# Elastic Compliance Matrix: (Units=1/GPa)
#
#
# Indices 1 2 3 4 5 6 
#
# 1 0.012120 -0.007141 0.000527 -0.002816 0.005099 0.000394
# 2 -0.007141 0.016055 -0.002805 0.004098 -0.005277 -0.003378
# 3 0.000527 -0.002805 0.014419 0.001923 0.000183 0.000509
# 4 -0.002816 0.004098 0.001923 0.034354 -0.000375 0.003931
# 5 0.005099 -0.005277 0.000183 -0.000375 0.038757 -0.003174
# 6 0.000394 -0.003378 0.000509 0.003931 -0.003174 0.029723
#
#
# Mechanical properties :
#
#
# Convention : Reuss Voigt Hill
#
# Bulk Modulus (GPa) = 42.09609 47.39370 44.74489
# Shear Modulus (GPa) = 29.03876 33.23160 31.13518
#
# Velocity S-wave (km/s) = 3.59403 3.84475 3.72150
# Velocity P-wave (km/s) = 5.99566 6.38680 6.19432
#
# Compressibility (1/GPa) = 0.02375518
#
# Stress axis : x y z
#
# Youngs Moduli (GPa) = 82.51046 62.28588 69.35486
#
# Poissons Ratio (x) = 0.44479 -0.03657
# Poissons Ratio (y) = 0.58921 0.19456
# Poissons Ratio (z) = -0.04351 0.17473
#
# Static dielectric constant tensor:
#      x y z
#    x 1.843750 0.164490 -0.139850 
#    y 0.164490 1.563520 0.082570 
#    z -0.139850 0.082570 1.930270 
# 
# From -- ./inp_files/274298.got.cif
#   From: 2010.05.17/outbox.cif.g08.bks.cpg/sg2_138_cif.got.tgz:274298.got - 2010.06.03 11:33:40.
