data_PCOD9076729
_publ_section_title
;
Structure prediction by ZEFSAII (Michael W. Deem and Ramdas Pophale) SiO2 
 PCOD9076729
Probable space group: P -1
;
_chemical_formula_sum "Si O2"
_cell_formula_units_Z 15
_cell_length_a 18.449633
_cell_length_b 8.780185
_cell_length_c 9.671135
_cell_angle_alpha 103.745298
_cell_angle_beta 32.973661
_cell_angle_gamma 126.012312
_cell_volume 561.500128
_symmetry_space_group_name_H-M "P -1"
_symmetry_group_IT_number 2
_symmetry_cell_setting 'triclinic'
loop_
_space_group_symop_operation_xyz
x,y,z
-x,-y,-z
loop_
_atom_site_type_symbol
_atom_site_label
_atom_site_fract_x
_atom_site_fract_y
_atom_site_fract_z
Si Si1 0.000000 0.500000 0.500000
Si Si2 0.250802 0.361622 0.729338
Si Si3 0.552648 0.204027 0.323848
Si Si4 0.932261 0.946261 0.776409
Si Si5 0.917825 0.285190 0.305544
Si Si6 0.836441 0.220235 0.010033
Si Si7 0.279550 0.490358 0.145734
Si Si8 0.335512 0.195545 0.315757
O O1 0.001452 0.361713 0.347086
O O2 0.866566 0.490617 0.607816
O O3 0.393527 0.628899 0.601514
O O4 0.318306 0.314560 0.486290
O O5 0.041242 0.262424 0.016634
O O6 0.202687 0.214580 0.908353
O O7 0.711112 0.195930 0.078209
O O8 0.590740 0.337963 0.156598
O O9 0.336520 0.948880 0.636494
O O10 0.154343 0.083176 0.482567
O O11 0.912486 0.114996 0.830267
O O12 0.830522 0.762095 0.776528
O O13 0.711542 0.023555 0.604068
O O14 0.992192 0.510557 0.168018
O O15 0.434363 0.606466 0.047582
#
# Coordination Sequence:
#
# PCOD9076729 Si02
#       8
#     1   2   2   2   2   2   2   2
#     4  12  20  44  64  78 120 156 212 242 274 358
#     4   9  17  36  59  87 122 148 198 242 286 349
#     4   9  18  35  56  95 118 158 197 232 303 355
#     4  10  19  36  56  90 122 152 189 243 301 344
#     4  10  21  38  58  90 118 161 193 237 294 346
#     4  10  18  33  59  85 134 147 185 250 300 355
#     4  11  22  39  65  87 112 163 203 242 287 346
#     4  11  21  37  62  92 117 151 206 243 292 350
#
# _framework density 26.714153
#
# number of rings (size 3 to 8) (size 9 to 14) (size 15 to 20)
#    0.000    1.867    5.333    3.200    0.000    2.667 
#    0.000   14.000    0.000    0.800    0.000    0.000 
#    0.000    0.000    0.000    0.000    0.000    0.000 
#
# Total GULP energy -83647.053175 kJ/mol
# GULP energy per Si atom -5576.470212 kJ/mol
# Density = 2.665335 g / cm^3
# Si number density = 26.714153 Si / 1000 Ang^3
#
#
#
# Elastic Constant Matrix: (Units=GPa)
#
#
# Indices 1 2 3 4 5 6 
#
# 1 96.7900 49.2439 41.2208 -5.6822 -18.7388 -9.1052
# 2 49.2439 157.5398 71.6567 -31.7455 -23.4219 -30.1734
# 3 41.2208 71.6567 76.9408 -13.3128 -41.3600 -2.2534
# 4 -5.6822 -31.7455 -13.3128 48.0371 -0.7651 -2.7764
# 5 -18.7388 -23.4219 -41.3600 -0.7651 47.9653 3.5050
# 6 -9.1052 -30.1734 -2.2534 -2.7764 3.5050 41.3354
#
#
#
# Elastic Compliance Matrix: (Units=1/GPa)
#
#
# Indices 1 2 3 4 5 6 
#
# 1 0.013838 -0.000948 -0.007599 -0.001007 -0.001773 0.002025
# 2 -0.000948 0.018384 -0.020205 0.007058 -0.009683 0.013405
# 3 -0.007599 -0.020205 0.054494 0.000465 0.035362 -0.016419
# 4 -0.001007 0.007058 0.000465 0.025916 0.003399 0.006408
# 5 -0.001773 -0.009683 0.035362 0.003399 0.046651 -0.009258
# 6 0.002025 0.013405 -0.016419 0.006408 -0.009258 0.034744
#
#
# Mechanical properties :
#
#
# Convention : Reuss Voigt Hill
#
# Bulk Modulus (GPa) = 34.23158 72.83482 53.53320
# Shear Modulus (GPa) = 19.13737 38.74418 28.94077
#
# Velocity S-wave (km/s) = 2.67942 3.81244 3.29500
# Velocity P-wave (km/s) = 4.73437 6.83398 5.87867
#
# Compressibility (1/GPa) = 0.02921279
#
# Stress axis : x y z
#
# Youngs Moduli (GPa) = 72.26330 54.39474 18.35049
#
# Poissons Ratio (x) = 0.05155 0.13945
# Poissons Ratio (y) = 0.06848 0.37077
# Poissons Ratio (z) = 0.54916 1.09904
#
# Static dielectric constant tensor:
#      x y z
#    x 2.255190 -0.086900 0.190690 
#    y -0.086900 2.082410 -0.153170 
#    z 0.190690 -0.153170 2.504210 
# 
# From -- ./inp_files/468959.got.cif
#   From: 2010.05.17/outbox.cif.g08.bks.cpg/sg2_235_cif.got.tgz:468959.got - 2010.06.03 11:33:40.
