data_PCOD9076343
_publ_section_title
;
Structure prediction by ZEFSAII (Michael W. Deem and Ramdas Pophale) SiO2 
 PCOD9076343
Probable space group: P -1
;
_chemical_formula_sum "Si O2"
_cell_formula_units_Z 16
_cell_length_a 21.252566
_cell_length_b 15.901247
_cell_length_c 11.630535
_cell_angle_alpha 28.204988
_cell_angle_beta 153.305061
_cell_angle_gamma 152.851401
_cell_volume 730.848059
_symmetry_space_group_name_H-M "P -1"
_symmetry_group_IT_number 2
_symmetry_cell_setting 'triclinic'
loop_
_space_group_symop_operation_xyz
x,y,z
-x,-y,-z
loop_
_atom_site_type_symbol
_atom_site_label
_atom_site_fract_x
_atom_site_fract_y
_atom_site_fract_z
Si Si1 0.244627 0.848981 0.446146
Si Si2 0.461432 0.762897 0.614256
Si Si3 0.091479 0.560844 0.248621
Si Si4 0.075588 0.252116 0.391299
Si Si5 0.027042 0.101446 0.181772
Si Si6 0.438682 0.438461 0.780184
Si Si7 0.753663 0.569769 0.007108
Si Si8 0.032608 0.799537 0.361363
O O1 0.226720 0.629426 0.704550
O O2 0.186748 0.900136 0.410542
O O3 0.422960 0.006876 0.509748
O O4 0.122769 0.863180 0.138122
O O5 0.277784 0.695663 0.421139
O O6 0.461071 0.626461 0.670219
O O7 0.533493 0.704465 0.911625
O O8 0.086366 0.409063 0.321555
O O9 0.988656 0.405857 0.366960
O O10 0.017518 0.698336 0.918355
O O11 0.259697 0.322735 0.579965
O O12 0.991335 0.026144 0.579404
O O13 0.028389 0.944512 0.277399
O O14 0.182967 0.313878 0.150233
O O15 0.575035 0.513037 0.817249
O O16 0.875849 0.721430 0.119933
#
# Coordination Sequence:
#
# PCOD9076343 Si02
#       8
#     2   2   2   2   2   2   2   2
#     4  11  21  32  50  79 110 138 174 217 261 306
#     4  10  18  33  55  80 104 134 175 219 261 304
#     4   9  18  33  55  81 106 132 171 220 264 308
#     4   9  18  33  55  81 106 132 171 220 264 308
#     4  10  18  33  55  78 105 138 175 215 264 308
#     4  10  18  33  55  80 104 134 175 219 261 304
#     4  11  21  32  50  79 110 138 174 217 261 306
#     4  10  18  33  55  78 105 138 175 215 264 308
#
# _framework density 21.892375000000001
#
# number of rings (size 3 to 8) (size 9 to 14) (size 15 to 20)
#    0.000    2.000    2.500    4.500    0.000    0.500 
#    0.000    1.250    0.000   14.250    0.000    0.000 
#    0.000    0.000    0.000    0.000    0.000    0.000 
#
# Total GULP energy -89476.875862 kJ/mol
# GULP energy per Si atom -5592.304741 kJ/mol
# Density = 2.184255 g / cm^3
# Si number density = 21.892375 Si / 1000 Ang^3
#
#
#
# Elastic Constant Matrix: (Units=GPa)
#
#
# Indices 1 2 3 4 5 6 
#
# 1 63.3320 24.2166 36.9341 -12.0952 0.0201 14.3324
# 2 24.2166 97.7577 57.2959 -26.3669 -5.7702 26.2345
# 3 36.9341 57.2959 154.6747 -21.5266 -8.5118 20.4790
# 4 -12.0952 -26.3669 -21.5266 40.0273 5.0312 -4.2894
# 5 0.0201 -5.7702 -8.5118 5.0312 36.2837 -11.1937
# 6 14.3324 26.2345 20.4790 -4.2894 -11.1937 36.8677
#
#
#
# Elastic Compliance Matrix: (Units=1/GPa)
#
#
# Indices 1 2 3 4 5 6 
#
# 1 0.020085 -0.000526 -0.003473 0.003616 -0.003287 -0.006081
# 2 -0.000526 0.017453 -0.004008 0.008434 -0.002331 -0.009715
# 3 -0.003473 -0.004008 0.009026 0.000973 0.001248 -0.000319
# 4 0.003616 0.008434 0.000973 0.032134 -0.004619 -0.005612
# 5 -0.003287 -0.002331 0.001248 -0.004619 0.031612 0.011304
# 6 -0.006081 -0.009715 -0.000319 -0.005612 0.011304 0.039358
#
#
# Mechanical properties :
#
#
# Convention : Reuss Voigt Hill
#
# Bulk Modulus (GPa) = 32.73499 61.40640 47.07070
# Shear Modulus (GPa) = 28.43094 35.79025 32.11060
#
# Velocity S-wave (km/s) = 3.60761 4.04769 3.83397
# Velocity P-wave (km/s) = 5.68668 7.06789 6.41457
#
# Compressibility (1/GPa) = 0.03054835
#
# Stress axis : x y z
#
# Youngs Moduli (GPa) = 49.78957 57.29649 110.79689
#
# Poissons Ratio (x) = 0.03016 0.38484
# Poissons Ratio (y) = 0.02621 0.44403
# Poissons Ratio (z) = 0.17294 0.22962
#
# Static dielectric constant tensor:
#      x y z
#    x 1.867950 -0.034270 0.000050 
#    y -0.034270 1.789950 -0.039490 
#    z 0.000050 -0.039490 1.769570 
# 
# From -- ./inp_files/215850.got.cif
#   From: 2010.05.17/outbox.cif.g08.bks.cpg/sg2_108_cif.got.tgz:215850.got - 2010.06.03 11:33:40.
