data_PCOD9076164
_publ_section_title
;
Structure prediction by ZEFSAII (Michael W. Deem and Ramdas Pophale) SiO2 
 PCOD9076164
Probable space group: P -1
;
_chemical_formula_sum "Si O2"
_cell_formula_units_Z 16
_cell_length_a 7.503864
_cell_length_b 13.821698
_cell_length_c 9.683612
_cell_angle_alpha 57.977324
_cell_angle_beta 129.843239
_cell_angle_gamma 98.728615
_cell_volume 625.949272
_symmetry_space_group_name_H-M "P -1"
_symmetry_group_IT_number 2
_symmetry_cell_setting 'triclinic'
loop_
_space_group_symop_operation_xyz
x,y,z
-x,-y,-z
loop_
_atom_site_type_symbol
_atom_site_label
_atom_site_fract_x
_atom_site_fract_y
_atom_site_fract_z
Si Si1 0.260844 0.631413 0.905343
Si Si2 0.280596 0.245561 0.467813
Si Si3 0.897967 0.424223 0.617943
Si Si4 0.867027 0.961249 0.303538
Si Si5 0.507927 0.660624 0.261516
Si Si6 0.819358 0.810884 0.140980
Si Si7 0.622133 0.141386 0.254832
Si Si8 0.188669 0.408095 0.057279
O O1 0.274475 0.666671 0.047959
O O2 0.367511 0.490175 0.060103
O O3 0.387961 0.721226 0.830472
O O4 0.988043 0.671535 0.680305
O O5 0.247160 0.118555 0.587957
O O6 0.485790 0.277949 0.635172
O O7 0.293085 0.286578 0.285817
O O8 0.928820 0.289726 0.683793
O O9 0.000000 0.500000 0.500000
O O10 0.643420 0.520104 0.447666
O O11 0.057182 0.402902 0.852499
O O12 0.820980 0.917718 0.162807
O O13 0.156563 0.931688 0.485761
O O14 0.736500 0.091483 0.197553
O O15 0.671532 0.727671 0.204241
O O16 0.651922 0.863798 0.885560
O O17 0.000000 0.500000 0.000000
#
# Coordination Sequence:
#
# PCOD9076164 Si02
#       8
#     2   2   2   2   2   2   2   2
#     4   9  17  28  48  74 100 124 160 208 236 285
#     4   9  17  31  48  69 101 125 165 201 239 282
#     4  10  19  32  48  71 104 135 162 194 247 298
#     4   9  17  31  52  72  96 126 163 210 240 283
#     4   9  16  30  45  70  97 132 162 192 240 294
#     4   9  18  30  46  69 102 126 159 204 247 288
#     4   9  17  30  49  75  96 124 167 203 247 281
#     4  10  18  33  50  70 104 133 162 199 239 293
#
# _framework density 25.561178999999999
#
# number of rings (size 3 to 8) (size 9 to 14) (size 15 to 20)
#    0.000    2.750    2.500    0.375    1.750    0.500 
#    2.250    1.875    0.000    0.750    0.000   14.000 
#    0.000    0.000    0.000    0.000    0.000    0.000 
#
# Total GULP energy -89154.095477 kJ/mol
# GULP energy per Si atom -5572.130967 kJ/mol
# Density = 2.550300 g / cm^3
# Si number density = 25.561179 Si / 1000 Ang^3
#
#
#
# Elastic Constant Matrix: (Units=GPa)
#
#
# Indices 1 2 3 4 5 6 
#
# 1 66.1602 -1.5408 9.0100 -1.0528 -12.7846 2.9926
# 2 -1.5408 101.1015 14.8403 -8.9575 5.0987 -11.4525
# 3 9.0100 14.8403 87.6324 -3.6341 -2.5619 -5.7261
# 4 -1.0528 -8.9575 -3.6341 40.3052 -7.1417 0.1103
# 5 -12.7846 5.0987 -2.5619 -7.1417 31.0285 1.5148
# 6 2.9926 -11.4525 -5.7261 0.1103 1.5148 14.9947
#
#
#
# Elastic Compliance Matrix: (Units=1/GPa)
#
#
# Indices 1 2 3 4 5 6 
#
# 1 0.017058 -0.000299 -0.001749 0.001572 0.007543 -0.005074
# 2 -0.000299 0.011310 -0.001313 0.002003 -0.002039 0.008387
# 3 -0.001749 -0.001313 0.012118 0.000832 0.000496 0.003918
# 4 0.001572 0.002003 0.000832 0.026514 0.006456 0.000687
# 5 0.007543 -0.002039 0.000496 0.006456 0.037526 -0.006711
# 6 -0.005074 0.008387 0.003918 0.000687 -0.006711 0.076278
#
#
# Mechanical properties :
#
#
# Convention : Reuss Voigt Hill
#
# Bulk Modulus (GPa) = 29.61759 33.27922 31.44840
# Shear Modulus (GPa) = 25.15328 32.77134 28.96231
#
# Velocity S-wave (km/s) = 3.14035 3.58449 3.36975
# Velocity P-wave (km/s) = 4.97606 5.49355 5.24120
#
# Compressibility (1/GPa) = 0.03376372
#
# Stress axis : x y z
#
# Youngs Moduli (GPa) = 58.62308 88.42047 82.51848
#
# Poissons Ratio (x) = 0.02646 0.14433
# Poissons Ratio (y) = 0.01754 0.10834
# Poissons Ratio (z) = 0.10254 0.11609
#
# Static dielectric constant tensor:
#      x y z
#    x 2.173070 0.018280 -0.024170 
#    y 0.018280 2.054990 -0.002300 
#    z -0.024170 -0.002300 2.056190 
# 
# From -- ./inp_files/429875.got.cif
#   From: 2010.05.17/outbox.cif.g08.bks.cpg/sg2_215_cif.got.tgz:429875.got - 2010.06.03 11:33:40.
