data_PCOD9076696
_publ_section_title
;
Structure prediction by ZEFSAII (Michael W. Deem and Ramdas Pophale) SiO2 
 PCOD9076696
Probable space group: P -1
;
_chemical_formula_sum "Si O2"
_cell_formula_units_Z 16
_cell_length_a 11.313274
_cell_length_b 14.392688
_cell_length_c 14.848300
_cell_angle_alpha 148.979697
_cell_angle_beta 117.632910
_cell_angle_gamma 40.969568
_cell_volume 686.315051
_symmetry_space_group_name_H-M "P -1"
_symmetry_group_IT_number 2
_symmetry_cell_setting 'triclinic'
loop_
_space_group_symop_operation_xyz
x,y,z
-x,-y,-z
loop_
_atom_site_type_symbol
_atom_site_label
_atom_site_fract_x
_atom_site_fract_y
_atom_site_fract_z
Si Si1 0.075455 0.550205 0.174411
Si Si2 0.618248 0.388878 0.853470
Si Si3 0.632707 0.450311 0.280806
Si Si4 0.769968 0.629340 0.378600
Si Si5 0.684186 0.695840 0.200293
Si Si6 0.776182 0.960022 0.268345
Si Si7 0.983741 0.288629 0.526741
Si Si8 0.267459 0.764188 0.683635
O O1 0.867144 0.648888 0.208373
O O2 0.964010 0.804138 0.276869
O O3 0.156757 0.536652 0.286766
O O4 0.230163 0.246871 0.927009
O O5 0.474735 0.511421 0.816028
O O6 0.805661 0.041268 0.637067
O O7 0.500000 0.500000 0.000000
O O8 0.692209 0.516940 0.990197
O O9 0.794822 0.436539 0.295207
O O10 0.725123 0.208907 0.184828
O O11 0.441125 0.742955 0.515458
O O12 0.722498 0.599648 0.237886
O O13 0.947266 0.597145 0.400344
O O14 0.549092 0.965210 0.605861
O O15 0.831129 0.987562 0.213605
O O16 0.860005 0.286777 0.415663
O O17 0.500000 0.500000 0.500000
#
# Coordination Sequence:
#
# PCOD9076696 Si02
#       8
#     2   2   2   2   2   2   2   2
#     4  10  20  37  67  98 121 162 216 271 310 362
#     4  12  20  35  66 100 125 165 210 263 316 374
#     4  11  21  42  62  94 136 166 205 258 322 378
#     4  10  18  34  62  89 124 158 201 259 318 364
#     4  10  18  33  58  95 129 151 197 272 314 361
#     4  10  20  41  62  91 127 170 207 257 312 366
#     4  11  22  40  65  94 125 162 219 266 314 374
#     4  10  25  45  61  86 135 177 206 257 315 383
#
# _framework density 23.312908
#
# number of rings (size 3 to 8) (size 9 to 14) (size 15 to 20)
#    0.000    1.500    5.000    1.500    0.000    1.000 
#    9.000    4.375    0.000    0.000    0.000    0.000 
#    0.000    0.000    0.000    0.000    0.000    0.000 
#
# Total GULP energy -89364.669384 kJ/mol
# GULP energy per Si atom -5585.291836 kJ/mol
# Density = 2.325985 g / cm^3
# Si number density = 23.312908 Si / 1000 Ang^3
#
#
#
# Elastic Constant Matrix: (Units=GPa)
#
#
# Indices 1 2 3 4 5 6 
#
# 1 102.7666 52.5678 6.0001 -4.9150 6.4525 27.8601
# 2 52.5678 101.2490 9.9300 -23.1133 2.5725 25.4580
# 3 6.0001 9.9300 65.8391 -20.4127 -5.9528 4.3606
# 4 -4.9150 -23.1133 -20.4127 20.4525 2.6929 -3.0605
# 5 6.4525 2.5725 -5.9528 2.6929 30.0189 -6.3373
# 6 27.8601 25.4580 4.3606 -3.0605 -6.3373 42.8661
#
#
#
# Elastic Compliance Matrix: (Units=1/GPa)
#
#
# Indices 1 2 3 4 5 6 
#
# 1 0.015545 -0.008140 -0.002817 -0.008706 -0.003720 -0.006154
# 2 -0.008140 0.021680 0.006452 0.028358 -0.002772 -0.006627
# 3 -0.002817 0.006452 0.024107 0.030145 0.001696 -0.002050
# 4 -0.008706 0.028358 0.030145 0.108607 -0.005879 -0.007365
# 5 -0.003720 -0.002772 0.001696 -0.005879 0.037104 0.008957
# 6 -0.006154 -0.006627 -0.002050 -0.007365 0.008957 0.032271
#
#
# Mechanical properties :
#
#
# Convention : Reuss Voigt Hill
#
# Bulk Modulus (GPa) = 19.11200 45.20562 32.15881
# Shear Modulus (GPa) = 18.81364 32.09129 25.45246
#
# Velocity S-wave (km/s) = 2.84387 3.71421 3.30779
# Velocity P-wave (km/s) = 4.35881 6.15034 5.33038
#
# Compressibility (1/GPa) = 0.05232316
#
# Stress axis : x y z
#
# Youngs Moduli (GPa) = 64.33127 46.12497 41.48090
#
# Poissons Ratio (x) = 0.37545 0.11685
# Poissons Ratio (y) = 0.52365 -0.26765
# Poissons Ratio (z) = 0.18121 -0.29761
#
# Static dielectric constant tensor:
#      x y z
#    x 1.984190 0.040530 0.008550 
#    y 0.040530 1.950710 0.009570 
#    z 0.008550 0.009570 1.916360 
# 
# From -- ./inp_files/522669.got.cif
#   From: 2010.05.17/outbox.cif.g08.bks.cpg/sg2_262_cif.got.tgz:522669.got - 2010.06.03 11:33:40.
