data_PCOD9076334
_publ_section_title
;
Structure prediction by ZEFSAII (Michael W. Deem and Ramdas Pophale) SiO2 
 PCOD9076334
Probable space group: P -1
;
_chemical_formula_sum "Si O2"
_cell_formula_units_Z 16
_cell_length_a 8.134467
_cell_length_b 19.625904
_cell_length_c 12.699333
_cell_angle_alpha 154.343438
_cell_angle_beta 122.338511
_cell_angle_gamma 45.113999
_cell_volume 587.126252
_symmetry_space_group_name_H-M "P -1"
_symmetry_group_IT_number 2
_symmetry_cell_setting 'triclinic'
loop_
_space_group_symop_operation_xyz
x,y,z
-x,-y,-z
loop_
_atom_site_type_symbol
_atom_site_label
_atom_site_fract_x
_atom_site_fract_y
_atom_site_fract_z
Si Si1 0.900508 0.378337 0.992496
Si Si2 0.068121 0.137265 0.308437
Si Si3 0.863304 0.676585 0.784507
Si Si4 0.745876 0.305784 0.256300
Si Si5 0.241696 0.929850 0.659487
Si Si6 0.504333 0.347650 0.469785
Si Si7 0.199401 0.108538 0.535006
Si Si8 0.582594 0.223993 0.710509
O O1 0.672438 0.573867 0.128888
O O2 0.022240 0.395258 0.160543
O O3 0.105997 0.267948 0.817277
O O4 0.778594 0.272916 0.845202
O O5 0.996009 0.238411 0.308761
O O6 0.786037 0.244165 0.395465
O O7 0.187426 0.165518 0.488148
O O8 0.211551 0.901029 0.022817
O O9 0.593789 0.735540 0.759533
O O10 0.000000 0.500000 0.500000
O O11 0.827862 0.879300 0.036631
O O12 0.500000 0.500000 0.500000
O O13 0.673827 0.414145 0.269161
O O14 0.476227 0.731623 0.517746
O O15 0.022368 0.913711 0.564091
O O16 0.318680 0.929771 0.567257
O O17 0.421850 0.887134 0.343754
#
# Coordination Sequence:
#
# PCOD9076334 Si02
#       8
#     2   2   2   2   2   2   2   2
#     4  10  20  33  49  78 107 150 195 223 270 313
#     4   9  20  36  62  84 108 138 184 240 289 328
#     4  12  23  34  51  79 124 162 189 218 262 341
#     4   9  19  39  58  86 109 134 183 237 292 332
#     4  10  19  36  49  78 113 153 192 217 270 318
#     4  10  22  33  55  81 116 153 178 225 277 337
#     4  10  18  33  56  77 108 143 181 242 261 321
#     4  10  18  33  55  70 109 149 191 240 256 311
#
# _framework density 27.251377999999999
#
# number of rings (size 3 to 8) (size 9 to 14) (size 15 to 20)
#    0.000    2.000    2.500    1.875    3.500    6.000 
#    0.000    0.000    0.000    0.750    0.000    8.750 
#    0.000    0.000    0.000    0.000    0.000    0.000 
#
# Total GULP energy -89404.379554 kJ/mol
# GULP energy per Si atom -5587.773722 kJ/mol
# Density = 2.718935 g / cm^3
# Si number density = 27.251378 Si / 1000 Ang^3
#
#
#
# Elastic Constant Matrix: (Units=GPa)
#
#
# Indices 1 2 3 4 5 6 
#
# 1 27.3834 -14.6331 11.0605 -0.3838 -15.0880 -0.8938
# 2 -14.6331 183.7323 40.0832 -1.9425 -27.0310 -8.5544
# 3 11.0605 40.0832 120.8971 1.3273 -15.5812 5.4286
# 4 -0.3838 -1.9425 1.3273 57.4140 -3.5222 1.0674
# 5 -15.0880 -27.0310 -15.5812 -3.5222 31.3651 -1.2352
# 6 -0.8938 -8.5544 5.4286 1.0674 -1.2352 39.2788
#
#
#
# Elastic Compliance Matrix: (Units=1/GPa)
#
#
# Indices 1 2 3 4 5 6 
#
# 1 0.070123 0.013526 -0.005662 0.003587 0.043239 0.006586
# 2 0.013526 0.009239 -0.002729 0.001229 0.013373 0.003084
# 3 -0.005662 -0.002729 0.009746 -0.000339 -0.000354 -0.002072
# 4 0.003587 0.001229 -0.000339 0.017773 0.004615 0.000058
# 5 0.043239 0.013373 -0.000354 0.004615 0.064780 0.005857
# 6 0.006586 0.003084 -0.002072 0.000058 0.005857 0.026750
#
#
# Mechanical properties :
#
#
# Convention : Reuss Voigt Hill
#
# Bulk Modulus (GPa) = 10.06273 45.00380 27.53327
# Shear Modulus (GPa) = 22.59712 45.31172 33.95442
#
# Velocity S-wave (km/s) = 2.88273 4.08208 3.53366
# Velocity P-wave (km/s) = 3.84457 6.22640 5.17440
#
# Compressibility (1/GPa) = 0.09937658
#
# Stress axis : x y z
#
# Youngs Moduli (GPa) = 14.26069 108.23157 102.61144
#
# Poissons Ratio (x) = -1.46395 0.58103
# Poissons Ratio (y) = -0.19289 0.28005
# Poissons Ratio (z) = 0.08075 0.29539
#
# Static dielectric constant tensor:
#      x y z
#    x 2.491430 0.105390 0.007820 
#    y 0.105390 2.300890 -0.046420 
#    z 0.007820 -0.046420 2.109870 
# 
# From -- ./inp_files/535580.got.cif
#   From: 2010.05.17/outbox.cif.g08.bks.cpg/sg2_268_cif.got.tgz:535580.got - 2010.06.03 11:33:40.
