data_PCOD9076372
_publ_section_title
;
Structure prediction by ZEFSAII (Michael W. Deem and Ramdas Pophale) SiO2 
 PCOD9076372
Probable space group: P -1
;
_chemical_formula_sum "Si O2"
_cell_formula_units_Z 16
_cell_length_a 9.401666
_cell_length_b 10.582207
_cell_length_c 17.887300
_cell_angle_alpha 40.729362
_cell_angle_beta 134.893732
_cell_angle_gamma 120.140760
_cell_volume 820.531949
_symmetry_space_group_name_H-M "P -1"
_symmetry_group_IT_number 2
_symmetry_cell_setting 'triclinic'
loop_
_space_group_symop_operation_xyz
x,y,z
-x,-y,-z
loop_
_atom_site_type_symbol
_atom_site_label
_atom_site_fract_x
_atom_site_fract_y
_atom_site_fract_z
Si Si1 0.803375 0.426227 0.873415
Si Si2 0.438896 0.388543 0.414077
Si Si3 0.286523 0.013489 0.455167
Si Si4 0.889333 0.590862 0.146645
Si Si5 0.811040 0.159963 0.361782
Si Si6 0.379000 0.093500 0.174919
Si Si7 0.101287 0.191313 0.172391
Si Si8 0.759427 0.312773 0.679294
O O1 0.592741 0.470069 0.732691
O O2 0.829028 0.608839 0.855275
O O3 0.965165 0.421387 0.867273
O O4 0.880578 0.238842 0.034012
O O5 0.313721 0.203764 0.430929
O O6 0.662387 0.326924 0.554285
O O7 0.330159 0.498940 0.393500
O O8 0.119995 0.048724 0.313732
O O9 0.500000 0.000000 0.500000
O O10 0.250201 0.837960 0.574551
O O11 0.848179 0.372628 0.250659
O O12 0.005659 0.685401 0.216373
O O13 0.701716 0.734725 0.987122
O O14 0.615873 0.093040 0.276156
O O15 0.000000 0.000000 0.500000
O O16 0.257884 0.129493 0.192524
O O17 0.318891 0.880203 0.225746
#
# Coordination Sequence:
#
# PCOD9076372 Si02
#       8
#     2   2   2   2   2   2   2   2
#     4   8  16  30  51  83 109 145 175 240 280 337
#     4   9  17  29  53  81 111 140 190 231 275 326
#     4  11  19  35  57  85 110 149 194 242 276 341
#     4  10  22  36  55  86 122 146 189 240 298 333
#     4  12  23  36  56  89 120 150 186 241 299 334
#     4  11  21  36  57  86 115 155 190 238 282 351
#     4   9  16  30  53  80 111 138 194 229 280 318
#     4  10  18  33  55  83 115 153 190 229 280 348
#
# _framework density 19.499547
#
# number of rings (size 3 to 8) (size 9 to 14) (size 15 to 20)
#    0.000    2.000    2.500    3.000    1.750    0.000 
#    0.000    0.000    0.000    3.000    0.000    1.750 
#    0.000    0.000    0.000    0.000    0.000    0.000 
#
# Total GULP energy -89081.705111 kJ/mol
# GULP energy per Si atom -5567.606569 kJ/mol
# Density = 1.945517 g / cm^3
# Si number density = 19.499547 Si / 1000 Ang^3
#
#
#
# Elastic Constant Matrix: (Units=GPa)
#
#
# Indices 1 2 3 4 5 6 
#
# 1 31.2760 10.4581 26.0322 -2.8529 0.5468 1.6375
# 2 10.4581 61.4096 46.4053 1.9988 0.2397 10.3573
# 3 26.0322 46.4053 174.8337 13.2252 2.5917 9.3694
# 4 -2.8529 1.9988 13.2252 31.3831 1.6856 -2.3186
# 5 0.5468 0.2397 2.5917 1.6856 29.5547 2.3900
# 6 1.6375 10.3573 9.3694 -2.3186 2.3900 18.4330
#
#
#
# Elastic Compliance Matrix: (Units=1/GPa)
#
#
# Indices 1 2 3 4 5 6 
#
# 1 0.037927 -0.002858 -0.005439 0.006097 -0.000700 0.001859
# 2 -0.002858 0.022161 -0.004913 -0.000392 0.001127 -0.009896
# 3 -0.005439 -0.004913 0.008191 -0.003720 -0.000256 -0.001354
# 4 0.006097 -0.000392 -0.003720 0.034591 -0.002259 0.006214
# 5 -0.000700 0.001127 -0.000256 -0.002259 0.034410 -0.005186
# 6 0.001859 -0.009896 -0.001354 0.006214 -0.005186 0.061789
#
#
# Mechanical properties :
#
#
# Convention : Reuss Voigt Hill
#
# Bulk Modulus (GPa) = 23.88977 48.14563 36.01770
# Shear Modulus (GPa) = 20.88173 28.18241 24.53207
#
# Velocity S-wave (km/s) = 3.27598 3.80582 3.55080
# Velocity P-wave (km/s) = 5.15631 6.63751 5.94323
#
# Compressibility (1/GPa) = 0.04185892
#
# Stress axis : x y z
#
# Youngs Moduli (GPa) = 26.36623 45.12418 122.07862
#
# Poissons Ratio (x) = 0.12897 0.66400
# Poissons Ratio (y) = 0.07536 0.59980
# Poissons Ratio (z) = 0.14341 0.22170
#
# Static dielectric constant tensor:
#      x y z
#    x 1.711930 -0.024350 0.030670 
#    y -0.024350 1.693980 0.019810 
#    z 0.030670 0.019810 1.818360 
# 
# From -- ./inp_files/558992.got.cif
#   From: 2010.05.17/outbox.cif.g08.bks.cpg/sg2_280_cif.got.tgz:558992.got - 2010.06.03 11:33:40.
