data_PCOD9076489
_publ_section_title
;
Structure prediction by ZEFSAII (Michael W. Deem and Ramdas Pophale) SiO2 
 PCOD9076489
Probable space group: P -1
;
_chemical_formula_sum "Si O2"
_cell_formula_units_Z 13
_cell_length_a 5.443782
_cell_length_b 15.668840
_cell_length_c 6.929639
_cell_angle_alpha 78.181437
_cell_angle_beta 101.815253
_cell_angle_gamma 124.778150
_cell_volume 472.352782
_symmetry_space_group_name_H-M "P -1"
_symmetry_group_IT_number 2
_symmetry_cell_setting 'triclinic'
loop_
_space_group_symop_operation_xyz
x,y,z
-x,-y,-z
loop_
_atom_site_type_symbol
_atom_site_label
_atom_site_fract_x
_atom_site_fract_y
_atom_site_fract_z
Si Si1 0.480506 0.590901 0.807538
Si Si2 0.662127 0.934550 0.277184
Si Si3 0.500000 0.000000 0.500000
Si Si4 0.537689 0.106342 0.169787
Si Si5 0.605929 0.728898 0.402950
Si Si6 0.922729 0.622143 0.381076
Si Si7 0.917258 0.353103 0.152544
O O1 0.607512 0.692311 0.639610
O O2 0.291712 0.494536 0.677817
O O3 0.773702 0.599609 0.933159
O O4 0.285716 0.601920 0.931174
O O5 0.368217 0.893020 0.386254
O O6 0.744777 0.851127 0.359002
O O7 0.729353 0.053594 0.294456
O O8 0.602234 0.931199 0.042890
O O9 0.702804 0.957136 0.671798
O O10 0.721280 0.228549 0.154906
O O11 0.761404 0.684951 0.318601
O O12 0.253374 0.676371 0.316332
O O13 0.979230 0.617837 0.621067
#
# Coordination Sequence:
#
# PCOD9076489 Si02
#       7
#     2   2   1   2   2   2   2
#     4  10  19  33  58  89 119 159 206 253 305 359
#     4   9  19  35  59  91 126 160 203 254 305 368
#     4   8  14  32  60  84 118 160 198 242 306 356
#     4   9  19  35  59  91 126 160 203 254 305 368
#     4  10  18  33  56  86 118 161 198 248 303 363
#     4  10  19  33  58  89 119 159 206 253 305 359
#     4  10  18  33  56  86 118 161 198 248 303 363
#
# _framework density 27.521802999999998
#
# number of rings (size 3 to 8) (size 9 to 14) (size 15 to 20)
#    0.923    1.538    0.000    6.462    0.000    0.000 
#    0.000    6.154    0.000   13.846    0.000    0.000 
#    0.000    0.000    0.000    0.000    0.000    0.000 
#
# Total GULP energy -72427.280160 kJ/mol
# GULP energy per Si atom -5571.329243 kJ/mol
# Density = 2.745916 g / cm^3
# Si number density = 27.521803 Si / 1000 Ang^3
#
#
#
# Elastic Constant Matrix: (Units=GPa)
#
#
# Indices 1 2 3 4 5 6 
#
# 1 164.1529 60.3072 -19.7043 -7.8491 11.6363 -44.1171
# 2 60.3072 152.6857 10.8748 -13.8737 4.6493 -27.9807
# 3 -19.7043 10.8748 120.1138 -15.3248 -13.2566 -13.4361
# 4 -7.8491 -13.8737 -15.3248 31.5285 -9.8234 5.8929
# 5 11.6363 4.6493 -13.2566 -9.8234 31.4698 -3.3803
# 6 -44.1171 -27.9807 -13.4361 5.8929 -3.3803 60.0736
#
#
#
# Elastic Compliance Matrix: (Units=1/GPa)
#
#
# Indices 1 2 3 4 5 6 
#
# 1 0.008979 -0.002543 0.002339 0.000835 -0.001077 0.005790
# 2 -0.002543 0.008093 -0.000615 0.002472 0.000423 0.001545
# 3 0.002339 -0.000615 0.010715 0.006809 0.006242 0.003511
# 4 0.000835 0.002472 0.006809 0.040974 0.014996 0.000112
# 5 -0.001077 0.000423 0.006242 0.014996 0.039590 0.001560
# 6 0.005790 0.001545 0.003511 0.000112 0.001560 0.022480
#
#
# Mechanical properties :
#
#
# Convention : Reuss Voigt Hill
#
# Bulk Modulus (GPa) = 38.24351 59.98974 49.11662
# Shear Modulus (GPa) = 35.41404 50.31270 42.86337
#
# Velocity S-wave (km/s) = 3.59104 4.28027 3.95071
# Velocity P-wave (km/s) = 5.57853 6.80236 6.22061
#
# Compressibility (1/GPa) = 0.02614823
#
# Stress axis : x y z
#
# Youngs Moduli (GPa) = 111.36485 123.56776 93.32575
#
# Poissons Ratio (x) = 0.31429 -0.21827
# Poissons Ratio (y) = 0.28325 0.05739
# Poissons Ratio (z) = -0.26046 0.07599
#
# Static dielectric constant tensor:
#      x y z
#    x 2.298990 0.033370 0.130140 
#    y 0.033370 2.149150 0.154180 
#    z 0.130140 0.154180 2.524240 
# 
# From -- ./inp_files/134222.got.cif
#   From: 2010.05.17/outbox.cif.g08.bks.cpg/sg2_68_cif.got.tgz:134222.got - 2010.06.03 11:33:40.
