data_PCOD9076712
_publ_section_title
;
Structure prediction by ZEFSAII (Michael W. Deem and Ramdas Pophale) SiO2 
 PCOD9076712
Probable space group: P -1
;
_chemical_formula_sum "Si O2"
_cell_formula_units_Z 16
_cell_length_a 9.316875
_cell_length_b 14.562575
_cell_length_c 12.837905
_cell_angle_alpha 126.314699
_cell_angle_beta 124.337630
_cell_angle_gamma 32.914285
_cell_volume 753.690047
_symmetry_space_group_name_H-M "P -1"
_symmetry_group_IT_number 2
_symmetry_cell_setting 'triclinic'
loop_
_space_group_symop_operation_xyz
x,y,z
-x,-y,-z
loop_
_atom_site_type_symbol
_atom_site_label
_atom_site_fract_x
_atom_site_fract_y
_atom_site_fract_z
Si Si1 0.627525 0.922674 0.112973
Si Si2 0.839509 0.248076 0.871126
Si Si3 0.746023 0.347092 0.131074
Si Si4 0.932065 0.489076 0.351418
Si Si5 0.004212 0.546203 0.208204
Si Si6 0.604126 0.668369 0.965102
Si Si7 0.360363 0.894095 0.350639
Si Si8 0.389318 0.050877 0.652905
O O1 0.539045 0.026545 0.253952
O O2 0.935033 0.804350 0.140446
O O3 0.572535 0.818578 0.045662
O O4 0.500000 0.000000 0.000000
O O5 0.548930 0.447938 0.864474
O O6 0.832610 0.115528 0.758851
O O7 0.880848 0.252805 0.012864
O O8 0.910260 0.363925 0.264725
O O9 0.666534 0.267422 0.096369
O O10 0.097771 0.445974 0.288283
O O11 0.647570 0.688955 0.340654
O O12 0.000000 0.500000 0.500000
O O13 0.864169 0.737528 0.298127
O O14 0.228906 0.447992 0.146693
O O15 0.785538 0.569991 0.079146
O O16 0.390296 0.975985 0.328829
O O17 0.320696 0.983202 0.500938
#
# Coordination Sequence:
#
# PCOD9076712 Si02
#       8
#     2   2   2   2   2   2   2   2
#     4  11  23  36  52  81 116 145 174 220 279 325
#     4  10  19  34  57  83 107 137 184 228 264 316
#     4  10  18  33  59  83 103 137 185 228 261 311
#     4  10  20  33  51  82 116 143 173 217 275 325
#     4   9  17  32  57  80 105 141 180 223 266 314
#     4  10  18  34  57  80 103 137 185 226 262 313
#     4   9  19  35  56  78 104 145 189 223 261 318
#     4   9  18  35  54  76 108 145 185 221 265 321
#
# _framework density 21.228884000000001
#
# number of rings (size 3 to 8) (size 9 to 14) (size 15 to 20)
#    0.000    2.250    0.000    6.750    0.000    2.500 
#    0.000    6.875    0.000    0.000    0.000    0.000 
#    0.000    0.000    0.000    0.000    0.000    0.000 
#
# Total GULP energy -89274.817636 kJ/mol
# GULP energy per Si atom -5579.676102 kJ/mol
# Density = 2.118057 g / cm^3
# Si number density = 21.228884 Si / 1000 Ang^3
#
#
#
# Elastic Constant Matrix: (Units=GPa)
#
#
# Indices 1 2 3 4 5 6 
#
# 1 118.5544 14.9456 88.7820 -0.1420 -2.2131 12.3912
# 2 14.9456 26.6200 17.5430 1.7673 -4.1147 5.0471
# 3 88.7820 17.5430 171.4478 14.2660 -11.0671 13.9815
# 4 -0.1420 1.7673 14.2660 32.0497 11.0523 -5.7603
# 5 -2.2131 -4.1147 -11.0671 11.0523 43.7498 5.9710
# 6 12.3912 5.0471 13.9815 -5.7603 5.9710 21.5313
#
#
#
# Elastic Compliance Matrix: (Units=1/GPa)
#
#
# Indices 1 2 3 4 5 6 
#
# 1 0.014720 -0.003751 -0.007729 0.004496 -0.002611 -0.000646
# 2 -0.003751 0.043757 -0.000599 -0.006635 0.007010 -0.011429
# 3 -0.007729 -0.000599 0.011452 -0.008131 0.005394 -0.006520
# 4 0.004496 -0.006635 -0.008131 0.044658 -0.016573 0.020791
# 5 -0.002611 0.007010 0.005394 -0.016573 0.031219 -0.016734
# 6 -0.000646 -0.011429 -0.006520 0.020791 -0.016734 0.063932
#
#
# Mechanical properties :
#
#
# Convention : Reuss Voigt Hill
#
# Bulk Modulus (GPa) = 21.84664 62.12927 41.98795
# Shear Modulus (GPa) = 20.06810 32.48959 26.27884
#
# Velocity S-wave (km/s) = 3.07794 3.91633 3.52217
# Velocity P-wave (km/s) = 4.79009 7.05550 6.03014
#
# Compressibility (1/GPa) = 0.04577363
#
# Stress axis : x y z
#
# Youngs Moduli (GPa) = 67.93612 22.85354 87.31729
#
# Poissons Ratio (x) = 0.08571 0.67484
# Poissons Ratio (y) = 0.25480 0.05226
# Poissons Ratio (z) = 0.52505 0.01368
#
# Static dielectric constant tensor:
#      x y z
#    x 1.790180 0.018190 -0.017100 
#    y 0.018190 1.851250 -0.028610 
#    z -0.017100 -0.028610 1.801910 
# 
# From -- ./inp_files/399466.got.cif
#   From: 2010.05.17/outbox.cif.g08.bks.cpg/sg2_200_cif.got.tgz:399466.got - 2010.06.03 11:33:40.
