data_PCOD9076752
_publ_section_title
;
Structure prediction by ZEFSAII (Michael W. Deem and Ramdas Pophale) SiO2 
 PCOD9076752
Probable space group: P -1
;
_chemical_formula_sum "Si O2"
_cell_formula_units_Z 14
_cell_length_a 10.246362
_cell_length_b 11.120767
_cell_length_c 13.434657
_cell_angle_alpha 126.807576
_cell_angle_beta 34.573322
_cell_angle_gamma 136.866322
_cell_volume 593.922157
_symmetry_space_group_name_H-M "P -1"
_symmetry_group_IT_number 2
_symmetry_cell_setting 'triclinic'
loop_
_space_group_symop_operation_xyz
x,y,z
-x,-y,-z
loop_
_atom_site_type_symbol
_atom_site_label
_atom_site_fract_x
_atom_site_fract_y
_atom_site_fract_z
Si Si1 0.378430 0.581153 0.352799
Si Si2 0.686847 0.252193 0.067447
Si Si3 0.936530 0.537154 0.890955
Si Si4 0.917467 0.659652 0.757127
Si Si5 0.752440 0.972090 0.342962
Si Si6 0.930201 0.053166 0.698335
Si Si7 0.243321 0.373642 0.530283
O O1 0.314435 0.482391 0.239253
O O2 0.339160 0.442476 0.393683
O O3 0.161503 0.634875 0.551076
O O4 0.651482 0.772022 0.275262
O O5 0.807618 0.324676 0.136168
O O6 0.373030 0.109665 0.203543
O O7 0.738658 0.407520 0.035748
O O8 0.862212 0.174957 0.872721
O O9 0.869877 0.625342 0.886964
O O10 0.016630 0.418532 0.718981
O O11 0.004068 0.860549 0.782215
O O12 0.500000 0.000000 0.500000
O O13 0.868165 0.988569 0.389722
O O14 0.095718 0.173509 0.560173
O O15 0.500000 0.500000 0.500000
#
# Coordination Sequence:
#
# PCOD9076752 Si02
#       7
#     2   2   2   2   2   2   2
#     4   9  18  36  55  84 125 157 190 241 310 364
#     4   9  20  40  63  84 117 160 207 258 290 356
#     4   9  19  39  61  85 117 158 207 251 305 357
#     4   9  19  36  57  84 118 161 197 241 300 372
#     4  10  20  37  59  87 125 157 196 245 305 374
#     4  10  20  38  60  90 120 155 205 253 302 358
#     4  10  18  33  59  89 120 153 193 254 316 356
#
# _framework density 23.572113999999999
#
# number of rings (size 3 to 8) (size 9 to 14) (size 15 to 20)
#    0.000    2.571    1.429    0.000    0.000    1.143 
#   23.143    2.857    0.000    0.000    0.000    0.000 
#    0.000    0.000    0.000    0.000    0.000    0.000 
#
# Total GULP energy -78128.870542 kJ/mol
# GULP energy per Si atom -5580.633610 kJ/mol
# Density = 2.351846 g / cm^3
# Si number density = 23.572114 Si / 1000 Ang^3
#
#
#
# Elastic Constant Matrix: (Units=GPa)
#
#
# Indices 1 2 3 4 5 6 
#
# 1 144.8180 96.1444 37.0112 -27.2326 41.1200 -4.3015
# 2 96.1444 196.7662 36.9028 -47.6186 31.6267 3.5132
# 3 37.0112 36.9028 82.4123 -4.0176 7.5949 -0.7468
# 4 -27.2326 -47.6186 -4.0176 26.6278 -2.4336 2.7081
# 5 41.1200 31.6267 7.5949 -2.4336 43.7811 -2.5900
# 6 -4.3015 3.5132 -0.7468 2.7081 -2.5900 36.3307
#
#
#
# Elastic Compliance Matrix: (Units=1/GPa)
#
#
# Indices 1 2 3 4 5 6 
#
# 1 0.014011 -0.002474 -0.003832 0.008345 -0.010216 0.000469
# 2 -0.002474 0.012344 -0.003043 0.018949 -0.005210 -0.003333
# 3 -0.003832 -0.003043 0.014616 -0.006976 0.002925 0.000870
# 4 0.008345 0.018949 -0.006976 0.078233 -0.016440 -0.007991
# 5 -0.010216 -0.005210 0.002925 -0.016440 0.034959 0.003072
# 6 0.000469 -0.003333 0.000870 -0.007991 0.003072 0.028735
#
#
# Mechanical properties :
#
#
# Convention : Reuss Voigt Hill
#
# Bulk Modulus (GPa) = 44.89684 84.90148 64.89916
# Shear Modulus (GPa) = 23.92103 38.27714 31.09908
#
# Velocity S-wave (km/s) = 3.18905 4.03405 3.63618
# Velocity P-wave (km/s) = 5.71384 7.60224 6.72466
#
# Compressibility (1/GPa) = 0.02227328
#
# Stress axis : x y z
#
# Youngs Moduli (GPa) = 71.37211 81.00839 68.41964
#
# Poissons Ratio (x) = 0.20044 0.26217
# Poissons Ratio (y) = 0.17660 0.20818
# Poissons Ratio (z) = 0.27349 0.24649
#
# Static dielectric constant tensor:
#      x y z
#    x 1.909960 -0.004620 -0.056560 
#    y -0.004620 1.928020 0.035440 
#    z -0.056560 0.035440 1.950970 
# 
# From -- ./inp_files/392714.got.cif
#   From: 2010.05.17/outbox.cif.g08.bks.cpg/sg2_197_cif.got.tgz:392714.got - 2010.06.03 11:33:40.
