data_PCOD9076474
_publ_section_title
;
Structure prediction by ZEFSAII (Michael W. Deem and Ramdas Pophale) SiO2 
 PCOD9076474
Probable space group: P -1
;
_chemical_formula_sum "Si O2"
_cell_formula_units_Z 16
_cell_length_a 11.853563
_cell_length_b 8.010913
_cell_length_c 13.833720
_cell_angle_alpha 75.697828
_cell_angle_beta 116.669999
_cell_angle_gamma 141.623795
_cell_volume 715.626489
_symmetry_space_group_name_H-M "P -1"
_symmetry_group_IT_number 2
_symmetry_cell_setting 'triclinic'
loop_
_space_group_symop_operation_xyz
x,y,z
-x,-y,-z
loop_
_atom_site_type_symbol
_atom_site_label
_atom_site_fract_x
_atom_site_fract_y
_atom_site_fract_z
Si Si1 0.425251 0.261636 0.439955
Si Si2 0.874979 0.707277 0.174217
Si Si3 0.830788 0.221254 0.845252
Si Si4 0.284005 0.663031 0.356795
Si Si5 0.600204 0.360147 0.950352
Si Si6 0.218050 0.833319 0.952618
Si Si7 0.026295 0.623876 0.391799
Si Si8 0.236254 0.314370 0.230472
O O1 0.500000 0.500000 0.500000
O O2 0.578162 0.267244 0.515048
O O3 0.378145 0.302402 0.314525
O O4 0.211782 0.952722 0.430511
O O5 0.034592 0.773699 0.158435
O O6 0.860452 0.568866 0.282904
O O7 0.002465 0.014812 0.194695
O O8 0.680262 0.518282 0.060611
O O9 0.660175 0.118947 0.724809
O O10 0.987775 0.546703 0.879945
O O11 0.768306 0.085107 0.944324
O O12 0.092239 0.544186 0.352917
O O13 0.271839 0.493497 0.301328
O O14 0.698648 0.556793 0.868657
O O15 0.359080 0.091190 0.898807
O O16 0.682347 0.251415 0.992655
O O17 0.000000 0.500000 0.500000
#
# Coordination Sequence:
#
# PCOD9076474 Si02
#       8
#     2   2   2   2   2   2   2   2
#     4   9  20  38  58  82 115 150 191 228 286 345
#     4   9  20  35  56  80 116 151 186 229 291 346
#     4   9  17  34  54  78 109 146 187 230 285 336
#     4  10  19  36  62  83 106 158 191 229 286 342
#     4  10  18  33  56  85 110 147 191 235 282 327
#     4   9  18  31  54  82 110 139 192 241 270 333
#     4  10  21  39  61  89 112 144 198 245 279 336
#     4  10  19  36  57  82 118 154 188 229 289 346
#
# _framework density 22.358032000000001
#
# number of rings (size 3 to 8) (size 9 to 14) (size 15 to 20)
#    0.000    2.500    1.250    0.750    0.000    1.000 
#   11.250    6.250    0.000    0.000    0.000    0.000 
#    0.000    0.000    0.000    0.000    0.000    0.000 
#
# Total GULP energy -89128.439769 kJ/mol
# GULP energy per Si atom -5570.527486 kJ/mol
# Density = 2.230714 g / cm^3
# Si number density = 22.358032 Si / 1000 Ang^3
#
#
#
# Elastic Constant Matrix: (Units=GPa)
#
#
# Indices 1 2 3 4 5 6 
#
# 1 36.4092 13.0283 15.0892 -0.7489 7.4610 -6.1031
# 2 13.0283 64.2023 41.9230 -13.0572 3.1836 -1.8408
# 3 15.0892 41.9230 140.4017 -20.3217 0.6740 9.6112
# 4 -0.7489 -13.0572 -20.3217 31.3742 2.2508 -2.9174
# 5 7.4610 3.1836 0.6740 2.2508 32.7196 3.0597
# 6 -6.1031 -1.8408 9.6112 -2.9174 3.0597 23.7656
#
#
#
# Elastic Compliance Matrix: (Units=1/GPa)
#
#
# Indices 1 2 3 4 5 6 
#
# 1 0.033742 -0.004351 -0.003229 -0.001542 -0.008079 0.010485
# 2 -0.004351 0.021274 -0.005286 0.005783 -0.001703 0.003597
# 3 -0.003229 -0.005286 0.009900 0.003583 0.001265 -0.004965
# 4 -0.001542 0.005783 0.003583 0.037124 -0.003172 0.003568
# 5 -0.008079 -0.001703 0.001265 -0.003172 0.033456 -0.007415
# 6 0.010485 0.003597 -0.004965 0.003568 -0.007415 0.048449
#
#
# Mechanical properties :
#
#
# Convention : Reuss Voigt Hill
#
# Bulk Modulus (GPa) = 25.52047 42.34381 33.93214
# Shear Modulus (GPa) = 22.44781 28.97005 25.70893
#
# Velocity S-wave (km/s) = 3.17206 3.60353 3.39466
# Velocity P-wave (km/s) = 4.98550 6.02445 5.52943
#
# Compressibility (1/GPa) = 0.03918423
#
# Stress axis : x y z
#
# Youngs Moduli (GPa) = 29.63651 47.00606 101.00766
#
# Poissons Ratio (x) = 0.20452 0.32619
# Poissons Ratio (y) = 0.12895 0.53390
# Poissons Ratio (z) = 0.09571 0.24846
#
# Static dielectric constant tensor:
#      x y z
#    x 1.857770 -0.053210 0.032900 
#    y -0.053210 1.906470 0.040780 
#    z 0.032900 0.040780 1.909540 
# 
# From -- ./inp_files/529471.got.cif
#   From: 2010.05.17/outbox.cif.g08.bks.cpg/sg2_265_cif.got.tgz:529471.got - 2010.06.03 11:33:40.
