data_PCOD9076683
_publ_section_title
;
Structure prediction by ZEFSAII (Michael W. Deem and Ramdas Pophale) SiO2 
 PCOD9076683
Probable space group: P -1
;
_chemical_formula_sum "Si O2"
_cell_formula_units_Z 14
_cell_length_a 14.519563
_cell_length_b 8.321648
_cell_length_c 11.802796
_cell_angle_alpha 130.211451
_cell_angle_beta 148.553090
_cell_angle_gamma 67.204723
_cell_volume 518.222828
_symmetry_space_group_name_H-M "P -1"
_symmetry_group_IT_number 2
_symmetry_cell_setting 'triclinic'
loop_
_space_group_symop_operation_xyz
x,y,z
-x,-y,-z
loop_
_atom_site_type_symbol
_atom_site_label
_atom_site_fract_x
_atom_site_fract_y
_atom_site_fract_z
Si Si1 0.817022 0.671340 0.940481
Si Si2 0.293326 0.686707 0.644268
Si Si3 0.786706 0.484090 0.289767
Si Si4 0.007216 0.213053 0.177182
Si Si5 0.408264 0.070401 0.305389
Si Si6 0.253920 0.841170 0.449504
Si Si7 0.616499 0.496884 0.874812
O O1 0.676081 0.782144 0.795062
O O2 0.764224 0.418029 0.718152
O O3 0.784350 0.638008 0.025838
O O4 0.037182 0.822690 0.204159
O O5 0.298630 0.721701 0.801086
O O6 0.090767 0.456338 0.308827
O O7 0.302105 0.876806 0.650130
O O8 0.462211 0.607677 0.757831
O O9 0.831772 0.708781 0.518819
O O10 0.000000 0.500000 0.500000
O O11 0.682903 0.501391 0.075445
O O12 0.000000 0.000000 0.000000
O O13 0.790384 0.139014 0.960948
O O14 0.572163 0.017427 0.388028
O O15 0.508740 0.240517 0.592484
#
# Coordination Sequence:
#
# PCOD9076683 Si02
#       7
#     2   2   2   2   2   2   2
#     4  10  19  31  61  86 122 155 211 250 296 362
#     4  10  19  35  63  86 120 161 207 246 298 372
#     4  10  23  38  59  89 128 162 202 250 307 371
#     4  10  21  38  63  89 128 159 197 257 315 353
#     4  11  19  38  61  90 125 155 205 258 305 358
#     4  10  18  33  58  91 114 160 208 251 291 363
#     4  11  18  36  62  88 114 167 210 243 299 372
#
# _framework density 27.015405000000001
#
# number of rings (size 3 to 8) (size 9 to 14) (size 15 to 20)
#    0.857    0.857    4.286    2.143    0.000    0.000 
#    0.000    2.857    0.000    1.714    0.000    0.000 
#    0.000    0.000    0.000    0.000    0.000    0.000 
#
# Total GULP energy -78401.209985 kJ/mol
# GULP energy per Si atom -5600.086427 kJ/mol
# Density = 2.695392 g / cm^3
# Si number density = 27.015405 Si / 1000 Ang^3
#
#
#
# Elastic Constant Matrix: (Units=GPa)
#
#
# Indices 1 2 3 4 5 6 
#
# 1 167.1184 24.0100 80.3950 -8.9161 15.2958 45.5712
# 2 24.0100 53.7265 39.5064 -0.8141 3.3976 21.5698
# 3 80.3950 39.5064 163.4285 -18.0616 -2.0065 20.8407
# 4 -8.9161 -0.8141 -18.0616 50.2719 8.6823 -3.3450
# 5 15.2958 3.3976 -2.0065 8.6823 79.2161 -5.2651
# 6 45.5712 21.5698 20.8407 -3.3450 -5.2651 43.9037
#
#
#
# Elastic Compliance Matrix: (Units=1/GPa)
#
#
# Indices 1 2 3 4 5 6 
#
# 1 0.011286 0.003376 -0.004945 0.000076 -0.003216 -0.011406
# 2 0.003376 0.028130 -0.006848 -0.001892 -0.002792 -0.014552
# 3 -0.004945 -0.006848 0.009987 0.002618 0.001489 0.004134
# 4 0.000076 -0.001892 0.002618 0.021248 -0.002132 0.000971
# 5 -0.003216 -0.002792 0.001489 -0.002132 0.014003 0.005519
# 6 -0.011406 -0.014552 0.004134 0.000971 0.005519 0.040539
#
#
# Mechanical properties :
#
#
# Convention : Reuss Voigt Hill
#
# Bulk Modulus (GPa) = 30.70370 74.67738 52.69054
# Shear Modulus (GPa) = 32.70452 50.70248 41.70350
#
# Velocity S-wave (km/s) = 3.48312 4.33690 3.93325
# Velocity P-wave (km/s) = 5.25035 7.26504 6.33826
#
# Compressibility (1/GPa) = 0.03256936
#
# Stress axis : x y z
#
# Youngs Moduli (GPa) = 88.60458 35.54895 100.12831
#
# Poissons Ratio (x) = -0.12001 0.49509
# Poissons Ratio (y) = -0.29912 0.68572
# Poissons Ratio (z) = 0.43811 0.24345
#
# Static dielectric constant tensor:
#      x y z
#    x 2.187690 0.026770 -0.055220 
#    y 0.026770 2.184650 0.039150 
#    z -0.055220 0.039150 2.099380 
# 
# From -- ./inp_files/428000.got.cif
#   From: 2010.05.17/outbox.cif.g08.bks.cpg/sg2_214_cif.got.tgz:428000.got - 2010.06.03 11:33:40.
