data_PCOD9076883
_publ_section_title
;
Structure prediction by ZEFSAII (Michael W. Deem and Ramdas Pophale) SiO2 
 PCOD9076883
Probable space group: P -1
;
_chemical_formula_sum "Si O2"
_cell_formula_units_Z 16
_cell_length_a 10.825678
_cell_length_b 9.022608
_cell_length_c 17.544206
_cell_angle_alpha 117.640213
_cell_angle_beta 136.044411
_cell_angle_gamma 94.852190
_cell_volume 771.909245
_symmetry_space_group_name_H-M "P -1"
_symmetry_group_IT_number 2
_symmetry_cell_setting 'triclinic'
loop_
_space_group_symop_operation_xyz
x,y,z
-x,-y,-z
loop_
_atom_site_type_symbol
_atom_site_label
_atom_site_fract_x
_atom_site_fract_y
_atom_site_fract_z
Si Si1 0.868950 0.421998 0.227858
Si Si2 0.370797 0.329130 0.586370
Si Si3 0.914802 0.280290 0.367839
Si Si4 0.712409 0.490536 0.902941
Si Si5 0.753120 0.170854 0.751978
Si Si6 0.998919 0.878686 0.395628
Si Si7 0.668157 0.321993 0.598667
Si Si8 0.554946 0.776738 0.125368
O O1 0.814043 0.272224 0.239573
O O2 0.974766 0.671629 0.358702
O O3 0.087495 0.478920 0.290021
O O4 0.633290 0.311521 0.046593
O O5 0.545780 0.492788 0.772999
O O6 0.532093 0.382898 0.598375
O O7 0.153469 0.317563 0.472636
O O8 0.235537 0.076456 0.499056
O O9 0.000000 0.500000 0.500000
O O10 0.710821 0.046796 0.267007
O O11 0.730382 0.318740 0.830711
O O12 0.588583 0.375424 0.900680
O O13 0.981734 0.734103 0.091206
O O14 0.749072 0.243350 0.681980
O O15 0.534074 0.900023 0.595400
O O16 0.770804 0.778897 0.216091
O O17 0.000000 0.000000 0.500000
#
# Coordination Sequence:
#
# PCOD9076883 Si02
#       8
#     2   2   2   2   2   2   2   2
#     4  12  23  41  64  90 123 164 203 252 304 359
#     4  10  22  40  60  92 122 155 201 253 299 363
#     4  11  27  44  62  83 123 171 206 241 303 374
#     4  10  18  33  62  89 129 147 200 246 306 351
#     4   9  18  32  55  99 121 155 185 255 302 360
#     4  11  21  37  63  92 125 160 203 250 297 358
#     4  10  20  35  62  88 125 150 202 247 311 352
#     4  11  23  39  61  94 123 156 204 256 304 353
#
# _framework density 20.727826
#
# number of rings (size 3 to 8) (size 9 to 14) (size 15 to 20)
#    0.000    1.500    2.500    4.500    1.750    0.500 
#    0.000    1.250    0.000    1.500    0.000    0.000 
#    0.000    0.000    0.000    0.000    0.000    0.000 
#
# Total GULP energy -89371.700285 kJ/mol
# GULP energy per Si atom -5585.731268 kJ/mol
# Density = 2.068065 g / cm^3
# Si number density = 20.727826 Si / 1000 Ang^3
#
#
#
# Elastic Constant Matrix: (Units=GPa)
#
#
# Indices 1 2 3 4 5 6 
#
# 1 58.3743 5.4940 19.8527 -4.4567 3.5694 -1.9887
# 2 5.4940 40.5521 13.3285 -6.2156 -0.2158 -9.5029
# 3 19.8527 13.3285 132.1343 -23.9434 14.7375 -4.8479
# 4 -4.4567 -6.2156 -23.9434 29.0614 0.8604 -1.1293
# 5 3.5694 -0.2158 14.7375 0.8604 27.6492 1.5547
# 6 -1.9887 -9.5029 -4.8479 -1.1293 1.5547 22.4432
#
#
#
# Elastic Compliance Matrix: (Units=1/GPa)
#
#
# Indices 1 2 3 4 5 6 
#
# 1 0.018198 -0.001473 -0.002319 0.000623 -0.001178 0.000601
# 2 -0.001473 0.028946 -0.001317 0.005341 0.000272 0.012091
# 3 -0.002319 -0.001317 0.010199 0.008016 -0.005522 0.002226
# 4 0.000623 0.005341 0.008016 0.042687 -0.006012 0.006613
# 5 -0.001178 0.000272 -0.005522 -0.006012 0.039690 -0.004234
# 6 0.000601 0.012091 0.002226 0.006613 -0.004234 0.050837
#
#
# Mechanical properties :
#
#
# Convention : Reuss Voigt Hill
#
# Bulk Modulus (GPa) = 21.22066 34.26789 27.74427
# Shear Modulus (GPa) = 23.09633 28.65646 25.87639
#
# Velocity S-wave (km/s) = 3.34168 3.72225 3.53709
# Velocity P-wave (km/s) = 5.01489 5.91960 5.48593
#
# Compressibility (1/GPa) = 0.04712389
#
# Stress axis : x y z
#
# Youngs Moduli (GPa) = 54.95017 34.54736 98.04443
#
# Poissons Ratio (x) = 0.05090 0.22740
# Poissons Ratio (y) = 0.08095 0.12915
# Poissons Ratio (z) = 0.12745 0.04551
#
# Static dielectric constant tensor:
#      x y z
#    x 1.779880 -0.007430 -0.004800 
#    y -0.007430 1.709410 -0.011210 
#    z -0.004800 -0.011210 1.794860 
# 
# From -- ./inp_files/239116.got.cif
#   From: 2010.05.17/outbox.cif.g08.bks.cpg/sg2_120_cif.got.tgz:239116.got - 2010.06.03 11:33:40.
