data_PCOD9076400
_publ_section_title
;
Structure prediction by ZEFSAII (Michael W. Deem and Ramdas Pophale) SiO2 
 PCOD9076400
Probable space group: P -1
;
_chemical_formula_sum "Si O2"
_cell_formula_units_Z 16
_cell_length_a 11.764620
_cell_length_b 7.457048
_cell_length_c 9.302698
_cell_angle_alpha 94.993431
_cell_angle_beta 50.656816
_cell_angle_gamma 75.705763
_cell_volume 578.411996
_symmetry_space_group_name_H-M "P -1"
_symmetry_group_IT_number 2
_symmetry_cell_setting 'triclinic'
loop_
_space_group_symop_operation_xyz
x,y,z
-x,-y,-z
loop_
_atom_site_type_symbol
_atom_site_label
_atom_site_fract_x
_atom_site_fract_y
_atom_site_fract_z
Si Si1 0.083628 0.906575 0.576558
Si Si2 0.592792 0.171624 0.962417
Si Si3 0.842497 0.709328 0.415492
Si Si4 0.882086 0.307689 0.222881
Si Si5 0.230164 0.625342 0.003774
Si Si6 0.462356 0.653770 0.414640
Si Si7 0.532300 0.016222 0.721655
Si Si8 0.220838 0.476514 0.285212
O O1 0.993866 0.851658 0.782809
O O2 0.180621 0.678008 0.418215
O O3 0.883643 0.519698 0.268827
O O4 0.000000 0.000000 0.500000
O O5 0.730997 0.224220 0.919545
O O6 0.413912 0.346135 0.118002
O O7 0.587584 0.009371 0.068861
O O8 0.627216 0.099749 0.765405
O O9 0.855651 0.645578 0.567830
O O10 0.888714 0.896092 0.370883
O O11 0.647840 0.805510 0.562221
O O12 0.862514 0.304284 0.066327
O O13 0.729195 0.267674 0.409952
O O14 0.412779 0.481214 0.810956
O O15 0.163626 0.518439 0.168634
O O16 0.500000 0.500000 0.500000
O O17 0.507363 0.840391 0.370142
#
# Coordination Sequence:
#
# PCOD9076400 Si02
#       8
#     2   2   2   2   2   2   2   2
#     4  11  23  43  68  86 105 143 196 251 301 350
#     4  10  20  31  58  84 121 162 193 236 271 330
#     4  10  21  38  61  85 114 146 194 243 285 347
#     4  10  23  40  55  87 124 156 189 238 289 338
#     4  11  20  36  55  83 124 166 185 225 291 334
#     4  10  19  33  52  79 127 161 186 225 274 335
#     4  10  18  33  55  88 117 156 208 228 268 341
#     4  10  21  37  62  86 119 155 195 243 282 332
#
# _framework density 27.661942
#
# number of rings (size 3 to 8) (size 9 to 14) (size 15 to 20)
#    0.000    1.750    2.500    3.375    1.750    2.000 
#    4.500    4.375    0.000    1.500    0.000    0.000 
#    0.000    0.000    0.000    0.000    0.000    0.000 
#
# Total GULP energy -89078.953932 kJ/mol
# GULP energy per Si atom -5567.434621 kJ/mol
# Density = 2.759898 g / cm^3
# Si number density = 27.661942 Si / 1000 Ang^3
#
#
#
# Elastic Constant Matrix: (Units=GPa)
#
#
# Indices 1 2 3 4 5 6 
#
# 1 62.9124 44.3399 60.3914 -1.4285 28.2645 13.3669
# 2 44.3399 194.3431 75.7995 -21.9887 20.3038 7.7583
# 3 60.3914 75.7995 160.7794 -27.8870 29.7975 5.4832
# 4 -1.4285 -21.9887 -27.8870 60.1841 -11.2320 -2.5711
# 5 28.2645 20.3038 29.7975 -11.2320 43.3990 -6.3819
# 6 13.3669 7.7583 5.4832 -2.5711 -6.3819 39.2342
#
#
#
# Elastic Compliance Matrix: (Units=1/GPa)
#
#
# Indices 1 2 3 4 5 6 
#
# 1 0.043861 -0.003472 -0.011630 -0.010894 -0.024319 -0.017301
# 2 -0.003472 0.006706 -0.001717 0.001737 0.000802 0.000341
# 3 -0.011630 -0.001717 0.011778 0.005088 0.002098 0.003330
# 4 -0.010894 0.001737 0.005088 0.021286 0.009112 0.005534
# 5 -0.024319 0.000802 0.002098 0.009112 0.041659 0.015207
# 6 -0.017301 0.000341 0.003330 0.005534 0.015207 0.033686
#
#
# Mechanical properties :
#
#
# Convention : Reuss Voigt Hill
#
# Bulk Modulus (GPa) = 34.83490 86.56626 60.70058
# Shear Modulus (GPa) = 24.73005 44.39708 34.56357
#
# Velocity S-wave (km/s) = 2.99324 4.01058 3.53866
# Velocity P-wave (km/s) = 4.95645 7.26695 6.21993
#
# Compressibility (1/GPa) = 0.02870684
#
# Stress axis : x y z
#
# Youngs Moduli (GPa) = 22.79935 149.11352 84.90604
#
# Poissons Ratio (x) = 0.51772 0.98750
# Poissons Ratio (y) = 0.07916 0.14575
# Poissons Ratio (z) = 0.26517 0.25597
#
# Static dielectric constant tensor:
#      x y z
#    x 3.343650 -0.453340 -0.179930 
#    y -0.453340 2.309080 0.078340 
#    z -0.179930 0.078340 2.162340 
# 
# From -- ./inp_files/295502.got.cif
#   From: 2010.05.17/outbox.cif.g08.bks.cpg/sg2_148_cif.got.tgz:295502.got - 2010.06.03 11:33:40.
