data_PCOD9076512
_publ_section_title
;
Structure prediction by ZEFSAII (Michael W. Deem and Ramdas Pophale) SiO2 
 PCOD9076512
Probable space group: P -1
;
_chemical_formula_sum "Si O2"
_cell_formula_units_Z 16
_cell_length_a 10.017195
_cell_length_b 13.489643
_cell_length_c 11.842650
_cell_angle_alpha 49.863929
_cell_angle_beta 130.550794
_cell_angle_gamma 145.108901
_cell_volume 672.327469
_symmetry_space_group_name_H-M "P -1"
_symmetry_group_IT_number 2
_symmetry_cell_setting 'triclinic'
loop_
_space_group_symop_operation_xyz
x,y,z
-x,-y,-z
loop_
_atom_site_type_symbol
_atom_site_label
_atom_site_fract_x
_atom_site_fract_y
_atom_site_fract_z
Si Si1 0.595245 0.958313 0.680266
Si Si2 0.919839 0.910579 0.861875
Si Si3 0.813980 0.190390 0.962569
Si Si4 0.006088 0.281204 0.253364
Si Si5 0.386936 0.374826 0.917432
Si Si6 0.796518 0.419425 0.155685
Si Si7 0.457962 0.098883 0.675851
Si Si8 0.436276 0.352022 0.350250
O O1 0.854315 0.028320 0.741582
O O2 0.391676 0.740855 0.741821
O O3 0.584679 0.043401 0.721229
O O4 0.500000 0.000000 0.500000
O O5 0.751024 0.779213 0.758703
O O6 0.824264 0.813997 0.002594
O O7 0.161482 0.951167 0.943243
O O8 0.018242 0.370912 0.866747
O O9 0.565682 0.133491 0.834456
O O10 0.901787 0.259289 0.087403
O O11 0.276604 0.364310 0.333109
O O12 0.827877 0.077874 0.352005
O O13 0.042368 0.615116 0.777680
O O14 0.355306 0.461979 0.737064
O O15 0.500000 0.500000 0.000000
O O16 0.600979 0.385449 0.988194
O O17 0.509355 0.260447 0.524539
#
# Coordination Sequence:
#
# PCOD9076512 Si02
#       8
#     2   2   2   2   2   2   2   2
#     4  10  20  35  58  82 112 141 184 225 263 330
#     4   9  18  33  58  79 107 145 184 214 268 333
#     4  11  21  36  57  81 113 143 179 232 277 316
#     4  10  21  37  58  77 105 149 194 221 259 331
#     4   9  15  30  56  83  99 137 188 222 248 319
#     4  10  19  34  60  82 102 145 194 217 259 330
#     4  11  23  35  53  86 113 142 176 234 285 309
#     4  10  18  33  57  78 106 144 188 220 265 324
#
# _framework density 23.797926
#
# number of rings (size 3 to 8) (size 9 to 14) (size 15 to 20)
#    0.000    2.000    5.000    1.125    0.000    0.500 
#    0.000    3.125    0.000    0.000    0.000    0.000 
#    0.000    0.000    0.000    0.000    0.000    0.000 
#
# Total GULP energy -89233.139546 kJ/mol
# GULP energy per Si atom -5577.071222 kJ/mol
# Density = 2.374376 g / cm^3
# Si number density = 23.797926 Si / 1000 Ang^3
#
#
#
# Elastic Constant Matrix: (Units=GPa)
#
#
# Indices 1 2 3 4 5 6 
#
# 1 93.5582 6.0576 17.5007 -2.1269 25.9373 9.0285
# 2 6.0576 51.7606 10.7618 -11.7520 4.9281 -1.7387
# 3 17.5007 10.7618 125.3718 -19.4055 16.5499 -0.2245
# 4 -2.1269 -11.7520 -19.4055 32.2924 -1.9876 -1.4274
# 5 25.9373 4.9281 16.5499 -1.9876 26.9115 -4.3715
# 6 9.0285 -1.7387 -0.2245 -1.4274 -4.3715 10.8999
#
#
#
# Elastic Compliance Matrix: (Units=1/GPa)
#
#
# Indices 1 2 3 4 5 6 
#
# 1 0.019614 -0.001383 0.000114 -0.001709 -0.023060 -0.025937
# 2 -0.001383 0.021575 -0.000319 0.007736 -0.001007 0.005189
# 3 0.000114 -0.000319 0.009557 0.005207 -0.005803 -0.001594
# 4 -0.001709 0.007736 0.005207 0.037222 0.001088 0.008067
# 5 -0.023060 -0.001007 -0.005803 0.001088 0.070918 0.047406
# 6 -0.025937 0.005189 -0.001594 0.008067 0.047406 0.134092
#
#
# Mechanical properties :
#
#
# Convention : Reuss Voigt Hill
#
# Bulk Modulus (GPa) = 21.02207 37.70346 29.36277
# Shear Modulus (GPa) = 16.02514 29.77879 22.90196
#
# Velocity S-wave (km/s) = 2.59778 3.54124 3.10554
# Velocity P-wave (km/s) = 4.22501 5.70947 5.02239
#
# Compressibility (1/GPa) = 0.04756905
#
# Stress axis : x y z
#
# Youngs Moduli (GPa) = 50.98454 46.35093 104.63677
#
# Poissons Ratio (x) = 0.06409 -0.01192
# Poissons Ratio (y) = 0.07050 0.03341
# Poissons Ratio (z) = -0.00581 0.01480
#
# Static dielectric constant tensor:
#      x y z
#    x 2.002760 -0.014930 -0.002430 
#    y -0.014930 2.055030 -0.006770 
#    z -0.002430 -0.006770 1.900360 
# 
# From -- ./inp_files/522979.got.cif
#   From: 2010.05.17/outbox.cif.g08.bks.cpg/sg2_262_cif.got.tgz:522979.got - 2010.06.03 11:33:40.
