data_PCOD9076687
_publ_section_title
;
Structure prediction by ZEFSAII (Michael W. Deem and Ramdas Pophale) SiO2 
 PCOD9076687
Probable space group: P -1
;
_chemical_formula_sum "Si O2"
_cell_formula_units_Z 16
_cell_length_a 7.808972
_cell_length_b 14.735368
_cell_length_c 11.834755
_cell_angle_alpha 42.597245
_cell_angle_beta 125.204592
_cell_angle_gamma 104.793310
_cell_volume 717.093982
_symmetry_space_group_name_H-M "P -1"
_symmetry_group_IT_number 2
_symmetry_cell_setting 'triclinic'
loop_
_space_group_symop_operation_xyz
x,y,z
-x,-y,-z
loop_
_atom_site_type_symbol
_atom_site_label
_atom_site_fract_x
_atom_site_fract_y
_atom_site_fract_z
Si Si1 0.623109 0.092356 0.531871
Si Si2 0.649669 0.155056 0.934823
Si Si3 0.738618 0.637114 0.895981
Si Si4 0.937923 0.960845 0.388376
Si Si5 0.020829 0.295672 0.857249
Si Si6 0.236707 0.026696 0.066726
Si Si7 0.951213 0.648701 0.727396
Si Si8 0.306122 0.429908 0.499143
O O1 0.503943 0.257947 0.313910
O O2 0.869087 0.045050 0.621651
O O3 0.500000 0.000000 0.500000
O O4 0.627062 0.056018 0.698846
O O5 0.835985 0.227847 0.897982
O O6 0.419953 0.277907 0.734295
O O7 0.655196 0.038718 0.948477
O O8 0.725175 0.078497 0.152165
O O9 0.878063 0.659342 0.819947
O O10 0.827709 0.690229 0.993591
O O11 0.807208 0.467212 0.085157
O O12 0.926179 0.803542 0.533044
O O13 0.000000 0.000000 0.500000
O O14 0.890946 0.452515 0.622743
O O15 0.168795 0.191303 0.918049
O O16 0.000000 0.000000 0.000000
O O17 0.789780 0.590001 0.642443
O O18 0.500000 0.500000 0.500000
#
# Coordination Sequence:
#
# PCOD9076687 Si02
#       8
#     2   2   2   2   2   2   2   2
#     4  12  21  37  65  94 120 170 217 255 307 383
#     4  10  19  35  59  89 121 162 207 261 312 374
#     4  10  20  38  64  89 120 162 218 257 308 385
#     4  12  25  40  60  89 136 165 206 268 329 369
#     4   9  16  33  57  89 117 150 206 266 301 358
#     4  10  18  33  58  92 116 155 209 258 307 357
#     4  10  22  39  61  93 126 165 204 268 324 375
#     4   9  19  35  61  86 116 158 212 255 307 381
#
# _framework density 22.312276000000001
#
# number of rings (size 3 to 8) (size 9 to 14) (size 15 to 20)
#    0.000    1.750    3.750    2.250    0.000    2.000 
#    0.000    0.000    2.750    1.500    0.000    0.000 
#    0.000    0.000    0.000    0.000    0.000    0.000 
#
# Total GULP energy -89422.263438 kJ/mol
# GULP energy per Si atom -5588.891465 kJ/mol
# Density = 2.226149 g / cm^3
# Si number density = 22.312276 Si / 1000 Ang^3
#
#
#
# Elastic Constant Matrix: (Units=GPa)
#
#
# Indices 1 2 3 4 5 6 
#
# 1 43.8747 18.0593 32.0353 -6.8935 -3.2813 -11.1636
# 2 18.0593 111.3444 57.2008 -4.8624 1.2494 -26.2002
# 3 32.0353 57.2008 199.7311 -17.0296 29.4265 -35.7441
# 4 -6.8935 -4.8624 -17.0296 42.1562 -10.4761 6.8591
# 5 -3.2813 1.2494 29.4265 -10.4761 34.4578 -3.9668
# 6 -11.1636 -26.2002 -35.7441 6.8591 -3.9668 25.7793
#
#
#
# Elastic Compliance Matrix: (Units=1/GPa)
#
#
# Indices 1 2 3 4 5 6 
#
# 1 0.029033 -0.001104 -0.004162 0.004036 0.008262 0.005877
# 2 -0.001104 0.012462 -0.001974 -0.000642 0.002078 0.009941
# 3 -0.004162 -0.001974 0.008468 -0.000324 -0.006853 0.006965
# 4 0.004036 -0.000642 -0.000324 0.027103 0.008316 -0.005285
# 5 0.008262 0.002078 -0.006853 0.008316 0.038094 -0.000163
# 6 0.005877 0.009941 0.006965 -0.005285 -0.000163 0.062477
#
#
# Mechanical properties :
#
#
# Convention : Reuss Voigt Hill
#
# Bulk Modulus (GPa) = 28.18222 63.28234 45.73228
# Shear Modulus (GPa) = 24.51645 36.98898 30.75272
#
# Velocity S-wave (km/s) = 3.31839 4.07601 3.71656
# Velocity P-wave (km/s) = 5.22882 7.11164 6.24164
#
# Compressibility (1/GPa) = 0.03548336
#
# Stress axis : x y z
#
# Youngs Moduli (GPa) = 34.44357 80.24340 118.09300
#
# Poissons Ratio (x) = 0.08862 0.49148
# Poissons Ratio (y) = 0.03804 0.23307
# Poissons Ratio (z) = 0.14335 0.15837
#
# Static dielectric constant tensor:
#      x y z
#    x 1.835390 0.028060 0.028620 
#    y 0.028060 1.797920 -0.027500 
#    z 0.028620 -0.027500 1.851540 
# 
# From -- ./inp_files/319214.got.cif
#   From: 2010.05.17/outbox.cif.g08.bks.cpg/sg2_160_cif.got.tgz:319214.got - 2010.06.03 11:33:40.
