data_PCOD9076857
_publ_section_title
;
Structure prediction by ZEFSAII (Michael W. Deem and Ramdas Pophale) SiO2 
 PCOD9076857
Probable space group: P -1
;
_chemical_formula_sum "Si O2"
_cell_formula_units_Z 16
_cell_length_a 8.788909
_cell_length_b 10.079472
_cell_length_c 8.709425
_cell_angle_alpha 68.301635
_cell_angle_beta 97.353144
_cell_angle_gamma 96.617549
_cell_volume 709.047837
_symmetry_space_group_name_H-M "P -1"
_symmetry_group_IT_number 2
_symmetry_cell_setting 'triclinic'
loop_
_space_group_symop_operation_xyz
x,y,z
-x,-y,-z
loop_
_atom_site_type_symbol
_atom_site_label
_atom_site_fract_x
_atom_site_fract_y
_atom_site_fract_z
Si Si1 0.630046 0.339204 0.451147
Si Si2 0.757327 0.083874 0.416741
Si Si3 0.650023 0.189371 0.822441
Si Si4 0.808063 0.478212 0.137132
Si Si5 0.355062 0.374045 0.199500
Si Si6 0.505462 0.878116 0.863035
Si Si7 0.044446 0.733343 0.994211
Si Si8 0.094302 0.179043 0.332310
O O1 0.654141 0.175455 0.472221
O O2 0.636646 0.316000 0.643155
O O3 0.754790 0.425380 0.320595
O O4 0.474520 0.398263 0.341952
O O5 0.660686 0.088010 0.245066
O O6 0.933511 0.153951 0.411514
O O7 0.784810 0.924812 0.540125
O O8 0.822505 0.207243 0.902828
O O9 0.606038 0.027681 0.827650
O O10 0.532573 0.196015 0.946808
O O11 0.921606 0.620128 0.104380
O O12 0.670416 0.515735 0.988083
O O13 0.883295 0.357565 0.096522
O O14 0.412750 0.234269 0.181826
O O15 0.187043 0.333549 0.268821
O O16 0.956313 0.851022 0.838518
#
# Coordination Sequence:
#
# PCOD9076857 Si02
#       8
#     2   2   2   2   2   2   2   2
#     4  11  21  37  58  90 116 154 191 242 285 339
#     4  10  19  35  62  85 118 146 201 235 282 346
#     4  11  22  36  61  83 126 152 183 235 308 343
#     4  10  21  39  65  81 111 156 205 239 272 333
#     4  10  21  38  63  86 112 149 207 234 279 340
#     4  10  21  40  59  86 119 157 185 236 294 351
#     4  10  20  40  60  87 116 154 192 238 288 343
#     4  10  18  33  61  87 111 146 193 247 277 333
#
# _framework density 22.565473000000001
#
# number of rings (size 3 to 8) (size 9 to 14) (size 15 to 20)
#    0.000    1.750    2.500    2.625    0.000    2.500 
#    0.000    8.125    0.000    0.000    0.000    0.000 
#    0.000    0.000    0.000    0.000    0.000    0.000 
#
# Total GULP energy -89235.324980 kJ/mol
# GULP energy per Si atom -5577.207811 kJ/mol
# Density = 2.251411 g / cm^3
# Si number density = 22.565473 Si / 1000 Ang^3
#
#
#
# Elastic Constant Matrix: (Units=GPa)
#
#
# Indices 1 2 3 4 5 6 
#
# 1 80.7655 12.0793 44.0902 -0.9347 13.2039 9.3060
# 2 12.0793 30.2161 6.3311 -0.5152 7.2669 -1.3721
# 3 44.0902 6.3311 168.9337 -15.6293 -5.0811 2.6795
# 4 -0.9347 -0.5152 -15.6293 16.9158 2.1640 4.1525
# 5 13.2039 7.2669 -5.0811 2.1640 36.1566 -10.7704
# 6 9.3060 -1.3721 2.6795 4.1525 -10.7704 29.2978
#
#
#
# Elastic Compliance Matrix: (Units=1/GPa)
#
#
# Indices 1 2 3 4 5 6 
#
# 1 0.018102 -0.004494 -0.004702 -0.000170 -0.008982 -0.008808
# 2 -0.004494 0.036326 -0.000270 0.001064 -0.005465 0.000993
# 3 -0.004702 -0.000270 0.007817 0.006389 0.002747 0.000870
# 4 -0.000170 0.001064 0.006389 0.069148 -0.007249 -0.012946
# 5 -0.008982 -0.005465 0.002747 -0.007249 0.038024 0.017351
# 6 -0.008808 0.000993 0.000870 -0.012946 0.017351 0.045110
#
#
# Mechanical properties :
#
#
# Convention : Reuss Voigt Hill
#
# Bulk Modulus (GPa) = 23.08851 44.99071 34.03961
# Shear Modulus (GPa) = 20.16967 30.96835 25.56901
#
# Velocity S-wave (km/s) = 2.99294 3.70858 3.36981
# Velocity P-wave (km/s) = 4.71143 6.19025 5.50076
#
# Compressibility (1/GPa) = 0.04331158
#
# Stress axis : x y z
#
# Youngs Moduli (GPa) = 55.24306 27.52865 127.93031
#
# Poissons Ratio (x) = 0.12371 0.60155
# Poissons Ratio (y) = 0.24826 0.03457
# Poissons Ratio (z) = 0.25976 0.00744
#
# Static dielectric constant tensor:
#      x y z
#    x 1.888460 0.010940 0.006970 
#    y 0.010940 1.857570 -0.023960 
#    z 0.006970 -0.023960 1.908030 
# 
# From -- ./inp_files/175337.got.cif
#   From: 2010.05.17/outbox.cif.g08.bks.cpg/sg2_88_cif.got.tgz:175337.got - 2010.06.03 11:33:40.
