data_PCOD9076926
_publ_section_title
;
Structure prediction by ZEFSAII (Michael W. Deem and Ramdas Pophale) SiO2 
 PCOD9076926
Probable space group: P -1
;
_chemical_formula_sum "Si O2"
_cell_formula_units_Z 16
_cell_length_a 13.815832
_cell_length_b 15.713065
_cell_length_c 5.071402
_cell_angle_alpha 103.564063
_cell_angle_beta 74.323593
_cell_angle_gamma 130.567391
_cell_volume 802.608504
_symmetry_space_group_name_H-M "P -1"
_symmetry_group_IT_number 2
_symmetry_cell_setting 'triclinic'
loop_
_space_group_symop_operation_xyz
x,y,z
-x,-y,-z
loop_
_atom_site_type_symbol
_atom_site_label
_atom_site_fract_x
_atom_site_fract_y
_atom_site_fract_z
Si Si1 0.417083 0.877881 0.111110
Si Si2 0.000625 0.846711 0.362051
Si Si3 0.249706 0.927179 0.499046
Si Si4 0.946143 0.672208 0.879547
Si Si5 0.835838 0.325000 0.108720
Si Si6 0.668752 0.924658 0.967069
Si Si7 0.082755 0.444931 0.690846
Si Si8 0.883990 0.922421 0.817651
O O1 0.333762 0.885287 0.393293
O O2 0.308115 0.777502 0.932881
O O3 0.520216 0.861191 0.106382
O O4 0.500000 0.000000 0.000000
O O5 0.894443 0.832236 0.618273
O O6 0.103505 0.842171 0.435501
O O7 0.080677 0.978115 0.331592
O O8 0.950684 0.769688 0.084087
O O9 0.315246 0.030992 0.313179
O O10 0.253065 0.968452 0.816380
O O11 0.896324 0.615742 0.592552
O O12 0.091998 0.712819 0.815990
O O13 0.872799 0.572383 0.078068
O O14 0.851575 0.426337 0.314137
O O15 0.931023 0.382788 0.822135
O O16 0.736150 0.868863 0.944371
O O17 0.000000 0.000000 0.000000
#
# Coordination Sequence:
#
# PCOD9076926 Si02
#       8
#     2   2   2   2   2   2   2   2
#     4  10  20  36  51  82 111 150 176 212 264 341
#     4  10  20  31  52  77 100 146 174 229 269 315
#     4  10  18  34  47  71 102 137 179 203 251 317
#     4  10  19  34  53  81 106 134 185 220 278 316
#     4   9  19  34  55  78 113 142 179 219 273 318
#     4  10  21  33  48  67 105 141 175 209 252 315
#     4   9  20  34  54  80 108 141 177 231 266 318
#     4  10  20  33  50  71 109 141 185 220 270 314
#
# _framework density 19.934999000000001
#
# number of rings (size 3 to 8) (size 9 to 14) (size 15 to 20)
#    0.750    1.500    2.500    0.750    1.750    2.000 
#    4.500    0.000    0.000    0.000    0.000    1.750 
#    0.000    0.000    0.000    0.000    0.000    0.000 
#
# Total GULP energy -89075.296573 kJ/mol
# GULP energy per Si atom -5567.206036 kJ/mol
# Density = 1.988963 g / cm^3
# Si number density = 19.934999 Si / 1000 Ang^3
#
#
#
# Elastic Constant Matrix: (Units=GPa)
#
#
# Indices 1 2 3 4 5 6 
#
# 1 101.1028 8.3174 17.9570 -3.0876 -25.3142 11.5585
# 2 8.3174 58.7393 19.4214 15.9039 -2.9052 -0.4794
# 3 17.9570 19.4214 93.2506 12.4580 -13.6323 -4.9764
# 4 -3.0876 15.9039 12.4580 21.5244 -9.9122 -1.0353
# 5 -25.3142 -2.9052 -13.6323 -9.9122 40.2862 1.9218
# 6 11.5585 -0.4794 -4.9764 -1.0353 1.9218 19.0531
#
#
#
# Elastic Compliance Matrix: (Units=1/GPa)
#
#
# Indices 1 2 3 4 5 6 
#
# 1 0.015119 -0.003908 -0.002467 0.011358 0.011678 -0.010475
# 2 -0.003908 0.023266 -0.002354 -0.019243 -0.006402 0.001942
# 3 -0.002467 -0.002354 0.012791 -0.005303 0.001095 0.004379
# 4 0.011358 -0.019243 -0.005303 0.075579 0.022883 -0.006961
# 5 0.011678 -0.006402 0.001095 0.022883 0.038156 -0.009565
# 6 -0.010475 0.001942 0.004379 -0.006961 -0.009565 0.060619
#
#
# Mechanical properties :
#
#
# Convention : Reuss Voigt Hill
#
# Bulk Modulus (GPa) = 29.65859 38.27601 33.96730
# Shear Modulus (GPa) = 19.66749 29.99922 24.83336
#
# Velocity S-wave (km/s) = 3.14440 3.88345 3.53330
# Velocity P-wave (km/s) = 5.30028 6.27298 5.80703
#
# Compressibility (1/GPa) = 0.03371704
#
# Stress axis : x y z
#
# Youngs Moduli (GPa) = 66.14231 42.98187 78.17775
#
# Poissons Ratio (x) = 0.16799 0.19284
# Poissons Ratio (y) = 0.25851 0.18406
# Poissons Ratio (z) = 0.16315 0.10120
#
# Static dielectric constant tensor:
#      x y z
#    x 1.802320 -0.025390 -0.036290 
#    y -0.025390 1.750410 -0.061180 
#    z -0.036290 -0.061180 1.815170 
# 
# From -- ./inp_files/99239.got.cif
#   From: 2010.05.17/outbox.cif.g08.bks.cpg/sg2_50_cif.got.tgz:99239.got - 2010.06.03 11:33:40.
