data_PCOD9076399
_publ_section_title
;
Structure prediction by ZEFSAII (Michael W. Deem and Ramdas Pophale) SiO2 
 PCOD9076399
Probable space group: P -1
;
_chemical_formula_sum "Si O2"
_cell_formula_units_Z 14
_cell_length_a 14.221080
_cell_length_b 7.583778
_cell_length_c 11.930614
_cell_angle_alpha 128.989869
_cell_angle_beta 139.072217
_cell_angle_gamma 37.393421
_cell_volume 510.546191
_symmetry_space_group_name_H-M "P -1"
_symmetry_group_IT_number 2
_symmetry_cell_setting 'triclinic'
loop_
_space_group_symop_operation_xyz
x,y,z
-x,-y,-z
loop_
_atom_site_type_symbol
_atom_site_label
_atom_site_fract_x
_atom_site_fract_y
_atom_site_fract_z
Si Si1 0.457064 0.305115 0.722069
Si Si2 0.164961 0.175590 0.651639
Si Si3 0.215376 0.821399 0.145382
Si Si4 0.431998 0.171152 0.129852
Si Si5 0.737416 0.725259 0.655515
Si Si6 0.893945 0.825922 0.150157
Si Si7 0.131553 0.675458 0.740509
O O1 0.622948 0.318362 0.861449
O O2 0.318816 0.421639 0.536717
O O3 0.331548 0.468890 0.780196
O O4 0.561166 0.960814 0.666155
O O5 0.136830 0.083571 0.708726
O O6 0.137356 0.477142 0.761150
O O7 0.015616 0.253416 0.457614
O O8 0.368801 0.947382 0.695111
O O9 0.299402 0.521266 0.161620
O O10 0.232636 0.065557 0.300905
O O11 0.000000 0.000000 0.000000
O O12 0.295421 0.109739 0.023300
O O13 0.500000 0.000000 0.000000
O O14 0.918103 0.501157 0.801393
O O15 0.919518 0.012664 0.166732
#
# Coordination Sequence:
#
# PCOD9076399 Si02
#       7
#     2   2   2   2   2   2   2
#     4   9  18  33  54  82 114 152 183 241 287 333
#     4  10  23  36  58  90 117 150 201 238 285 343
#     4  10  18  33  55  88 112 147 192 236 282 349
#     4  10  20  34  57  84 113 150 193 234 286 339
#     4   9  19  31  57  85 112 146 198 229 292 347
#     4  11  20  37  61  85 114 156 191 242 289 343
#     4  11  22  37  61  85 121 151 195 246 282 337
#
# _framework density 27.421612
#
# number of rings (size 3 to 8) (size 9 to 14) (size 15 to 20)
#    0.857    1.143    2.857    2.143    2.000    0.571 
#    0.000    0.000    3.143    4.286    0.000    0.000 
#    0.000    0.000    0.000    0.000    0.000    0.000 
#
# Total GULP energy -78210.969561 kJ/mol
# GULP energy per Si atom -5586.497826 kJ/mol
# Density = 2.735920 g / cm^3
# Si number density = 27.421612 Si / 1000 Ang^3
#
#
#
# Elastic Constant Matrix: (Units=GPa)
#
#
# Indices 1 2 3 4 5 6 
#
# 1 78.8138 27.9230 41.1341 0.7884 6.7021 -11.0150
# 2 27.9230 156.6895 41.8035 -12.5361 26.8267 -6.0534
# 3 41.1341 41.8035 133.2015 -31.2973 28.0607 0.9428
# 4 0.7884 -12.5361 -31.2973 50.1598 -3.7767 20.6466
# 5 6.7021 26.8267 28.0607 -3.7767 41.5411 -8.2282
# 6 -11.0150 -6.0534 0.9428 20.6466 -8.2282 56.5530
#
#
#
# Elastic Compliance Matrix: (Units=1/GPa)
#
#
# Indices 1 2 3 4 5 6 
#
# 1 0.018359 -0.002334 -0.007933 -0.008444 0.004563 0.007205
# 2 -0.002334 0.007756 -0.000355 0.001799 -0.004410 -0.000917
# 3 -0.007933 -0.000355 0.014694 0.011558 -0.008817 -0.007331
# 4 -0.008444 0.001799 0.011558 0.033294 -0.007530 -0.014896
# 5 0.004563 -0.004410 -0.008817 -0.007530 0.033065 0.008124
# 6 0.007205 -0.000917 -0.007331 -0.014896 0.008124 0.025730
#
#
# Mechanical properties :
#
#
# Convention : Reuss Voigt Hill
#
# Bulk Modulus (GPa) = 51.11334 65.60288 58.35811
# Shear Modulus (GPa) = 31.12078 46.84039 38.98059
#
# Velocity S-wave (km/s) = 3.37248 4.13747 3.77441
# Velocity P-wave (km/s) = 5.81766 6.84109 6.35003
#
# Compressibility (1/GPa) = 0.01956436
#
# Stress axis : x y z
#
# Youngs Moduli (GPa) = 54.46976 128.92731 68.05570
#
# Poissons Ratio (x) = 0.30086 0.53991
# Poissons Ratio (y) = 0.12711 0.02418
# Poissons Ratio (z) = 0.43213 0.04581
#
# Static dielectric constant tensor:
#      x y z
#    x 2.240560 0.020810 -0.077960 
#    y 0.020810 2.212540 0.036560 
#    z -0.077960 0.036560 2.143290 
# 
# From -- ./inp_files/310768.got.cif
#   From: 2010.05.17/outbox.cif.g08.bks.cpg/sg2_156_cif.got.tgz:310768.got - 2010.06.03 11:33:40.
