data_PCOD9076795
_publ_section_title
;
Structure prediction by ZEFSAII (Michael W. Deem and Ramdas Pophale) SiO2 
 PCOD9076795
Probable space group: P -1
;
_chemical_formula_sum "Si O2"
_cell_formula_units_Z 16
_cell_length_a 13.654342
_cell_length_b 15.593922
_cell_length_c 7.199907
_cell_angle_alpha 94.608696
_cell_angle_beta 77.694597
_cell_angle_gamma 28.999158
_cell_volume 600.034332
_symmetry_space_group_name_H-M "P -1"
_symmetry_group_IT_number 2
_symmetry_cell_setting 'triclinic'
loop_
_space_group_symop_operation_xyz
x,y,z
-x,-y,-z
loop_
_atom_site_type_symbol
_atom_site_label
_atom_site_fract_x
_atom_site_fract_y
_atom_site_fract_z
Si Si1 0.705422 0.780945 0.982806
Si Si2 0.604505 0.549483 0.920895
Si Si3 0.002606 0.116377 0.715251
Si Si4 0.970937 0.406087 0.678669
Si Si5 0.674320 0.446637 0.442437
Si Si6 0.172369 0.494766 0.661947
Si Si7 0.030222 0.036601 0.274646
Si Si8 0.591855 0.050360 0.518833
O O1 0.858206 0.589069 0.773047
O O2 0.944766 0.651519 0.918930
O O3 0.556426 0.846851 0.211934
O O4 0.500000 0.000000 0.000000
O O5 0.770954 0.502211 0.875178
O O6 0.627030 0.511637 0.685844
O O7 0.745310 0.360241 0.933123
O O8 0.322421 0.791235 0.119561
O O9 0.084606 0.963352 0.753646
O O10 0.945719 0.125084 0.533446
O O11 0.201118 0.036155 0.592457
O O12 0.964453 0.384658 0.459913
O O13 0.244188 0.165439 0.601643
O O14 0.500000 0.500000 0.500000
O O15 0.677123 0.536407 0.354020
O O16 0.943304 0.192127 0.239090
O O17 0.373198 0.260245 0.514970
#
# Coordination Sequence:
#
# PCOD9076795 Si02
#       8
#     2   2   2   2   2   2   2   2
#     4  12  25  43  72  96 130 170 218 270 329 387
#     4   9  19  34  60  87 121 165 219 254 314 386
#     4   9  19  34  57  89 122 166 206 267 312 374
#     4  10  23  44  65  96 130 175 212 269 328 381
#     4  10  22  39  57  89 128 167 212 260 318 375
#     4  11  24  44  67  98 132 173 217 267 323 387
#     4  10  18  33  60  84 124 169 214 259 317 370
#     4  11  23  44  65  93 136 165 219 267 324 385
#
# _framework density 26.665139
#
# number of rings (size 3 to 8) (size 9 to 14) (size 15 to 20)
#    0.000    1.750    1.250    3.375    1.750    1.000 
#    2.250    2.500    0.000    0.000    0.000    0.000 
#    0.000    0.000    0.000    0.000    0.000    0.000 
#
# Total GULP energy -89421.527478 kJ/mol
# GULP energy per Si atom -5588.845467 kJ/mol
# Density = 2.660445 g / cm^3
# Si number density = 26.665139 Si / 1000 Ang^3
#
#
#
# Elastic Constant Matrix: (Units=GPa)
#
#
# Indices 1 2 3 4 5 6 
#
# 1 117.3678 44.2681 42.5546 23.3755 -12.5632 8.9137
# 2 44.2681 144.6750 47.6512 44.7562 2.2251 17.0165
# 3 42.5546 47.6512 130.1878 37.1854 -15.7747 1.5888
# 4 23.3755 44.7562 37.1854 54.6646 -2.5973 4.2426
# 5 -12.5632 2.2251 -15.7747 -2.5973 44.3423 8.2527
# 6 8.9137 17.0165 1.5888 4.2426 8.2527 40.9533
#
#
#
# Elastic Compliance Matrix: (Units=1/GPa)
#
#
# Indices 1 2 3 4 5 6 
#
# 1 0.010705 -0.002044 -0.002051 -0.001242 0.002670 -0.001811
# 2 -0.002044 0.010372 -0.001411 -0.006506 -0.001454 -0.002843
# 3 -0.002051 -0.001411 0.010678 -0.005139 0.002881 0.000570
# 4 -0.001242 -0.006506 -0.005139 0.027603 -0.000306 0.000375
# 5 0.002670 -0.001454 0.002881 -0.000306 0.025350 -0.005166
# 6 -0.001811 -0.002843 0.000570 0.000375 -0.005166 0.026973
#
#
# Mechanical properties :
#
#
# Convention : Reuss Voigt Hill
#
# Bulk Modulus (GPa) = 48.20902 73.46426 60.83664
# Shear Modulus (GPa) = 38.57780 45.17582 41.87681
#
# Velocity S-wave (km/s) = 3.80774 4.12052 3.96722
# Velocity P-wave (km/s) = 6.11969 7.08863 6.62191
#
# Compressibility (1/GPa) = 0.02074301
#
# Stress axis : x y z
#
# Youngs Moduli (GPa) = 93.41036 96.41526 93.65051
#
# Poissons Ratio (x) = 0.19709 0.19205
# Poissons Ratio (y) = 0.19095 0.13216
# Poissons Ratio (z) = 0.19156 0.13606
#
# Static dielectric constant tensor:
#      x y z
#    x 2.160090 0.043150 -0.034420 
#    y 0.043150 2.222980 -0.038550 
#    z -0.034420 -0.038550 2.051160 
# 
# From -- ./inp_files/314950.got.cif
#   From: 2010.05.17/outbox.cif.g08.bks.cpg/sg2_158_cif.got.tgz:314950.got - 2010.06.03 11:33:40.
