data_PCOD9076657
_publ_section_title
;
Structure prediction by ZEFSAII (Michael W. Deem and Ramdas Pophale) SiO2 
 PCOD9076657
Probable space group: P -1
;
_chemical_formula_sum "Si O2"
_cell_formula_units_Z 14
_cell_length_a 8.322279
_cell_length_b 11.409949
_cell_length_c 8.032472
_cell_angle_alpha 61.241065
_cell_angle_beta 95.988969
_cell_angle_gamma 126.054148
_cell_volume 523.090638
_symmetry_space_group_name_H-M "P -1"
_symmetry_group_IT_number 2
_symmetry_cell_setting 'triclinic'
loop_
_space_group_symop_operation_xyz
x,y,z
-x,-y,-z
loop_
_atom_site_type_symbol
_atom_site_label
_atom_site_fract_x
_atom_site_fract_y
_atom_site_fract_z
Si Si1 0.952093 0.347497 0.210819
Si Si2 0.798769 0.409649 0.653368
Si Si3 0.429646 0.134036 0.948919
Si Si4 0.436112 0.718021 0.626712
Si Si5 0.173642 0.995055 0.679148
Si Si6 0.965285 0.097819 0.789837
Si Si7 0.376339 0.419188 0.717505
O O1 0.725078 0.269180 0.309082
O O2 0.952008 0.203094 0.228006
O O3 0.121800 0.439334 0.311626
O O4 0.000000 0.500000 0.000000
O O5 0.673756 0.238983 0.874564
O O6 0.638348 0.335983 0.536083
O O7 0.000000 0.500000 0.500000
O O8 0.422035 0.291135 0.868315
O O9 0.310778 0.040884 0.828651
O O10 0.276558 0.992178 0.166876
O O11 0.425793 0.553724 0.772651
O O12 0.662403 0.891263 0.524731
O O13 0.044159 0.062643 0.658105
O O14 0.132076 0.292654 0.731171
O O15 0.000000 0.000000 0.000000
O O16 0.500000 0.500000 0.500000
#
# Coordination Sequence:
#
# PCOD9076657 Si02
#       7
#     2   2   2   2   2   2   2
#     4  11  24  34  55  78 111 143 182 226 273 318
#     4   9  19  38  55  78 107 147 183 218 268 319
#     4   9  18  32  58  80 111 138 179 227 265 317
#     4  10  19  35  61  78 107 144 184 219 260 333
#     4   9  17  34  52  80 106 144 176 219 276 317
#     4   8  16  27  52  81 112 133 172 226 265 315
#     4  10  14  28  58  89  96 132 192 217 255 317
#
# _framework density 26.764004
#
# number of rings (size 3 to 8) (size 9 to 14) (size 15 to 20)
#    0.000    2.857    4.286    0.429    6.000    0.000 
#    0.000    3.571    6.286    6.000    0.000    0.000 
#    0.000    0.000    0.000    0.000    0.000    0.000 
#
# Total GULP energy -78075.055965 kJ/mol
# GULP energy per Si atom -5576.789712 kJ/mol
# Density = 2.670309 g / cm^3
# Si number density = 26.764004 Si / 1000 Ang^3
#
#
#
# Elastic Constant Matrix: (Units=GPa)
#
#
# Indices 1 2 3 4 5 6 
#
# 1 70.4261 15.5076 34.5120 -20.4203 -20.9549 -4.3915
# 2 15.5076 128.0082 23.9711 -17.3593 -5.5259 0.4348
# 3 34.5120 23.9711 81.2340 -28.4811 -35.7394 18.3834
# 4 -20.4203 -17.3593 -28.4811 42.5155 14.5145 -4.5202
# 5 -20.9549 -5.5259 -35.7394 14.5145 61.9533 -15.8390
# 6 -4.3915 0.4348 18.3834 -4.5202 -15.8390 46.5973
#
#
#
# Elastic Compliance Matrix: (Units=1/GPa)
#
#
# Indices 1 2 3 4 5 6 
#
# 1 0.020367 -0.000449 -0.006835 0.004507 0.003442 0.006227
# 2 -0.000449 0.008521 -0.002098 0.002256 -0.000979 0.000592
# 3 -0.006835 -0.002098 0.023529 0.008388 0.007430 -0.006568
# 4 0.004507 0.002256 0.008388 0.032589 -0.001101 -0.000118
# 5 0.003442 -0.000979 0.007430 -0.001101 0.023076 0.005139
# 6 0.006227 0.000592 -0.006568 -0.000118 0.005139 0.026368
#
#
# Mechanical properties :
#
#
# Convention : Reuss Voigt Hill
#
# Bulk Modulus (GPa) = 29.71416 47.51663 38.61540
# Shear Modulus (GPa) = 30.40794 43.92506 37.16650
#
# Velocity S-wave (km/s) = 3.37434 4.05557 3.73054
# Velocity P-wave (km/s) = 5.12913 6.30259 5.74589
#
# Compressibility (1/GPa) = 0.03365398
#
# Stress axis : x y z
#
# Youngs Moduli (GPa) = 49.09917 117.36053 42.50083
#
# Poissons Ratio (x) = 0.05266 0.29050
# Poissons Ratio (y) = 0.02203 0.08915
# Poissons Ratio (z) = 0.33560 0.24617
#
# Static dielectric constant tensor:
#      x y z
#    x 2.335230 -0.033250 0.063290 
#    y -0.033250 2.061340 -0.082860 
#    z 0.063290 -0.082860 2.330550 
# 
# From -- ./inp_files/258044.got.cif
#   From: 2010.05.17/outbox.cif.g08.bks.cpg/sg2_130_cif.got.tgz:258044.got - 2010.06.03 11:33:40.
