data_PCOD9076245
_publ_section_title
;
Structure prediction by ZEFSAII (Michael W. Deem and Ramdas Pophale) SiO2 
 PCOD9076245
Probable space group: P -1
;
_chemical_formula_sum "Si O2"
_cell_formula_units_Z 16
_cell_length_a 16.842183
_cell_length_b 8.708855
_cell_length_c 9.122698
_cell_angle_alpha 58.099605
_cell_angle_beta 85.621426
_cell_angle_gamma 132.546137
_cell_volume 603.076999
_symmetry_space_group_name_H-M "P -1"
_symmetry_group_IT_number 2
_symmetry_cell_setting 'triclinic'
loop_
_space_group_symop_operation_xyz
x,y,z
-x,-y,-z
loop_
_atom_site_type_symbol
_atom_site_label
_atom_site_fract_x
_atom_site_fract_y
_atom_site_fract_z
Si Si1 0.382432 0.343228 0.797372
Si Si2 0.596006 0.000152 0.981800
Si Si3 0.838278 0.936810 0.259848
Si Si4 0.728901 0.324493 0.087264
Si Si5 0.010084 0.086723 0.622789
Si Si6 0.186138 0.965927 0.290764
Si Si7 0.867736 0.312972 0.276596
Si Si8 0.527744 0.253792 0.164930
O O1 0.483546 0.666360 0.720873
O O2 0.460929 0.300116 0.790696
O O3 0.240796 0.031043 0.085484
O O4 0.310344 0.299438 0.689524
O O5 0.730371 0.292462 0.928195
O O6 0.500000 0.000000 0.000000
O O7 0.600328 0.973769 0.821486
O O8 0.867155 0.107772 0.317264
O O9 0.854995 0.758857 0.392797
O O10 0.976026 0.281296 0.970104
O O11 0.866037 0.717585 0.908418
O O12 0.579294 0.147357 0.231759
O O13 0.756335 0.199305 0.238163
O O14 0.967667 0.214659 0.583723
O O15 0.000000 0.000000 0.500000
O O16 0.174406 0.784781 0.500506
O O17 0.326612 0.365077 0.120508
#
# Coordination Sequence:
#
# PCOD9076245 Si02
#       8
#     2   2   2   2   2   2   2   2
#     4  10  20  35  55  84 108 138 185 221 277 320
#     4  10  18  34  61  81 100 139 189 225 268 328
#     4  10  20  31  57  78 111 150 182 211 264 325
#     4   9  18  33  56  80 104 146 187 213 261 331
#     4  10  18  33  53  80 114 142 181 216 261 316
#     4   9  20  33  53  78 117 142 176 227 269 309
#     4  10  18  34  52  81 112 148 179 219 260 320
#     4   8  19  35  54  77 107 140 178 231 272 311
#
# _framework density 26.530608000000001
#
# number of rings (size 3 to 8) (size 9 to 14) (size 15 to 20)
#    0.750    1.750    2.500    0.375    0.000    1.000 
#    0.000    0.625    0.000    3.000    0.000    0.000 
#    0.000    0.000    0.000    0.000    0.000    0.000 
#
# Total GULP energy -89330.016486 kJ/mol
# GULP energy per Si atom -5583.126030 kJ/mol
# Density = 2.647022 g / cm^3
# Si number density = 26.530608 Si / 1000 Ang^3
#
#
#
# Elastic Constant Matrix: (Units=GPa)
#
#
# Indices 1 2 3 4 5 6 
#
# 1 145.0824 45.7345 48.3536 26.5780 30.8607 14.5023
# 2 45.7345 115.7841 37.5638 16.9402 18.4733 16.3365
# 3 48.3536 37.5638 105.1421 17.5673 -1.8927 17.8954
# 4 26.5780 16.9402 17.5673 27.9255 9.6365 11.4450
# 5 30.8607 18.4733 -1.8927 9.6365 44.6582 16.8273
# 6 14.5023 16.3365 17.8954 11.4450 16.8273 21.5039
#
#
#
# Elastic Compliance Matrix: (Units=1/GPa)
#
#
# Indices 1 2 3 4 5 6 
#
# 1 0.011546 -0.001578 -0.005233 -0.007158 -0.009356 0.008898
# 2 -0.001578 0.011062 -0.002541 -0.001807 -0.002264 -0.002491
# 3 -0.005233 -0.002541 0.016007 -0.000785 0.011799 -0.016677
# 4 -0.007158 -0.001807 -0.000785 0.052854 0.003224 -0.023799
# 5 -0.009356 -0.002264 0.011799 0.003224 0.043849 -0.037818
# 6 0.008898 -0.002491 -0.016677 -0.023799 -0.037818 0.098533
#
#
# Mechanical properties :
#
#
# Convention : Reuss Voigt Hill
#
# Bulk Modulus (GPa) = 50.22479 69.92359 60.07419
# Shear Modulus (GPa) = 19.29067 34.44130 26.86599
#
# Velocity S-wave (km/s) = 2.69942 3.60692 3.18565
# Velocity P-wave (km/s) = 5.35610 6.61510 6.01861
#
# Compressibility (1/GPa) = 0.01991049
#
# Stress axis : x y z
#
# Youngs Moduli (GPa) = 86.60801 90.40185 62.47140
#
# Poissons Ratio (x) = 0.14270 0.32692
# Poissons Ratio (y) = 0.13671 0.15873
# Poissons Ratio (z) = 0.45322 0.22970
#
# Static dielectric constant tensor:
#      x y z
#    x 2.165900 -0.002470 -0.050990 
#    y -0.002470 2.059650 -0.043500 
#    z -0.050990 -0.043500 2.045820 
# 
# From -- ./inp_files/213618.got.cif
#   From: 2010.05.17/outbox.cif.g08.bks.cpg/sg2_107_cif.got.tgz:213618.got - 2010.06.03 11:33:40.
