data_PCOD9076707
_publ_section_title
;
Structure prediction by ZEFSAII (Michael W. Deem and Ramdas Pophale) SiO2 
 PCOD9076707
Probable space group: P -1
;
_chemical_formula_sum "Si O2"
_cell_formula_units_Z 14
_cell_length_a 5.122702
_cell_length_b 10.358036
_cell_length_c 19.411957
_cell_angle_alpha 48.464891
_cell_angle_beta 59.930945
_cell_angle_gamma 67.491005
_cell_volume 665.220552
_symmetry_space_group_name_H-M "P -1"
_symmetry_group_IT_number 2
_symmetry_cell_setting 'triclinic'
loop_
_space_group_symop_operation_xyz
x,y,z
-x,-y,-z
loop_
_atom_site_type_symbol
_atom_site_label
_atom_site_fract_x
_atom_site_fract_y
_atom_site_fract_z
Si Si1 0.415935 0.892280 0.115312
Si Si2 0.700363 0.949838 0.203174
Si Si3 0.602572 0.831562 0.723092
Si Si4 0.222866 0.003789 0.589282
Si Si5 0.675351 0.497022 0.751711
Si Si6 0.250703 0.415774 0.627093
Si Si7 0.257641 0.392552 0.445286
O O1 0.608656 0.933529 0.141960
O O2 0.463131 0.687044 0.165191
O O3 0.063239 0.940153 0.163938
O O4 0.500000 0.000000 0.000000
O O5 0.607324 0.777846 0.316673
O O6 0.521501 0.112363 0.205493
O O7 0.363451 0.926348 0.668417
O O8 0.616434 0.628946 0.774870
O O9 0.932587 0.903479 0.642113
O O10 0.500000 0.000000 0.500000
O O11 0.133485 0.207950 0.537055
O O12 0.597287 0.601354 0.653764
O O13 0.033155 0.445482 0.712431
O O14 0.008549 0.455594 0.584493
O O15 0.486890 0.558846 0.553051
#
# Coordination Sequence:
#
# PCOD9076707 Si02
#       7
#     2   2   2   2   2   2   2
#     4  11  23  44  72  91 112 158 207 248 301 395
#     4  11  22  43  61  93 128 153 195 258 324 357
#     4  12  25  37  61  92 128 167 194 262 311 335
#     4  12  22  37  56  92 127 166 221 245 276 356
#     4   9  21  36  64  85 118 161 206 234 307 363
#     4   9  17  35  58  77 112 168 194 241 289 361
#     4  10  18  33  59  79 116 159 217 243 261 340
#
# _framework density 21.045650999999999
#
# number of rings (size 3 to 8) (size 9 to 14) (size 15 to 20)
#    0.857    0.571    2.857    3.429    0.000    0.000 
#    0.000    5.714    0.000    0.000    0.000    0.000 
#    0.000    0.000    0.000    0.000    0.000    0.000 
#
# Total GULP energy -78188.964617 kJ/mol
# GULP energy per Si atom -5584.926044 kJ/mol
# Density = 2.099775 g / cm^3
# Si number density = 21.045651 Si / 1000 Ang^3
#
#
#
# Elastic Constant Matrix: (Units=GPa)
#
#
# Indices 1 2 3 4 5 6 
#
# 1 75.6709 1.8824 -4.1346 1.6954 14.9195 10.8388
# 2 1.8824 140.8693 20.2680 1.0530 10.0756 -0.8383
# 3 -4.1346 20.2680 55.2544 -6.8053 12.0466 -3.5819
# 4 1.6954 1.0530 -6.8053 18.4340 -1.3591 -1.3408
# 5 14.9195 10.0756 12.0466 -1.3591 23.7770 5.6656
# 6 10.8388 -0.8383 -3.5819 -1.3408 5.6656 26.6430
#
#
#
# Elastic Compliance Matrix: (Units=1/GPa)
#
#
# Indices 1 2 3 4 5 6 
#
# 1 0.016119 0.000103 0.003115 -0.001424 -0.010890 -0.003891
# 2 0.000103 0.007623 -0.002481 -0.001504 -0.002184 0.000253
# 3 0.003115 -0.002481 0.023505 0.007903 -0.013575 0.005099
# 4 -0.001424 -0.001504 0.007903 0.057694 -0.000260 0.004553
# 5 -0.010890 -0.002184 -0.013575 -0.000260 0.059071 -0.010038
# 6 -0.003891 0.000253 0.005099 0.004553 -0.010038 0.042174
#
#
# Mechanical properties :
#
#
# Convention : Reuss Voigt Hill
#
# Bulk Modulus (GPa) = 20.52506 34.20294 27.36400
# Shear Modulus (GPa) = 22.62920 30.68938 26.65929
#
# Velocity S-wave (km/s) = 3.28265 3.82282 3.56299
# Velocity P-wave (km/s) = 4.91340 5.98100 5.47329
#
# Compressibility (1/GPa) = 0.04872092
#
# Stress axis : x y z
#
# Youngs Moduli (GPa) = 62.03762 131.17567 42.54431
#
# Poissons Ratio (x) = -0.01349 -0.13253
# Poissons Ratio (y) = -0.00638 0.10556
# Poissons Ratio (z) = -0.19325 0.32548
#
# Static dielectric constant tensor:
#      x y z
#    x 1.738700 -0.011110 -0.005260 
#    y -0.011110 1.860380 0.061090 
#    z -0.005260 0.061090 1.783250 
# 
# From -- ./inp_files/112813.got.cif
#   From: 2010.05.17/outbox.cif.g08.bks.cpg/sg2_57_cif.got.tgz:112813.got - 2010.06.03 11:33:40.
