data_PCOD9076928
_publ_section_title
;
Structure prediction by ZEFSAII (Michael W. Deem and Ramdas Pophale) SiO2 
 PCOD9076928
Probable space group: P -1
;
_chemical_formula_sum "Si O2"
_cell_formula_units_Z 12
_cell_length_a 9.712750
_cell_length_b 11.992318
_cell_length_c 27.775038
_cell_angle_alpha 151.340972
_cell_angle_beta 25.981590
_cell_angle_gamma 141.223611
_cell_volume 679.068805
_symmetry_space_group_name_H-M "P -1"
_symmetry_group_IT_number 2
_symmetry_cell_setting 'triclinic'
loop_
_space_group_symop_operation_xyz
x,y,z
-x,-y,-z
loop_
_atom_site_type_symbol
_atom_site_label
_atom_site_fract_x
_atom_site_fract_y
_atom_site_fract_z
Si Si1 0.895830 0.020710 0.802626
Si Si2 0.476410 0.951338 0.327430
Si Si3 0.364907 0.465614 0.294974
Si Si4 0.633427 0.439199 0.093380
Si Si5 0.793632 0.815290 0.330414
Si Si6 0.983335 0.921029 0.556199
O O1 0.776161 0.770106 0.732124
O O2 0.174147 0.992565 0.744359
O O3 0.049119 0.137285 0.752262
O O4 0.626444 0.198575 0.975700
O O5 0.464736 0.674453 0.215090
O O6 0.251004 0.987381 0.458416
O O7 0.332213 0.088548 0.379425
O O8 0.514559 0.415937 0.176373
O O9 0.632591 0.568907 0.283876
O O10 0.101301 0.674304 0.448471
O O11 0.000000 0.500000 0.000000
O O12 0.500000 0.000000 0.500000
O O13 0.024328 0.880564 0.325479
#
# Coordination Sequence:
#
# PCOD9076928 Si02
#       6
#     2   2   2   2   2   2
#     4  11  19  31  56  75  99 129 170 206 242 289
#     4   9  17  33  53  73  96 137 163 202 248 289
#     4  10  19  31  54  79  97 128 167 208 245 289
#     4   9  16  33  53  74  97 130 169 204 239 293
#     4  10  18  34  48  75 102 133 163 201 248 293
#     4   9  18  33  51  71 105 130 164 201 249 294
#
# _framework density 17.671258000000002
#
# number of rings (size 3 to 8) (size 9 to 14) (size 15 to 20)
#    0.000    2.333    6.667    0.500    0.000    3.333 
#    0.000    0.833    0.000    1.000    0.000    0.000 
#    0.000    0.000    0.000    0.000    0.000    0.000 
#
# Total GULP energy -66810.451855 kJ/mol
# GULP energy per Si atom -5567.537655 kJ/mol
# Density = 1.763104 g / cm^3
# Si number density = 17.671258 Si / 1000 Ang^3
#
#
#
# Elastic Constant Matrix: (Units=GPa)
#
#
# Indices 1 2 3 4 5 6 
#
# 1 65.7332 15.2002 20.3391 12.2380 9.3996 10.8928
# 2 15.2002 77.7856 5.2999 25.4355 2.8734 20.0595
# 3 20.3391 5.2999 61.0859 11.8859 11.5268 9.3180
# 4 12.2380 25.4355 11.8859 23.4696 8.0631 5.4759
# 5 9.3996 2.8734 11.5268 8.0631 13.8790 6.8318
# 6 10.8928 20.0595 9.3180 5.4759 6.8318 12.7720
#
#
#
# Elastic Compliance Matrix: (Units=1/GPa)
#
#
# Indices 1 2 3 4 5 6 
#
# 1 0.019675 0.005145 -0.002490 -0.011273 0.004331 -0.020528
# 2 0.005145 0.067456 0.012135 -0.080206 0.082542 -0.128951
# 3 -0.002490 0.012135 0.023214 -0.018589 0.004674 -0.028403
# 4 -0.011273 -0.080206 -0.018589 0.151931 -0.122083 0.149311
# 5 0.004331 0.082542 0.004674 -0.122083 0.218023 -0.201024
# 6 -0.020528 -0.128951 -0.028403 0.149311 -0.201024 0.362568
#
#
# Mechanical properties :
#
#
# Convention : Reuss Voigt Hill
#
# Bulk Modulus (GPa) = 7.14669 31.80922 19.47796
# Shear Modulus (GPa) = 5.81444 20.94182 13.37813
#
# Velocity S-wave (km/s) = 1.81590 3.44623 2.75445
# Velocity P-wave (km/s) = 2.90683 5.82022 4.60025
#
# Compressibility (1/GPa) = 0.13992492
#
# Stress axis : x y z
#
# Youngs Moduli (GPa) = 50.82654 14.82452 43.07742
#
# Poissons Ratio (x) = -0.07627 0.10726
# Poissons Ratio (y) = -0.26149 -0.52276
# Poissons Ratio (z) = 0.12655 -0.17990
#
# Static dielectric constant tensor:
#      x y z
#    x 1.617490 0.018870 0.004840 
#    y 0.018870 1.612540 0.027540 
#    z 0.004840 0.027540 1.638170 
# 
# From -- ./inp_files/161542.got.cif
#   From: 2010.05.17/outbox.cif.g08.bks.cpg/sg2_81_cif.got.tgz:161542.got - 2010.06.03 11:33:40.
