data_PCOD9076426
_publ_section_title
;
Structure prediction by ZEFSAII (Michael W. Deem and Ramdas Pophale) SiO2 
 PCOD9076426
Probable space group: P -1
;
_chemical_formula_sum "Si O2"
_cell_formula_units_Z 14
_cell_length_a 10.176342
_cell_length_b 12.134877
_cell_length_c 8.426679
_cell_angle_alpha 91.028134
_cell_angle_beta 121.848261
_cell_angle_gamma 50.791284
_cell_volume 601.031781
_symmetry_space_group_name_H-M "P -1"
_symmetry_group_IT_number 2
_symmetry_cell_setting 'triclinic'
loop_
_space_group_symop_operation_xyz
x,y,z
-x,-y,-z
loop_
_atom_site_type_symbol
_atom_site_label
_atom_site_fract_x
_atom_site_fract_y
_atom_site_fract_z
Si Si1 0.111659 0.262919 0.479286
Si Si2 0.713045 0.824787 0.766997
Si Si3 0.835489 0.401698 0.806150
Si Si4 0.551274 0.245719 0.349578
Si Si5 0.670351 0.497638 0.035458
Si Si6 0.991979 0.868119 0.340843
Si Si7 0.542163 0.080148 0.908419
O O1 0.221509 0.195960 0.373444
O O2 0.067383 0.171093 0.540933
O O3 0.286693 0.243755 0.695767
O O4 0.859882 0.434841 0.279324
O O5 0.507079 0.848471 0.656434
O O6 0.653074 0.969333 0.818242
O O7 0.926157 0.663511 0.999934
O O8 0.619243 0.593149 0.639881
O O9 0.775294 0.383886 0.941229
O O10 0.892551 0.283684 0.706299
O O11 0.453404 0.334299 0.118911
O O12 0.812544 0.143423 0.518816
O O13 0.500000 0.500000 0.000000
O O14 0.754379 0.033631 0.118849
O O15 0.500000 0.000000 0.000000
#
# Coordination Sequence:
#
# PCOD9076426 Si02
#       7
#     2   2   2   2   2   2   2
#     4  10  18  33  56  77  98 141 181 204 241 320
#     4  10  19  34  55  79 102 134 173 221 253 298
#     4   8  18  30  53  72 108 139 167 196 263 311
#     4  10  19  31  55  81 109 127 169 220 269 286
#     4   9  17  30  54  78 105 130 177 212 246 310
#     4  10  18  34  54  76 105 140 173 207 253 310
#     4   9  20  36  57  71 100 142 181 203 251 316
#
# _framework density 23.293277
#
# number of rings (size 3 to 8) (size 9 to 14) (size 15 to 20)
#    0.857    1.714    1.429    1.286    0.000    0.000 
#    0.000    4.286   12.571    0.000    0.000    0.000 
#    0.000    0.000    0.000    0.000    0.000    0.000 
#
# Total GULP energy -78039.664724 kJ/mol
# GULP energy per Si atom -5574.261766 kJ/mol
# Density = 2.324026 g / cm^3
# Si number density = 23.293277 Si / 1000 Ang^3
#
#
#
# Elastic Constant Matrix: (Units=GPa)
#
#
# Indices 1 2 3 4 5 6 
#
# 1 128.9804 29.1223 64.1429 5.6532 25.1444 -12.1165
# 2 29.1223 75.7027 22.6893 -3.1016 3.0633 -13.7458
# 3 64.1429 22.6893 174.5462 -16.3586 40.3726 -3.7151
# 4 5.6532 -3.1016 -16.3586 16.4140 -17.4680 1.6766
# 5 25.1444 3.0633 40.3726 -17.4680 43.1117 -2.5801
# 6 -12.1165 -13.7458 -3.7151 1.6766 -2.5801 20.8612
#
#
#
# Elastic Compliance Matrix: (Units=1/GPa)
#
#
# Indices 1 2 3 4 5 6 
#
# 1 0.015510 -0.004224 -0.003938 -0.027548 -0.015875 0.005774
# 2 -0.004224 0.016839 -0.001106 0.009949 0.006842 0.008492
# 3 -0.003938 -0.001106 0.008620 0.006623 -0.003157 -0.002403
# 4 -0.027548 0.009949 0.006623 0.156643 0.071911 -0.011961
# 5 -0.015875 0.006842 -0.003157 0.071911 0.063873 -0.003154
# 6 0.005774 0.008492 -0.002403 -0.011961 -0.003154 0.057028
#
#
# Mechanical properties :
#
#
# Convention : Reuss Voigt Hill
#
# Bulk Modulus (GPa) = 44.57795 67.90425 56.24110
# Shear Modulus (GPa) = 14.51275 33.62903 24.07089
#
# Velocity S-wave (km/s) = 2.49879 3.80376 3.21812
# Velocity P-wave (km/s) = 5.24448 6.96467 6.16486
#
# Compressibility (1/GPa) = 0.02243262
#
# Stress axis : x y z
#
# Youngs Moduli (GPa) = 64.47582 59.38718 116.01274
#
# Poissons Ratio (x) = 0.25086 0.45681
# Poissons Ratio (y) = 0.27236 0.12831
# Poissons Ratio (z) = 0.25388 0.06568
#
# Static dielectric constant tensor:
#      x y z
#    x 1.810700 -0.043070 0.023040 
#    y -0.043070 1.950680 -0.037850 
#    z 0.023040 -0.037850 1.959820 
# 
# From -- ./inp_files/207110.got.cif
#   From: 2010.05.17/outbox.cif.g08.bks.cpg/sg2_104_cif.got.tgz:207110.got - 2010.06.03 11:33:40.
