data_PCOD9076218
_publ_section_title
;
Structure prediction by ZEFSAII (Michael W. Deem and Ramdas Pophale) SiO2 
 PCOD9076218
Probable space group: P -1
;
_chemical_formula_sum "Si O2"
_cell_formula_units_Z 12
_cell_length_a 12.363058
_cell_length_b 7.807276
_cell_length_c 8.947686
_cell_angle_alpha 65.958973
_cell_angle_beta 136.956268
_cell_angle_gamma 124.974848
_cell_volume 482.925645
_symmetry_space_group_name_H-M "P -1"
_symmetry_group_IT_number 2
_symmetry_cell_setting 'triclinic'
loop_
_space_group_symop_operation_xyz
x,y,z
-x,-y,-z
loop_
_atom_site_type_symbol
_atom_site_label
_atom_site_fract_x
_atom_site_fract_y
_atom_site_fract_z
Si Si1 0.976710 0.211776 0.400451
Si Si2 0.447692 0.169640 0.042647
Si Si3 0.690291 0.980773 0.381059
Si Si4 0.677119 0.553497 0.512028
Si Si5 0.835496 0.427324 0.968423
Si Si6 0.321397 0.402512 0.021452
O O1 0.165454 0.388768 0.472106
O O2 0.876854 0.184510 0.468087
O O3 0.843790 0.239950 0.136097
O O4 0.000000 0.000000 0.500000
O O5 0.300268 0.203112 0.976294
O O6 0.541493 0.045458 0.264392
O O7 0.382277 0.098938 0.832921
O O8 0.608131 0.399976 0.089680
O O9 0.711454 0.781481 0.534044
O O10 0.686747 0.408674 0.706265
O O11 0.490214 0.449903 0.280265
O O12 0.828502 0.585832 0.030893
O O13 0.000000 0.500000 0.000000
#
# Coordination Sequence:
#
# PCOD9076218 Si02
#       6
#     2   2   2   2   2   2
#     4   9  17  32  55  78 101 133 182 213 251 312
#     4   9  18  30  56  80 106 135 177 220 258 299
#     4   9  16  33  54  78 102 142 175 211 260 312
#     4   9  19  31  54  79 105 139 174 211 264 314
#     4  10  19  33  55  76 107 144 172 211 262 320
#     4  10  18  33  52  84 107 133 177 222 255 307
#
# _framework density 24.848545000000001
#
# number of rings (size 3 to 8) (size 9 to 14) (size 15 to 20)
#    0.000    2.667    1.667    0.500    0.000    0.000 
#    0.000    1.667   18.333    2.000    0.000    0.000 
#    0.000    0.000    0.000    0.000    0.000    0.000 
#
# Total GULP energy -66877.048360 kJ/mol
# GULP energy per Si atom -5573.087363 kJ/mol
# Density = 2.479199 g / cm^3
# Si number density = 24.848545 Si / 1000 Ang^3
#
#
#
# Elastic Constant Matrix: (Units=GPa)
#
#
# Indices 1 2 3 4 5 6 
#
# 1 142.7627 35.6175 4.9912 -3.7650 16.4237 -19.4350
# 2 35.6175 61.0079 39.4413 -24.7365 -4.7262 -9.9687
# 3 4.9912 39.4413 132.9402 -37.9493 3.6397 -3.4179
# 4 -3.7650 -24.7365 -37.9493 39.4235 -3.1031 0.7809
# 5 16.4237 -4.7262 3.6397 -3.1031 29.3549 -8.2301
# 6 -19.4350 -9.9687 -3.4179 0.7809 -8.2301 34.2835
#
#
#
# Elastic Compliance Matrix: (Units=1/GPa)
#
#
# Indices 1 2 3 4 5 6 
#
# 1 0.010014 -0.008440 0.001322 -0.003654 -0.007021 0.001752
# 2 -0.008440 0.033695 -0.005231 0.016304 0.014661 0.007640
# 3 0.001322 -0.005231 0.011207 0.007459 -0.002288 -0.000373
# 4 -0.003654 0.016304 0.007459 0.043091 0.009629 0.004743
# 5 -0.007021 0.014661 -0.002288 0.009629 0.044612 0.010545
# 6 0.001752 0.007640 -0.000373 0.004743 0.010545 0.034770
#
#
# Mechanical properties :
#
#
# Convention : Reuss Voigt Hill
#
# Bulk Modulus (GPa) = 33.09252 55.20120 44.14686
# Shear Modulus (GPa) = 23.56714 37.72308 30.64511
#
# Velocity S-wave (km/s) = 3.08300 3.90053 3.51561
# Velocity P-wave (km/s) = 5.10096 6.52295 5.85528
#
# Compressibility (1/GPa) = 0.03021831
#
# Stress axis : x y z
#
# Youngs Moduli (GPa) = 99.85996 29.67766 89.23143
#
# Poissons Ratio (x) = 0.25049 -0.11799
# Poissons Ratio (y) = 0.84286 0.46676
# Poissons Ratio (z) = -0.13205 0.15524
#
# Static dielectric constant tensor:
#      x y z
#    x 2.067480 0.011380 0.065850 
#    y 0.011380 2.102030 0.025080 
#    z 0.065850 0.025080 2.028060 
# 
# From -- ./inp_files/233968.got.cif
#   From: 2010.05.17/outbox.cif.g08.bks.cpg/sg2_117_cif.got.tgz:233968.got - 2010.06.03 11:33:40.
