data_PCOD9076690
_publ_section_title
;
Structure prediction by ZEFSAII (Michael W. Deem and Ramdas Pophale) SiO2 
 PCOD9076690
Probable space group: P -1
;
_chemical_formula_sum "Si O2"
_cell_formula_units_Z 16
_cell_length_a 25.630526
_cell_length_b 22.448590
_cell_length_c 11.503183
_cell_angle_alpha 146.020259
_cell_angle_beta 25.846213
_cell_angle_gamma 163.549700
_cell_volume 785.707301
_symmetry_space_group_name_H-M "P -1"
_symmetry_group_IT_number 2
_symmetry_cell_setting 'triclinic'
loop_
_space_group_symop_operation_xyz
x,y,z
-x,-y,-z
loop_
_atom_site_type_symbol
_atom_site_label
_atom_site_fract_x
_atom_site_fract_y
_atom_site_fract_z
Si Si1 0.005417 0.705379 0.500184
Si Si2 0.775799 0.449799 0.072985
Si Si3 0.676542 0.227650 0.134915
Si Si4 0.273863 0.245612 0.004498
Si Si5 0.289624 0.915075 0.733692
Si Si6 0.489731 0.739826 0.289631
Si Si7 0.750993 0.889708 0.404404
Si Si8 0.187550 0.745647 0.410122
O O1 0.981820 0.636933 0.565486
O O2 0.728214 0.511506 0.705785
O O3 0.170077 0.937965 0.537122
O O4 0.121774 0.706723 0.183220
O O5 0.820613 0.387013 0.793004
O O6 0.032665 0.712412 0.990520
O O7 0.723487 0.352033 0.143241
O O8 0.522828 0.310204 0.318837
O O9 0.641556 0.265614 0.385433
O O10 0.423681 0.965304 0.216087
O O11 0.321008 0.173922 0.867490
O O12 0.280533 0.221570 0.814912
O O13 0.500000 0.500000 0.000000
O O14 0.984934 0.053258 0.284908
O O15 0.217757 0.816145 0.589758
O O16 0.500000 0.000000 0.500000
O O17 0.393820 0.113519 0.819026
#
# Coordination Sequence:
#
# PCOD9076690 Si02
#       8
#     2   2   2   2   2   2   2   2
#     4  11  18  34  63  92 124 156 202 263 314 377
#     4  11  19  37  58  90 126 162 205 252 307 379
#     4  10  18  33  58  93 124 149 204 257 314 373
#     4  11  23  41  64  94 124 160 218 272 312 356
#     4  11  24  39  56  89 132 171 199 244 317 397
#     4  11  22  38  59  91 127 166 206 255 316 369
#     4  11  21  38  65  96 121 160 212 267 317 358
#     4  10  19  34  57  86 127 160 200 242 316 376
#
# _framework density 20.363817000000001
#
# number of rings (size 3 to 8) (size 9 to 14) (size 15 to 20)
#    0.000    1.250    5.000    3.750    0.000    1.000 
#    2.250    0.625    0.000    0.750    0.000    0.000 
#    0.000    0.000    0.000    0.000    0.000    0.000 
#
# Total GULP energy -89128.940107 kJ/mol
# GULP energy per Si atom -5570.558757 kJ/mol
# Density = 2.031747 g / cm^3
# Si number density = 20.363817 Si / 1000 Ang^3
#
#
#
# Elastic Constant Matrix: (Units=GPa)
#
#
# Indices 1 2 3 4 5 6 
#
# 1 52.4431 21.5876 30.4048 -18.6584 -20.1848 -1.6612
# 2 21.5876 123.9924 37.8899 -28.2041 -5.7991 -2.6951
# 3 30.4048 37.8899 56.3345 -16.4991 -19.6853 5.8727
# 4 -18.6584 -28.2041 -16.4991 37.0676 4.7695 -1.8206
# 5 -20.1848 -5.7991 -19.6853 4.7695 30.4961 -11.4970
# 6 -1.6612 -2.6951 5.8727 -1.8206 -11.4970 25.5972
#
#
#
# Elastic Compliance Matrix: (Units=1/GPa)
#
#
# Indices 1 2 3 4 5 6 
#
# 1 0.039671 0.001273 -0.012068 0.013439 0.022913 0.016725
# 2 0.001273 0.011578 -0.007480 0.006483 -0.001789 0.002675
# 3 -0.012068 -0.007480 0.033969 0.001776 0.010541 -0.004503
# 4 0.013439 0.006483 0.001776 0.038800 0.008040 0.007518
# 5 0.022913 -0.001789 0.010541 0.008040 0.063751 0.028086
# 6 0.016725 0.002675 -0.004503 0.007518 0.028086 0.054617
#
#
# Mechanical properties :
#
#
# Convention : Reuss Voigt Hill
#
# Bulk Modulus (GPa) = 20.54765 45.83716 33.19241
# Shear Modulus (GPa) = 16.94001 28.15805 22.54903
#
# Velocity S-wave (km/s) = 2.88734 3.72257 3.33123
# Velocity P-wave (km/s) = 4.60737 6.40583 5.57954
#
# Compressibility (1/GPa) = 0.04866736
#
# Stress axis : x y z
#
# Youngs Moduli (GPa) = 25.20725 86.36959 29.43889
#
# Poissons Ratio (x) = -0.10996 0.35528
# Poissons Ratio (y) = -0.03209 0.22020
# Poissons Ratio (z) = 0.30421 0.64604
#
# Static dielectric constant tensor:
#      x y z
#    x 1.770240 0.044770 -0.017660 
#    y 0.044770 1.851240 0.004610 
#    z -0.017660 0.004610 1.797010 
# 
# From -- ./inp_files/475545.got.cif
#   From: 2010.05.17/outbox.cif.g08.bks.cpg/sg2_238_cif.got.tgz:475545.got - 2010.06.03 11:33:40.
