data_PCOD9076788
_publ_section_title
;
Structure prediction by ZEFSAII (Michael W. Deem and Ramdas Pophale) SiO2 
 PCOD9076788
Probable space group: P -1
;
_chemical_formula_sum "Si O2"
_cell_formula_units_Z 16
_cell_length_a 7.798190
_cell_length_b 23.426835
_cell_length_c 6.997949
_cell_angle_alpha 42.428774
_cell_angle_beta 116.211912
_cell_angle_gamma 130.803083
_cell_volume 650.826407
_symmetry_space_group_name_H-M "P -1"
_symmetry_group_IT_number 2
_symmetry_cell_setting 'triclinic'
loop_
_space_group_symop_operation_xyz
x,y,z
-x,-y,-z
loop_
_atom_site_type_symbol
_atom_site_label
_atom_site_fract_x
_atom_site_fract_y
_atom_site_fract_z
Si Si1 0.760661 0.280363 0.550592
Si Si2 0.644153 0.814243 0.684623
Si Si3 0.139479 0.870681 0.157463
Si Si4 0.118617 0.219380 0.409560
Si Si5 0.557252 0.562689 0.062752
Si Si6 0.570019 0.971854 0.404333
Si Si7 0.268482 0.593429 0.078452
Si Si8 0.047626 0.646580 0.138057
O O1 0.515391 0.195830 0.550825
O O2 0.911166 0.235814 0.680081
O O3 0.829671 0.378473 0.221010
O O4 0.786846 0.305744 0.720936
O O5 0.870897 0.837523 0.631487
O O6 0.639626 0.889362 0.645799
O O7 0.503462 0.701289 0.979354
O O8 0.346631 0.926116 0.273882
O O9 0.930150 0.840502 0.270563
O O10 0.229061 0.940333 0.843790
O O11 0.360243 0.325524 0.251789
O O12 0.950364 0.261029 0.198943
O O13 0.782633 0.579046 0.229468
O O14 0.500000 0.500000 0.000000
O O15 0.355313 0.527142 0.198724
O O16 0.500000 0.000000 0.500000
O O17 0.104839 0.580726 0.197792
#
# Coordination Sequence:
#
# PCOD9076788 Si02
#       8
#     2   2   2   2   2   2   2   2
#     4   9  17  33  57  80 106 151 199 228 279 349
#     4   8  18  37  53  82 117 153 192 243 288 340
#     4  10  20  34  55  83 112 156 192 236 302 335
#     4   9  18  37  59  78 120 153 195 238 289 356
#     4   9  20  37  59  89 121 149 191 247 293 342
#     4  10  21  34  57  83 116 149 197 248 284 344
#     4   9  18  37  57  79 116 151 196 228 294 344
#     4  10  18  33  60  83 108 156 197 234 284 351
#
# _framework density 24.584128
#
# number of rings (size 3 to 8) (size 9 to 14) (size 15 to 20)
#    1.500    1.250    1.250    0.000    3.500    1.000 
#    2.250    1.250    0.000    3.750    0.000    0.000 
#    0.000    0.000    0.000    0.000    0.000    0.000 
#
# Total GULP energy -89131.055184 kJ/mol
# GULP energy per Si atom -5570.690949 kJ/mol
# Density = 2.452817 g / cm^3
# Si number density = 24.584128 Si / 1000 Ang^3
#
#
#
# Elastic Constant Matrix: (Units=GPa)
#
#
# Indices 1 2 3 4 5 6 
#
# 1 118.5609 47.2209 31.5266 2.1286 -27.7333 -34.4586
# 2 47.2209 98.3033 32.9880 24.0141 -3.4574 -29.8062
# 3 31.5266 32.9880 75.8646 9.2439 -28.1754 -1.3234
# 4 2.1286 24.0141 9.2439 23.7417 1.1885 -1.7363
# 5 -27.7333 -3.4574 -28.1754 1.1885 32.5129 5.8298
# 6 -34.4586 -29.8062 -1.3234 -1.7363 5.8298 43.5679
#
#
#
# Elastic Compliance Matrix: (Units=1/GPa)
#
#
# Indices 1 2 3 4 5 6 
#
# 1 0.015286 -0.006049 -0.000131 0.004741 0.010912 0.006677
# 2 -0.006049 0.024602 -0.010677 -0.018579 -0.013408 0.012776
# 3 -0.000131 -0.010677 0.026689 -0.001486 0.023698 -0.009827
# 4 0.004741 -0.018579 -0.001486 0.060599 -0.000259 -0.006557
# 5 0.010912 -0.013408 0.023698 -0.000259 0.060609 -0.007943
# 6 0.006677 0.012776 -0.009827 -0.006557 -0.007943 0.037477
#
#
# Mechanical properties :
#
#
# Convention : Reuss Voigt Hill
#
# Bulk Modulus (GPa) = 30.42763 57.35553 43.89158
# Shear Modulus (GPa) = 18.52324 32.03070 25.27697
#
# Velocity S-wave (km/s) = 2.74791 3.61349 3.21001
# Velocity P-wave (km/s) = 4.74044 6.38676 5.62417
#
# Compressibility (1/GPa) = 0.03286486
#
# Stress axis : x y z
#
# Youngs Moduli (GPa) = 65.41751 40.64701 37.46855
#
# Poissons Ratio (x) = 0.24587 0.00490
# Poissons Ratio (y) = 0.39571 0.40004
# Poissons Ratio (z) = 0.00855 0.43397
#
# Static dielectric constant tensor:
#      x y z
#    x 2.087080 0.008120 0.010230 
#    y 0.008120 1.995760 -0.067160 
#    z 0.010230 -0.067160 2.045160 
# 
# From -- ./inp_files/52493.got.cif
#   From: 2010.05.17/outbox.cif.g08.bks.cpg/sg2_27_cif.got.tgz:52493.got - 2010.06.03 11:33:40.
