data_PCOD9076271
_publ_section_title
;
Structure prediction by ZEFSAII (Michael W. Deem and Ramdas Pophale) SiO2 
 PCOD9076271
Probable space group: P -1
;
_chemical_formula_sum "Si O2"
_cell_formula_units_Z 16
_cell_length_a 15.540092
_cell_length_b 9.569261
_cell_length_c 11.250085
_cell_angle_alpha 89.162011
_cell_angle_beta 104.935579
_cell_angle_gamma 30.234962
_cell_volume 710.581401
_symmetry_space_group_name_H-M "P -1"
_symmetry_group_IT_number 2
_symmetry_cell_setting 'triclinic'
loop_
_space_group_symop_operation_xyz
x,y,z
-x,-y,-z
loop_
_atom_site_type_symbol
_atom_site_label
_atom_site_fract_x
_atom_site_fract_y
_atom_site_fract_z
Si Si1 0.673622 0.156279 0.297690
Si Si2 0.223395 0.263193 0.563865
Si Si3 0.700028 0.834548 0.684884
Si Si4 0.348349 0.851736 0.194291
Si Si5 0.863622 0.842710 0.111968
Si Si6 0.818735 0.399305 0.857105
Si Si7 0.024033 0.103824 0.169175
Si Si8 0.982059 0.177898 0.430843
O O1 0.494793 0.518095 0.221141
O O2 0.631545 0.054970 0.318262
O O3 0.779095 0.994386 0.209066
O O4 0.816924 0.023414 0.450893
O O5 0.294681 0.177704 0.454394
O O6 0.000000 0.500000 0.500000
O O7 0.190040 0.467252 0.596426
O O8 0.677581 0.716249 0.743092
O O9 0.936953 0.532573 0.803256
O O10 0.570217 0.140937 0.691644
O O11 0.158437 0.049991 0.191186
O O12 0.284632 0.005657 0.042668
O O13 0.956426 0.855986 0.094009
O O14 0.829207 0.233702 0.804516
O O15 0.835608 0.367026 0.006102
O O16 0.966622 0.179594 0.284831
O O17 0.000000 0.000000 0.500000
#
# Coordination Sequence:
#
# PCOD9076271 Si02
#       8
#     2   2   2   2   2   2   2   2
#     4  11  22  36  52  81 118 139 173 226 271 317
#     4  10  18  33  54  75 106 141 173 220 268 308
#     4  10  18  34  55  79 106 140 186 222 259 313
#     4  11  22  32  55  85 108 143 177 222 274 314
#     4   9  18  35  58  75 107 145 185 217 262 312
#     4   8  18  34  54  78 102 140 178 228 254 303
#     4  10  19  32  54  80 108 133 181 220 266 313
#     4  11  21  35  58  80 102 144 188 218 260 326
#
# _framework density 22.516773000000001
#
# number of rings (size 3 to 8) (size 9 to 14) (size 15 to 20)
#    0.750    1.250    2.500    3.750    0.000    2.000 
#    0.000    1.250    0.000    3.000    0.000    8.750 
#    0.000    0.000    0.000    0.000    0.000    0.000 
#
# Total GULP energy -89200.917795 kJ/mol
# GULP energy per Si atom -5575.057362 kJ/mol
# Density = 2.246552 g / cm^3
# Si number density = 22.516773 Si / 1000 Ang^3
#
#
#
# Elastic Constant Matrix: (Units=GPa)
#
#
# Indices 1 2 3 4 5 6 
#
# 1 76.3414 42.2673 30.3524 19.2344 -13.1763 29.5708
# 2 42.2673 107.6790 28.7006 7.8313 -12.5967 36.8336
# 3 30.3524 28.7006 118.0125 27.1686 -37.3394 7.8295
# 4 19.2344 7.8313 27.1686 34.4418 0.6789 3.6545
# 5 -13.1763 -12.5967 -37.3394 0.6789 30.3028 -4.5919
# 6 29.5708 36.8336 7.8295 3.6545 -4.5919 31.6685
#
#
#
# Elastic Compliance Matrix: (Units=1/GPa)
#
#
# Indices 1 2 3 4 5 6 
#
# 1 0.026268 -0.001714 0.000815 -0.012985 0.008984 -0.019935
# 2 -0.001714 0.016384 -0.002555 0.001033 0.000334 -0.016895
# 3 0.000815 -0.002555 0.020737 -0.017032 0.025646 0.002768
# 4 -0.012985 0.001033 -0.017032 0.049414 -0.026462 0.005594
# 5 0.008984 0.000334 0.025646 -0.026462 0.068926 -0.002070
# 6 -0.019935 -0.016895 0.002768 0.005594 -0.002070 0.068212
#
#
# Mechanical properties :
#
#
# Convention : Reuss Voigt Hill
#
# Bulk Modulus (GPa) = 17.70494 56.07483 36.88988
# Shear Modulus (GPa) = 18.13733 32.66347 25.40040
#
# Velocity S-wave (km/s) = 2.84122 3.81284 3.36231
# Velocity P-wave (km/s) = 4.31780 6.65893 5.61181
#
# Compressibility (1/GPa) = 0.05648142
#
# Stress axis : x y z
#
# Youngs Moduli (GPa) = 38.06948 61.03658 48.22261
#
# Poissons Ratio (x) = 0.10460 -0.03932
# Poissons Ratio (y) = 0.06524 0.12322
# Poissons Ratio (z) = -0.03104 0.15596
#
# Static dielectric constant tensor:
#      x y z
#    x 1.907900 -0.042360 0.081030 
#    y -0.042360 1.844100 -0.066990 
#    z 0.081030 -0.066990 1.881110 
# 
# From -- ./inp_files/437997.got.cif
#   From: 2010.05.17/outbox.cif.g08.bks.cpg/sg2_219_cif.got.tgz:437997.got - 2010.06.03 11:33:40.
