data_PCOD9076816
_publ_section_title
;
Structure prediction by ZEFSAII (Michael W. Deem and Ramdas Pophale) SiO2 
 PCOD9076816
Probable space group: P -1
;
_chemical_formula_sum "Si O2"
_cell_formula_units_Z 14
_cell_length_a 7.837271
_cell_length_b 10.165446
_cell_length_c 17.835453
_cell_angle_alpha 52.082047
_cell_angle_beta 42.356529
_cell_angle_gamma 76.711127
_cell_volume 684.725122
_symmetry_space_group_name_H-M "P -1"
_symmetry_group_IT_number 2
_symmetry_cell_setting 'triclinic'
loop_
_space_group_symop_operation_xyz
x,y,z
-x,-y,-z
loop_
_atom_site_type_symbol
_atom_site_label
_atom_site_fract_x
_atom_site_fract_y
_atom_site_fract_z
Si Si1 0.142848 0.225442 0.875454
Si Si2 0.140127 0.571706 0.009357
Si Si3 0.478491 0.063971 0.611701
Si Si4 0.320559 0.086149 0.261564
Si Si5 0.445709 0.867257 0.164852
Si Si6 0.969222 0.144918 0.806926
Si Si7 0.865011 0.205468 0.311686
O O1 0.462668 0.272577 0.772204
O O2 0.010445 0.306436 0.951268
O O3 0.077812 0.276737 0.796771
O O4 0.000000 0.000000 0.000000
O O5 0.079166 0.399611 0.142993
O O6 0.464824 0.707836 0.857705
O O7 0.000000 0.500000 0.000000
O O8 0.681178 0.220236 0.435352
O O9 0.221302 0.096670 0.717255
O O10 0.653248 0.028743 0.634874
O O11 0.333350 0.894394 0.659768
O O12 0.029179 0.088651 0.330752
O O13 0.428990 0.013867 0.178695
O O14 0.155785 0.783049 0.244976
O O15 0.696764 0.965934 0.988141
#
# Coordination Sequence:
#
# PCOD9076816 Si02
#       7
#     2   2   2   2   2   2   2
#     4  10  19  37  59  88 121 154 204 251 309 367
#     4  12  24  41  64  96 132 161 204 271 317 356
#     4  11  22  41  63  88 127 174 209 247 310 386
#     4  12  20  41  66  92 123 167 210 259 311 372
#     4  10  19  31  64  95 111 153 219 253 300 361
#     4  10  18  33  60  89 118 151 209 258 296 359
#     4  11  26  39  58  95 131 167 206 255 318 375
#
# _framework density 20.446162000000001
#
# number of rings (size 3 to 8) (size 9 to 14) (size 15 to 20)
#    0.000    1.143    7.143    1.714    0.000    0.000 
#    2.571    0.714    0.000    0.857    0.000    0.000 
#    0.000    0.000    0.000    0.000    0.000    0.000 
#
# Total GULP energy -78043.205839 kJ/mol
# GULP energy per Si atom -5574.514703 kJ/mol
# Density = 2.039963 g / cm^3
# Si number density = 20.446162 Si / 1000 Ang^3
#
#
#
# Elastic Constant Matrix: (Units=GPa)
#
#
# Indices 1 2 3 4 5 6 
#
# 1 165.5031 32.8722 5.0300 8.6911 5.7377 5.5756
# 2 32.8722 73.7425 5.7778 28.6175 4.1423 11.1643
# 3 5.0300 5.7778 43.2111 22.1751 10.3169 7.1556
# 4 8.6911 28.6175 22.1751 25.7077 0.9924 -0.7733
# 5 5.7377 4.1423 10.3169 0.9924 15.4555 9.0332
# 6 5.5756 11.1643 7.1556 -0.7733 9.0332 29.3521
#
#
#
# Elastic Compliance Matrix: (Units=1/GPa)
#
#
# Indices 1 2 3 4 5 6 
#
# 1 0.007101 -0.009062 -0.008533 0.015078 0.002251 0.003883
# 2 -0.009062 0.104457 0.122661 -0.218353 -0.060277 -0.055114
# 3 -0.008533 0.122661 0.200099 -0.304411 -0.102681 -0.070235
# 4 0.015078 -0.218353 -0.304411 0.537337 0.150107 0.122359
# 5 0.002251 -0.060277 -0.102681 0.150107 0.132702 0.010646
# 6 0.003883 -0.055114 -0.070235 0.122359 0.010646 0.071364
#
#
# Mechanical properties :
#
#
# Convention : Reuss Voigt Hill
#
# Bulk Modulus (GPa) = 1.91649 41.09076 21.50363
# Shear Modulus (GPa) = 4.91711 30.02150 17.46931
#
# Velocity S-wave (km/s) = 1.55246 3.83602 2.92619
# Velocity P-wave (km/s) = 2.03786 6.30561 4.68581
#
# Compressibility (1/GPa) = 0.52178716
#
# Stress axis : x y z
#
# Youngs Moduli (GPa) = 140.82808 9.57334 4.99754
#
# Poissons Ratio (x) = 0.08676 0.04264
# Poissons Ratio (y) = 1.27623 -0.61300
# Poissons Ratio (z) = 1.20167 -1.17427
#
# Static dielectric constant tensor:
#      x y z
#    x 1.836150 -0.005060 0.012400 
#    y -0.005060 1.709460 0.010100 
#    z 0.012400 0.010100 1.772980 
# 
# From -- ./inp_files/556944.got.cif
#   From: 2010.05.17/outbox.cif.g08.bks.cpg/sg2_279_cif.got.tgz:556944.got - 2010.06.03 11:33:40.
