data_PCOD9076432
_publ_section_title
;
Structure prediction by ZEFSAII (Michael W. Deem and Ramdas Pophale) SiO2 
 PCOD9076432
Probable space group: P -1
;
_chemical_formula_sum "Si O2"
_cell_formula_units_Z 14
_cell_length_a 16.900065
_cell_length_b 8.662044
_cell_length_c 12.063661
_cell_angle_alpha 42.071025
_cell_angle_beta 35.810680
_cell_angle_gamma 27.163977
_cell_volume 470.306304
_symmetry_space_group_name_H-M "P -1"
_symmetry_group_IT_number 2
_symmetry_cell_setting 'triclinic'
loop_
_space_group_symop_operation_xyz
x,y,z
-x,-y,-z
loop_
_atom_site_type_symbol
_atom_site_label
_atom_site_fract_x
_atom_site_fract_y
_atom_site_fract_z
Si Si1 0.340825 0.425292 0.926237
Si Si2 0.216784 0.673491 0.378297
Si Si3 0.388090 0.533280 0.478399
Si Si4 0.954163 0.180745 0.723475
Si Si5 0.812151 0.901923 0.323732
Si Si6 0.824990 0.824073 0.101535
Si Si7 0.596613 0.063872 0.029969
O O1 0.546846 0.287575 0.723058
O O2 0.199841 0.813385 0.854096
O O3 0.394002 0.306011 0.057751
O O4 0.286931 0.280957 0.985744
O O5 0.352144 0.446321 0.450175
O O6 0.312805 0.795880 0.165339
O O7 0.000000 0.000000 0.500000
O O8 0.164854 0.587571 0.375083
O O9 0.179801 0.814022 0.626948
O O10 0.591190 0.166638 0.489637
O O11 0.003476 0.312532 0.688475
O O12 0.857389 0.057092 0.931138
O O13 0.830340 0.754124 0.262918
O O14 0.627510 0.000945 0.160685
O O15 0.000000 0.500000 0.000000
#
# Coordination Sequence:
#
# PCOD9076432 Si02
#       7
#     2   2   2   2   2   2   2
#     4   8  17  31  56  78 105 131 183 220 258 313
#     4   8  15  29  51  84 111 143 172 206 265 328
#     4   8  17  33  56  80 106 138 183 213 262 321
#     4  10  18  33  56  79 107 142 173 216 277 318
#     4  10  20  34  54  83 106 138 188 219 259 322
#     4  11  23  35  52  76 112 142 181 224 272 314
#     4   9  16  32  51  80 103 144 168 219 266 311
#
# _framework density 29.767835000000002
#
# number of rings (size 3 to 8) (size 9 to 14) (size 15 to 20)
#    0.857    2.000    0.000    1.714    0.000    0.571 
#    0.000    0.714    0.000    0.000    0.000   13.000 
#    0.000    0.000    0.000    0.000    0.000    0.000 
#
# Total GULP energy -78274.597842 kJ/mol
# GULP energy per Si atom -5591.042703 kJ/mol
# Density = 2.970008 g / cm^3
# Si number density = 29.767835 Si / 1000 Ang^3
#
#
#
# Elastic Constant Matrix: (Units=GPa)
#
#
# Indices 1 2 3 4 5 6 
#
# 1 328.6435 19.7153 74.2613 4.2255 23.3728 -0.0448
# 2 19.7153 70.4738 4.5065 11.6116 -8.2072 11.2960
# 3 74.2613 4.5065 61.6439 3.4140 5.1064 -2.3970
# 4 4.2255 11.6116 3.4140 30.8589 7.1436 -5.2757
# 5 23.3728 -8.2072 5.1064 7.1436 72.7577 3.0157
# 6 -0.0448 11.2960 -2.3970 -5.2757 3.0157 63.8900
#
#
#
# Elastic Compliance Matrix: (Units=1/GPa)
#
#
# Indices 1 2 3 4 5 6 
#
# 1 0.004339 -0.001176 -0.005072 0.000722 -0.001247 0.000139
# 2 -0.001176 0.016703 0.000207 -0.007509 0.003139 -0.003714
# 3 -0.005072 0.000207 0.022424 -0.001808 0.000230 0.000641
# 4 0.000722 -0.007509 -0.001808 0.037222 -0.004796 0.004560
# 5 -0.001247 0.003139 0.000230 -0.004796 0.015022 -0.001652
# 6 0.000139 -0.003714 0.000641 0.004560 -0.001652 0.016787
#
#
# Mechanical properties :
#
#
# Convention : Reuss Voigt Hill
#
# Bulk Modulus (GPa) = 31.86400 73.08083 52.47241
# Shear Modulus (GPa) = 37.02574 57.65319 47.33947
#
# Velocity S-wave (km/s) = 3.53061 4.40564 3.99217
# Velocity P-wave (km/s) = 5.22950 7.10515 6.23822
#
# Compressibility (1/GPa) = 0.03138338
#
# Stress axis : x y z
#
# Youngs Moduli (GPa) = 230.47024 59.86769 44.59581
#
# Poissons Ratio (x) = 0.07040 0.22621
# Poissons Ratio (y) = 0.27103 -0.00923
# Poissons Ratio (z) = 1.16903 -0.01239
#
# Static dielectric constant tensor:
#      x y z
#    x 2.318940 0.002850 0.084800 
#    y 0.002850 2.449740 0.099410 
#    z 0.084800 0.099410 2.444620 
# 
# From -- ./inp_files/444319.got.cif
#   From: 2010.05.17/outbox.cif.g08.bks.cpg/sg2_223_cif.got.tgz:444319.got - 2010.06.03 11:33:40.
