data_PCOD9076418
_publ_section_title
;
Structure prediction by ZEFSAII (Michael W. Deem and Ramdas Pophale) SiO2 
 PCOD9076418
Probable space group: P -1
;
_chemical_formula_sum "Si O2"
_cell_formula_units_Z 16
_cell_length_a 19.843355
_cell_length_b 11.348089
_cell_length_c 11.386302
_cell_angle_alpha 47.823052
_cell_angle_beta 149.878626
_cell_angle_gamma 136.557238
_cell_volume 877.751513
_symmetry_space_group_name_H-M "P -1"
_symmetry_group_IT_number 2
_symmetry_cell_setting 'triclinic'
loop_
_space_group_symop_operation_xyz
x,y,z
-x,-y,-z
loop_
_atom_site_type_symbol
_atom_site_label
_atom_site_fract_x
_atom_site_fract_y
_atom_site_fract_z
Si Si1 0.342922 0.439734 0.868811
Si Si2 0.578684 0.910326 0.545512
Si Si3 0.000879 0.881961 0.971004
Si Si4 0.732636 0.557358 0.742658
Si Si5 0.788398 0.945532 0.041272
Si Si6 0.766914 0.266085 0.856846
Si Si7 0.782849 0.290452 0.586736
Si Si8 0.409487 0.433250 0.247086
O O1 0.256378 0.558336 0.625294
O O2 0.500000 0.500000 0.000000
O O3 0.244125 0.238457 0.827900
O O4 0.371672 0.453133 0.043100
O O5 0.636107 0.915690 0.762304
O O6 0.407231 0.826719 0.330306
O O7 0.631202 0.771905 0.655782
O O8 0.650235 0.106874 0.482075
O O9 0.079090 0.752013 0.213854
O O10 0.095055 0.997859 0.927532
O O11 0.843362 0.754715 0.774612
O O12 0.000000 0.000000 0.000000
O O13 0.808206 0.434446 0.886202
O O14 0.583175 0.525265 0.468473
O O15 0.677400 0.508090 0.826017
O O16 0.825085 0.113867 0.065310
O O17 0.796898 0.316139 0.731762
#
# Coordination Sequence:
#
# PCOD9076418 Si02
#       8
#     2   2   2   2   2   2   2   2
#     4  11  19  33  55  81 113 138 169 218 265 310
#     4   8  13  28  48  72  99 126 173 217 249 290
#     4  10  20  36  56  75 102 140 181 223 260 303
#     4  10  18  33  56  76 102 136 181 225 256 302
#     4   9  18  29  48  76 101 134 176 210 252 307
#     4   9  16  29  51  76 100 133 175 220 257 295
#     4  10  19  29  53  83 105 137 175 211 261 321
#     4   9  19  32  54  81 102 135 178 219 264 309
#
# _framework density 18.228394000000002
#
# number of rings (size 3 to 8) (size 9 to 14) (size 15 to 20)
#    0.000    2.750    0.000    6.750    0.000    2.000 
#    0.000    2.500    0.000   31.500    0.000    0.000 
#    0.000    0.000    0.000    0.000    0.000    0.000 
#
# Total GULP energy -89087.127674 kJ/mol
# GULP energy per Si atom -5567.945480 kJ/mol
# Density = 1.818691 g / cm^3
# Si number density = 18.228394 Si / 1000 Ang^3
#
#
#
# Elastic Constant Matrix: (Units=GPa)
#
#
# Indices 1 2 3 4 5 6 
#
# 1 91.1645 49.0909 27.1970 -14.4447 8.5802 -24.9527
# 2 49.0909 139.1513 37.2624 -18.6385 4.0599 -14.2650
# 3 27.1970 37.2624 41.0917 -23.9139 2.6743 0.6118
# 4 -14.4447 -18.6385 -23.9139 35.2253 1.6365 1.7370
# 5 8.5802 4.0599 2.6743 1.6365 16.9212 -1.2953
# 6 -24.9527 -14.2650 0.6118 1.7370 -1.2953 34.8670
#
#
#
# Elastic Compliance Matrix: (Units=1/GPa)
#
#
# Indices 1 2 3 4 5 6 
#
# 1 0.019678 -0.002593 -0.011154 -0.001217 -0.006478 0.013038
# 2 -0.002593 0.010513 -0.008875 -0.001685 0.000565 0.002706
# 3 -0.011154 -0.008875 0.058720 0.031569 -0.005653 -0.014426
# 4 -0.001217 -0.001685 0.031569 0.049093 -0.009091 -0.004898
# 5 -0.006478 0.000565 -0.005653 -0.009091 0.063906 -0.001478
# 6 0.013038 0.002706 -0.014426 -0.004898 -0.001478 0.039560
#
#
# Mechanical properties :
#
#
# Convention : Reuss Voigt Hill
#
# Bulk Modulus (GPa) = 22.89973 55.38978 39.14475
# Shear Modulus (GPa) = 16.59638 27.92652 22.26145
#
# Velocity S-wave (km/s) = 3.02067 3.91837 3.49843
# Velocity P-wave (km/s) = 4.97553 7.13610 6.15142
#
# Compressibility (1/GPa) = 0.04366864
#
# Stress axis : x y z
#
# Youngs Moduli (GPa) = 50.81723 95.12078 17.02984
#
# Poissons Ratio (x) = 0.24664 0.18994
# Poissons Ratio (y) = 0.13177 0.15114
# Poissons Ratio (z) = 0.56679 0.84420
#
# Static dielectric constant tensor:
#      x y z
#    x 1.651260 -0.023580 0.036040 
#    y -0.023580 1.693490 -0.003480 
#    z 0.036040 -0.003480 1.634770 
# 
# From -- ./inp_files/422074.got.cif
#   From: 2010.05.17/outbox.cif.g08.bks.cpg/sg2_212_cif.got.tgz:422074.got - 2010.06.03 11:33:40.
