data_PCOD9076413
_publ_section_title
;
Structure prediction by ZEFSAII (Michael W. Deem and Ramdas Pophale) SiO2 
 PCOD9076413
Probable space group: P -1
;
_chemical_formula_sum "Si O2"
_cell_formula_units_Z 16
_cell_length_a 6.955904
_cell_length_b 9.937580
_cell_length_c 10.566941
_cell_angle_alpha 103.526264
_cell_angle_beta 101.282387
_cell_angle_gamma 115.998381
_cell_volume 600.006940
_symmetry_space_group_name_H-M "P -1"
_symmetry_group_IT_number 2
_symmetry_cell_setting 'triclinic'
loop_
_space_group_symop_operation_xyz
x,y,z
-x,-y,-z
loop_
_atom_site_type_symbol
_atom_site_label
_atom_site_fract_x
_atom_site_fract_y
_atom_site_fract_z
Si Si1 0.075548 0.738301 0.620162
Si Si2 0.348209 0.028777 0.392639
Si Si3 0.332372 0.262905 0.278300
Si Si4 0.451308 0.590141 0.259839
Si Si5 0.162319 0.432704 0.972264
Si Si6 0.841665 0.933746 0.335461
Si Si7 0.018031 0.456572 0.693617
Si Si8 0.056072 0.910462 0.113775
O O1 0.222223 0.927448 0.654343
O O2 0.857694 0.730411 0.658469
O O3 0.145759 0.642536 0.705426
O O4 0.014612 0.647407 0.458341
O O5 0.247405 0.910455 0.232955
O O6 0.500000 0.000000 0.500000
O O7 0.456065 0.203702 0.380094
O O8 0.472634 0.441437 0.282847
O O9 0.106789 0.990259 0.417197
O O10 0.196983 0.100271 0.134282
O O11 0.659186 0.768248 0.338589
O O12 0.229638 0.580557 0.295948
O O13 0.396168 0.553780 0.096018
O O14 0.140932 0.419830 0.815435
O O15 0.057578 0.264436 0.998514
O O16 0.000000 0.500000 0.000000
O O17 0.863272 0.899191 0.180707
#
# Coordination Sequence:
#
# PCOD9076413 Si02
#       8
#     2   2   2   2   2   2   2   2
#     4   8  15  35  58  88 127 171 228 273 313 394
#     4   7  14  33  61  89 121 161 216 265 317 408
#     4   7  16  31  59  92 127 164 218 273 326 386
#     4  10  18  33  55  95 138 171 213 271 325 384
#     4  10  20  34  58  90 127 170 227 270 313 386
#     4   8  18  32  60  92 131 165 212 270 341 387
#     4   9  18  32  61  88 122 181 228 265 318 380
#     4   7  17  34  57  88 117 165 226 256 324 388
#
# _framework density 26.666357999999999
#
# number of rings (size 3 to 8) (size 9 to 14) (size 15 to 20)
#    1.500    2.250    0.000    0.000    0.000    1.500 
#    0.000    3.750    5.500    9.000    0.000   15.750 
#    0.000    0.000    0.000    0.000    0.000   33.875 
#
# Total GULP energy -89321.806394 kJ/mol
# GULP energy per Si atom -5582.612900 kJ/mol
# Density = 2.660566 g / cm^3
# Si number density = 26.666358 Si / 1000 Ang^3
#
#
#
# Elastic Constant Matrix: (Units=GPa)
#
#
# Indices 1 2 3 4 5 6 
#
# 1 81.2768 56.8993 11.0745 1.5553 -4.3845 -3.7111
# 2 56.8993 272.7805 57.5196 6.6823 20.9932 -13.9005
# 3 11.0745 57.5196 62.3305 19.2769 0.0035 -3.4085
# 4 1.5553 6.6823 19.2769 46.9075 -4.1867 1.1297
# 5 -4.3845 20.9932 0.0035 -4.1867 34.7900 -1.1829
# 6 -3.7111 -13.9005 -3.4085 1.1297 -1.1829 58.8602
#
#
#
# Elastic Compliance Matrix: (Units=1/GPa)
#
#
# Indices 1 2 3 4 5 6 
#
# 1 0.014928 -0.003541 0.000589 0.000123 0.004040 0.000218
# 2 -0.003541 0.005751 -0.004937 0.000972 -0.003773 0.000754
# 3 0.000589 -0.004937 0.023202 -0.008681 0.002020 0.000422
# 4 0.000123 0.000972 -0.008681 0.024976 0.002412 -0.000696
# 5 0.004040 -0.003773 0.002020 0.002412 0.031822 0.000074
# 6 0.000218 0.000754 0.000422 -0.000696 0.000074 0.017221
#
#
# Mechanical properties :
#
#
# Convention : Reuss Voigt Hill
#
# Bulk Modulus (GPa) = 35.58278 74.15272 54.86775
# Shear Modulus (GPa) = 34.95424 47.50449 41.22937
#
# Velocity S-wave (km/s) = 3.62442 4.22529 3.93634
# Velocity P-wave (km/s) = 5.55769 7.18833 6.42495
#
# Compressibility (1/GPa) = 0.02810348
#
# Stress axis : x y z
#
# Youngs Moduli (GPa) = 66.98946 173.89760 43.09908
#
# Poissons Ratio (x) = 0.61573 -0.02538
# Poissons Ratio (y) = 0.23720 0.21277
# Poissons Ratio (z) = -0.03945 0.85848
#
# Static dielectric constant tensor:
#      x y z
#    x 2.151390 0.031930 -0.054680 
#    y 0.031930 2.106640 -0.050670 
#    z -0.054680 -0.050670 2.441960 
# 
# From -- ./inp_files/390472.got.cif
#   From: 2010.05.17/outbox.cif.g08.bks.cpg/sg2_196_cif.got.tgz:390472.got - 2010.06.03 11:33:40.
