data_PCOD9076046
_publ_section_title
;
Structure prediction by ZEFSAII (Michael W. Deem and Ramdas Pophale) SiO2 
 PCOD9076046
Probable space group: P -1
;
_chemical_formula_sum "Si O2"
_cell_formula_units_Z 16
_cell_length_a 22.105835
_cell_length_b 13.749703
_cell_length_c 8.109513
_cell_angle_alpha 39.083920
_cell_angle_beta 30.498799
_cell_angle_gamma 32.774441
_cell_volume 665.072234
_symmetry_space_group_name_H-M "P -1"
_symmetry_group_IT_number 2
_symmetry_cell_setting 'triclinic'
loop_
_space_group_symop_operation_xyz
x,y,z
-x,-y,-z
loop_
_atom_site_type_symbol
_atom_site_label
_atom_site_fract_x
_atom_site_fract_y
_atom_site_fract_z
Si Si1 0.336775 0.718066 0.023106
Si Si2 0.128488 0.428755 0.555815
Si Si3 0.908343 0.346030 0.324446
Si Si4 0.501452 0.685048 0.377618
Si Si5 0.309499 0.052375 0.493365
Si Si6 0.395645 0.671662 0.292448
Si Si7 0.970153 0.779648 0.265061
Si Si8 0.917028 0.005871 0.421003
O O1 0.227603 0.659575 0.400649
O O2 0.443731 0.656969 0.008018
O O3 0.393358 0.654309 0.786045
O O4 0.276325 0.933002 0.852450
O O5 0.137862 0.520352 0.581707
O O6 0.274563 0.236483 0.425935
O O7 0.073840 0.569767 0.346792
O O8 0.998752 0.398511 0.929490
O O9 0.017547 0.140396 0.397797
O O10 0.473537 0.688605 0.246193
O O11 0.634140 0.488020 0.376303
O O12 0.457699 0.881219 0.295319
O O13 0.191180 0.143563 0.507768
O O14 0.249195 0.864673 0.371546
O O15 0.966137 0.880962 0.308179
O O16 0.025019 0.861406 0.893672
#
# Coordination Sequence:
#
# PCOD9076046 Si02
#       8
#     2   2   2   2   2   2   2   2
#     4  10  21  37  64  86 120 149 202 250 290 346
#     4  10  22  33  55  84 128 161 184 237 305 360
#     4  10  21  38  53  92 122 153 199 235 295 372
#     4   9  22  38  56  91 119 145 208 252 293 336
#     4  10  19  37  56  86 116 158 189 246 292 350
#     4  11  20  35  61  90 113 156 195 260 291 335
#     4  10  19  33  53  87 121 149 194 236 297 356
#     4  10  18  32  59  86 115 151 193 241 293 347
#
# _framework density 24.057537
#
# number of rings (size 3 to 8) (size 9 to 14) (size 15 to 20)
#    0.750    1.250    2.500    1.500    5.250    1.000 
#    0.000    0.000    0.000    1.500    0.000    0.000 
#    0.000    0.000    0.000    0.000    0.000    0.000 
#
# Total GULP energy -89098.683818 kJ/mol
# GULP energy per Si atom -5568.667739 kJ/mol
# Density = 2.400278 g / cm^3
# Si number density = 24.057537 Si / 1000 Ang^3
#
#
#
# Elastic Constant Matrix: (Units=GPa)
#
#
# Indices 1 2 3 4 5 6 
#
# 1 92.1313 36.4010 37.5178 -14.8694 22.0383 5.3074
# 2 36.4010 126.3404 31.6041 -27.8565 15.2297 21.2184
# 3 37.5178 31.6041 77.3822 -22.5084 9.5606 4.0456
# 4 -14.8694 -27.8565 -22.5084 34.1743 4.0137 5.5106
# 5 22.0383 15.2297 9.5606 4.0137 28.9344 -2.7802
# 6 5.3074 21.2184 4.0456 5.5106 -2.7802 39.5424
#
#
#
# Elastic Compliance Matrix: (Units=1/GPa)
#
#
# Indices 1 2 3 4 5 6 
#
# 1 0.017020 -0.000351 -0.004638 0.006060 -0.012407 -0.003338
# 2 -0.000351 0.014059 0.000441 0.014462 -0.010273 -0.010280
# 3 -0.004638 0.000441 0.019409 0.012327 -0.005176 -0.003682
# 4 0.006060 0.014462 0.012327 0.058078 -0.026257 -0.019775
# 5 -0.012407 -0.010273 -0.005176 -0.026257 0.056243 0.015321
# 6 -0.003338 -0.010280 -0.003682 -0.019775 0.015321 0.035463
#
#
# Mechanical properties :
#
#
# Convention : Reuss Voigt Hill
#
# Bulk Modulus (GPa) = 24.15911 56.32219 40.24065
# Shear Modulus (GPa) = 22.40482 33.21896 27.81189
#
# Velocity S-wave (km/s) = 3.05503 3.71996 3.40377
# Velocity P-wave (km/s) = 4.74429 6.47403 5.67545
#
# Compressibility (1/GPa) = 0.04139225
#
# Stress axis : x y z
#
# Youngs Moduli (GPa) = 58.75495 71.12671 51.52259
#
# Poissons Ratio (x) = 0.02497 0.23898
# Poissons Ratio (y) = 0.02062 -0.02274
# Poissons Ratio (z) = 0.27253 -0.03140
#
# Static dielectric constant tensor:
#      x y z
#    x 1.931080 0.075260 0.012420 
#    y 0.075260 2.137490 0.035800 
#    z 0.012420 0.035800 1.980680 
# 
# From -- ./inp_files/354035.got.cif
#   From: 2010.05.17/outbox.cif.g08.bks.cpg/sg2_178_cif.got.tgz:354035.got - 2010.06.03 11:33:40.
