data_PCOD9076136
_publ_section_title
;
Structure prediction by ZEFSAII (Michael W. Deem and Ramdas Pophale) SiO2 
 PCOD9076136
Probable space group: P -1
;
_chemical_formula_sum "Si O2"
_cell_formula_units_Z 15
_cell_length_a 11.809524
_cell_length_b 11.677699
_cell_length_c 8.766653
_cell_angle_alpha 107.873985
_cell_angle_beta 39.607016
_cell_angle_gamma 126.752323
_cell_volume 588.789510
_symmetry_space_group_name_H-M "P -1"
_symmetry_group_IT_number 2
_symmetry_cell_setting 'triclinic'
loop_
_space_group_symop_operation_xyz
x,y,z
-x,-y,-z
loop_
_atom_site_type_symbol
_atom_site_label
_atom_site_fract_x
_atom_site_fract_y
_atom_site_fract_z
Si Si1 0.899717 0.456853 0.324298
Si Si2 0.737149 0.753703 0.803439
Si Si3 0.494137 0.169039 0.719626
Si Si4 0.500000 0.500000 0.500000
Si Si5 0.137141 0.738439 0.003504
Si Si6 0.366744 0.034797 0.458568
Si Si7 0.144486 0.164270 0.620974
Si Si8 0.719103 0.542465 0.966314
O O1 0.657446 0.349434 0.600282
O O2 0.968520 0.612612 0.249280
O O3 0.882446 0.357471 0.159364
O O4 0.096196 0.486308 0.233333
O O5 0.875222 0.828310 0.537457
O O6 0.506273 0.602518 0.923845
O O7 0.675678 0.854493 0.988100
O O8 0.810911 0.688700 0.828711
O O9 0.393622 0.091390 0.628679
O O10 0.641771 0.113277 0.591052
O O11 0.369841 0.323639 0.506191
O O12 0.660075 0.559091 0.205781
O O13 0.049298 0.835371 0.101465
O O14 0.394891 0.843476 0.820314
O O15 0.179300 0.040067 0.580000
#
# Coordination Sequence:
#
# PCOD9076136 Si02
#       8
#     2   2   2   1   2   2   2   2
#     4  10  21  37  63  95 122 156 211 261 311 356
#     4  10  23  36  58  93 129 161 204 249 331 364
#     4  10  23  43  62  90 127 164 202 268 307 380
#     4  10  18  32  64  86 118 158 204 252 304 354
#     4  10  21  38  64  99 118 156 220 260 294 380
#     4  10  23  45  66  86 126 169 214 251 317 364
#     4  11  22  38  64  91 121 171 203 259 309 378
#     4  10  20  36  57  94 124 161 200 260 311 370
#
# _framework density 25.475995999999999
#
# number of rings (size 3 to 8) (size 9 to 14) (size 15 to 20)
#    0.000    1.867    1.333    2.400    9.333    1.067 
#    4.800    2.667    0.000    0.000    0.000    0.000 
#    0.000    0.000    0.000    0.000    0.000    0.000 
#
# Total GULP energy -83744.463311 kJ/mol
# GULP energy per Si atom -5582.964221 kJ/mol
# Density = 2.541801 g / cm^3
# Si number density = 25.475996 Si / 1000 Ang^3
#
#
#
# Elastic Constant Matrix: (Units=GPa)
#
#
# Indices 1 2 3 4 5 6 
#
# 1 60.2070 10.6431 22.3307 11.3631 -12.9335 -24.0299
# 2 10.6431 107.4975 15.1743 -3.7602 1.7989 -9.7732
# 3 22.3307 15.1743 93.9772 14.8394 8.8640 -9.0419
# 4 11.3631 -3.7602 14.8394 35.6084 -3.2043 -8.7049
# 5 -12.9335 1.7989 8.8640 -3.2043 37.3396 5.5609
# 6 -24.0299 -9.7732 -9.0419 -8.7049 5.5609 29.2330
#
#
#
# Elastic Compliance Matrix: (Units=1/GPa)
#
#
# Indices 1 2 3 4 5 6 
#
# 1 0.028549 -0.000463 -0.005363 -0.001377 0.008133 0.019697
# 2 -0.000463 0.009972 -0.001537 0.002613 -0.000552 0.003361
# 3 -0.005363 -0.001537 0.013281 -0.004755 -0.005158 -0.001250
# 4 -0.001377 0.002613 -0.004755 0.032844 0.002208 0.007631
# 5 0.008133 -0.000552 -0.005158 0.002208 0.031091 -0.000352
# 6 0.019697 0.003361 -0.001250 0.007631 -0.000352 0.053475
#
#
# Mechanical properties :
#
#
# Convention : Reuss Voigt Hill
#
# Bulk Modulus (GPa) = 26.97343 39.77533 33.37438
# Shear Modulus (GPa) = 25.47157 34.67177 30.07167
#
# Velocity S-wave (km/s) = 3.16543 3.69312 3.43941
# Velocity P-wave (km/s) = 4.89599 5.81655 5.37601
#
# Compressibility (1/GPa) = 0.03707352
#
# Stress axis : x y z
#
# Youngs Moduli (GPa) = 35.02783 100.28490 75.29724
#
# Poissons Ratio (x) = 0.04643 0.40385
# Poissons Ratio (y) = 0.01622 0.11575
# Poissons Ratio (z) = 0.18787 0.15417
#
# Static dielectric constant tensor:
#      x y z
#    x 2.038180 -0.002490 -0.008580 
#    y -0.002490 2.003360 -0.037800 
#    z -0.008580 -0.037800 1.931820 
# 
# From -- ./inp_files/259330.got.cif
#   From: 2010.05.17/outbox.cif.g08.bks.cpg/sg2_130_cif.got.tgz:259330.got - 2010.06.03 11:33:40.
