data_PCOD9076507
_publ_section_title
;
Structure prediction by ZEFSAII (Michael W. Deem and Ramdas Pophale) SiO2 
 PCOD9076507
Probable space group: P -1
;
_chemical_formula_sum "Si O2"
_cell_formula_units_Z 16
_cell_length_a 7.495903
_cell_length_b 17.204284
_cell_length_c 11.609917
_cell_angle_alpha 43.431857
_cell_angle_beta 105.990402
_cell_angle_gamma 135.150621
_cell_volume 631.298419
_symmetry_space_group_name_H-M "P -1"
_symmetry_group_IT_number 2
_symmetry_cell_setting 'triclinic'
loop_
_space_group_symop_operation_xyz
x,y,z
-x,-y,-z
loop_
_atom_site_type_symbol
_atom_site_label
_atom_site_fract_x
_atom_site_fract_y
_atom_site_fract_z
Si Si1 0.332058 0.267435 0.692775
Si Si2 0.463932 0.864596 0.076868
Si Si3 0.850716 0.105198 0.400594
Si Si4 0.553114 0.764701 0.609167
Si Si5 0.662640 0.699823 0.069196
Si Si6 0.270431 0.481224 0.036664
Si Si7 0.758515 0.999324 0.745814
Si Si8 0.814461 0.530167 0.323018
O O1 0.317011 0.123389 0.842191
O O2 0.342189 0.293053 0.802476
O O3 0.620905 0.450007 0.488580
O O4 0.055167 0.179527 0.666786
O O5 0.148646 0.663194 0.259553
O O6 0.525168 0.901402 0.912026
O O7 0.500000 0.000000 0.000000
O O8 0.156274 0.177673 0.398088
O O9 0.959129 0.277443 0.192492
O O10 0.667954 0.944279 0.453100
O O11 0.712073 0.039250 0.574004
O O12 0.363599 0.644724 0.593906
O O13 0.341950 0.628546 0.822829
O O14 0.357444 0.539355 0.122379
O O15 0.821162 0.654725 0.124188
O O16 0.781541 0.875121 0.855568
O O17 0.500000 0.500000 0.000000
#
# Coordination Sequence:
#
# PCOD9076507 Si02
#       8
#     2   2   2   2   2   2   2   2
#     4  11  23  40  63  92 119 164 216 258 308 377
#     4  11  25  43  59  88 131 167 202 258 324 375
#     4  10  19  35  60  94 124 162 208 264 309 361
#     4  10  20  35  60  96 126 157 211 264 309 367
#     4  11  20  34  62  92 124 157 209 265 305 367
#     4  10  18  33  56  94 122 157 203 263 307 357
#     4  11  21  40  63  92 124 164 213 259 311 374
#     4  12  22  39  62  94 124 166 203 258 323 373
#
# _framework density 25.344591000000001
#
# number of rings (size 3 to 8) (size 9 to 14) (size 15 to 20)
#    0.000    1.250    5.000    3.750    0.000    1.000 
#    2.250    0.625    0.000    0.750    0.000    0.000 
#    0.000    0.000    0.000    0.000    0.000    0.000 
#
# Total GULP energy -89566.551948 kJ/mol
# GULP energy per Si atom -5597.909497 kJ/mol
# Density = 2.528691 g / cm^3
# Si number density = 25.344591 Si / 1000 Ang^3
#
#
#
# Elastic Constant Matrix: (Units=GPa)
#
#
# Indices 1 2 3 4 5 6 
#
# 1 47.8619 16.3001 15.6421 -12.5730 4.8145 -7.4706
# 2 16.3001 126.7351 30.6644 -19.6672 -5.8358 -13.2856
# 3 15.6421 30.6644 127.3270 -18.8176 -12.9448 -9.2132
# 4 -12.5730 -19.6672 -18.8176 43.0786 1.9925 2.4943
# 5 4.8145 -5.8358 -12.9448 1.9925 37.3718 -6.8688
# 6 -7.4706 -13.2856 -9.2132 2.4943 -6.8688 24.2757
#
#
#
# Elastic Compliance Matrix: (Units=1/GPa)
#
#
# Indices 1 2 3 4 5 6 
#
# 1 0.024531 -0.001542 -0.001860 0.005550 -0.003527 0.004431
# 2 -0.001542 0.009381 -0.001104 0.003001 0.001945 0.004483
# 3 -0.001860 -0.001104 0.009354 0.002683 0.003744 0.003157
# 4 0.005550 0.003001 0.002683 0.027317 -0.000513 0.001417
# 5 -0.003527 0.001945 0.003744 -0.000513 0.030704 0.010141
# 6 0.004431 0.004483 0.003157 0.001417 0.010141 0.048932
#
#
# Mechanical properties :
#
#
# Convention : Reuss Voigt Hill
#
# Bulk Modulus (GPa) = 29.19382 47.45970 38.32676
# Shear Modulus (GPa) = 29.29992 36.89971 33.09982
#
# Velocity S-wave (km/s) = 3.40378 3.81979 3.61777
# Velocity P-wave (km/s) = 5.19532 6.18230 5.71018
#
# Compressibility (1/GPa) = 0.03425382
#
# Stress axis : x y z
#
# Youngs Moduli (GPa) = 40.76534 106.59723 106.90760
#
# Poissons Ratio (x) = 0.16433 0.19885
# Poissons Ratio (y) = 0.06284 0.11806
# Poissons Ratio (z) = 0.07582 0.11771
#
# Static dielectric constant tensor:
#      x y z
#    x 2.114450 0.026590 0.011140 
#    y 0.026590 1.993070 0.027430 
#    z 0.011140 0.027430 1.995450 
# 
# From -- ./inp_files/403017.got.cif
#   From: 2010.05.17/outbox.cif.g08.bks.cpg/sg2_202_cif.got.tgz:403017.got - 2010.06.03 11:33:40.
