data_PCOD9076927
_publ_section_title
;
Structure prediction by ZEFSAII (Michael W. Deem and Ramdas Pophale) SiO2 
 PCOD9076927
Probable space group: P -1
;
_chemical_formula_sum "Si O2"
_cell_formula_units_Z 14
_cell_length_a 8.758702
_cell_length_b 19.883917
_cell_length_c 5.869443
_cell_angle_alpha 71.559554
_cell_angle_beta 71.672237
_cell_angle_gamma 33.094769
_cell_volume 527.072955
_symmetry_space_group_name_H-M "P -1"
_symmetry_group_IT_number 2
_symmetry_cell_setting 'triclinic'
loop_
_space_group_symop_operation_xyz
x,y,z
-x,-y,-z
loop_
_atom_site_type_symbol
_atom_site_label
_atom_site_fract_x
_atom_site_fract_y
_atom_site_fract_z
Si Si1 0.800625 0.005017 0.604047
Si Si2 0.062773 0.190714 0.058383
Si Si3 0.462371 0.410991 0.918250
Si Si4 0.574728 0.242918 0.790537
Si Si5 0.776569 0.981854 0.137098
Si Si6 0.112001 0.310176 0.175536
Si Si7 0.756612 0.631785 0.598753
O O1 0.955996 0.872948 0.709627
O O2 0.663517 0.044770 0.372747
O O3 0.000000 0.000000 0.500000
O O4 0.320911 0.945820 0.131487
O O5 0.764915 0.323482 0.959730
O O6 0.173590 0.210801 0.153145
O O7 0.233629 0.097514 0.856343
O O8 0.352025 0.386444 0.151736
O O9 0.510976 0.350637 0.726408
O O10 0.213743 0.556217 0.871191
O O11 0.885755 0.122963 0.878875
O O12 0.509201 0.251781 0.551510
O O13 0.133044 0.332667 0.397869
O O14 0.329709 0.286012 0.980726
O O15 0.000000 0.500000 0.500000
#
# Coordination Sequence:
#
# PCOD9076927 Si02
#       7
#     2   2   2   2   2   2   2
#     4  10  20  40  66  87 109 141 187 239 292 348
#     4   9  22  34  53  83 116 147 189 240 288 331
#     4  10  18  34  48  74 112 152 200 226 269 329
#     4  10  19  33  52  76 112 151 191 233 267 332
#     4   9  21  37  61  88 111 140 190 234 284 342
#     4  11  20  32  50  80 116 157 188 230 278 326
#     4  11  18  30  50  72 104 158 202 227 262 326
#
# _framework density 26.561785
#
# number of rings (size 3 to 8) (size 9 to 14) (size 15 to 20)
#    0.857    1.143    2.857    2.571    2.000    1.143 
#    0.000    0.714    0.000    1.714    0.000    0.000 
#    0.000    0.000    0.000    0.000    0.000    0.000 
#
# Total GULP energy -78092.122282 kJ/mol
# GULP energy per Si atom -5578.008734 kJ/mol
# Density = 2.650133 g / cm^3
# Si number density = 26.561785 Si / 1000 Ang^3
#
#
#
# Elastic Constant Matrix: (Units=GPa)
#
#
# Indices 1 2 3 4 5 6 
#
# 1 122.5383 50.6028 45.7309 12.1384 52.3243 28.1312
# 2 50.6028 134.4178 43.8284 18.6393 19.2028 15.7227
# 3 45.7309 43.8284 129.5815 13.8110 47.8308 8.8211
# 4 12.1384 18.6393 13.8110 29.5280 3.7422 7.1345
# 5 52.3243 19.2028 47.8308 3.7422 48.4042 11.6380
# 6 28.1312 15.7227 8.8211 7.1345 11.6380 50.3672
#
#
#
# Elastic Compliance Matrix: (Units=1/GPa)
#
#
# Indices 1 2 3 4 5 6 
#
# 1 0.018729 -0.004185 0.002805 -0.002711 -0.020033 -0.004632
# 2 -0.004185 0.009979 -0.002902 -0.003552 0.003866 -0.000659
# 3 0.002805 -0.002902 0.013761 -0.004062 -0.015422 0.001068
# 4 -0.002711 -0.003552 -0.004062 0.039219 0.006199 -0.003654
# 5 -0.020033 0.003866 -0.015422 0.006199 0.055804 -0.001089
# 6 -0.004632 -0.000659 0.001068 -0.003654 -0.001089 0.023229
#
#
# Mechanical properties :
#
#
# Convention : Reuss Voigt Hill
#
# Bulk Modulus (GPa) = 29.49453 74.09575 51.79514
# Shear Modulus (GPa) = 27.68758 42.08492 34.88625
#
# Velocity S-wave (km/s) = 3.23210 3.98479 3.62802
# Velocity P-wave (km/s) = 5.00568 7.00911 6.09034
#
# Compressibility (1/GPa) = 0.03390459
#
# Stress axis : x y z
#
# Youngs Moduli (GPa) = 53.39448 100.21476 72.66684
#
# Poissons Ratio (x) = 0.41945 -0.20383
# Poissons Ratio (y) = 0.22348 0.21084
# Poissons Ratio (z) = -0.14977 0.29078
#
# Static dielectric constant tensor:
#      x y z
#    x 2.132550 -0.393680 -0.255080 
#    y -0.393680 5.098690 2.152510 
#    z -0.255080 2.152510 3.674980 
# 
# From -- ./inp_files/47446.got.cif
#   From: 2010.05.17/outbox.cif.g08.bks.cpg/sg2_24_cif.got.tgz:47446.got - 2010.06.03 11:33:40.
