data_PCOD9076221
_publ_section_title
;
Structure prediction by ZEFSAII (Michael W. Deem and Ramdas Pophale) SiO2 
 PCOD9076221
Probable space group: P -1
;
_chemical_formula_sum "Si O2"
_cell_formula_units_Z 16
_cell_length_a 15.546727
_cell_length_b 5.806570
_cell_length_c 12.167288
_cell_angle_alpha 77.313668
_cell_angle_beta 39.416487
_cell_angle_gamma 67.700728
_cell_volume 640.188520
_symmetry_space_group_name_H-M "P -1"
_symmetry_group_IT_number 2
_symmetry_cell_setting 'triclinic'
loop_
_space_group_symop_operation_xyz
x,y,z
-x,-y,-z
loop_
_atom_site_type_symbol
_atom_site_label
_atom_site_fract_x
_atom_site_fract_y
_atom_site_fract_z
Si Si1 0.305959 0.627899 0.871282
Si Si2 0.020901 0.123874 0.805121
Si Si3 0.482895 0.913667 0.262515
Si Si4 0.426647 0.270298 0.458256
Si Si5 0.121712 0.514225 0.794424
Si Si6 0.702741 0.340336 0.644730
Si Si7 0.671997 0.152853 0.935129
Si Si8 0.014785 0.075813 0.355274
O O1 0.375579 0.330729 0.835051
O O2 0.414759 0.719624 0.680739
O O3 0.139183 0.765570 0.994894
O O4 0.320926 0.698527 0.976700
O O5 0.104040 0.304803 0.745975
O O6 0.997131 0.133643 0.696110
O O7 0.083179 0.818574 0.789115
O O8 0.345395 0.867989 0.349972
O O9 0.446805 0.001999 0.414860
O O10 0.537631 0.064109 0.099434
O O11 0.381348 0.423545 0.370705
O O12 0.294144 0.397831 0.655873
O O13 0.000000 0.500000 0.000000
O O14 0.669034 0.306875 0.809394
O O15 0.868774 0.308482 0.465168
O O16 0.824477 0.919473 0.813183
O O17 0.000000 0.000000 0.500000
#
# Coordination Sequence:
#
# PCOD9076221 Si02
#       8
#     2   2   2   2   2   2   2   2
#     4   9  22  38  61  91 131 175 212 267 333 398
#     4  11  24  46  73  99 138 177 220 279 342 395
#     4  10  20  33  56  85 123 176 216 261 324 390
#     4  10  22  38  63  89 130 166 221 275 336 393
#     4  12  27  48  75 102 129 173 231 287 342 399
#     4  10  18  33  52  85 124 171 216 269 322 376
#     4   9  19  32  52  84 128 168 222 259 315 394
#     4   9  18  36  60  93 136 174 221 262 327 401
#
# _framework density 24.992636000000001
#
# number of rings (size 3 to 8) (size 9 to 14) (size 15 to 20)
#    0.000    2.000    1.250    1.500    7.000    5.500 
#    0.000    1.875    0.000    0.000    0.000    0.000 
#    0.000    0.000    0.000    0.000    0.000    0.000 
#
# Total GULP energy -89118.761092 kJ/mol
# GULP energy per Si atom -5569.922568 kJ/mol
# Density = 2.493575 g / cm^3
# Si number density = 24.992636 Si / 1000 Ang^3
#
#
#
# Elastic Constant Matrix: (Units=GPa)
#
#
# Indices 1 2 3 4 5 6 
#
# 1 58.3426 25.4543 15.2722 -9.6455 -4.9246 6.8322
# 2 25.4543 89.7013 40.9299 -4.9437 2.0108 -5.2346
# 3 15.2722 40.9299 164.6362 5.5330 -13.5357 -7.3395
# 4 -9.6455 -4.9437 5.5330 31.7290 -10.1912 -5.3812
# 5 -4.9246 2.0108 -13.5357 -10.1912 42.0147 5.4298
# 6 6.8322 -5.2346 -7.3395 -5.3812 5.4298 26.3441
#
#
#
# Elastic Compliance Matrix: (Units=1/GPa)
#
#
# Indices 1 2 3 4 5 6 
#
# 1 0.022327 -0.006219 -0.000626 0.006407 0.005166 -0.006957
# 2 -0.006219 0.014710 -0.003143 0.000790 -0.002823 0.004403
# 3 -0.000626 -0.003143 0.007155 -0.001137 0.001991 0.000888
# 4 0.006407 0.000790 -0.001137 0.037313 0.008885 0.003969
# 5 0.005166 -0.002823 0.001991 0.008885 0.028024 -0.005307
# 6 -0.006957 0.004403 0.000888 0.003969 -0.005307 0.042790
#
#
# Mechanical properties :
#
#
# Convention : Reuss Voigt Hill
#
# Bulk Modulus (GPa) = 41.29148 52.88811 47.08979
# Shear Modulus (GPa) = 27.72124 35.41914 31.57019
#
# Velocity S-wave (km/s) = 3.33404 3.76863 3.55798
# Velocity P-wave (km/s) = 5.60165 6.33595 5.98008
#
# Compressibility (1/GPa) = 0.02421807
#
# Stress axis : x y z
#
# Youngs Moduli (GPa) = 44.78868 67.97866 139.76484
#
# Poissons Ratio (x) = 0.42275 0.08747
# Poissons Ratio (y) = 0.27853 0.43922
# Poissons Ratio (z) = 0.02803 0.21363
#
# Static dielectric constant tensor:
#      x y z
#    x 2.152500 -0.078830 -0.057240 
#    y -0.078830 2.142870 0.069020 
#    z -0.057240 0.069020 2.062190 
# 
# From -- ./inp_files/113252.got.cif
#   From: 2010.05.17/outbox.cif.g08.bks.cpg/sg2_57_cif.got.tgz:113252.got - 2010.06.03 11:33:40.
