data_PCOD9076107
_publ_section_title
;
Structure prediction by ZEFSAII (Michael W. Deem and Ramdas Pophale) SiO2 
 PCOD9076107
Probable space group: P -1
;
_chemical_formula_sum "Si O2"
_cell_formula_units_Z 16
_cell_length_a 8.546338
_cell_length_b 18.767893
_cell_length_c 9.117709
_cell_angle_alpha 144.048109
_cell_angle_beta 51.092860
_cell_angle_gamma 113.124465
_cell_volume 646.365678
_symmetry_space_group_name_H-M "P -1"
_symmetry_group_IT_number 2
_symmetry_cell_setting 'triclinic'
loop_
_space_group_symop_operation_xyz
x,y,z
-x,-y,-z
loop_
_atom_site_type_symbol
_atom_site_label
_atom_site_fract_x
_atom_site_fract_y
_atom_site_fract_z
Si Si1 0.928443 0.213759 0.622824
Si Si2 0.400397 0.897957 0.554005
Si Si3 0.230592 0.524515 0.374608
Si Si4 0.791646 0.044600 0.932040
Si Si5 0.192206 0.141452 0.917216
Si Si6 0.044200 0.609255 0.351087
Si Si7 0.321656 0.755994 0.890868
Si Si8 0.634917 0.591128 0.621312
O O1 0.753861 0.163947 0.552507
O O2 0.852848 0.234927 0.868148
O O3 0.936068 0.334152 0.723489
O O4 0.141181 0.103847 0.325733
O O5 0.640000 0.848427 0.286718
O O6 0.322798 0.043424 0.793680
O O7 0.346227 0.889620 0.741249
O O8 0.371434 0.414068 0.206983
O O9 0.000000 0.500000 0.500000
O O10 0.237647 0.536260 0.213814
O O11 0.280289 0.651009 0.625346
O O12 0.688346 0.111009 0.956873
O O13 0.012041 0.081842 0.864588
O O14 0.071385 0.270374 0.279111
O O15 0.867563 0.535093 0.335517
O O16 0.532497 0.712728 0.789398
O O17 0.500000 0.500000 0.500000
#
# Coordination Sequence:
#
# PCOD9076107 Si02
#       8
#     2   2   2   2   2   2   2   2
#     4  11  21  35  58  92 130 165 202 255 305 375
#     4  10  19  34  58  88 127 165 216 240 290 359
#     4   9  19  38  65  84 108 158 216 260 313 365
#     4  11  20  39  57  90 134 174 205 244 295 378
#     4  10  18  32  61  87 118 166 210 251 287 352
#     4  11  18  38  64  87 118 165 207 253 314 367
#     4  11  21  38  59  87 129 166 198 255 323 358
#     4   9  21  39  59  86 116 154 205 266 317 361
#
# _framework density 24.753792000000001
#
# number of rings (size 3 to 8) (size 9 to 14) (size 15 to 20)
#    0.000    1.750    3.750    1.875    0.000    0.000 
#    2.250    6.875    0.000    6.000    0.000    0.000 
#    0.000    0.000    0.000    0.000    0.000    0.000 
#
# Total GULP energy -89362.087448 kJ/mol
# GULP energy per Si atom -5585.130466 kJ/mol
# Density = 2.469745 g / cm^3
# Si number density = 24.753792 Si / 1000 Ang^3
#
#
#
# Elastic Constant Matrix: (Units=GPa)
#
#
# Indices 1 2 3 4 5 6 
#
# 1 91.4371 53.5475 19.6192 2.2104 -9.6515 -32.6153
# 2 53.5475 136.4974 24.7240 -20.4957 8.8074 -40.5181
# 3 19.6192 24.7240 55.9754 -8.3497 -1.3585 -19.5214
# 4 2.2104 -20.4957 -8.3497 26.8627 4.9261 8.8007
# 5 -9.6515 8.8074 -1.3585 4.9261 19.9429 -0.5356
# 6 -32.6153 -40.5181 -19.5214 8.8007 -0.5356 54.1564
#
#
#
# Elastic Compliance Matrix: (Units=1/GPa)
#
#
# Indices 1 2 3 4 5 6 
#
# 1 0.022439 -0.009527 -0.002739 -0.016158 0.019092 0.008213
# 2 -0.009527 0.015057 -0.000585 0.013815 -0.014634 0.002927
# 3 -0.002739 -0.000585 0.021502 0.005006 -0.000709 0.004843
# 4 -0.016158 0.013815 0.005006 0.058217 -0.028157 -0.007330
# 5 0.019092 -0.014634 -0.000709 -0.028157 0.072902 0.005591
# 6 0.008213 0.002927 0.004843 -0.007330 0.005591 0.028593
#
#
# Mechanical properties :
#
#
# Convention : Reuss Voigt Hill
#
# Bulk Modulus (GPa) = 30.03425 53.29902 41.66663
# Shear Modulus (GPa) = 19.56864 32.59369 26.08116
#
# Velocity S-wave (km/s) = 2.81469 3.63259 3.24948
# Velocity P-wave (km/s) = 4.76685 6.25881 5.56307
#
# Compressibility (1/GPa) = 0.03329532
#
# Stress axis : x y z
#
# Youngs Moduli (GPa) = 44.56603 66.41514 46.50735
#
# Poissons Ratio (x) = 0.63270 0.12740
# Poissons Ratio (y) = 0.42456 0.02721
# Poissons Ratio (z) = 0.12209 0.03886
#
# Static dielectric constant tensor:
#      x y z
#    x 2.013970 0.014340 -0.022460 
#    y 0.014340 2.045360 0.055070 
#    z -0.022460 0.055070 2.016390 
# 
# From -- ./inp_files/207538.got.cif
#   From: 2010.05.17/outbox.cif.g08.bks.cpg/sg2_104_cif.got.tgz:207538.got - 2010.06.03 11:33:40.
