data_PCOD9076295
_publ_section_title
;
Structure prediction by ZEFSAII (Michael W. Deem and Ramdas Pophale) SiO2 
 PCOD9076295
Probable space group: P -1
;
_chemical_formula_sum "Si O2"
_cell_formula_units_Z 14
_cell_length_a 7.252980
_cell_length_b 23.955982
_cell_length_c 11.205077
_cell_angle_alpha 147.290973
_cell_angle_beta 134.511889
_cell_angle_gamma 32.187991
_cell_volume 560.016359
_symmetry_space_group_name_H-M "P -1"
_symmetry_group_IT_number 2
_symmetry_cell_setting 'triclinic'
loop_
_space_group_symop_operation_xyz
x,y,z
-x,-y,-z
loop_
_atom_site_type_symbol
_atom_site_label
_atom_site_fract_x
_atom_site_fract_y
_atom_site_fract_z
Si Si1 0.852013 0.846773 0.402312
Si Si2 0.296057 0.657447 0.901984
Si Si3 0.781177 0.154020 0.226278
Si Si4 0.712360 0.555673 0.572744
Si Si5 0.678072 0.842497 0.784162
Si Si6 0.105660 0.595748 0.947655
Si Si7 0.691405 0.158334 0.595803
O O1 0.974379 0.835530 0.570003
O O2 0.119034 0.826279 0.393751
O O3 0.500000 0.000000 0.500000
O O4 0.859189 0.725651 0.155718
O O5 0.459913 0.508851 0.650878
O O6 0.105562 0.655491 0.927561
O O7 0.053126 0.753243 0.853329
O O8 0.429823 0.727043 0.151897
O O9 0.571413 0.278771 0.263031
O O10 0.512578 0.181630 0.251192
O O11 0.000000 0.000000 0.000000
O O12 0.000000 0.500000 0.500000
O O13 0.956358 0.519422 0.730954
O O14 0.601731 0.823213 0.581034
O O15 0.500000 0.000000 0.000000
O O16 0.500000 0.500000 0.000000
O O17 0.000000 0.000000 0.500000
#
# Coordination Sequence:
#
# PCOD9076295 Si02
#       7
#     2   2   2   2   2   2   2
#     4  10  21  33  53  84 111 142 188 232 288 335
#     4  10  20  33  55  80 116 145 195 232 284 331
#     4  11  22  36  56  86 115 151 189 240 293 337
#     4  10  18  33  54  80 114 146 186 239 286 332
#     4  11  21  36  58  86 115 155 194 234 286 345
#     4  10  19  31  53  80 114 146 185 236 289 334
#     4  10  21  35  54  84 116 150 192 236 280 341
#
# _framework density 24.999269000000002
#
# number of rings (size 3 to 8) (size 9 to 14) (size 15 to 20)
#    0.000    1.714    4.286    2.571    6.000    0.000 
#    0.000    0.000    0.000    0.857    0.000    6.000 
#    0.000    0.000    0.000    0.000    0.000    0.000 
#
# Total GULP energy -78098.805697 kJ/mol
# GULP energy per Si atom -5578.486121 kJ/mol
# Density = 2.494237 g / cm^3
# Si number density = 24.999269 Si / 1000 Ang^3
#
#
#
# Elastic Constant Matrix: (Units=GPa)
#
#
# Indices 1 2 3 4 5 6 
#
# 1 100.0885 12.2342 16.7484 -7.4323 -3.6817 13.7156
# 2 12.2342 137.4093 69.1602 -8.1661 -4.0822 10.8548
# 3 16.7484 69.1602 252.6293 -14.6482 -4.6010 2.9997
# 4 -7.4323 -8.1661 -14.6482 56.8841 1.3979 -2.2651
# 5 -3.6817 -4.0822 -4.6010 1.3979 13.2496 4.7987
# 6 13.7156 10.8548 2.9997 -2.2651 4.7987 19.3491
#
#
#
# Elastic Compliance Matrix: (Units=1/GPa)
#
#
# Indices 1 2 3 4 5 6 
#
# 1 0.011720 0.000272 -0.000562 0.000867 0.006647 -0.009920
# 2 0.000272 0.009034 -0.002323 0.000398 0.004140 -0.005881
# 3 -0.000562 -0.002323 0.004673 0.000829 0.000301 0.001000
# 4 0.000867 0.000398 0.000829 0.018073 -0.001836 0.001604
# 5 0.006647 0.004140 0.000301 -0.001836 0.089584 -0.029513
# 6 -0.009920 -0.005881 0.001000 0.001604 -0.029513 0.069366
#
#
# Mechanical properties :
#
#
# Convention : Reuss Voigt Hill
#
# Bulk Modulus (GPa) = 49.50191 76.26807 62.88499
# Shear Modulus (GPa) = 23.31991 44.02884 33.67438
#
# Velocity S-wave (km/s) = 3.05753 4.20122 3.67415
# Velocity P-wave (km/s) = 5.68410 7.35582 6.57332
#
# Compressibility (1/GPa) = 0.02020124
#
# Stress axis : x y z
#
# Youngs Moduli (GPa) = 85.32193 110.69767 213.98513
#
# Poissons Ratio (x) = -0.03014 0.12035
# Poissons Ratio (y) = -0.02323 0.49704
# Poissons Ratio (z) = 0.04799 0.25713
#
# Static dielectric constant tensor:
#      x y z
#    x 2.002010 -0.046500 0.035980 
#    y -0.046500 1.961190 -0.053280 
#    z 0.035980 -0.053280 2.067690 
# 
# From -- ./inp_files/255703.got.cif
#   From: 2010.05.17/outbox.cif.g08.bks.cpg/sg2_128_cif.got.tgz:255703.got - 2010.06.03 11:33:40.
