data_PCOD9076542
_publ_section_title
;
Structure prediction by ZEFSAII (Michael W. Deem and Ramdas Pophale) SiO2 
 PCOD9076542
Probable space group: P -1
;
_chemical_formula_sum "Si O2"
_cell_formula_units_Z 16
_cell_length_a 7.430113
_cell_length_b 12.655818
_cell_length_c 11.658071
_cell_angle_alpha 55.990434
_cell_angle_beta 42.159065
_cell_angle_gamma 73.806389
_cell_volume 591.505010
_symmetry_space_group_name_H-M "P -1"
_symmetry_group_IT_number 2
_symmetry_cell_setting 'triclinic'
loop_
_space_group_symop_operation_xyz
x,y,z
-x,-y,-z
loop_
_atom_site_type_symbol
_atom_site_label
_atom_site_fract_x
_atom_site_fract_y
_atom_site_fract_z
Si Si1 0.946259 0.164391 0.029835
Si Si2 0.419816 0.960997 0.431455
Si Si3 0.279684 0.319103 0.133527
Si Si4 0.303614 0.265325 0.575959
Si Si5 0.223027 0.527144 0.482108
Si Si6 0.153882 0.573235 0.060163
Si Si7 0.872035 0.213240 0.599452
Si Si8 0.180622 0.068204 0.194632
O O1 0.093835 0.084709 0.094665
O O2 0.650882 0.069957 0.191200
O O3 0.908070 0.293390 0.038673
O O4 0.116867 0.214473 0.805686
O O5 0.466321 0.816447 0.481854
O O6 0.106717 0.967384 0.575486
O O7 0.500000 0.000000 0.500000
O O8 0.196073 0.448543 0.044666
O O9 0.050661 0.256635 0.374615
O O10 0.326010 0.209874 0.089953
O O11 0.560286 0.372160 0.039190
O O12 0.407361 0.423642 0.436629
O O13 0.102103 0.230455 0.581883
O O14 0.000000 0.500000 0.500000
O O15 0.067115 0.482267 0.702163
O O16 0.316478 0.683905 0.352724
O O17 0.708682 0.061861 0.764768
#
# Coordination Sequence:
#
# PCOD9076542 Si02
#       8
#     2   2   2   2   2   2   2   2
#     4  10  20  34  59  83 116 151 193 235 279 345
#     4  10  19  32  54  88 114 152 187 229 285 340
#     4  10  21  36  57  85 114 151 192 243 284 338
#     4  10  18  34  59  85 112 155 200 231 272 334
#     4   8  17  32  57  83 104 145 197 237 266 330
#     4   9  19  36  59  80 107 151 203 233 281 339
#     4  10  18  33  57  83 113 148 193 231 279 334
#     4  11  22  34  56  90 123 147 184 240 299 331
#
# _framework density 27.049643
#
# number of rings (size 3 to 8) (size 9 to 14) (size 15 to 20)
#    0.000    2.250    2.500    1.500    1.750    0.500 
#    0.000    0.000   11.000   11.250    0.000    0.000 
#    0.000    0.000    0.000    0.000    0.000    0.000 
#
# Total GULP energy -89621.002564 kJ/mol
# GULP energy per Si atom -5601.312660 kJ/mol
# Density = 2.698808 g / cm^3
# Si number density = 27.049643 Si / 1000 Ang^3
#
#
#
# Elastic Constant Matrix: (Units=GPa)
#
#
# Indices 1 2 3 4 5 6 
#
# 1 73.4810 21.9839 30.3077 -6.3835 2.5907 3.0391
# 2 21.9839 216.2801 47.1877 -54.4826 5.1682 -22.2650
# 3 30.3077 47.1877 111.7541 -2.6329 10.7290 -8.3078
# 4 -6.3835 -54.4826 -2.6329 38.5213 -4.3560 11.0631
# 5 2.5907 5.1682 10.7290 -4.3560 20.6392 -8.5773
# 6 3.0391 -22.2650 -8.3078 11.0631 -8.5773 51.8699
#
#
#
# Elastic Compliance Matrix: (Units=1/GPa)
#
#
# Indices 1 2 3 4 5 6 
#
# 1 0.015770 -0.000243 -0.004274 0.002624 -0.000094 -0.002288
# 2 -0.000243 0.008315 -0.003342 0.011486 0.002533 0.001017
# 3 -0.004274 -0.003342 0.012001 -0.005535 -0.005623 0.000989
# 4 0.002624 0.011486 -0.005535 0.044333 0.007211 -0.004373
# 5 -0.000094 0.002533 -0.005623 0.007211 0.055531 0.007837
# 6 -0.002288 0.001017 0.000989 -0.004373 0.007837 0.022237
#
#
# Mechanical properties :
#
#
# Convention : Reuss Voigt Hill
#
# Bulk Modulus (GPa) = 49.09252 66.71934 57.90593
# Shear Modulus (GPa) = 27.67114 42.34180 35.00647
#
# Velocity S-wave (km/s) = 3.20187 3.96073 3.60134
# Velocity P-wave (km/s) = 5.64427 6.75541 6.22468
#
# Compressibility (1/GPa) = 0.02036970
#
# Stress axis : x y z
#
# Youngs Moduli (GPa) = 63.41083 120.26304 83.32435
#
# Poissons Ratio (x) = 0.02920 0.35609
# Poissons Ratio (y) = 0.01539 0.27848
# Poissons Ratio (z) = 0.27099 0.40193
#
# Static dielectric constant tensor:
#      x y z
#    x 2.099790 0.008760 -0.029910 
#    y 0.008760 2.194290 -0.141760 
#    z -0.029910 -0.141760 2.473140 
# 
# From -- ./inp_files/389290.got.cif
#   From: 2010.05.17/outbox.cif.g08.bks.cpg/sg2_195_cif.got.tgz:389290.got - 2010.06.03 11:33:40.
