data_PCOD9076917
_publ_section_title
;
Structure prediction by ZEFSAII (Michael W. Deem and Ramdas Pophale) SiO2 
 PCOD9076917
Probable space group: P -1
;
_chemical_formula_sum "Si O2"
_cell_formula_units_Z 14
_cell_length_a 9.980751
_cell_length_b 14.195772
_cell_length_c 16.095644
_cell_angle_alpha 31.013275
_cell_angle_beta 129.281529
_cell_angle_gamma 148.980778
_cell_volume 559.655068
_symmetry_space_group_name_H-M "P -1"
_symmetry_group_IT_number 2
_symmetry_cell_setting 'triclinic'
loop_
_space_group_symop_operation_xyz
x,y,z
-x,-y,-z
loop_
_atom_site_type_symbol
_atom_site_label
_atom_site_fract_x
_atom_site_fract_y
_atom_site_fract_z
Si Si1 0.432440 0.791375 0.198691
Si Si2 0.038579 0.354969 0.069615
Si Si3 0.935548 0.258322 0.488624
Si Si4 0.541355 0.249844 0.210606
Si Si5 0.226453 0.166171 0.389303
Si Si6 0.137968 0.186316 0.998635
Si Si7 0.345072 0.348265 0.689889
O O1 0.147113 0.591301 0.288397
O O2 0.414235 0.574990 0.314419
O O3 0.720589 0.016650 0.192664
O O4 0.500000 0.000000 0.000000
O O5 0.206484 0.329954 0.198848
O O6 0.199382 0.559439 0.895281
O O7 0.000000 0.500000 0.000000
O O8 0.158021 0.311753 0.582781
O O9 0.672546 0.072472 0.587317
O O10 0.822397 0.051870 0.521022
O O11 0.668842 0.475495 0.166411
O O12 0.328826 0.190468 0.114475
O O13 0.522789 0.418572 0.362595
O O14 0.000000 0.000000 0.500000
O O15 0.000000 0.000000 0.000000
O O16 0.866687 0.976198 0.109738
#
# Coordination Sequence:
#
# PCOD9076917 Si02
#       7
#     2   2   2   2   2   2   2
#     4  12  24  42  63  92 133 174 214 264 328 392
#     4  12  25  44  67  94 135 178 221 266 325 397
#     4  11  23  43  68  97 132 165 216 284 323 378
#     4  10  21  40  63  94 129 168 217 269 327 377
#     4  12  22  37  68 103 131 166 221 269 321 387
#     4  10  18  33  64  97 130 162 208 268 323 382
#     4  11  20  38  65  96 130 166 215 260 319 386
#
# _framework density 25.015408999999998
#
# number of rings (size 3 to 8) (size 9 to 14) (size 15 to 20)
#    0.000    0.857    4.286    5.571    0.000    0.000 
#    0.000    1.429    0.000    0.000    0.000    0.000 
#    0.000    0.000    0.000    0.000    0.000    0.000 
#
# Total GULP energy -78237.271193 kJ/mol
# GULP energy per Si atom -5588.376514 kJ/mol
# Density = 2.495847 g / cm^3
# Si number density = 25.015409 Si / 1000 Ang^3
#
#
#
# Elastic Constant Matrix: (Units=GPa)
#
#
# Indices 1 2 3 4 5 6 
#
# 1 80.5841 36.4801 37.0376 -3.2732 -22.9560 0.6090
# 2 36.4801 172.5286 28.9821 -8.0676 -2.3692 -11.9676
# 3 37.0376 28.9821 162.8150 -13.5098 -51.5097 13.6348
# 4 -3.2732 -8.0676 -13.5098 45.0188 16.8222 2.9705
# 5 -22.9560 -2.3692 -51.5097 16.8222 41.4312 2.3086
# 6 0.6090 -11.9676 13.6348 2.9705 2.3086 28.9488
#
#
#
# Elastic Compliance Matrix: (Units=1/GPa)
#
#
# Indices 1 2 3 4 5 6 
#
# 1 0.017058 -0.003827 0.000222 -0.003319 0.011000 -0.002582
# 2 -0.003827 0.007372 -0.002546 0.002228 -0.006024 0.004579
# 3 0.000222 -0.002546 0.012285 -0.002469 0.016694 -0.007921
# 4 -0.003319 0.002228 -0.002469 0.027573 -0.016010 0.000601
# 5 0.011000 -0.006024 0.016694 -0.016010 0.057898 -0.013559
# 6 -0.002582 0.004579 -0.007921 0.000601 -0.013559 0.041242
#
#
# Mechanical properties :
#
#
# Convention : Reuss Voigt Hill
#
# Bulk Modulus (GPa) = 40.96414 68.99191 54.97803
# Shear Modulus (GPa) = 27.19326 43.97494 35.58410
#
# Velocity S-wave (km/s) = 3.30064 4.19730 3.77568
# Velocity P-wave (km/s) = 5.56208 7.15048 6.40570
#
# Compressibility (1/GPa) = 0.02441159
#
# Stress axis : x y z
#
# Youngs Moduli (GPa) = 58.62220 135.64424 81.40119
#
# Poissons Ratio (x) = 0.51916 -0.01804
# Poissons Ratio (y) = 0.22437 0.20726
# Poissons Ratio (z) = -0.01299 0.34538
#
# Static dielectric constant tensor:
#      x y z
#    x 0.183350 -0.057140 -0.268280 
#    y -0.057140 2.021060 -0.021250 
#    z -0.268280 -0.021250 2.036660 
# 
# From -- ./inp_files/455659.got.cif
#   From: 2010.05.17/outbox.cif.g08.bks.cpg/sg2_228_cif.got.tgz:455659.got - 2010.06.03 11:33:40.
