data_PCOD9076618
_publ_section_title
;
Structure prediction by ZEFSAII (Michael W. Deem and Ramdas Pophale) SiO2 
 PCOD9076618
Probable space group: P -1
;
_chemical_formula_sum "Si O2"
_cell_formula_units_Z 16
_cell_length_a 21.937619
_cell_length_b 10.130776
_cell_length_c 8.684441
_cell_angle_alpha 91.200232
_cell_angle_beta 112.172974
_cell_angle_gamma 34.141704
_cell_volume 830.616689
_symmetry_space_group_name_H-M "P -1"
_symmetry_group_IT_number 2
_symmetry_cell_setting 'triclinic'
loop_
_space_group_symop_operation_xyz
x,y,z
-x,-y,-z
loop_
_atom_site_type_symbol
_atom_site_label
_atom_site_fract_x
_atom_site_fract_y
_atom_site_fract_z
Si Si1 0.767654 0.219614 0.473644
Si Si2 0.967123 0.909661 0.408389
Si Si3 0.859356 0.493730 0.713319
Si Si4 0.688768 0.694183 0.034960
Si Si5 0.046363 0.809811 0.917433
Si Si6 0.856988 0.630328 0.261334
Si Si7 0.151722 0.205450 0.435036
Si Si8 0.622486 0.742110 0.329922
O O1 0.814046 0.143653 0.335504
O O2 0.649771 0.539936 0.389928
O O3 0.907817 0.020947 0.693115
O O4 0.755233 0.090347 0.511309
O O5 0.821112 0.389592 0.069912
O O6 0.000000 0.000000 0.500000
O O7 0.067537 0.625610 0.583973
O O8 0.830850 0.696011 0.648264
O O9 0.724098 0.648279 0.533036
O O10 0.988659 0.202342 0.726277
O O11 0.897430 0.407313 0.924908
O O12 0.725746 0.785746 0.067979
O O13 0.668867 0.686818 0.194280
O O14 0.542004 0.929671 0.814038
O O15 0.000000 0.000000 0.000000
O O16 0.818857 0.801801 0.360886
O O17 0.984259 0.463977 0.277974
#
# Coordination Sequence:
#
# PCOD9076618 Si02
#       8
#     2   2   2   2   2   2   2   2
#     4  11  20  36  58  88 110 151 196 243 280 326
#     4  10  14  28  56  77 110 134 191 242 268 313
#     4  11  21  34  56  88 116 154 188 235 297 334
#     4  11  22  39  60  87 118 151 195 235 292 349
#     4  12  23  36  59  89 120 148 197 244 279 342
#     4   9  16  32  54  84 109 149 188 242 283 324
#     4   9  18  33  59  83 115 148 193 243 282 334
#     4  11  22  38  63  84 117 154 190 243 289 340
#
# _framework density 19.262796000000002
#
# number of rings (size 3 to 8) (size 9 to 14) (size 15 to 20)
#    0.000    1.500    7.500    0.750    1.750    1.000 
#    0.000    0.625    0.000    0.750    0.000    0.000 
#    0.000    0.000    0.000    0.000    0.000    0.000 
#
# Total GULP energy -89142.096947 kJ/mol
# GULP energy per Si atom -5571.381059 kJ/mol
# Density = 1.921895 g / cm^3
# Si number density = 19.262796 Si / 1000 Ang^3
#
#
#
# Elastic Constant Matrix: (Units=GPa)
#
#
# Indices 1 2 3 4 5 6 
#
# 1 50.2141 24.1114 12.2434 -5.4744 -5.3546 17.2119
# 2 24.1114 85.2374 13.9369 -8.0505 2.0931 16.9743
# 3 12.2434 13.9369 61.3498 -3.7920 4.2391 -3.3335
# 4 -5.4744 -8.0505 -3.7920 25.9326 0.6287 -7.7849
# 5 -5.3546 2.0931 4.2391 0.6287 26.1716 -6.2305
# 6 17.2119 16.9743 -3.3335 -7.7849 -6.2305 36.5241
#
#
#
# Elastic Compliance Matrix: (Units=1/GPa)
#
#
# Indices 1 2 3 4 5 6 
#
# 1 0.027641 -0.004978 -0.005236 0.000304 0.004425 -0.010371
# 2 -0.004978 0.014723 -0.002294 0.001806 -0.003019 -0.004836
# 3 -0.005236 -0.002294 0.018497 0.002545 -0.002682 0.005307
# 4 0.000304 0.001806 0.002545 0.042036 0.000469 0.008290
# 5 0.004425 -0.003019 -0.002682 0.000469 0.041258 0.006211
# 6 -0.010371 -0.004836 0.005307 0.008290 0.006211 0.037825
#
#
# Mechanical properties :
#
#
# Convention : Reuss Voigt Hill
#
# Bulk Modulus (GPa) = 27.89695 33.04275 30.46985
# Shear Modulus (GPa) = 22.83701 27.49296 25.16498
#
# Velocity S-wave (km/s) = 3.44692 3.78200 3.61834
# Velocity P-wave (km/s) = 5.50957 6.02182 5.77138
#
# Compressibility (1/GPa) = 0.03584621
#
# Stress axis : x y z
#
# Youngs Moduli (GPa) = 36.17769 67.92207 54.06290
#
# Poissons Ratio (x) = 0.33809 0.28308
# Poissons Ratio (y) = 0.18008 0.12401
# Poissons Ratio (z) = 0.18943 0.15580
#
# Static dielectric constant tensor:
#      x y z
#    x 1.733550 -0.002730 -0.032670 
#    y -0.002730 1.716830 0.016420 
#    z -0.032670 0.016420 1.728000 
# 
# From -- ./inp_files/309833.got.cif
#   From: 2010.05.17/outbox.cif.g08.bks.cpg/sg2_155_cif.got.tgz:309833.got - 2010.06.03 11:33:40.
