data_PCOD9076065
_publ_section_title
;
Structure prediction by ZEFSAII (Michael W. Deem and Ramdas Pophale) SiO2 
 PCOD9076065
Probable space group: P -1
;
_chemical_formula_sum "Si O2"
_cell_formula_units_Z 16
_cell_length_a 20.596621
_cell_length_b 8.167641
_cell_length_c 8.776128
_cell_angle_alpha 57.133277
_cell_angle_beta 52.716470
_cell_angle_gamma 37.836584
_cell_volume 714.280019
_symmetry_space_group_name_H-M "P -1"
_symmetry_group_IT_number 2
_symmetry_cell_setting 'triclinic'
loop_
_space_group_symop_operation_xyz
x,y,z
-x,-y,-z
loop_
_atom_site_type_symbol
_atom_site_label
_atom_site_fract_x
_atom_site_fract_y
_atom_site_fract_z
Si Si1 0.692387 0.206600 0.599247
Si Si2 0.897437 0.303194 0.042344
Si Si3 0.544473 0.862883 0.835218
Si Si4 0.075802 0.318149 0.338784
Si Si5 0.442512 0.508143 0.822347
Si Si6 0.067420 0.556895 0.782880
Si Si7 0.352598 0.390892 0.738224
Si Si8 0.308993 0.043195 0.575985
O O1 0.574592 0.312131 0.767851
O O2 0.664815 0.476785 0.465222
O O3 0.804038 0.975954 0.648693
O O4 0.713541 0.068077 0.475342
O O5 0.912984 0.298646 0.203726
O O6 0.773396 0.431542 0.111624
O O7 0.904924 0.505717 0.858796
O O8 0.000000 0.000000 0.000000
O O9 0.631617 0.867729 0.630887
O O10 0.430309 0.071707 0.792469
O O11 0.598789 0.563061 0.945922
O O12 0.500000 0.000000 0.000000
O O13 0.000000 0.500000 0.500000
O O14 0.004671 0.295824 0.340625
O O15 0.420023 0.428650 0.734842
O O16 0.385880 0.806598 0.711670
O O17 0.190351 0.283423 0.698625
O O18 0.000000 0.500000 0.000000
#
# Coordination Sequence:
#
# PCOD9076065 Si02
#       8
#     2   2   2   2   2   2   2   2
#     4  11  18  35  64  98 133 175 221 267 339 411
#     4  11  25  43  65  95 126 179 237 289 345 405
#     4  10  18  32  60 102 136 172 223 273 338 407
#     4  11  22  39  68  94 130 182 226 276 346 413
#     4  10  20  32  64 104 133 175 225 270 341 417
#     4  10  25  45  66  93 136 186 230 286 348 407
#     4  10  19  34  59  95 129 167 218 277 334 399
#     4  11  19  38  64  95 140 175 225 282 339 402
#
# _framework density 22.400179000000001
#
# number of rings (size 3 to 8) (size 9 to 14) (size 15 to 20)
#    0.000    1.500    5.000    2.250    7.000    0.000 
#    0.000    3.125   11.000    3.750    0.000    0.000 
#    0.000    0.000    0.000    0.000    0.000    0.000 
#
# Total GULP energy -89301.904963 kJ/mol
# GULP energy per Si atom -5581.369060 kJ/mol
# Density = 2.234920 g / cm^3
# Si number density = 22.400179 Si / 1000 Ang^3
#
#
#
# Elastic Constant Matrix: (Units=GPa)
#
#
# Indices 1 2 3 4 5 6 
#
# 1 63.4956 48.5740 30.0236 0.4405 10.1680 -25.7073
# 2 48.5740 134.7240 63.0754 -17.3478 5.4144 -44.3223
# 3 30.0236 63.0754 114.8416 -20.5316 -18.7385 -12.2575
# 4 0.4405 -17.3478 -20.5316 46.6424 -7.3977 -1.5698
# 5 10.1680 5.4144 -18.7385 -7.3977 30.5882 0.8596
# 6 -25.7073 -44.3223 -12.2575 -1.5698 0.8596 33.7940
#
#
#
# Elastic Compliance Matrix: (Units=1/GPa)
#
#
# Indices 1 2 3 4 5 6 
#
# 1 0.032689 0.000223 -0.011017 -0.007542 -0.020078 0.021323
# 2 0.000223 0.020633 -0.010004 0.002501 -0.009924 0.023971
# 3 -0.011017 -0.010004 0.020294 0.008041 0.020211 -0.014282
# 4 -0.007542 0.002501 0.008041 0.028213 0.013774 0.001419
# 5 -0.020078 -0.009924 0.020211 0.013774 0.057448 -0.021780
# 6 0.021323 0.023971 -0.014282 0.001419 -0.021780 0.072690
#
#
# Mechanical properties :
#
#
# Convention : Reuss Voigt Hill
#
# Bulk Modulus (GPa) = 31.23184 66.26746 48.74965
# Shear Modulus (GPa) = 17.59098 33.63079 25.61089
#
# Velocity S-wave (km/s) = 2.80537 3.87895 3.38499
# Velocity P-wave (km/s) = 4.94635 7.05048 6.08998
#
# Compressibility (1/GPa) = 0.03201860
#
# Stress axis : x y z
#
# Youngs Moduli (GPa) = 30.59176 48.46641 49.27600
#
# Poissons Ratio (x) = -0.01082 0.54288
# Poissons Ratio (y) = -0.00683 0.49298
# Poissons Ratio (z) = 0.33703 0.48488
#
# Static dielectric constant tensor:
#      x y z
#    x 1.886420 0.039690 -0.004790 
#    y 0.039690 1.830920 -0.060050 
#    z -0.004790 -0.060050 1.849750 
# 
# From -- ./inp_files/343424.got.cif
#   From: 2010.05.17/outbox.cif.g08.bks.cpg/sg2_172_cif.got.tgz:343424.got - 2010.06.03 11:33:40.
