data_PCOD9076670
_publ_section_title
;
Structure prediction by ZEFSAII (Michael W. Deem and Ramdas Pophale) SiO2 
 PCOD9076670
Probable space group: P -1
;
_chemical_formula_sum "Si O2"
_cell_formula_units_Z 16
_cell_length_a 13.332660
_cell_length_b 13.660251
_cell_length_c 12.349989
_cell_angle_alpha 148.298131
_cell_angle_beta 138.483440
_cell_angle_gamma 29.948966
_cell_volume 589.508882
_symmetry_space_group_name_H-M "P -1"
_symmetry_group_IT_number 2
_symmetry_cell_setting 'triclinic'
loop_
_space_group_symop_operation_xyz
x,y,z
-x,-y,-z
loop_
_atom_site_type_symbol
_atom_site_label
_atom_site_fract_x
_atom_site_fract_y
_atom_site_fract_z
Si Si1 0.140394 0.321793 0.614911
Si Si2 0.868890 0.970385 0.482028
Si Si3 0.688842 0.442682 0.543583
Si Si4 0.172366 0.684559 0.077862
Si Si5 0.764601 0.244806 0.030892
Si Si6 0.719841 0.699178 0.510694
Si Si7 0.698376 0.145034 0.096924
Si Si8 0.495683 0.062300 0.220386
O O1 0.272191 0.186069 0.485194
O O2 0.927079 0.558345 0.612897
O O3 0.109361 0.167506 0.518284
O O4 0.211298 0.435061 0.855144
O O5 0.783748 0.238668 0.705102
O O6 0.711869 0.977559 0.292915
O O7 0.096259 0.788605 0.451845
O O8 0.500000 0.500000 0.500000
O O9 0.660274 0.685235 0.735431
O O10 0.682896 0.357455 0.339004
O O11 0.278014 0.708189 0.086095
O O12 0.929787 0.899879 0.072435
O O13 0.731506 0.480285 0.268944
O O14 0.660209 0.194209 0.984548
O O15 0.000000 0.000000 0.000000
O O16 0.550271 0.867510 0.622160
O O17 0.552046 0.113534 0.002409
#
# Coordination Sequence:
#
# PCOD9076670 Si02
#       8
#     2   2   2   2   2   2   2   2
#     4  10  18  34  57  87 127 169 206 241 289 358
#     4  11  24  40  62  94 127 161 204 254 308 360
#     4  11  25  48  69  87 118 159 207 265 321 369
#     4   9  18  33  57  86 126 170 205 237 287 362
#     4   9  16  29  56  89 122 168 211 239 287 357
#     4  10  18  33  58  88 128 169 205 245 292 356
#     4  10  19  37  63  90 120 162 202 251 311 361
#     4  12  24  40  64  95 126 157 208 256 309 374
#
# _framework density 27.141235000000002
#
# number of rings (size 3 to 8) (size 9 to 14) (size 15 to 20)
#    0.000    1.750    3.750    1.500    3.500    2.500 
#    0.000    1.875    0.000    0.000    0.000    0.000 
#    0.000    0.000    0.000    0.000    0.000    0.000 
#
# Total GULP energy -89671.404764 kJ/mol
# GULP energy per Si atom -5604.462798 kJ/mol
# Density = 2.707946 g / cm^3
# Si number density = 27.141235 Si / 1000 Ang^3
#
#
#
# Elastic Constant Matrix: (Units=GPa)
#
#
# Indices 1 2 3 4 5 6 
#
# 1 101.0039 13.3989 24.6657 -4.6654 -3.4266 -6.9372
# 2 13.3989 111.2062 10.3428 -13.7333 4.3426 -24.0895
# 3 24.6657 10.3428 107.3431 -3.6374 23.6248 3.8627
# 4 -4.6654 -13.7333 -3.6374 24.3023 -4.6994 12.2867
# 5 -3.4266 4.3426 23.6248 -4.6994 33.0224 -7.7932
# 6 -6.9372 -24.0895 3.8627 12.2867 -7.7932 42.8084
#
#
#
# Elastic Compliance Matrix: (Units=1/GPa)
#
#
# Indices 1 2 3 4 5 6 
#
# 1 0.011202 -0.000563 -0.003556 0.000975 0.004475 0.002354
# 2 -0.000563 0.010683 -0.001228 0.003288 0.001133 0.005294
# 3 -0.003556 -0.001228 0.012695 0.000826 -0.010237 -0.004514
# 4 0.000975 0.003288 0.000826 0.049930 0.003404 -0.011777
# 5 0.004475 0.001133 -0.010237 0.003404 0.040453 0.008674
# 6 0.002354 0.005294 -0.004514 -0.011777 0.008674 0.032087
#
#
# Mechanical properties :
#
#
# Convention : Reuss Voigt Hill
#
# Bulk Modulus (GPa) = 41.86861 46.26312 44.06587
# Shear Modulus (GPa) = 28.45635 38.10300 33.27967
#
# Velocity S-wave (km/s) = 3.24150 3.75090 3.50546
# Velocity P-wave (km/s) = 5.42858 5.98676 5.71449
#
# Compressibility (1/GPa) = 0.02388424
#
# Stress axis : x y z
#
# Youngs Moduli (GPa) = 89.26665 93.60741 78.77113
#
# Poissons Ratio (x) = 0.05274 0.28015
# Poissons Ratio (y) = 0.05029 0.09675
# Poissons Ratio (z) = 0.31747 0.11497
#
# Static dielectric constant tensor:
#      x y z
#    x 2.155030 -0.035090 -0.030850 
#    y -0.035090 2.150380 0.021620 
#    z -0.030850 0.021620 2.067600 
# 
# From -- ./inp_files/533927.got.cif
#   From: 2010.05.17/outbox.cif.g08.bks.cpg/sg2_267_cif.got.tgz:533927.got - 2010.06.03 11:33:40.
