data_PCOD9076548
_publ_section_title
;
Structure prediction by ZEFSAII (Michael W. Deem and Ramdas Pophale) SiO2 
 PCOD9076548
Probable space group: P -1
;
_chemical_formula_sum "Si O2"
_cell_formula_units_Z 16
_cell_length_a 11.368927
_cell_length_b 18.935771
_cell_length_c 8.424486
_cell_angle_alpha 35.564558
_cell_angle_beta 128.776199
_cell_angle_gamma 115.171863
_cell_volume 808.073380
_symmetry_space_group_name_H-M "P -1"
_symmetry_group_IT_number 2
_symmetry_cell_setting 'triclinic'
loop_
_space_group_symop_operation_xyz
x,y,z
-x,-y,-z
loop_
_atom_site_type_symbol
_atom_site_label
_atom_site_fract_x
_atom_site_fract_y
_atom_site_fract_z
Si Si1 0.758652 0.638748 0.861604
Si Si2 0.340091 0.542507 0.697360
Si Si3 0.876413 0.427263 0.108941
Si Si4 0.499937 0.150602 0.884366
Si Si5 0.878728 0.235675 0.710562
Si Si6 0.982897 0.818096 0.748345
Si Si7 0.705768 0.300730 0.930892
Si Si8 0.282246 0.970949 0.993905
O O1 0.616419 0.744893 0.502326
O O2 0.909607 0.697040 0.879694
O O3 0.742657 0.573989 0.134846
O O4 0.775432 0.530848 0.943761
O O5 0.240083 0.659373 0.488352
O O6 0.350943 0.589603 0.443730
O O7 0.500000 0.500000 0.000000
O O8 0.947781 0.310697 0.495132
O O9 0.766321 0.366900 0.010429
O O10 0.000000 0.500000 0.000000
O O11 0.574318 0.217362 0.967273
O O12 0.400955 0.046962 0.035827
O O13 0.628830 0.092437 0.971107
O O14 0.781078 0.131800 0.768691
O O15 0.994206 0.173449 0.058860
O O16 0.863911 0.931347 0.370044
O O17 0.144821 0.790369 0.847492
#
# Coordination Sequence:
#
# PCOD9076548 Si02
#       8
#     2   2   2   2   2   2   2   2
#     4  10  20  36  57  86 114 151 185 236 287 336
#     4  10  18  33  57  84 115 140 190 240 285 332
#     4  11  24  38  56  82 124 154 185 231 285 346
#     4  10  20  35  61  87 114 142 188 237 292 330
#     4  10  21  35  57  86 114 150 193 232 282 335
#     4  10  20  34  63  85 113 146 196 237 282 327
#     4  11  21  36  56  86 116 153 188 228 287 341
#     4  10  19  37  62  88 113 142 191 249 281 324
#
# _framework density 19.800184000000002
#
# number of rings (size 3 to 8) (size 9 to 14) (size 15 to 20)
#    0.000    1.750    5.000    0.375    1.750    2.000 
#    0.000    1.250    0.000    0.000    0.000    0.000 
#    0.000    0.000    0.000    0.000    0.000    0.000 
#
# Total GULP energy -89182.878137 kJ/mol
# GULP energy per Si atom -5573.929884 kJ/mol
# Density = 1.975512 g / cm^3
# Si number density = 19.800184 Si / 1000 Ang^3
#
#
#
# Elastic Constant Matrix: (Units=GPa)
#
#
# Indices 1 2 3 4 5 6 
#
# 1 30.0793 17.2498 14.4476 -7.0623 -5.6586 16.0475
# 2 17.2498 142.5657 15.1430 -9.9423 -16.7275 22.1198
# 3 14.4476 15.1430 35.4075 -15.1351 -3.7379 13.0464
# 4 -7.0623 -9.9423 -15.1351 30.1623 9.3216 -7.0734
# 5 -5.6586 -16.7275 -3.7379 9.3216 28.7737 -3.3395
# 6 16.0475 22.1198 13.0464 -7.0734 -3.3395 28.0434
#
#
#
# Elastic Compliance Matrix: (Units=1/GPa)
#
#
# Indices 1 2 3 4 5 6 
#
# 1 0.053146 -0.000825 -0.012707 -0.001611 0.006112 -0.023528
# 2 -0.000825 0.008520 -0.001097 -0.000486 0.004183 -0.005362
# 3 -0.012707 -0.001097 0.044348 0.018266 -0.004268 -0.008395
# 4 -0.001611 -0.000486 0.018266 0.046482 -0.012938 0.002991
# 5 0.006112 0.004183 -0.004268 -0.012938 0.041663 -0.003114
# 6 -0.023528 -0.005362 -0.008395 0.002991 -0.003114 0.057641
#
#
# Mechanical properties :
#
#
# Convention : Reuss Voigt Hill
#
# Bulk Modulus (GPa) = 13.02857 33.52592 23.27725
# Shear Modulus (GPa) = 16.30556 28.14336 22.22446
#
# Velocity S-wave (km/s) = 2.87279 3.77419 3.35391
# Velocity P-wave (km/s) = 4.19502 5.99680 5.17493
#
# Compressibility (1/GPa) = 0.07675441
#
# Stress axis : x y z
#
# Youngs Moduli (GPa) = 18.81607 117.37732 22.54903
#
# Poissons Ratio (x) = 0.09688 0.28652
# Poissons Ratio (y) = 0.01553 0.02474
# Poissons Ratio (z) = 0.23909 0.12880
#
# Static dielectric constant tensor:
#      x y z
#    x 1.736330 0.030140 -0.028010 
#    y 0.030140 1.747030 -0.007850 
#    z -0.028010 -0.007850 1.696510 
# 
# From -- ./inp_files/208741.got.cif
#   From: 2010.05.17/outbox.cif.g08.bks.cpg/sg2_105_cif.got.tgz:208741.got - 2010.06.03 11:33:40.
