data_PCOD9076510
_publ_section_title
;
Structure prediction by ZEFSAII (Michael W. Deem and Ramdas Pophale) SiO2 
 PCOD9076510
Probable space group: P -1
;
_chemical_formula_sum "Si O2"
_cell_formula_units_Z 15
_cell_length_a 7.511020
_cell_length_b 9.194675
_cell_length_c 11.976846
_cell_angle_alpha 41.988225
_cell_angle_beta 112.332874
_cell_angle_gamma 108.259482
_cell_volume 511.194135
_symmetry_space_group_name_H-M "P -1"
_symmetry_group_IT_number 2
_symmetry_cell_setting 'triclinic'
loop_
_space_group_symop_operation_xyz
x,y,z
-x,-y,-z
loop_
_atom_site_type_symbol
_atom_site_label
_atom_site_fract_x
_atom_site_fract_y
_atom_site_fract_z
Si Si1 0.083695 0.778805 0.985095
Si Si2 0.354167 0.671762 0.682032
Si Si3 0.025367 0.382168 0.708975
Si Si4 0.500000 0.500000 0.500000
Si Si5 0.698294 0.078653 0.850650
Si Si6 0.190464 0.224693 0.510228
Si Si7 0.789243 0.858118 0.676639
Si Si8 0.651126 0.222926 0.130500
O O1 0.910954 0.809018 0.841759
O O2 0.246123 0.667018 0.014318
O O3 0.208013 0.967263 0.979282
O O4 0.999382 0.650447 0.144752
O O5 0.246770 0.473196 0.701279
O O6 0.576698 0.747871 0.689889
O O7 0.242285 0.884551 0.494951
O O8 0.330815 0.647868 0.824605
O O9 0.876262 0.177892 0.757927
O O10 0.900984 0.597819 0.531001
O O11 0.575865 0.291698 0.711472
O O12 0.407138 0.324808 0.491070
O O13 0.562963 0.880036 0.887365
O O14 0.109502 0.209080 0.376388
O O15 0.222197 0.992975 0.703337
#
# Coordination Sequence:
#
# PCOD9076510 Si02
#       8
#     2   2   2   1   2   2   2   2
#     4  10  20  32  54  82 108 130 171 225 262 305
#     4  10  21  36  53  75 102 150 177 213 246 316
#     4   9  19  33  52  80 105 128 174 215 269 296
#     4   8  14  32  52  76 100 130 168 204 262 306
#     4   8  18  32  53  78 107 134 164 218 264 310
#     4   9  17  32  55  77 101 137 167 219 255 309
#     4  10  21  35  52  76 108 138 182 210 258 305
#     4  10  18  33  57  76 106 136 180 207 262 308
#
# _framework density 29.343060999999999
#
# number of rings (size 3 to 8) (size 9 to 14) (size 15 to 20)
#    0.800    1.867    0.000    2.000    0.000    4.800 
#    0.000    0.667    0.000   24.800    0.000    0.000 
#    0.000    0.000    0.000    0.000    0.000    0.000 
#
# Total GULP energy -83565.780851 kJ/mol
# GULP energy per Si atom -5571.052057 kJ/mol
# Density = 2.927627 g / cm^3
# Si number density = 29.343061 Si / 1000 Ang^3
#
#
#
# Elastic Constant Matrix: (Units=GPa)
#
#
# Indices 1 2 3 4 5 6 
#
# 1 51.9040 38.6840 -2.6221 -5.9177 -8.3807 23.5218
# 2 38.6840 187.1373 15.9583 25.2285 -9.4029 47.4157
# 3 -2.6221 15.9583 50.3252 22.5762 26.4764 22.4380
# 4 -5.9177 25.2285 22.5762 50.0048 11.3025 -1.0671
# 5 -8.3807 -9.4029 26.4764 11.3025 43.7662 -14.4939
# 6 23.5218 47.4157 22.4380 -1.0671 -14.4939 37.0054
#
#
#
# Elastic Compliance Matrix: (Units=1/GPa)
#
#
# Indices 1 2 3 4 5 6 
#
# 1 0.016130 -0.009727 -0.032448 0.015964 0.027469 0.033105
# 2 -0.009727 0.005349 -0.018203 0.001233 0.015426 0.016444
# 3 -0.032448 -0.018203 -0.085656 0.029548 0.075950 0.126486
# 4 0.015964 0.001233 0.029548 0.014285 -0.032084 -0.041797
# 5 0.027469 0.015426 0.075950 -0.032084 -0.039208 -0.099560
# 6 0.033105 0.016444 0.126486 -0.041797 -0.099560 -0.131983
#
#
# Mechanical properties :
#
#
# Convention : Reuss Voigt Hill
#
# Bulk Modulus (GPa) = -5.40732 43.71190 19.15229
# Shear Modulus (GPa) = -30.87001 41.97835 5.55417
#
# Velocity S-wave (km/s) = -3.24703 3.78644 1.37730
# Velocity P-wave (km/s) = 3.98803 5.83484 3.01172
#
# Compressibility (1/GPa) = -0.18493453
#
# Stress axis : x y z
#
# Youngs Moduli (GPa) = 61.99788 186.94439 -11.67467
#
# Poissons Ratio (x) = 1.81840 -0.37882
# Poissons Ratio (y) = 0.60305 -0.21252
# Poissons Ratio (z) = 2.01173 3.40304
#
# Static dielectric constant tensor:
#      x y z
#    x 2.510190 0.098110 -0.014870 
#    y 0.098110 2.252690 -0.090180 
#    z -0.014870 -0.090180 2.417830 
# 
# From -- ./inp_files/501650.got.cif
#   From: 2010.05.17/outbox.cif.g08.bks.cpg/sg2_251_cif.got.tgz:501650.got - 2010.06.03 11:33:40.
