data_PCOD9076499
_publ_section_title
;
Structure prediction by ZEFSAII (Michael W. Deem and Ramdas Pophale) SiO2 
 PCOD9076499
Probable space group: P -1
;
_chemical_formula_sum "Si O2"
_cell_formula_units_Z 12
_cell_length_a 8.795682
_cell_length_b 6.769226
_cell_length_c 9.006180
_cell_angle_alpha 103.048517
_cell_angle_beta 105.271882
_cell_angle_gamma 53.905117
_cell_volume 416.275701
_symmetry_space_group_name_H-M "P -1"
_symmetry_group_IT_number 2
_symmetry_cell_setting 'triclinic'
loop_
_space_group_symop_operation_xyz
x,y,z
-x,-y,-z
loop_
_atom_site_type_symbol
_atom_site_label
_atom_site_fract_x
_atom_site_fract_y
_atom_site_fract_z
Si Si1 0.921202 0.421708 0.196017
Si Si2 0.687217 0.190639 0.196915
Si Si3 0.746787 0.383369 0.863800
Si Si4 0.795072 0.262312 0.510089
Si Si5 0.362084 0.223101 0.613330
Si Si6 0.707813 0.975246 0.881918
O O1 0.838090 0.265104 0.214576
O O2 0.841046 0.648450 0.327518
O O3 0.851070 0.461314 0.014370
O O4 0.148928 0.271434 0.213305
O O5 0.476307 0.413375 0.137325
O O6 0.678027 0.176379 0.370219
O O7 0.715535 0.975974 0.062574
O O8 0.782198 0.321129 0.689598
O O9 0.795151 0.131018 0.899092
O O10 0.697768 0.533637 0.457080
O O11 0.000000 0.000000 0.500000
O O12 0.503569 0.135751 0.778307
O O13 0.500000 0.000000 0.500000
#
# Coordination Sequence:
#
# PCOD9076499 Si02
#       6
#     2   2   2   2   2   2
#     4  10  19  35  58  85 114 152 193 236 284 350
#     4  10  18  33  56  89 118 148 185 240 294 342
#     4  11  17  33  59  88 117 146 186 246 297 329
#     4  11  22  36  58  92 122 143 188 247 293 334
#     4  11  24  42  58  81 119 159 196 233 282 352
#     4  11  19  35  61  84 116 154 194 236 287 342
#
# _framework density 28.827048999999999
#
# number of rings (size 3 to 8) (size 9 to 14) (size 15 to 20)
#    0.000    1.333    5.000    6.500    0.000    0.667 
#    0.000    0.833    0.000    2.000    0.000    0.000 
#    0.000    0.000    0.000    0.000    0.000    0.000 
#
# Total GULP energy -66895.282580 kJ/mol
# GULP energy per Si atom -5574.606882 kJ/mol
# Density = 2.876144 g / cm^3
# Si number density = 28.827049 Si / 1000 Ang^3
#
#
#
# Elastic Constant Matrix: (Units=GPa)
#
#
# Indices 1 2 3 4 5 6 
#
# 1 61.8158 48.7183 23.9289 -1.2795 -10.5843 -7.9108
# 2 48.7183 196.7478 65.0350 42.9631 -15.3774 -31.1105
# 3 23.9289 65.0350 207.5490 25.1904 -25.8601 12.5751
# 4 -1.2795 42.9631 25.1904 67.4446 -15.6827 1.4078
# 5 -10.5843 -15.3774 -25.8601 -15.6827 43.0928 2.5626
# 6 -7.9108 -31.1105 12.5751 1.4078 2.5626 51.2142
#
#
#
# Elastic Compliance Matrix: (Units=1/GPa)
#
#
# Indices 1 2 3 4 5 6 
#
# 1 0.022281 -0.006289 -0.000646 0.005848 0.005006 -0.000631
# 2 -0.006289 0.009303 -0.002048 -0.005836 -0.001901 0.005438
# 3 -0.000646 -0.002048 0.006102 -0.000261 0.002855 -0.002978
# 4 0.005848 -0.005836 -0.000261 0.020415 0.006834 -0.003481
# 5 0.005006 -0.001901 0.002855 0.006834 0.028116 -0.002677
# 6 -0.000631 0.005438 -0.002978 -0.003481 -0.002677 0.023692
#
#
# Mechanical properties :
#
#
# Convention : Reuss Voigt Hill
#
# Bulk Modulus (GPa) = 50.71012 82.38633 66.54823
# Shear Modulus (GPa) = 37.18910 54.24568 45.71739
#
# Velocity S-wave (km/s) = 3.59566 4.34264 3.98668
# Velocity P-wave (km/s) = 5.90489 7.33391 6.65785
#
# Compressibility (1/GPa) = 0.01971993
#
# Stress axis : x y z
#
# Youngs Moduli (GPa) = 44.88083 107.49786 163.87917
#
# Poissons Ratio (x) = 0.67608 0.10584
# Poissons Ratio (y) = 0.28227 0.33561
# Poissons Ratio (z) = 0.02898 0.22014
#
# Static dielectric constant tensor:
#      x y z
#    x 2.350930 0.102700 -0.087310 
#    y 0.102700 2.287410 0.065930 
#    z -0.087310 0.065930 2.344190 
# 
# From -- ./inp_files/181511.got.cif
#   From: 2010.05.17/outbox.cif.g08.bks.cpg/sg2_91_cif.got.tgz:181511.got - 2010.06.03 11:33:40.
