data_PCOD9076965
_publ_section_title
;
Structure prediction by ZEFSAII (Michael W. Deem and Ramdas Pophale) SiO2 
 PCOD9076965
Probable space group: P -1
;
_chemical_formula_sum "Si O2"
_cell_formula_units_Z 13
_cell_length_a 19.256529
_cell_length_b 8.200666
_cell_length_c 9.517482
_cell_angle_alpha 134.187191
_cell_angle_beta 34.243698
_cell_angle_gamma 139.532495
_cell_volume 539.269606
_symmetry_space_group_name_H-M "P -1"
_symmetry_group_IT_number 2
_symmetry_cell_setting 'triclinic'
loop_
_space_group_symop_operation_xyz
x,y,z
-x,-y,-z
loop_
_atom_site_type_symbol
_atom_site_label
_atom_site_fract_x
_atom_site_fract_y
_atom_site_fract_z
Si Si1 0.526805 0.297145 0.999726
Si Si2 0.000000 0.500000 0.000000
Si Si3 0.560877 0.337468 0.460735
Si Si4 0.297223 0.903628 0.714005
Si Si5 0.944548 0.229973 0.628684
Si Si6 0.776678 0.729491 0.751743
Si Si7 0.303878 0.749886 0.060201
O O1 0.633817 0.476900 0.810185
O O2 0.396638 0.037468 0.016686
O O3 0.466395 0.447684 0.288743
O O4 0.630688 0.245604 0.896783
O O5 0.147923 0.690460 0.787817
O O6 0.938588 0.347547 0.861407
O O7 0.635673 0.233563 0.383343
O O8 0.657917 0.423942 0.213187
O O9 0.413267 0.092157 0.524661
O O10 0.274387 0.110372 0.968653
O O11 0.104538 0.305327 0.381747
O O12 0.864199 0.917046 0.591233
O O13 0.854180 0.304669 0.719778
#
# Coordination Sequence:
#
# PCOD9076965 Si02
#       7
#     2   1   2   2   2   2   2
#     4  10  24  37  62  79 120 148 194 226 289 323
#     4  10  18  34  52  88 108 150 174 240 276 334
#     4  10  19  39  57  84 114 150 182 241 274 337
#     4   9  19  34  57  86 113 140 193 228 284 333
#     4  10  21  36  60  81 120 140 195 229 288 327
#     4   9  19  39  55  87 108 154 181 242 273 342
#     4  11  22  41  55  90 110 155 188 234 274 352
#
# _framework density 24.106680999999998
#
# number of rings (size 3 to 8) (size 9 to 14) (size 15 to 20)
#    0.000    2.154    3.077    0.462    2.154    4.923 
#    0.000    0.000    0.000    4.615    0.000    0.000 
#    0.000    0.000    0.000    0.000    0.000    0.000 
#
# Total GULP energy -72372.530274 kJ/mol
# GULP energy per Si atom -5567.117713 kJ/mol
# Density = 2.405181 g / cm^3
# Si number density = 24.106681 Si / 1000 Ang^3
#
#
#
# Elastic Constant Matrix: (Units=GPa)
#
#
# Indices 1 2 3 4 5 6 
#
# 1 80.4987 -0.8191 31.9627 16.1377 -17.9311 7.9990
# 2 -0.8191 78.1205 25.0570 -11.7659 -5.1861 20.6540
# 3 31.9627 25.0570 98.5678 -2.3699 -33.7463 6.6294
# 4 16.1377 -11.7659 -2.3699 25.9797 6.1351 -1.3561
# 5 -17.9311 -5.1861 -33.7463 6.1351 32.1732 -2.0434
# 6 7.9990 20.6540 6.6294 -1.3561 -2.0434 21.5522
#
#
#
# Elastic Compliance Matrix: (Units=1/GPa)
#
#
# Indices 1 2 3 4 5 6 
#
# 1 0.019676 0.001838 -0.003164 -0.014506 0.010200 -0.008037
# 2 0.001838 0.020438 -0.005918 0.007682 -0.004521 -0.018394
# 3 -0.003164 -0.005918 0.018330 -0.002976 0.017245 0.002655
# 4 -0.014506 0.007682 -0.002976 0.055585 -0.020537 0.000488
# 5 0.010200 -0.004521 0.017245 -0.020537 0.058007 -0.000550
# 6 -0.008037 -0.018394 0.002655 0.000488 -0.000550 0.066171
#
#
# Mechanical properties :
#
#
# Convention : Reuss Voigt Hill
#
# Bulk Modulus (GPa) = 22.74965 41.06538 31.90752
# Shear Modulus (GPa) = 18.70237 29.34012 24.02124
#
# Velocity S-wave (km/s) = 2.78837 3.49247 3.16009
# Velocity P-wave (km/s) = 4.45244 5.77365 5.15554
#
# Compressibility (1/GPa) = 0.04395673
#
# Stress axis : x y z
#
# Youngs Moduli (GPa) = 50.82265 48.92850 54.55682
#
# Poissons Ratio (x) = -0.08994 0.17262
# Poissons Ratio (y) = -0.09343 0.32286
# Poissons Ratio (z) = 0.16080 0.28955
#
# Static dielectric constant tensor:
#      x y z
#    x 1.872830 -0.072610 -0.024640 
#    y -0.072610 2.010390 0.000900 
#    z -0.024640 0.000900 1.981690 
# 
# From -- ./inp_files/265633.got.cif
#   From: 2010.05.17/outbox.cif.g08.bks.cpg/sg2_133_cif.got.tgz:265633.got - 2010.06.03 11:33:40.
