data_PCOD9076263
_publ_section_title
;
Structure prediction by ZEFSAII (Michael W. Deem and Ramdas Pophale) SiO2 
 PCOD9076263
Probable space group: P -1
;
_chemical_formula_sum "Si O2"
_cell_formula_units_Z 16
_cell_length_a 12.277357
_cell_length_b 17.569459
_cell_length_c 9.357016
_cell_angle_alpha 59.440333
_cell_angle_beta 102.426329
_cell_angle_gamma 49.636111
_cell_volume 738.952036
_symmetry_space_group_name_H-M "P -1"
_symmetry_group_IT_number 2
_symmetry_cell_setting 'triclinic'
loop_
_space_group_symop_operation_xyz
x,y,z
-x,-y,-z
loop_
_atom_site_type_symbol
_atom_site_label
_atom_site_fract_x
_atom_site_fract_y
_atom_site_fract_z
Si Si1 0.689205 0.533520 0.202588
Si Si2 0.926389 0.517274 0.807571
Si Si3 0.842104 0.685876 0.368019
Si Si4 0.596539 0.629452 0.762229
Si Si5 0.116822 0.008702 0.582586
Si Si6 0.390663 0.106508 0.171919
Si Si7 0.325490 0.645336 0.672971
Si Si8 0.728591 0.968382 0.607193
O O1 0.647239 0.462613 0.307986
O O2 0.944748 0.391005 0.476664
O O3 0.728123 0.508799 0.064665
O O4 0.421769 0.777965 0.915277
O O5 0.771004 0.694731 0.492852
O O6 0.784542 0.526676 0.788933
O O7 0.000000 0.500000 0.000000
O O8 0.188250 0.317172 0.988472
O O9 0.000000 0.500000 0.500000
O O10 0.616489 0.873827 0.017360
O O11 0.421192 0.672676 0.623624
O O12 0.443313 0.827283 0.576301
O O13 0.068318 0.117931 0.342775
O O14 0.000000 0.000000 0.500000
O O15 0.963599 0.141224 0.555005
O O16 0.641021 0.960357 0.466049
O O17 0.280838 0.090040 0.204065
O O18 0.500000 0.500000 0.000000
#
# Coordination Sequence:
#
# PCOD9076263 Si02
#       8
#     2   2   2   2   2   2   2   2
#     4  10  20  34  59  86 118 153 199 243 287 358
#     4  11  18  31  59  83 112 149 192 239 290 347
#     4  10  20  38  60  83 119 159 192 237 306 363
#     4  10  18  33  53  85 113 145 191 245 284 341
#     4  11  18  32  58  88 118 153 188 254 295 335
#     4  10  22  36  58  84 115 155 192 239 301 364
#     4  10  20  32  54  90 117 150 203 245 291 344
#     4  10  20  35  57  84 117 145 196 243 291 353
#
# _framework density 21.652284000000002
#
# number of rings (size 3 to 8) (size 9 to 14) (size 15 to 20)
#    0.000    1.750    6.250    2.250    3.500    0.000 
#    0.000    0.625    5.500    9.000    0.000    0.000 
#    0.000    0.000    0.000    0.000    0.000    0.000 
#
# Total GULP energy -89139.112745 kJ/mol
# GULP energy per Si atom -5571.194547 kJ/mol
# Density = 2.160300 g / cm^3
# Si number density = 21.652284 Si / 1000 Ang^3
#
#
#
# Elastic Constant Matrix: (Units=GPa)
#
#
# Indices 1 2 3 4 5 6 
#
# 1 137.9085 13.0099 18.8687 17.4728 -11.5988 -4.7458
# 2 13.0099 52.9667 16.3011 5.0221 -6.4849 -5.7180
# 3 18.8687 16.3011 47.8082 15.4973 -14.9275 -5.9116
# 4 17.4728 5.0221 15.4973 31.5088 -6.2163 -2.8697
# 5 -11.5988 -6.4849 -14.9275 -6.2163 29.9765 -3.3277
# 6 -4.7458 -5.7180 -5.9116 -2.8697 -3.3277 37.8470
#
#
#
# Elastic Compliance Matrix: (Units=1/GPa)
#
#
# Indices 1 2 3 4 5 6 
#
# 1 0.008096 -0.001047 -0.001143 -0.003373 0.001701 0.000572
# 2 -0.001047 0.021465 -0.006431 0.000820 0.001461 0.002298
# 3 -0.001143 -0.006431 0.031363 -0.011048 0.011937 0.003996
# 4 -0.003373 0.000820 -0.011048 0.039337 0.001651 0.001103
# 5 0.001701 0.001461 0.011937 0.001651 0.041292 0.006054
# 6 0.000572 0.002298 0.003996 0.001103 0.006054 0.028081
#
#
# Mechanical properties :
#
#
# Convention : Reuss Voigt Hill
#
# Bulk Modulus (GPa) = 22.89258 37.22700 30.05979
# Shear Modulus (GPa) = 24.82135 32.56672 28.69404
#
# Velocity S-wave (km/s) = 3.38947 3.88245 3.64431
# Velocity P-wave (km/s) = 5.09056 6.10969 5.62326
#
# Compressibility (1/GPa) = 0.04368228
#
# Stress axis : x y z
#
# Youngs Moduli (GPa) = 123.51050 46.58647 31.88428
#
# Poissons Ratio (x) = 0.04878 0.03645
# Poissons Ratio (y) = 0.12931 0.20506
# Poissons Ratio (z) = 0.14120 0.29961
#
# Static dielectric constant tensor:
#      x y z
#    x 1.887210 0.009230 -0.026920 
#    y 0.009230 1.848680 -0.067910 
#    z -0.026920 -0.067910 1.921100 
# 
# From -- ./inp_files/277591.got.cif
#   From: 2010.05.17/outbox.cif.g08.bks.cpg/sg2_139_cif.got.tgz:277591.got - 2010.06.03 11:33:40.
