data_PCOD9076332
_publ_section_title
;
Structure prediction by ZEFSAII (Michael W. Deem and Ramdas Pophale) SiO2 
 PCOD9076332
Probable space group: P -1
;
_chemical_formula_sum "Si O2"
_cell_formula_units_Z 14
_cell_length_a 9.003925
_cell_length_b 8.598744
_cell_length_c 15.309532
_cell_angle_alpha 46.942041
_cell_angle_beta 47.395488
_cell_angle_gamma 66.499301
_cell_volume 633.009269
_symmetry_space_group_name_H-M "P -1"
_symmetry_group_IT_number 2
_symmetry_cell_setting 'triclinic'
loop_
_space_group_symop_operation_xyz
x,y,z
-x,-y,-z
loop_
_atom_site_type_symbol
_atom_site_label
_atom_site_fract_x
_atom_site_fract_y
_atom_site_fract_z
Si Si1 0.909309 0.298393 0.233274
Si Si2 0.146066 0.713810 0.940848
Si Si3 0.588736 0.749688 0.776665
Si Si4 0.535856 0.477725 0.391768
Si Si5 0.457982 0.243676 0.021682
Si Si6 0.695008 0.873443 0.494172
Si Si7 0.278422 0.130435 0.949281
O O1 0.835800 0.344032 0.146396
O O2 0.736589 0.356114 0.346250
O O3 0.894463 0.041642 0.334786
O O4 0.092480 0.487790 0.098676
O O5 0.364809 0.828511 0.832938
O O6 0.959048 0.849265 0.978112
O O7 0.547621 0.491870 0.891172
O O8 0.694841 0.819124 0.617618
O O9 0.665772 0.817856 0.815898
O O10 0.500000 0.500000 0.500000
O O11 0.351608 0.335491 0.468397
O O12 0.594233 0.700769 0.231193
O O13 0.328461 0.201665 0.001826
O O14 0.642908 0.099015 0.000901
O O15 0.500000 0.000000 0.500000
#
# Coordination Sequence:
#
# PCOD9076332 Si02
#       7
#     2   2   2   2   2   2   2
#     4   9  18  31  56  84 114 146 183 244 293 329
#     4  10  18  36  63  89 115 145 202 247 286 330
#     4  11  20  37  63  89 112 154 203 243 276 355
#     4  10  19  31  54  88 117 141 194 248 284 329
#     4  10  22  36  56  87 122 158 192 231 295 359
#     4  10  18  33  54  90 113 147 195 248 282 337
#     4  10  21  38  57  89 120 155 186 247 295 340
#
# _framework density 22.116579999999999
#
# number of rings (size 3 to 8) (size 9 to 14) (size 15 to 20)
#    0.000    2.000    4.286    1.714    4.000    0.571 
#    0.000    1.429    0.000   11.143    0.000    0.000 
#    0.000    0.000    0.000    0.000    0.000    0.000 
#
# Total GULP energy -78093.462503 kJ/mol
# GULP energy per Si atom -5578.104465 kJ/mol
# Density = 2.206624 g / cm^3
# Si number density = 22.116580 Si / 1000 Ang^3
#
#
#
# Elastic Constant Matrix: (Units=GPa)
#
#
# Indices 1 2 3 4 5 6 
#
# 1 71.1625 23.0854 32.4956 12.4612 17.8335 -0.6162
# 2 23.0854 75.1073 33.3376 9.8089 14.7219 -7.2238
# 3 32.4956 33.3376 132.2539 10.2977 21.8055 21.0939
# 4 12.4612 9.8089 10.2977 29.5743 9.6675 16.5455
# 5 17.8335 14.7219 21.8055 9.6675 37.7517 10.2721
# 6 -0.6162 -7.2238 21.0939 16.5455 10.2721 38.6303
#
#
#
# Elastic Compliance Matrix: (Units=1/GPa)
#
#
# Indices 1 2 3 4 5 6 
#
# 1 0.019391 -0.001080 -0.004004 -0.008653 -0.006299 0.007675
# 2 -0.001080 0.018988 -0.004819 -0.008864 -0.004907 0.011266
# 3 -0.004004 -0.004819 0.011005 0.004754 -0.001457 -0.008623
# 4 -0.008653 -0.008864 0.004754 0.054594 -0.001752 -0.027308
# 5 -0.006299 -0.004907 -0.001457 -0.001752 0.035061 -0.008795
# 6 0.007675 0.011266 -0.008623 -0.027308 -0.008795 0.046859
#
#
# Mechanical properties :
#
#
# Convention : Reuss Voigt Hill
#
# Bulk Modulus (GPa) = 33.80819 50.70677 42.25748
# Shear Modulus (GPa) = 23.19498 33.83160 28.51329
#
# Velocity S-wave (km/s) = 3.24197 3.91537 3.59448
# Velocity P-wave (km/s) = 5.41603 6.58916 6.03118
#
# Compressibility (1/GPa) = 0.02957863
#
# Stress axis : x y z
#
# Youngs Moduli (GPa) = 51.56955 52.66484 90.86689
#
# Poissons Ratio (x) = 0.05688 0.36384
# Poissons Ratio (y) = 0.05570 0.43786
# Poissons Ratio (z) = 0.20649 0.25377
#
# Static dielectric constant tensor:
#      x y z
#    x 1.884600 0.005470 -0.031120 
#    y 0.005470 1.861850 -0.004750 
#    z -0.031120 -0.004750 1.842000 
# 
# From -- ./inp_files/491942.got.cif
#   From: 2010.05.17/outbox.cif.g08.bks.cpg/sg2_246_cif.got.tgz:491942.got - 2010.06.03 11:33:40.
