data_PCOD9076669
_publ_section_title
;
Structure prediction by ZEFSAII (Michael W. Deem and Ramdas Pophale) SiO2 
 PCOD9076669
Probable space group: P -1
;
_chemical_formula_sum "Si O2"
_cell_formula_units_Z 15
_cell_length_a 11.179721
_cell_length_b 11.712911
_cell_length_c 8.020592
_cell_angle_alpha 109.634871
_cell_angle_beta 58.819202
_cell_angle_gamma 64.606890
_cell_volume 561.607542
_symmetry_space_group_name_H-M "P -1"
_symmetry_group_IT_number 2
_symmetry_cell_setting 'triclinic'
loop_
_space_group_symop_operation_xyz
x,y,z
-x,-y,-z
loop_
_atom_site_type_symbol
_atom_site_label
_atom_site_fract_x
_atom_site_fract_y
_atom_site_fract_z
Si Si1 0.935646 0.933752 0.636156
Si Si2 0.844997 0.746722 0.441678
Si Si3 0.111713 0.207219 0.919925
Si Si4 0.500000 0.000000 0.500000
Si Si5 0.368869 0.592430 0.346670
Si Si6 0.838692 0.168739 0.076727
Si Si7 0.340132 0.377966 0.830610
Si Si8 0.701971 0.593152 0.526441
O O1 0.839294 0.878741 0.596814
O O2 0.153550 0.754552 0.482291
O O3 0.000000 0.000000 0.500000
O O4 0.783195 0.100915 0.957051
O O5 0.760105 0.813854 0.341713
O O6 0.723124 0.720687 0.611498
O O7 0.090243 0.548478 0.138116
O O8 0.325780 0.045666 0.779575
O O9 0.981020 0.186428 0.913829
O O10 0.945557 0.385324 0.235954
O O11 0.442536 0.184499 0.714906
O O12 0.325893 0.662365 0.602841
O O13 0.547195 0.572613 0.153927
O O14 0.401839 0.428748 0.274104
O O15 0.000000 0.000000 0.000000
O O16 0.351678 0.379193 0.619536
#
# Coordination Sequence:
#
# PCOD9076669 Si02
#       8
#     2   2   2   1   2   2   2   2
#     4  11  22  38  63  94 128 168 205 258 315 380
#     4  11  21  39  62  89 132 166 202 252 323 374
#     4  10  18  33  58  88 120 157 208 254 298 367
#     4  12  18  30  60  94 124 150 214 258 302 350
#     4  10  23  39  66  92 124 166 216 254 311 371
#     4   9  18  36  57  90 118 158 209 251 299 363
#     4  11  22  37  65  97 124 163 210 271 302 365
#     4  10  20  41  59  90 127 167 208 252 317 371
#
# _framework density 26.709043000000001
#
# number of rings (size 3 to 8) (size 9 to 14) (size 15 to 20)
#    0.000    1.600    4.000    2.800    0.000    1.067 
#    0.000    0.000    0.000    0.800    0.000    0.000 
#    0.000    0.000    0.000    0.000    0.000    0.000 
#
# Total GULP energy -83612.545740 kJ/mol
# GULP energy per Si atom -5574.169716 kJ/mol
# Density = 2.664825 g / cm^3
# Si number density = 26.709043 Si / 1000 Ang^3
#
#
#
# Elastic Constant Matrix: (Units=GPa)
#
#
# Indices 1 2 3 4 5 6 
#
# 1 146.7389 63.1090 18.8801 -2.6652 -5.2129 45.3343
# 2 63.1090 170.0673 30.7929 7.8898 -5.4430 27.3978
# 3 18.8801 30.7929 35.1142 -2.7511 -3.3182 3.1313
# 4 -2.6652 7.8898 -2.7511 29.1088 -9.7795 -10.7373
# 5 -5.2129 -5.4430 -3.3182 -9.7795 41.2405 12.9108
# 6 45.3343 27.3978 3.1313 -10.7373 12.9108 61.4999
#
#
#
# Elastic Compliance Matrix: (Units=1/GPa)
#
#
# Indices 1 2 3 4 5 6 
#
# 1 0.010437 -0.002043 -0.002917 -0.000467 0.003004 -0.007347
# 2 -0.002043 0.008402 -0.006321 -0.003963 0.000234 -0.002656
# 3 -0.002917 -0.006321 0.035992 0.007006 0.002130 0.003910
# 4 -0.000467 -0.003963 0.007006 0.041280 0.007455 0.007395
# 5 0.003004 0.000234 0.002130 0.007455 0.028846 -0.007181
# 6 -0.007347 -0.002656 0.003910 0.007395 -0.007181 0.025459
#
#
# Mechanical properties :
#
#
# Convention : Reuss Voigt Hill
#
# Bulk Modulus (GPa) = 30.99106 64.16494 47.57800
# Shear Modulus (GPa) = 27.21319 42.31240 34.76279
#
# Velocity S-wave (km/s) = 3.19545 3.98452 3.61160
# Velocity P-wave (km/s) = 5.02423 6.72639 5.93663
#
# Compressibility (1/GPa) = 0.03226737
#
# Stress axis : x y z
#
# Youngs Moduli (GPa) = 95.81243 119.01994 27.78420
#
# Poissons Ratio (x) = 0.24320 0.08106
# Poissons Ratio (y) = 0.19578 0.17562
# Poissons Ratio (z) = 0.27953 0.75231
#
# Static dielectric constant tensor:
#      x y z
#    x 2.269200 -0.047130 -0.052070 
#    y -0.047130 2.210780 0.041000 
#    z -0.052070 0.041000 2.156540 
# 
# From -- ./inp_files/259400.got.cif
#   From: 2010.05.17/outbox.cif.g08.bks.cpg/sg2_130_cif.got.tgz:259400.got - 2010.06.03 11:33:40.
