data_PCOD9076533
_publ_section_title
;
Structure prediction by ZEFSAII (Michael W. Deem and Ramdas Pophale) SiO2 
 PCOD9076533
Probable space group: P -1
;
_chemical_formula_sum "Si O2"
_cell_formula_units_Z 14
_cell_length_a 7.886123
_cell_length_b 8.811645
_cell_length_c 12.432439
_cell_angle_alpha 80.683796
_cell_angle_beta 125.360300
_cell_angle_gamma 81.988983
_cell_volume 665.474197
_symmetry_space_group_name_H-M "P -1"
_symmetry_group_IT_number 2
_symmetry_cell_setting 'triclinic'
loop_
_space_group_symop_operation_xyz
x,y,z
-x,-y,-z
loop_
_atom_site_type_symbol
_atom_site_label
_atom_site_fract_x
_atom_site_fract_y
_atom_site_fract_z
Si Si1 0.949605 0.013221 0.106684
Si Si2 0.912918 0.389726 0.313612
Si Si3 0.204603 0.641296 0.959993
Si Si4 0.929381 0.328195 0.720449
Si Si5 0.241843 0.068903 0.402128
Si Si6 0.745540 0.579780 0.812546
Si Si7 0.713259 0.241995 0.450143
O O1 0.926507 0.844347 0.162025
O O2 0.134804 0.040616 0.252604
O O3 0.765232 0.183996 0.030252
O O4 0.000000 0.000000 0.000000
O O5 0.772890 0.394105 0.153452
O O6 0.820329 0.329314 0.391412
O O7 0.945547 0.565062 0.310557
O O8 0.137126 0.250898 0.382116
O O9 0.953912 0.644703 0.899077
O O10 0.326190 0.499252 0.099321
O O11 0.822720 0.436872 0.770283
O O12 0.749353 0.304131 0.574881
O O13 0.500000 0.000000 0.500000
O O14 0.180447 0.948534 0.478984
O O15 0.538881 0.714012 0.677874
#
# Coordination Sequence:
#
# PCOD9076533 Si02
#       7
#     2   2   2   2   2   2   2
#     4  10  18  33  57  83 105 136 185 233 275 310
#     4  10  21  37  54  79 115 145 179 218 280 333
#     4   9  19  35  55  79 107 145 181 229 269 322
#     4  10  20  34  55  80 110 143 184 226 272 319
#     4  10  21  38  58  84 109 142 188 229 273 327
#     4  10  19  34  56  81 108 140 191 226 266 319
#     4  11  21  34  56  83 111 146 176 227 277 327
#
# _framework density 21.03763
#
# number of rings (size 3 to 8) (size 9 to 14) (size 15 to 20)
#    0.000    2.000    1.429    3.857    0.000    1.714 
#    0.000    0.000    0.000    0.857    0.000    0.000 
#    0.000    0.000    0.000    0.000    0.000    0.000 
#
# Total GULP energy -78033.630622 kJ/mol
# GULP energy per Si atom -5573.830759 kJ/mol
# Density = 2.098975 g / cm^3
# Si number density = 21.037630 Si / 1000 Ang^3
#
#
#
# Elastic Constant Matrix: (Units=GPa)
#
#
# Indices 1 2 3 4 5 6 
#
# 1 59.4665 9.2271 16.3945 -10.4587 -9.5378 10.6989
# 2 9.2271 118.9643 30.3608 -33.6738 -8.6057 22.8647
# 3 16.3945 30.3608 87.6823 -30.8112 -22.8113 7.7700
# 4 -10.4587 -33.6738 -30.8112 33.6020 10.9409 -14.1608
# 5 -9.5378 -8.6057 -22.8113 10.9409 21.4600 -10.2678
# 6 10.6989 22.8647 7.7700 -14.1608 -10.2678 21.1147
#
#
#
# Elastic Compliance Matrix: (Units=1/GPa)
#
#
# Indices 1 2 3 4 5 6 
#
# 1 0.019321 0.001122 -0.002592 0.000428 0.001814 -0.008882
# 2 0.001122 0.013066 -0.002429 0.008630 -0.006631 -0.011261
# 3 -0.002592 -0.002429 0.023528 0.019054 0.022191 0.018855
# 4 0.000428 0.008630 0.019054 0.067645 0.004162 0.030817
# 5 0.001814 -0.006631 0.022191 0.004162 0.086841 0.043116
# 6 -0.008882 -0.011261 0.018855 0.030817 0.043116 0.098751
#
#
# Mechanical properties :
#
#
# Convention : Reuss Voigt Hill
#
# Bulk Modulus (GPa) = 20.78183 42.00866 31.39525
# Shear Modulus (GPa) = 15.01556 29.24406 22.12981
#
# Velocity S-wave (km/s) = 2.67450 3.73243 3.24684
# Velocity P-wave (km/s) = 4.40876 6.21179 5.38626
#
# Compressibility (1/GPa) = 0.04811896
#
# Stress axis : x y z
#
# Youngs Moduli (GPa) = 51.75748 76.53465 42.50204
#
# Poissons Ratio (x) = -0.08591 0.11015
# Poissons Ratio (y) = -0.05810 0.10323
# Poissons Ratio (z) = 0.13414 0.18589
#
# Static dielectric constant tensor:
#      x y z
#    x 1.779330 0.049250 -0.003880 
#    y 0.049250 1.813540 -0.025510 
#    z -0.003880 -0.025510 1.775060 
# 
# From -- ./inp_files/171303.got.cif
#   From: 2010.05.17/outbox.cif.g08.bks.cpg/sg2_86_cif.got.tgz:171303.got - 2010.06.03 11:33:40.
