data_PCOD9076029
_publ_section_title
;
Structure prediction by ZEFSAII (Michael W. Deem and Ramdas Pophale) SiO2 
 PCOD9076029
Probable space group: P -1
;
_chemical_formula_sum "Si O2"
_cell_formula_units_Z 12
_cell_length_a 9.220057
_cell_length_b 9.721910
_cell_length_c 9.122168
_cell_angle_alpha 130.767546
_cell_angle_beta 50.519447
_cell_angle_gamma 117.935343
_cell_volume 475.996515
_symmetry_space_group_name_H-M "P -1"
_symmetry_group_IT_number 2
_symmetry_cell_setting 'triclinic'
loop_
_space_group_symop_operation_xyz
x,y,z
-x,-y,-z
loop_
_atom_site_type_symbol
_atom_site_label
_atom_site_fract_x
_atom_site_fract_y
_atom_site_fract_z
Si Si1 0.043539 0.625364 0.859343
Si Si2 0.354148 0.571393 0.021505
Si Si3 0.361284 0.141648 0.012556
Si Si4 0.180872 0.884740 0.706697
Si Si5 0.934912 0.056094 0.739647
Si Si6 0.653723 0.468077 0.600751
O O1 0.040068 0.788573 0.853642
O O2 0.237770 0.546592 0.631918
O O3 0.860921 0.488859 0.856077
O O4 0.044331 0.728543 0.084857
O O5 0.429640 0.469926 0.757514
O O6 0.500000 0.500000 0.000000
O O7 0.420032 0.782166 0.093762
O O8 0.272608 0.018516 0.116578
O O9 0.276470 0.335730 0.237926
O O10 0.308079 0.033698 0.822596
O O11 0.292354 0.711238 0.473190
O O12 0.078117 0.962934 0.691742
O O13 0.000000 0.000000 0.500000
#
# Coordination Sequence:
#
# PCOD9076029 Si02
#       6
#     2   2   2   2   2   2
#     4   9  19  38  61  88 117 151 194 241 296 342
#     4  10  18  32  58  97 117 136 194 252 291 340
#     4   9  19  37  61  86 122 145 191 252 289 339
#     4   9  18  38  61  85 120 151 191 244 293 340
#     4  11  21  36  59  84 121 163 193 235 288 347
#     4   8  21  33  66  87 123 138 198 243 301 329
#
# _framework density 25.210267000000002
#
# number of rings (size 3 to 8) (size 9 to 14) (size 15 to 20)
#    2.000    0.667    0.000    4.000    0.000    2.667 
#    0.000    8.333    0.000    1.000    0.000    0.000 
#    0.000    0.000    0.000    0.000    0.000    0.000 
#
# Total GULP energy -66877.028796 kJ/mol
# GULP energy per Si atom -5573.085733 kJ/mol
# Density = 2.515289 g / cm^3
# Si number density = 25.210267 Si / 1000 Ang^3
#
#
#
# Elastic Constant Matrix: (Units=GPa)
#
#
# Indices 1 2 3 4 5 6 
#
# 1 28.2901 40.6175 26.3394 -15.8493 19.6926 -29.0331
# 2 40.6175 103.0554 30.7669 -2.3349 21.5372 6.9912
# 3 26.3394 30.7669 132.1935 0.8624 24.6969 0.1614
# 4 -15.8493 -2.3349 0.8624 54.3717 0.6069 -9.6378
# 5 19.6926 21.5372 24.6969 0.6069 33.7292 -7.8309
# 6 -29.0331 6.9912 0.1614 -9.6378 -7.8309 31.8379
#
#
#
# Elastic Compliance Matrix: (Units=1/GPa)
#
#
# Indices 1 2 3 4 5 6 
#
# 1 -0.030313 0.013254 0.003299 -0.014555 -0.001102 -0.035247
# 2 0.013254 0.006241 -0.002786 0.006173 -0.007286 0.010807
# 3 0.003299 -0.002786 0.008652 0.001211 -0.005927 0.002485
# 4 -0.014555 0.006173 0.001211 0.012504 0.000982 -0.010608
# 5 -0.001102 -0.007286 -0.005927 0.000982 0.041871 0.011221
# 6 -0.035247 0.010807 0.002485 -0.010608 0.011221 -0.003570
#
#
# Mechanical properties :
#
#
# Convention : Reuss Voigt Hill
#
# Bulk Modulus (GPa) = 82.54702 50.99851 66.77276
# Shear Modulus (GPa) = 420.63136 35.04211 227.83673
#
# Velocity S-wave (km/s) = 12.93103 3.73231 9.51687
# Velocity P-wave (km/s) = 15.99259 6.23271 12.13692
#
# Compressibility (1/GPa) = 0.01211431
#
# Stress axis : x y z
#
# Youngs Moduli (GPa) = -32.98867 160.24337 115.57833
#
# Poissons Ratio (x) = -2.12391 -0.38129
# Poissons Ratio (y) = 0.43724 0.32196
# Poissons Ratio (z) = 0.10883 0.44639
#
# Static dielectric constant tensor:
#      x y z
#    x 2.032500 -0.045390 -0.034290 
#    y -0.045390 2.074060 -0.053950 
#    z -0.034290 -0.053950 2.091800 
# 
# From -- ./inp_files/263687.got.cif
#   From: 2010.05.17/outbox.cif.g08.bks.cpg/sg2_132_cif.got.tgz:263687.got - 2010.06.03 11:33:40.
