data_PCOD9076199
_publ_section_title
;
Structure prediction by ZEFSAII (Michael W. Deem and Ramdas Pophale) SiO2 
 PCOD9076199
Probable space group: P -1
;
_chemical_formula_sum "Si O2"
_cell_formula_units_Z 16
_cell_length_a 8.322818
_cell_length_b 9.152596
_cell_length_c 18.443465
_cell_angle_alpha 151.339748
_cell_angle_beta 108.934021
_cell_angle_gamma 62.183554
_cell_volume 583.882449
_symmetry_space_group_name_H-M "P -1"
_symmetry_group_IT_number 2
_symmetry_cell_setting 'triclinic'
loop_
_space_group_symop_operation_xyz
x,y,z
-x,-y,-z
loop_
_atom_site_type_symbol
_atom_site_label
_atom_site_fract_x
_atom_site_fract_y
_atom_site_fract_z
Si Si1 0.175417 0.782199 0.547462
Si Si2 0.779703 0.032816 0.201446
Si Si3 0.450937 0.764081 0.481308
Si Si4 0.283590 0.851151 0.917321
Si Si5 0.572587 0.270494 0.789175
Si Si6 0.207603 0.168844 0.488020
Si Si7 0.049676 0.540133 0.817798
Si Si8 0.818819 0.317526 0.950170
O O1 0.235880 0.812465 0.651512
O O2 0.350403 0.581087 0.434022
O O3 0.079706 0.158629 0.663452
O O4 0.011676 0.654185 0.461972
O O5 0.989016 0.947244 0.167735
O O6 0.665873 0.116630 0.144342
O O7 0.780923 0.669786 0.061395
O O8 0.456059 0.048969 0.660662
O O9 0.664491 0.630124 0.426417
O O10 0.319926 0.939402 0.471077
O O11 0.459032 0.624161 0.890840
O O12 0.146117 0.648447 0.812560
O O13 0.162599 0.207326 0.090628
O O14 0.752633 0.086073 0.684573
O O15 0.647541 0.236133 0.865637
O O16 0.152385 0.630526 0.939615
#
# Coordination Sequence:
#
# PCOD9076199 Si02
#       8
#     2   2   2   2   2   2   2   2
#     4  11  17  35  59  77 102 147 178 215 262 316
#     4   9  18  31  49  76 107 142 176 209 257 324
#     4   9  19  33  53  86 100 129 186 235 257 301
#     4  10  19  31  49  76 117 142 165 215 268 314
#     4  10  18  33  52  77 107 138 170 222 267 303
#     4   9  19  33  55  82 102 131 183 236 258 299
#     4   9  19  33  50  79 110 143 177 208 253 333
#     4   9  17  31  51  71 105 144 180 209 251 316
#
# _framework density 27.402774000000001
#
# number of rings (size 3 to 8) (size 9 to 14) (size 15 to 20)
#    0.750    1.750    2.500    1.125    0.000    1.000 
#    0.000    0.000    0.000    1.500    0.000    0.000 
#    0.000    0.000    0.000    0.000    0.000    0.000 
#
# Total GULP energy -89419.395980 kJ/mol
# GULP energy per Si atom -5588.712249 kJ/mol
# Density = 2.734040 g / cm^3
# Si number density = 27.402774 Si / 1000 Ang^3
#
#
#
# Elastic Constant Matrix: (Units=GPa)
#
#
# Indices 1 2 3 4 5 6 
#
# 1 149.6150 29.9902 34.0758 -15.6208 -13.1797 2.1767
# 2 29.9902 84.8161 -10.4297 -7.6726 2.7792 8.5371
# 3 34.0758 -10.4297 41.1129 -13.3961 1.7646 -4.2853
# 4 -15.6208 -7.6726 -13.3961 25.9475 7.6464 2.3076
# 5 -13.1797 2.7792 1.7646 7.6464 31.3401 -15.7068
# 6 2.1767 8.5371 -4.2853 2.3076 -15.7068 45.7120
#
#
#
# Elastic Compliance Matrix: (Units=1/GPa)
#
#
# Indices 1 2 3 4 5 6 
#
# 1 0.010927 -0.006232 -0.012057 -0.004091 0.008075 0.002494
# 2 -0.006232 0.017744 0.013493 0.012261 -0.011034 -0.006162
# 3 -0.012057 0.013493 0.046624 0.026529 -0.017904 -0.005066
# 4 -0.004091 0.012261 0.026529 0.061791 -0.025060 -0.011338
# 5 0.008075 -0.011034 -0.017904 -0.025060 0.053198 0.019542
# 6 0.002494 -0.006162 -0.005066 -0.011338 0.019542 0.029720
#
#
# Mechanical properties :
#
#
# Convention : Reuss Voigt Hill
#
# Bulk Modulus (GPa) = 15.22013 42.53518 28.87766
# Shear Modulus (GPa) = 19.88081 35.39378 27.63729
#
# Velocity S-wave (km/s) = 2.69644 3.59780 3.17923
# Velocity P-wave (km/s) = 3.90649 5.72842 4.90283
#
# Compressibility (1/GPa) = 0.06570245
#
# Stress axis : x y z
#
# Youngs Moduli (GPa) = 91.51551 56.35706 21.44811
#
# Poissons Ratio (x) = 0.35122 0.25861
# Poissons Ratio (y) = 0.57034 -0.28940
# Poissons Ratio (z) = 1.10343 -0.76043
#
# Static dielectric constant tensor:
#      x y z
#    x 2.184490 -0.064500 -0.102300 
#    y -0.064500 2.554610 0.341990 
#    z -0.102300 0.341990 2.347460 
# 
# From -- ./inp_files/555617.got.cif
#   From: 2010.05.17/outbox.cif.g08.bks.cpg/sg2_278_cif.got.tgz:555617.got - 2010.06.03 11:33:40.
