data_PCOD9076041
_publ_section_title
;
Structure prediction by ZEFSAII (Michael W. Deem and Ramdas Pophale) SiO2 
 PCOD9076041
Probable space group: P -1
;
_chemical_formula_sum "Si O2"
_cell_formula_units_Z 16
_cell_length_a 14.744769
_cell_length_b 15.426549
_cell_length_c 9.043542
_cell_angle_alpha 79.453255
_cell_angle_beta 50.572617
_cell_angle_gamma 38.339444
_cell_volume 742.530864
_symmetry_space_group_name_H-M "P -1"
_symmetry_group_IT_number 2
_symmetry_cell_setting 'triclinic'
loop_
_space_group_symop_operation_xyz
x,y,z
-x,-y,-z
loop_
_atom_site_type_symbol
_atom_site_label
_atom_site_fract_x
_atom_site_fract_y
_atom_site_fract_z
Si Si1 0.734562 0.965366 0.539959
Si Si2 0.996214 0.059693 0.133738
Si Si3 0.519560 0.215063 0.098367
Si Si4 0.796434 0.084885 0.588655
Si Si5 0.002604 0.746714 0.028056
Si Si6 0.061933 0.521178 0.690122
Si Si7 0.727346 0.601898 0.158433
Si Si8 0.335743 0.081460 0.944297
O O1 0.883286 0.926341 0.515497
O O2 0.525562 0.177579 0.657518
O O3 0.577356 0.982932 0.735186
O O4 0.891010 0.840751 0.273557
O O5 0.807987 0.136206 0.414391
O O6 0.926937 0.206629 0.130400
O O7 0.270204 0.884143 0.978718
O O8 0.000000 0.000000 0.000000
O O9 0.256981 0.390761 0.396562
O O10 0.591633 0.065230 0.044116
O O11 0.556018 0.237756 0.895230
O O12 0.000000 0.000000 0.500000
O O13 0.786785 0.845638 0.116673
O O14 0.226331 0.531098 0.875294
O O15 0.196853 0.438640 0.735050
O O16 0.903402 0.537712 0.879513
O O17 0.875718 0.726926 0.806548
#
# Coordination Sequence:
#
# PCOD9076041 Si02
#       8
#     2   2   2   2   2   2   2   2
#     4  11  19  34  59  83 118 150 180 233 283 339
#     4  10  19  36  60  82 104 150 201 236 270 321
#     4  10  20  37  60  78 117 157 180 230 290 334
#     4  10  23  39  57  80 114 156 198 231 275 329
#     4  10  18  32  59  85 119 140 183 238 291 327
#     4   9  17  32  55  86 123 145 173 229 290 343
#     4   9  18  31  54  93 117 138 183 233 284 342
#     4   9  19  32  56  93 114 141 184 228 284 351
#
# _framework density 21.547923999999998
#
# number of rings (size 3 to 8) (size 9 to 14) (size 15 to 20)
#    0.000    2.250    1.250    3.375    0.000    0.500 
#    0.000    4.375    5.500   13.500    0.000    0.000 
#    0.000    0.000    0.000    0.000    0.000    0.000 
#
# Total GULP energy -89261.745920 kJ/mol
# GULP energy per Si atom -5578.859120 kJ/mol
# Density = 2.149888 g / cm^3
# Si number density = 21.547924 Si / 1000 Ang^3
#
#
#
# Elastic Constant Matrix: (Units=GPa)
#
#
# Indices 1 2 3 4 5 6 
#
# 1 115.0344 36.6862 20.9701 -8.3392 3.4331 22.5234
# 2 36.6862 65.2460 44.3154 0.6392 7.0515 17.8749
# 3 20.9701 44.3154 117.3516 -2.5548 13.9893 3.6069
# 4 -8.3392 0.6392 -2.5548 13.4541 6.0372 2.4968
# 5 3.4331 7.0515 13.9893 6.0372 27.4868 0.2906
# 6 22.5234 17.8749 3.6069 2.4968 0.2906 23.0188
#
#
#
# Elastic Compliance Matrix: (Units=1/GPa)
#
#
# Indices 1 2 3 4 5 6 
#
# 1 0.013076 -0.004402 0.000280 0.011741 -0.003112 -0.010654
# 2 -0.004402 0.028933 -0.009522 -0.002258 -0.001357 -0.016406
# 3 0.000280 -0.009522 0.012617 0.004401 -0.005030 0.004730
# 4 0.011741 -0.002258 0.004401 0.097276 -0.024274 -0.020669
# 5 -0.003112 -0.001357 -0.005030 -0.024274 0.044936 0.006953
# 6 -0.010654 -0.016406 0.004730 -0.020669 0.006953 0.068020
#
#
# Mechanical properties :
#
#
# Convention : Reuss Voigt Hill
#
# Bulk Modulus (GPa) = 36.58069 55.73059 46.15564
# Shear Modulus (GPa) = 16.59692 25.83595 21.21644
#
# Velocity S-wave (km/s) = 2.77832 3.46641 3.14126
# Velocity P-wave (km/s) = 5.22545 6.47619 5.88415
#
# Compressibility (1/GPa) = 0.02733682
#
# Stress axis : x y z
#
# Youngs Moduli (GPa) = 76.47549 34.56284 79.25540
#
# Poissons Ratio (x) = 0.15215 -0.02218
# Poissons Ratio (y) = 0.33667 0.75470
# Poissons Ratio (z) = -0.02141 0.32912
#
# Static dielectric constant tensor:
#      x y z
#    x 2.106400 -0.072870 -0.033900 
#    y -0.072870 1.774800 -0.028900 
#    z -0.033900 -0.028900 1.761160 
# 
# From -- ./inp_files/223704.got.cif
#   From: 2010.05.17/outbox.cif.g08.bks.cpg/sg2_112_cif.got.tgz:223704.got - 2010.06.03 11:33:40.
