data_PCOD9076906
_publ_section_title
;
Structure prediction by ZEFSAII (Michael W. Deem and Ramdas Pophale) SiO2 
 PCOD9076906
Probable space group: P -1
;
_chemical_formula_sum "Si O2"
_cell_formula_units_Z 16
_cell_length_a 14.272025
_cell_length_b 9.916964
_cell_length_c 9.555311
_cell_angle_alpha 71.515611
_cell_angle_beta 140.982628
_cell_angle_gamma 103.309514
_cell_volume 807.200378
_symmetry_space_group_name_H-M "P -1"
_symmetry_group_IT_number 2
_symmetry_cell_setting 'triclinic'
loop_
_space_group_symop_operation_xyz
x,y,z
-x,-y,-z
loop_
_atom_site_type_symbol
_atom_site_label
_atom_site_fract_x
_atom_site_fract_y
_atom_site_fract_z
Si Si1 0.027252 0.061214 0.277192
Si Si2 0.247558 0.824340 0.235017
Si Si3 0.552125 0.089424 0.897042
Si Si4 0.419712 0.310105 0.862890
Si Si5 0.311022 0.079646 0.404760
Si Si6 0.380083 0.629280 0.671355
Si Si7 0.174004 0.096725 0.732323
Si Si8 0.525508 0.651134 0.551704
O O1 0.168882 0.048940 0.345335
O O2 0.085071 0.111840 0.478570
O O3 0.939166 0.918889 0.265083
O O4 0.909123 0.163060 0.026574
O O5 0.375475 0.747775 0.315461
O O6 0.256732 0.730154 0.419553
O O7 0.296240 0.981873 0.284028
O O8 0.456719 0.031223 0.677222
O O9 0.500000 0.000000 0.000000
O O10 0.726461 0.051305 0.100740
O O11 0.345352 0.464128 0.697630
O O12 0.297574 0.215202 0.828529
O O13 0.484745 0.242856 0.816314
O O14 0.559072 0.322188 0.125492
O O15 0.337461 0.247175 0.354832
O O16 0.514532 0.633132 0.712600
O O17 0.500000 0.500000 0.500000
#
# Coordination Sequence:
#
# PCOD9076906 Si02
#       8
#     2   2   2   2   2   2   2   2
#     4  11  23  37  56  92 126 164 197 241 302 368
#     4  10  23  39  60  91 128 155 199 251 301 363
#     4  10  18  33  64  86 114 150 207 253 295 340
#     4  10  18  39  62  87 119 151 204 259 298 348
#     4  12  21  38  61  92 121 159 202 250 300 353
#     4   9  22  35  62  90 114 154 201 253 305 346
#     4  10  22  36  60  90 118 159 203 251 296 355
#     4  10  23  39  62  90 118 153 203 251 305 355
#
# _framework density 19.821596
#
# number of rings (size 3 to 8) (size 9 to 14) (size 15 to 20)
#    0.750    1.000    2.500    3.750    1.750    0.000 
#    0.000    2.500    0.000    0.750    0.000    0.000 
#    0.000    0.000    0.000    0.000    0.000    0.000 
#
# Total GULP energy -89097.124855 kJ/mol
# GULP energy per Si atom -5568.570303 kJ/mol
# Density = 1.977648 g / cm^3
# Si number density = 19.821596 Si / 1000 Ang^3
#
#
#
# Elastic Constant Matrix: (Units=GPa)
#
#
# Indices 1 2 3 4 5 6 
#
# 1 95.9170 39.7326 19.5560 6.3310 2.8952 11.1059
# 2 39.7326 118.4883 22.6989 -7.6328 7.9235 1.6862
# 3 19.5560 22.6989 109.8259 -1.2192 16.3994 -9.6509
# 4 6.3310 -7.6328 -1.2192 19.6588 0.9254 -9.1611
# 5 2.8952 7.9235 16.3994 0.9254 20.5078 2.5034
# 6 11.1059 1.6862 -9.6509 -9.1611 2.5034 28.0814
#
#
#
# Elastic Compliance Matrix: (Units=1/GPa)
#
#
# Indices 1 2 3 4 5 6 
#
# 1 0.015487 -0.005513 -0.003497 -0.013002 0.004750 -0.011661
# 2 -0.005513 0.011085 -0.000170 0.008407 -0.004307 0.004583
# 3 -0.003497 -0.000170 0.012151 0.006295 -0.010486 0.008557
# 4 -0.013002 0.008407 0.006295 0.074409 -0.013747 0.032301
# 5 0.004750 -0.004307 -0.010486 -0.013747 0.060606 -0.015111
# 6 -0.011661 0.004583 0.008557 0.032301 -0.015111 0.054773
#
#
# Mechanical properties :
#
#
# Convention : Reuss Voigt Hill
#
# Bulk Modulus (GPa) = 49.10648 54.24512 51.67580
# Shear Modulus (GPa) = 19.71150 29.79918 24.75534
#
# Velocity S-wave (km/s) = 3.15690 3.88154 3.53782
# Velocity P-wave (km/s) = 6.17382 6.89308 6.54334
#
# Compressibility (1/GPa) = 0.02036391
#
# Stress axis : x y z
#
# Youngs Moduli (GPa) = 64.56936 90.20995 82.29949
#
# Poissons Ratio (x) = 0.49730 0.28777
# Poissons Ratio (y) = 0.35595 0.01401
# Poissons Ratio (z) = 0.22577 0.01536
#
# Static dielectric constant tensor:
#      x y z
#    x 1.756980 0.013920 -0.032420 
#    y 0.013920 1.765860 -0.052490 
#    z -0.032420 -0.052490 1.726480 
# 
# From -- ./inp_files/295247.got.cif
#   From: 2010.05.17/outbox.cif.g08.bks.cpg/sg2_148_cif.got.tgz:295247.got - 2010.06.03 11:33:40.
