data_PCOD9076236
_publ_section_title
;
Structure prediction by ZEFSAII (Michael W. Deem and Ramdas Pophale) SiO2 
 PCOD9076236
Probable space group: P -1
;
_chemical_formula_sum "Si O2"
_cell_formula_units_Z 16
_cell_length_a 7.590247
_cell_length_b 24.061884
_cell_length_c 9.217504
_cell_angle_alpha 34.951078
_cell_angle_beta 130.295527
_cell_angle_gamma 135.382752
_cell_volume 668.933731
_symmetry_space_group_name_H-M "P -1"
_symmetry_group_IT_number 2
_symmetry_cell_setting 'triclinic'
loop_
_space_group_symop_operation_xyz
x,y,z
-x,-y,-z
loop_
_atom_site_type_symbol
_atom_site_label
_atom_site_fract_x
_atom_site_fract_y
_atom_site_fract_z
Si Si1 0.309252 0.085583 0.429127
Si Si2 0.602797 0.694122 0.904071
Si Si3 0.245902 0.485916 0.727408
Si Si4 0.991918 0.929663 0.355607
Si Si5 0.747221 0.215600 0.148917
Si Si6 0.569918 0.938401 0.929028
Si Si7 0.114269 0.562343 0.779149
Si Si8 0.352127 0.583724 0.300831
O O1 0.260377 0.179382 0.278688
O O2 0.079316 0.004671 0.382932
O O3 0.529152 0.151862 0.286762
O O4 0.430473 0.014749 0.727864
O O5 0.338135 0.669313 0.729846
O O6 0.741309 0.626753 0.049284
O O7 0.535868 0.643111 0.139353
O O8 0.261762 0.521746 0.825704
O O9 0.451404 0.566481 0.547832
O O10 0.000000 0.500000 0.500000
O O11 0.030729 0.821349 0.620774
O O12 0.207547 0.997838 0.205639
O O13 0.716976 0.911882 0.192501
O O14 0.628878 0.165606 0.037267
O O15 0.789928 0.337046 0.924732
O O16 0.849039 0.531941 0.617727
O O17 0.000000 0.500000 0.000000
#
# Coordination Sequence:
#
# PCOD9076236 Si02
#       8
#     2   2   2   2   2   2   2   2
#     4   8  15  26  43  71 104 141 177 220 267 313
#     4  10  18  33  53  77 110 146 179 220 272 321
#     4  10  20  35  53  74 107 143 183 222 270 323
#     4   8  13  24  42  68 103 139 179 220 263 312
#     4   8  14  26  44  68 108 141 176 220 264 312
#     4   8  13  24  42  69 102 140 178 221 262 315
#     4   9  19  35  55  76 104 136 178 226 271 322
#     4   9  18  33  51  79 111 145 180 220 266 322
#
# _framework density 23.918662000000001
#
# number of rings (size 3 to 8) (size 9 to 14) (size 15 to 20)
#    0.000    3.250    0.000    2.250    0.000    0.000 
#    6.750    0.000    0.000    0.000    0.000   17.500 
#    0.000    0.000    0.000    0.500    0.000    1.375 
#
# Total GULP energy -89184.442934 kJ/mol
# GULP energy per Si atom -5574.027683 kJ/mol
# Density = 2.386422 g / cm^3
# Si number density = 23.918662 Si / 1000 Ang^3
#
#
#
# Elastic Constant Matrix: (Units=GPa)
#
#
# Indices 1 2 3 4 5 6 
#
# 1 89.1562 32.4350 30.6728 -3.6942 -3.4319 -25.2024
# 2 32.4350 101.0219 81.5785 -11.4267 0.2439 -13.0639
# 3 30.6728 81.5785 140.2434 -3.6589 24.5379 -0.4583
# 4 -3.6942 -11.4267 -3.6589 34.8526 -4.8765 -1.6089
# 5 -3.4319 0.2439 24.5379 -4.8765 39.9852 0.4843
# 6 -25.2024 -13.0639 -0.4583 -1.6089 0.4843 43.9643
#
#
#
# Elastic Compliance Matrix: (Units=1/GPa)
#
#
# Indices 1 2 3 4 5 6 
#
# 1 0.015318 -0.000898 -0.003365 0.001860 0.003509 0.008508
# 2 -0.000898 0.024653 -0.015716 0.008097 0.010322 0.006829
# 3 -0.003365 -0.015716 0.019024 -0.005555 -0.012466 -0.006467
# 4 0.001860 0.008097 -0.005555 0.032203 0.007392 0.004511
# 5 0.003509 0.010322 -0.012466 0.007392 0.033741 0.004848
# 6 0.008508 0.006829 -0.006467 0.004511 0.004848 0.029697
#
#
# Mechanical properties :
#
#
# Convention : Reuss Voigt Hill
#
# Bulk Modulus (GPa) = 52.53590 68.86601 60.70096
# Shear Modulus (GPa) = 24.88303 36.14278 30.51290
#
# Velocity S-wave (km/s) = 3.22890 3.89147 3.57556
# Velocity P-wave (km/s) = 5.99275 7.00326 6.51762
#
# Compressibility (1/GPa) = 0.01903460
#
# Stress axis : x y z
#
# Youngs Moduli (GPa) = 65.28195 40.56339 52.56612
#
# Poissons Ratio (x) = 0.03644 0.17690
# Poissons Ratio (y) = 0.05865 0.82614
# Poissons Ratio (z) = 0.21969 0.63750
#
# Static dielectric constant tensor:
#      x y z
#    x 2.114830 -0.018250 -0.023930 
#    y -0.018250 1.892150 0.029410 
#    z -0.023930 0.029410 1.892130 
# 
# From -- ./inp_files/218117.got.cif
#   From: 2010.05.17/outbox.cif.g08.bks.cpg/sg2_110_cif.got.tgz:218117.got - 2010.06.03 11:33:40.
