data_PCOD9076222
_publ_section_title
;
Structure prediction by ZEFSAII (Michael W. Deem and Ramdas Pophale) SiO2 
 PCOD9076222
Probable space group: P -1
;
_chemical_formula_sum "Si O2"
_cell_formula_units_Z 16
_cell_length_a 9.072064
_cell_length_b 9.371866
_cell_length_c 13.414859
_cell_angle_alpha 69.520145
_cell_angle_beta 135.582686
_cell_angle_gamma 85.391324
_cell_volume 646.005016
_symmetry_space_group_name_H-M "P -1"
_symmetry_group_IT_number 2
_symmetry_cell_setting 'triclinic'
loop_
_space_group_symop_operation_xyz
x,y,z
-x,-y,-z
loop_
_atom_site_type_symbol
_atom_site_label
_atom_site_fract_x
_atom_site_fract_y
_atom_site_fract_z
Si Si1 0.748049 0.838168 0.462549
Si Si2 0.384142 0.870950 0.047264
Si Si3 0.803234 0.201546 0.209244
Si Si4 0.326658 0.418312 0.037038
Si Si5 0.741792 0.394056 0.846900
Si Si6 0.074324 0.307711 0.628263
Si Si7 0.864164 0.456782 0.685299
Si Si8 0.803550 0.933112 0.905757
O O1 0.867493 0.807063 0.416467
O O2 0.781321 0.652743 0.561252
O O3 0.458934 0.966317 0.297529
O O4 0.924039 0.879976 0.601662
O O5 0.661092 0.784051 0.170808
O O6 0.289443 0.036525 0.032658
O O7 0.391199 0.711193 0.155229
O O8 0.218401 0.910355 0.862127
O O9 0.593067 0.257609 0.176716
O O10 0.718214 0.393185 0.071428
O O11 0.311887 0.450377 0.140913
O O12 0.117600 0.403132 0.880608
O O13 0.704979 0.441599 0.700760
O O14 0.027801 0.245042 0.028615
O O15 0.000000 0.500000 0.500000
O O16 0.895068 0.347635 0.625521
O O17 0.000000 0.000000 0.000000
#
# Coordination Sequence:
#
# PCOD9076222 Si02
#       8
#     2   2   2   2   2   2   2   2
#     4   9  19  33  57  82 106 138 188 226 256 317
#     4   9  17  34  54  77 104 145 182 217 259 320
#     4   9  16  30  57  84  98 137 192 225 257 308
#     4   9  17  29  53  81 114 134 175 223 275 316
#     4  10  20  31  55  82 112 144 170 220 280 324
#     4   9  17  30  52  76 107 136 176 222 256 310
#     4  10  18  33  52  88 108 135 176 231 277 308
#     4   9  19  38  54  75 112 149 179 211 266 334
#
# _framework density 24.767607999999999
#
# number of rings (size 3 to 8) (size 9 to 14) (size 15 to 20)
#    0.000    2.750    1.250    0.375    5.250    0.000 
#    0.000   22.500    0.000    0.750    0.000    0.000 
#    0.000    1.250    0.000    0.000    0.000    0.000 
#
# Total GULP energy -89261.309427 kJ/mol
# GULP energy per Si atom -5578.831839 kJ/mol
# Density = 2.471124 g / cm^3
# Si number density = 24.767608 Si / 1000 Ang^3
#
#
#
# Elastic Constant Matrix: (Units=GPa)
#
#
# Indices 1 2 3 4 5 6 
#
# 1 121.5203 28.8185 37.4101 -0.1244 -16.2548 -16.4526
# 2 28.8185 67.4081 15.2242 5.9772 6.0446 -14.7220
# 3 37.4101 15.2242 128.0504 4.4574 16.2120 -12.9041
# 4 -0.1244 5.9772 4.4574 22.3726 -14.3644 0.4142
# 5 -16.2548 6.0446 16.2120 -14.3644 41.2784 0.6923
# 6 -16.4526 -14.7220 -12.9041 0.4142 0.6923 40.5151
#
#
#
# Elastic Compliance Matrix: (Units=1/GPa)
#
#
# Indices 1 2 3 4 5 6 
#
# 1 0.012717 -0.005968 -0.004613 0.009642 0.011028 0.001239
# 2 -0.005968 0.020337 0.001678 -0.012639 -0.010483 0.005809
# 3 -0.004613 0.001678 0.010674 -0.008609 -0.009290 0.002383
# 4 0.009642 -0.012639 -0.008609 0.071827 0.034104 -0.004736
# 5 0.011028 -0.010483 -0.009290 0.034104 0.045677 -0.003419
# 6 0.001239 0.005809 0.002383 -0.004736 -0.003419 0.028162
#
#
# Mechanical properties :
#
#
# Convention : Reuss Voigt Hill
#
# Bulk Modulus (GPa) = 38.57649 53.32048 45.94848
# Shear Modulus (GPa) = 23.16523 36.53495 29.85009
#
# Velocity S-wave (km/s) = 3.06159 3.84488 3.47538
# Velocity P-wave (km/s) = 5.30160 6.42541 5.89037
#
# Compressibility (1/GPa) = 0.02592252
#
# Stress axis : x y z
#
# Youngs Moduli (GPa) = 78.63314 49.17127 93.68984
#
# Poissons Ratio (x) = 0.29347 0.43216
# Poissons Ratio (y) = 0.46931 -0.15724
# Poissons Ratio (z) = 0.36271 -0.08253
#
# Static dielectric constant tensor:
#      x y z
#    x 2.084300 0.080140 -0.034510 
#    y 0.080140 2.086780 -0.120630 
#    z -0.034510 -0.120630 2.056690 
# 
# From -- ./inp_files/397386.got.cif
#   From: 2010.05.17/outbox.cif.g08.bks.cpg/sg2_199_cif.got.tgz:397386.got - 2010.06.03 11:33:40.
