data_PCOD9076643
_publ_section_title
;
Structure prediction by ZEFSAII (Michael W. Deem and Ramdas Pophale) SiO2 
 PCOD9076643
Probable space group: P -1
;
_chemical_formula_sum "Si O2"
_cell_formula_units_Z 12
_cell_length_a 28.045920
_cell_length_b 13.775053
_cell_length_c 22.476212
_cell_angle_alpha 158.865162
_cell_angle_beta 10.672374
_cell_angle_gamma 160.880606
_cell_volume 525.421650
_symmetry_space_group_name_H-M "P -1"
_symmetry_group_IT_number 2
_symmetry_cell_setting 'triclinic'
loop_
_space_group_symop_operation_xyz
x,y,z
-x,-y,-z
loop_
_atom_site_type_symbol
_atom_site_label
_atom_site_fract_x
_atom_site_fract_y
_atom_site_fract_z
Si Si1 0.785374 0.426634 0.665837
Si Si2 0.249631 0.172152 0.614585
Si Si3 0.224170 0.489569 0.408183
Si Si4 0.573182 0.840262 0.731621
Si Si5 0.770162 0.837721 0.620454
Si Si6 0.036525 0.637102 0.832817
O O1 0.897448 0.514653 0.511354
O O2 0.000000 0.500000 0.500000
O O3 0.637973 0.067619 0.639788
O O4 0.547914 0.544272 0.035808
O O5 0.500000 0.500000 0.500000
O O6 0.197648 0.115760 0.575453
O O7 0.991760 0.144144 0.957793
O O8 0.197211 0.721503 0.620869
O O9 0.042766 0.158261 0.467798
O O10 0.666425 0.783818 0.649163
O O11 0.286451 0.560428 0.904681
O O12 0.468670 0.104480 0.016508
O O13 0.842545 0.575467 0.404748
#
# Coordination Sequence:
#
# PCOD9076643 Si02
#       6
#     2   2   2   2   2   2
#     4  11  23  40  60  81 112 150 191 234 276 333
#     4  10  20  37  59  84 115 148 183 230 284 331
#     4  10  21  36  57  82 110 151 192 227 278 334
#     4   9  18  32  55  85 112 146 187 226 274 327
#     4  10  18  33  58  85 113 147 190 232 272 330
#     4  10  20  34  55  84 117 147 182 232 282 331
#
# _framework density 22.838801
#
# number of rings (size 3 to 8) (size 9 to 14) (size 15 to 20)
#    0.000    2.000    0.000    6.000    0.000    4.000 
#    0.000    7.500    0.000    0.000    0.000    0.000 
#    0.000    0.000    0.000    0.000    0.000    0.000 
#
# Total GULP energy -66977.984463 kJ/mol
# GULP energy per Si atom -5581.498705 kJ/mol
# Density = 2.278682 g / cm^3
# Si number density = 22.838801 Si / 1000 Ang^3
#
#
#
# Elastic Constant Matrix: (Units=GPa)
#
#
# Indices 1 2 3 4 5 6 
#
# 1 170.1847 -3.6180 83.2134 11.8469 29.9393 16.1386
# 2 -3.6180 30.2439 4.0548 -1.1277 1.7159 -4.3373
# 3 83.2134 4.0548 88.8813 -0.1978 33.2032 13.7014
# 4 11.8469 -1.1277 -0.1978 17.7582 9.9764 3.5005
# 5 29.9393 1.7159 33.2032 9.9764 60.2139 0.5643
# 6 16.1386 -4.3373 13.7014 3.5005 0.5643 19.2665
#
#
#
# Elastic Compliance Matrix: (Units=1/GPa)
#
#
# Indices 1 2 3 4 5 6 
#
# 1 0.012331 0.002844 -0.012780 -0.009779 0.002445 0.001105
# 2 0.002844 0.035627 -0.006502 -0.002657 0.001496 0.010701
# 3 -0.012780 -0.006502 0.031130 0.019295 -0.013673 -0.016002
# 4 -0.009779 -0.002657 0.019295 0.077011 -0.018278 -0.019585
# 5 0.002445 0.001496 -0.013673 -0.018278 0.025818 0.010577
# 6 0.001105 0.010701 -0.016002 -0.019585 0.010577 0.068016
#
#
# Mechanical properties :
#
#
# Convention : Reuss Voigt Hill
#
# Bulk Modulus (GPa) = 21.63958 50.73447 36.18702
# Shear Modulus (GPa) = 16.76651 33.15838 24.96244
#
# Velocity S-wave (km/s) = 2.71241 3.81444 3.30962
# Velocity P-wave (km/s) = 4.39375 6.45464 5.52120
#
# Compressibility (1/GPa) = 0.04621162
#
# Stress axis : x y z
#
# Youngs Moduli (GPa) = 81.09525 28.06851 32.12339
#
# Poissons Ratio (x) = -0.07982 0.41053
# Poissons Ratio (y) = -0.23060 0.20887
# Poissons Ratio (z) = 1.03638 0.18250
#
# Static dielectric constant tensor:
#      x y z
#    x 1.218760 -0.564160 -0.315710 
#    y -0.564160 1.428110 -0.356570 
#    z -0.315710 -0.356570 1.648980 
# 
# From -- ./inp_files/259731.got.cif
#   From: 2010.05.17/outbox.cif.g08.bks.cpg/sg2_130_cif.got.tgz:259731.got - 2010.06.03 11:33:40.
