data_PCOD9076486
_publ_section_title
;
Structure prediction by ZEFSAII (Michael W. Deem and Ramdas Pophale) SiO2 
 PCOD9076486
Probable space group: P -1
;
_chemical_formula_sum "Si O2"
_cell_formula_units_Z 16
_cell_length_a 11.708493
_cell_length_b 14.268782
_cell_length_c 14.109359
_cell_angle_alpha 30.308720
_cell_angle_beta 38.748363
_cell_angle_gamma 48.351720
_cell_volume 744.273189
_symmetry_space_group_name_H-M "P -1"
_symmetry_group_IT_number 2
_symmetry_cell_setting 'triclinic'
loop_
_space_group_symop_operation_xyz
x,y,z
-x,-y,-z
loop_
_atom_site_type_symbol
_atom_site_label
_atom_site_fract_x
_atom_site_fract_y
_atom_site_fract_z
Si Si1 0.959209 0.263664 0.907851
Si Si2 0.356715 0.514689 0.163493
Si Si3 0.068130 0.951018 0.237554
Si Si4 0.781678 0.861505 0.857083
Si Si5 0.807015 0.219634 0.402397
Si Si6 0.008653 0.390240 0.288600
Si Si7 0.368939 0.475465 0.858452
Si Si8 0.947801 0.712001 0.368672
O O1 0.770472 0.319546 0.933095
O O2 0.033247 0.451008 0.747553
O O3 0.078709 0.205275 0.790814
O O4 0.946942 0.108061 0.131497
O O5 0.453479 0.543389 0.176429
O O6 0.234838 0.324523 0.420161
O O7 0.500000 0.500000 0.000000
O O8 0.980336 0.810155 0.494093
O O9 0.096189 0.819399 0.243387
O O10 0.227560 0.056186 0.102460
O O11 0.996179 0.806733 0.753357
O O12 0.751244 0.025038 0.657379
O O13 0.657009 0.684796 0.063857
O O14 0.662138 0.321283 0.342654
O O15 0.857143 0.362554 0.330378
O O16 0.197495 0.442088 0.069848
O O17 0.000000 0.500000 0.500000
#
# Coordination Sequence:
#
# PCOD9076486 Si02
#       8
#     2   2   2   2   2   2   2   2
#     4  11  21  37  61  86 110 158 194 232 285 333
#     4  11  22  38  57  86 124 154 184 232 288 347
#     4  11  19  35  61  85 109 144 205 242 275 330
#     4   9  19  31  54  86 109 146 196 241 275 334
#     4   9  18  31  53  81 114 155 186 234 285 331
#     4  10  18  33  56  86 114 143 194 241 271 342
#     4  11  19  35  53  81 126 151 180 230 301 335
#     4  10  21  40  59  83 114 153 195 238 278 341
#
# _framework density 21.497482999999999
#
# number of rings (size 3 to 8) (size 9 to 14) (size 15 to 20)
#    0.000    1.750    3.750    4.125    0.000    0.000 
#    2.250    1.250    0.000    6.000    0.000    0.000 
#    0.000    0.000    0.000    0.000    0.000    0.000 
#
# Total GULP energy -89192.991840 kJ/mol
# GULP energy per Si atom -5574.561990 kJ/mol
# Density = 2.144855 g / cm^3
# Si number density = 21.497483 Si / 1000 Ang^3
#
#
#
# Elastic Constant Matrix: (Units=GPa)
#
#
# Indices 1 2 3 4 5 6 
#
# 1 123.4170 32.5504 30.4512 -23.6257 19.8557 7.1590
# 2 32.5504 46.9224 22.0853 -16.3924 1.8797 20.0359
# 3 30.4512 22.0853 58.0360 -15.1653 25.7716 -7.9706
# 4 -23.6257 -16.3924 -15.1653 35.5800 1.0145 4.7964
# 5 19.8557 1.8797 25.7716 1.0145 35.0055 -15.1978
# 6 7.1590 20.0359 -7.9706 4.7964 -15.1978 46.6218
#
#
#
# Elastic Compliance Matrix: (Units=1/GPa)
#
#
# Indices 1 2 3 4 5 6 
#
# 1 0.012044 -0.004393 0.000543 0.006911 -0.008674 -0.003407
# 2 -0.004393 0.046699 -0.014735 0.015471 0.000209 -0.023437
# 3 0.000543 -0.014735 0.036811 0.009550 -0.025482 0.003253
# 4 0.006911 0.015471 0.009550 0.046871 -0.020818 -0.017685
# 5 -0.008674 0.000209 -0.025482 -0.020818 0.061059 0.018932
# 6 -0.003407 -0.023437 0.003253 -0.017685 0.018932 0.040591
#
#
# Mechanical properties :
#
#
# Convention : Reuss Voigt Hill
#
# Bulk Modulus (GPa) = 17.12842 44.28322 30.70582
# Shear Modulus (GPa) = 16.62756 32.99402 24.81079
#
# Velocity S-wave (km/s) = 2.78414 3.92188 3.40093
# Velocity P-wave (km/s) = 4.28021 6.41500 5.45309
#
# Compressibility (1/GPa) = 0.05838250
#
# Stress axis : x y z
#
# Youngs Moduli (GPa) = 83.03131 21.41382 27.16590
#
# Poissons Ratio (x) = 0.09408 -0.01474
# Poissons Ratio (y) = 0.36479 0.40028
# Poissons Ratio (z) = -0.04505 0.31552
#
# Static dielectric constant tensor:
#      x y z
#    x 1.816760 0.050940 0.024430 
#    y 0.050940 1.888130 0.041360 
#    z 0.024430 0.041360 1.859630 
# 
# From -- ./inp_files/522092.got.cif
#   From: 2010.05.17/outbox.cif.g08.bks.cpg/sg2_262_cif.got.tgz:522092.got - 2010.06.03 11:33:40.
