data_PCOD9076504
_publ_section_title
;
Structure prediction by ZEFSAII (Michael W. Deem and Ramdas Pophale) SiO2 
 PCOD9076504
Probable space group: P -1
;
_chemical_formula_sum "Si O2"
_cell_formula_units_Z 12
_cell_length_a 11.900517
_cell_length_b 11.752423
_cell_length_c 14.743250
_cell_angle_alpha 147.348400
_cell_angle_beta 31.106571
_cell_angle_gamma 125.111368
_cell_volume 489.943838
_symmetry_space_group_name_H-M "P -1"
_symmetry_group_IT_number 2
_symmetry_cell_setting 'triclinic'
loop_
_space_group_symop_operation_xyz
x,y,z
-x,-y,-z
loop_
_atom_site_type_symbol
_atom_site_label
_atom_site_fract_x
_atom_site_fract_y
_atom_site_fract_z
Si Si1 0.029201 0.676572 0.497053
Si Si2 0.597764 0.090362 0.411063
Si Si3 0.596783 0.572305 0.793516
Si Si4 0.353867 0.342802 0.573903
Si Si5 0.722258 0.926756 0.721421
Si Si6 0.101187 0.818394 0.970783
O O1 0.832781 0.585603 0.594637
O O2 0.984215 0.761474 0.481878
O O3 0.312046 0.471498 0.194613
O O4 0.951642 0.923997 0.775994
O O5 0.581347 0.344118 0.617393
O O6 0.418807 0.165417 0.496962
O O7 0.500000 0.000000 0.500000
O O8 0.898301 0.881839 0.072794
O O9 0.340263 0.816935 0.105741
O O10 0.311349 0.219084 0.433503
O O11 0.136181 0.631960 0.904067
O O12 0.626074 0.319416 0.358548
O O13 0.500000 0.000000 0.000000
#
# Coordination Sequence:
#
# PCOD9076504 Si02
#       6
#     2   2   2   2   2   2
#     4   9  17  32  55  89 110 143 182 244 298 326
#     4  11  25  41  58  83 123 165 193 230 290 358
#     4   9  18  33  56  79 113 150 189 233 282 342
#     4  11  22  36  62  95 117 146 195 251 294 338
#     4  10  18  33  56  90 117 139 184 247 301 335
#     4  10  21  38  63  93 116 143 198 253 294 337
#
# _framework density 24.492604
#
# number of rings (size 3 to 8) (size 9 to 14) (size 15 to 20)
#    0.000    2.000    3.333    1.500    7.000    2.000 
#    0.000    0.833    0.000    5.000    0.000    0.000 
#    0.000    0.000    0.000    0.000    0.000    0.000 
#
# Total GULP energy -66974.755718 kJ/mol
# GULP energy per Si atom -5581.229643 kJ/mol
# Density = 2.443686 g / cm^3
# Si number density = 24.492604 Si / 1000 Ang^3
#
#
#
# Elastic Constant Matrix: (Units=GPa)
#
#
# Indices 1 2 3 4 5 6 
#
# 1 169.6714 58.1869 35.6337 21.7507 -24.6258 -40.5648
# 2 58.1869 51.3553 55.3358 19.6425 -6.5047 -39.3655
# 3 35.6337 55.3358 58.6568 34.3460 -18.2511 -5.7987
# 4 21.7507 19.6425 34.3460 34.9471 -5.4127 -12.9089
# 5 -24.6258 -6.5047 -18.2511 -5.4127 41.1729 21.9165
# 6 -40.5648 -39.3655 -5.7987 -12.9089 21.9165 29.9026
#
#
#
# Elastic Compliance Matrix: (Units=1/GPa)
#
#
# Indices 1 2 3 4 5 6 
#
# 1 0.009152 -0.003769 -0.001307 0.000337 0.000710 0.006826
# 2 -0.003769 -0.000790 0.016073 -0.018661 0.013440 -0.020942
# 3 -0.001307 0.016073 0.005354 -0.005667 -0.010140 0.025411
# 4 0.000337 -0.018661 -0.005667 0.040885 0.006788 -0.012533
# 5 0.000710 0.013440 -0.010140 0.006788 0.020970 0.004252
# 6 0.006826 -0.020942 0.025411 -0.012533 0.004252 0.011534
#
#
# Mechanical properties :
#
#
# Convention : Reuss Voigt Hill
#
# Bulk Modulus (GPa) = 28.00128 64.22183 46.11156
# Shear Modulus (GPa) = 64.92393 29.90631 47.41512
#
# Velocity S-wave (km/s) = 5.15414 3.49812 4.40465
# Velocity P-wave (km/s) = 6.84672 6.52638 6.68847
#
# Compressibility (1/GPa) = 0.03571265
#
# Stress axis : x y z
#
# Youngs Moduli (GPa) = 109.26094 -1266.13036 186.77881
#
# Poissons Ratio (x) = -4.77160 0.24403
# Poissons Ratio (y) = 0.41177 -3.00214
# Poissons Ratio (z) = 0.14275 20.35082
#
# Static dielectric constant tensor:
#      x y z
#    x 2.055460 -0.044670 -0.130420 
#    y -0.044670 2.022070 0.001190 
#    z -0.130420 0.001190 1.982680 
# 
# From -- ./inp_files/345766.got.cif
#   From: 2010.05.17/outbox.cif.g08.bks.cpg/sg2_173_cif.got.tgz:345766.got - 2010.06.03 11:33:40.
