data_PCOD9076469
_publ_section_title
;
Structure prediction by ZEFSAII (Michael W. Deem and Ramdas Pophale) SiO2 
 PCOD9076469
Probable space group: P -1
;
_chemical_formula_sum "Si O2"
_cell_formula_units_Z 16
_cell_length_a 13.160767
_cell_length_b 17.765351
_cell_length_c 8.050286
_cell_angle_alpha 55.943254
_cell_angle_beta 54.979889
_cell_angle_gamma 27.405249
_cell_volume 703.082219
_symmetry_space_group_name_H-M "P -1"
_symmetry_group_IT_number 2
_symmetry_cell_setting 'triclinic'
loop_
_space_group_symop_operation_xyz
x,y,z
-x,-y,-z
loop_
_atom_site_type_symbol
_atom_site_label
_atom_site_fract_x
_atom_site_fract_y
_atom_site_fract_z
Si Si1 0.488352 0.219802 0.786800
Si Si2 0.906890 0.541998 0.351738
Si Si3 0.517747 0.047084 0.203010
Si Si4 0.545325 0.381633 0.500364
Si Si5 0.176058 0.602369 0.313339
Si Si6 0.983793 0.688575 0.040561
Si Si7 0.234609 0.051523 0.596589
Si Si8 0.050077 0.111509 0.364109
O O1 0.360425 0.288027 0.645866
O O2 0.454464 0.344604 0.716387
O O3 0.754370 0.039427 0.755340
O O4 0.402349 0.188449 0.013650
O O5 0.939240 0.414525 0.464511
O O6 0.000000 0.500000 0.500000
O O7 0.002725 0.570060 0.128086
O O8 0.350345 0.069547 0.382787
O O9 0.595650 0.062014 0.267428
O O10 0.738944 0.861918 0.143750
O O11 0.500000 0.500000 0.500000
O O12 0.416659 0.467717 0.338963
O O13 0.812872 0.208485 0.444837
O O14 0.162556 0.597300 0.134668
O O15 0.006605 0.785327 0.292852
O O16 0.999884 0.751557 0.800670
O O17 0.165499 0.029765 0.536426
#
# Coordination Sequence:
#
# PCOD9076469 Si02
#       8
#     2   2   2   2   2   2   2   2
#     4  10  21  38  59  84 110 145 189 231 269 326
#     4   9  17  32  55  83 115 144 172 221 281 334
#     4   9  19  34  56  83 116 141 179 227 280 334
#     4  11  22  40  58  76 112 153 189 232 276 319
#     4   9  19  35  54  77 116 150 180 224 278 330
#     4   9  18  34  56  84 111 141 184 227 276 334
#     4  10  18  33  56  84 113 148 175 224 283 335
#     4  11  21  35  61  82 107 146 195 229 271 322
#
# _framework density 22.75694
#
# number of rings (size 3 to 8) (size 9 to 14) (size 15 to 20)
#    0.000    2.250    1.250    1.875    0.000    3.500 
#    2.250    2.500    2.750    0.000    0.000    0.000 
#    0.000    0.000    0.000    0.000    0.000    0.000 
#
# Total GULP energy -89100.324041 kJ/mol
# GULP energy per Si atom -5568.770253 kJ/mol
# Density = 2.270514 g / cm^3
# Si number density = 22.756940 Si / 1000 Ang^3
#
#
#
# Elastic Constant Matrix: (Units=GPa)
#
#
# Indices 1 2 3 4 5 6 
#
# 1 86.0849 21.3665 1.9452 -11.2363 8.2761 -27.3281
# 2 21.3665 53.1916 2.2497 -8.0582 8.1013 -25.4755
# 3 1.9452 2.2497 40.1889 -19.9451 3.1069 -6.5168
# 4 -11.2363 -8.0582 -19.9451 30.6780 -2.9732 -3.9635
# 5 8.2761 8.1013 3.1069 -2.9732 24.3738 -11.1767
# 6 -27.3281 -25.4755 -6.5168 -3.9635 -11.1767 38.1502
#
#
#
# Elastic Compliance Matrix: (Units=1/GPa)
#
#
# Indices 1 2 3 4 5 6 
#
# 1 0.019205 0.004443 0.011287 0.018550 0.002614 0.021345
# 2 0.004443 0.035792 0.015822 0.025922 0.003042 0.033371
# 3 0.011287 0.015822 0.051819 0.046922 0.005630 0.034026
# 4 0.018550 0.025922 0.046922 0.084566 0.012886 0.051174
# 5 0.002614 0.003042 0.005630 0.012886 0.049474 0.020699
# 6 0.021345 0.033371 0.034026 0.051174 0.020699 0.080979
#
#
# Mechanical properties :
#
#
# Convention : Reuss Voigt Hill
#
# Bulk Modulus (GPa) = 5.88509 25.62089 15.75299
# Shear Modulus (GPa) = 15.85436 28.90067 22.37752
#
# Velocity S-wave (km/s) = 2.64234 3.56753 3.13921
# Velocity P-wave (km/s) = 3.44977 5.31532 4.48071
#
# Compressibility (1/GPa) = 0.16992088
#
# Stress axis : x y z
#
# Youngs Moduli (GPa) = 52.07083 27.93916 19.29783
#
# Poissons Ratio (x) = -0.12415 -0.21782
# Poissons Ratio (y) = -0.23137 -0.30533
# Poissons Ratio (z) = -0.58773 -0.44205
#
# Static dielectric constant tensor:
#      x y z
#    x 1.879100 0.030090 0.006590 
#    y 0.030090 1.845250 0.005500 
#    z 0.006590 0.005500 1.880440 
# 
# From -- ./inp_files/243002.got.cif
#   From: 2010.05.17/outbox.cif.g08.bks.cpg/sg2_122_cif.got.tgz:243002.got - 2010.06.03 11:33:40.
