data_PCOD9076225
_publ_section_title
;
Structure prediction by ZEFSAII (Michael W. Deem and Ramdas Pophale) SiO2 
 PCOD9076225
Probable space group: P -1
;
_chemical_formula_sum "Si O2"
_cell_formula_units_Z 14
_cell_length_a 9.281112
_cell_length_b 9.543442
_cell_length_c 14.572862
_cell_angle_alpha 113.067652
_cell_angle_beta 71.682958
_cell_angle_gamma 146.710085
_cell_volume 651.602107
_symmetry_space_group_name_H-M "P -1"
_symmetry_group_IT_number 2
_symmetry_cell_setting 'triclinic'
loop_
_space_group_symop_operation_xyz
x,y,z
-x,-y,-z
loop_
_atom_site_type_symbol
_atom_site_label
_atom_site_fract_x
_atom_site_fract_y
_atom_site_fract_z
Si Si1 0.516035 0.844565 0.417370
Si Si2 0.397421 0.176336 0.996777
Si Si3 0.853642 0.004688 0.797270
Si Si4 0.325313 0.305537 0.885619
Si Si5 0.161795 0.661306 0.103767
Si Si6 0.198772 0.493020 0.223938
Si Si7 0.093847 0.255950 0.361339
O O1 0.399325 0.757410 0.314072
O O2 0.312517 0.556218 0.429156
O O3 0.500000 0.000000 0.500000
O O4 0.816146 0.031223 0.410713
O O5 0.274757 0.085924 0.098383
O O6 0.636479 0.494491 0.031443
O O7 0.224905 0.104174 0.930308
O O8 0.536946 0.134704 0.930373
O O9 0.764081 0.791596 0.696464
O O10 0.857415 0.183158 0.814267
O O11 0.145987 0.184095 0.803803
O O12 0.608161 0.479994 0.843216
O O13 0.083143 0.487002 0.159242
O O14 0.000000 0.500000 0.000000
O O15 0.020457 0.269487 0.279214
#
# Coordination Sequence:
#
# PCOD9076225 Si02
#       7
#     2   2   2   2   2   2   2
#     4  10  20  40  69  95 112 142 198 260 307 363
#     4  10  20  33  48  77 106 163 212 241 279 332
#     4  12  20  34  54  80 116 162 198 250 290 348
#     4  10  18  33  53  73 113 151 210 248 284 332
#     4  11  23  37  51  82 129 165 206 240 292 339
#     4   9  21  38  57  88 118 157 201 246 301 353
#     4  10  21  37  65  91 118 152 198 248 306 360
#
# _framework density 21.485506000000001
#
# number of rings (size 3 to 8) (size 9 to 14) (size 15 to 20)
#    0.857    0.857    4.286    1.286    0.000    1.143 
#    2.571    0.000    0.000    1.714    0.000    0.000 
#    0.000    0.000    0.000    0.000    0.000    0.000 
#
# Total GULP energy -77936.399909 kJ/mol
# GULP energy per Si atom -5566.885708 kJ/mol
# Density = 2.143660 g / cm^3
# Si number density = 21.485506 Si / 1000 Ang^3
#
#
#
# Elastic Constant Matrix: (Units=GPa)
#
#
# Indices 1 2 3 4 5 6 
#
# 1 84.1690 29.0204 3.9771 7.8075 -27.3600 -13.7127
# 2 29.0204 67.7679 18.2951 14.5584 -15.9583 3.7550
# 3 3.9771 18.2951 53.5506 26.3787 -28.1678 1.8769
# 4 7.8075 14.5584 26.3787 34.8989 -9.0347 -7.4570
# 5 -27.3600 -15.9583 -28.1678 -9.0347 33.3561 4.5513
# 6 -13.7127 3.7550 1.8769 -7.4570 4.5513 30.2885
#
#
#
# Elastic Compliance Matrix: (Units=1/GPa)
#
#
# Indices 1 2 3 4 5 6 
#
# 1 0.026422 -0.007269 0.025126 -0.011974 0.035761 0.002985
# 2 -0.007269 0.020566 -0.002613 -0.006303 0.000969 -0.007376
# 3 0.025126 -0.002613 0.087849 -0.053936 0.081565 -0.019280
# 4 -0.011974 -0.006303 -0.053936 0.068325 -0.042875 0.021967
# 5 0.035761 0.000969 0.081565 -0.042875 0.119427 -0.017486
# 6 0.002985 -0.007376 -0.019280 0.021967 -0.017486 0.044512
#
#
# Mechanical properties :
#
#
# Convention : Reuss Voigt Hill
#
# Bulk Modulus (GPa) = 6.04880 34.23029 20.13955
# Shear Modulus (GPa) = 12.76419 29.98836 21.37628
#
# Velocity S-wave (km/s) = 2.44003 3.74002 3.15765
# Velocity P-wave (km/s) = 3.28020 5.88360 4.76322
#
# Compressibility (1/GPa) = 0.16532199
#
# Stress axis : x y z
#
# Youngs Moduli (GPa) = 37.84780 48.62492 11.38320
#
# Poissons Ratio (x) = 0.35347 -0.28601
# Poissons Ratio (y) = 0.27513 0.02975
# Poissons Ratio (z) = -0.95095 0.12707
#
# Static dielectric constant tensor:
#      x y z
#    x 1.840690 -0.006630 0.020700 
#    y -0.006630 1.890120 0.046730 
#    z 0.020700 0.046730 1.872340 
# 
# From -- ./inp_files/34777.got.cif
#   From: 2010.05.17/outbox.cif.g08.bks.cpg/sg2_18_cif.got.tgz:34777.got - 2010.06.03 11:33:40.
