data_PCOD9076070
_publ_section_title
;
Structure prediction by ZEFSAII (Michael W. Deem and Ramdas Pophale) SiO2 
 PCOD9076070
Probable space group: P -1
;
_chemical_formula_sum "Si O2"
_cell_formula_units_Z 14
_cell_length_a 10.286140
_cell_length_b 11.823851
_cell_length_c 8.651492
_cell_angle_alpha 120.336168
_cell_angle_beta 71.785107
_cell_angle_gamma 80.960020
_cell_volume 796.415340
_symmetry_space_group_name_H-M "P -1"
_symmetry_group_IT_number 2
_symmetry_cell_setting 'triclinic'
loop_
_space_group_symop_operation_xyz
x,y,z
-x,-y,-z
loop_
_atom_site_type_symbol
_atom_site_label
_atom_site_fract_x
_atom_site_fract_y
_atom_site_fract_z
Si Si1 0.723621 0.324184 0.728765
Si Si2 0.566091 0.901480 0.257946
Si Si3 0.624049 0.607805 0.149347
Si Si4 0.884953 0.224494 0.286258
Si Si5 0.677534 0.160444 0.894646
Si Si6 0.641538 0.425211 0.289949
Si Si7 0.800010 0.975177 0.023347
O O1 0.555752 0.343425 0.756381
O O2 0.831489 0.285010 0.516936
O O3 0.772799 0.200216 0.754819
O O4 0.699632 0.475964 0.915504
O O5 0.655274 0.743869 0.183207
O O6 0.438973 0.886783 0.185161
O O7 0.667463 0.955063 0.150032
O O8 0.500000 0.000000 0.500000
O O9 0.668766 0.542522 0.256727
O O10 0.783529 0.336418 0.277206
O O11 0.847140 0.084463 0.181298
O O12 0.058819 0.170720 0.151402
O O13 0.607368 0.312924 0.113843
O O14 0.755743 0.047901 0.921337
O O15 0.500000 0.500000 0.500000
#
# Coordination Sequence:
#
# PCOD9076070 Si02
#       7
#     2   2   2   2   2   2   2
#     4   9  16  32  54  79 102 136 181 228 266 300
#     4  11  22  36  56  78 112 147 180 220 275 325
#     4   9  18  32  51  80 105 133 183 231 257 313
#     4  10  20  34  58  80 109 145 183 222 273 318
#     4   9  20  34  56  82 106 139 185 228 261 321
#     4  10  18  32  60  84 104 137 186 230 265 307
#     4  10  21  37  51  81 117 143 177 223 269 332
#
# _framework density 17.578769000000001
#
# number of rings (size 3 to 8) (size 9 to 14) (size 15 to 20)
#    0.000    2.286    1.429    3.000    2.000    0.571 
#    0.000    4.286    0.000    0.000    0.000    0.000 
#    0.000    0.000    0.000    0.000    0.000    0.000 
#
# Total GULP energy -78024.425486 kJ/mol
# GULP energy per Si atom -5573.173249 kJ/mol
# Density = 1.753876 g / cm^3
# Si number density = 17.578769 Si / 1000 Ang^3
#
#
#
# Elastic Constant Matrix: (Units=GPa)
#
#
# Indices 1 2 3 4 5 6 
#
# 1 34.8594 16.5634 26.6038 -1.6270 3.6133 -2.8470
# 2 16.5634 108.3531 36.5059 -4.1580 -1.0303 -9.4242
# 3 26.6038 36.5059 98.3561 -14.5209 0.6535 -15.6099
# 4 -1.6270 -4.1580 -14.5209 20.3549 -5.1649 0.1438
# 5 3.6133 -1.0303 0.6535 -5.1649 16.4187 2.9800
# 6 -2.8470 -9.4242 -15.6099 0.1438 2.9800 19.0528
#
#
#
# Elastic Compliance Matrix: (Units=1/GPa)
#
#
# Indices 1 2 3 4 5 6 
#
# 1 0.038932 -0.002896 -0.011033 -0.007934 -0.010264 -0.002989
# 2 -0.002896 0.010858 -0.002833 0.000216 0.001055 0.002450
# 3 -0.011033 -0.002833 0.017652 0.011901 0.003331 0.010802
# 4 -0.007934 0.000216 0.011901 0.062035 0.019876 0.005095
# 5 -0.010264 0.001055 0.003331 0.019876 0.071084 -0.009551
# 6 -0.002989 0.002450 0.010802 0.005095 -0.009551 0.063556
#
#
# Mechanical properties :
#
#
# Convention : Reuss Voigt Hill
#
# Bulk Modulus (GPa) = 29.48306 44.54607 37.01457
# Shear Modulus (GPa) = 16.18393 21.95833 19.07113
#
# Velocity S-wave (km/s) = 3.03752 3.53815 3.29735
# Velocity P-wave (km/s) = 5.39540 6.48746 5.96647
#
# Compressibility (1/GPa) = 0.03391778
#
# Stress axis : x y z
#
# Youngs Moduli (GPa) = 25.68553 92.10083 56.65071
#
# Poissons Ratio (x) = 0.26674 0.62504
# Poissons Ratio (y) = 0.07439 0.16048
# Poissons Ratio (z) = 0.28339 0.26090
#
# Static dielectric constant tensor:
#      x y z
#    x 1.596810 -0.016890 0.012230 
#    y -0.016890 1.627940 -0.001000 
#    z 0.012230 -0.001000 1.594890 
# 
# From -- ./inp_files/157644.got.cif
#   From: 2010.05.17/outbox.cif.g08.bks.cpg/sg2_79_cif.got.tgz:157644.got - 2010.06.03 11:33:40.
