data_PCOD9076124
_publ_section_title
;
Structure prediction by ZEFSAII (Michael W. Deem and Ramdas Pophale) SiO2 
 PCOD9076124
Probable space group: P -1
;
_chemical_formula_sum "Si O2"
_cell_formula_units_Z 14
_cell_length_a 9.945688
_cell_length_b 8.758740
_cell_length_c 16.042989
_cell_angle_alpha 106.829193
_cell_angle_beta 31.933819
_cell_angle_gamma 111.992493
_cell_volume 684.278253
_symmetry_space_group_name_H-M "P -1"
_symmetry_group_IT_number 2
_symmetry_cell_setting 'triclinic'
loop_
_space_group_symop_operation_xyz
x,y,z
-x,-y,-z
loop_
_atom_site_type_symbol
_atom_site_label
_atom_site_fract_x
_atom_site_fract_y
_atom_site_fract_z
Si Si1 0.991564 0.346977 0.567147
Si Si2 0.140186 0.916768 0.262648
Si Si3 0.367987 0.424436 0.142166
Si Si4 0.898896 0.898471 0.120018
Si Si5 0.651209 0.206518 0.036843
Si Si6 0.880921 0.118918 0.321550
Si Si7 0.347907 0.682972 0.411268
O O1 0.966118 0.201988 0.623294
O O2 0.787356 0.450886 0.720254
O O3 0.883968 0.287390 0.522856
O O4 0.265967 0.486782 0.440269
O O5 0.390125 0.066549 0.178400
O O6 0.254147 0.830086 0.111959
O O7 0.910669 0.985132 0.353377
O O8 0.566168 0.375586 0.095924
O O9 0.159687 0.254766 0.199498
O O10 0.500000 0.500000 0.000000
O O11 0.624437 0.761310 0.235588
O O12 0.853174 0.029871 0.233774
O O13 0.117600 0.811800 0.026987
O O14 0.000000 0.000000 0.000000
O O15 0.673164 0.217008 0.477009
#
# Coordination Sequence:
#
# PCOD9076124 Si02
#       7
#     2   2   2   2   2   2   2
#     4  10  20  35  59  83 112 152 189 232 287 326
#     4   9  16  32  58  83 111 140 191 239 275 330
#     4  10  18  32  62  85 113 143 184 237 282 327
#     4  11  22  37  61  81 116 153 190 232 282 334
#     4   9  18  32  53  90 113 141 190 236 277 335
#     4   9  21  37  57  86 109 150 192 232 278 337
#     4  10  22  38  55  82 117 151 188 231 280 344
#
# _framework density 20.459513000000001
#
# number of rings (size 3 to 8) (size 9 to 14) (size 15 to 20)
#    0.000    2.286    1.429    2.143    2.000    0.571 
#    0.000    6.429    3.143    0.000    0.000    0.000 
#    0.000    0.000    0.000    0.000    0.000    0.000 
#
# Total GULP energy -78142.209030 kJ/mol
# GULP energy per Si atom -5581.586359 kJ/mol
# Density = 2.041295 g / cm^3
# Si number density = 20.459513 Si / 1000 Ang^3
#
#
#
# Elastic Constant Matrix: (Units=GPa)
#
#
# Indices 1 2 3 4 5 6 
#
# 1 80.3845 41.3620 38.7716 -26.4743 12.0660 -9.1112
# 2 41.3620 80.8010 41.2391 -22.0820 14.1918 -10.4795
# 3 38.7716 41.2391 93.4697 -37.2611 8.3336 -3.6556
# 4 -26.4743 -22.0820 -37.2611 40.9768 -5.0689 13.7497
# 5 12.0660 14.1918 8.3336 -5.0689 34.1133 -7.7520
# 6 -9.1112 -10.4795 -3.6556 13.7497 -7.7520 30.7901
#
#
#
# Elastic Compliance Matrix: (Units=1/GPa)
#
#
# Indices 1 2 3 4 5 6 
#
# 1 0.019504 -0.006550 -0.002246 0.006850 -0.002713 -0.000466
# 2 -0.006550 0.019576 -0.005583 -0.000318 -0.003771 0.003254
# 3 -0.002246 -0.005583 0.020569 0.016747 -0.001216 -0.007908
# 4 0.006850 -0.000318 0.016747 0.049926 -0.003332 -0.019227
# 5 -0.002713 -0.003771 -0.001216 -0.003332 0.033386 0.007663
# 6 -0.000466 0.003254 -0.007908 -0.019227 0.007663 0.043024
#
#
# Mechanical properties :
#
#
# Convention : Reuss Voigt Hill
#
# Bulk Modulus (GPa) = 32.37234 55.26674 43.81954
# Shear Modulus (GPa) = 22.21820 30.06151 26.13985
#
# Velocity S-wave (km/s) = 3.29896 3.83733 3.57828
# Velocity P-wave (km/s) = 5.51071 6.83409 6.20776
#
# Compressibility (1/GPa) = 0.03089057
#
# Stress axis : x y z
#
# Youngs Moduli (GPa) = 51.27086 51.08275 48.61705
#
# Poissons Ratio (x) = 0.33457 0.10921
# Poissons Ratio (y) = 0.33581 0.27145
# Poissons Ratio (z) = 0.11517 0.28521
#
# Static dielectric constant tensor:
#      x y z
#    x 1.736810 0.034930 -0.004860 
#    y 0.034930 1.765220 0.036740 
#    z -0.004860 0.036740 1.756410 
# 
# From -- ./inp_files/158160.got.cif
#   From: 2010.05.17/outbox.cif.g08.bks.cpg/sg2_80_cif.got.tgz:158160.got - 2010.06.03 11:33:40.
