data_PCOD9076547
_publ_section_title
;
Structure prediction by ZEFSAII (Michael W. Deem and Ramdas Pophale) SiO2 
 PCOD9076547
Probable space group: P -1
;
_chemical_formula_sum "Si O2"
_cell_formula_units_Z 16
_cell_length_a 25.536520
_cell_length_b 9.195348
_cell_length_c 12.087088
_cell_angle_alpha 139.948754
_cell_angle_beta 159.129737
_cell_angle_gamma 36.719754
_cell_volume 602.746053
_symmetry_space_group_name_H-M "P -1"
_symmetry_group_IT_number 2
_symmetry_cell_setting 'triclinic'
loop_
_space_group_symop_operation_xyz
x,y,z
-x,-y,-z
loop_
_atom_site_type_symbol
_atom_site_label
_atom_site_fract_x
_atom_site_fract_y
_atom_site_fract_z
Si Si1 0.128797 0.088617 0.366535
Si Si2 0.711067 0.435192 0.321596
Si Si3 0.209764 0.944683 0.072810
Si Si4 0.465291 0.455737 0.279325
Si Si5 0.696669 0.448494 0.548300
Si Si6 0.042360 0.342462 0.803944
Si Si7 0.100614 0.093469 0.544008
Si Si8 0.374799 0.101926 0.690526
O O1 0.108458 0.231081 0.526069
O O2 0.220238 0.176901 0.507009
O O3 0.256979 0.837887 0.520561
O O4 0.000000 0.000000 0.000000
O O5 0.650214 0.538313 0.383994
O O6 0.599313 0.645782 0.139535
O O7 0.885084 0.422072 0.615574
O O8 0.753729 0.143378 0.255579
O O9 0.293126 0.660937 0.042204
O O10 0.317197 0.026070 0.415670
O O11 0.039343 0.998074 0.822444
O O12 0.166869 0.103622 0.971113
O O13 0.500000 0.500000 0.500000
O O14 0.578837 0.539159 0.471673
O O15 0.501375 0.164452 0.176453
O O16 0.861787 0.482788 0.912026
O O17 0.031349 0.262867 0.611124
#
# Coordination Sequence:
#
# PCOD9076547 Si02
#       8
#     2   2   2   2   2   2   2   2
#     4  10  18  33  57  84 114 149 195 238 287 342
#     4  10  19  35  58  90 114 148 196 243 285 338
#     4  10  18  34  57  85 118 150 190 238 290 333
#     4   9  21  37  56  87 116 153 197 246 279 331
#     4  10  20  34  60  88 111 152 200 241 280 339
#     4  11  21  35  58  92 123 146 186 243 303 346
#     4  10  22  35  60  86 122 155 181 236 306 349
#     4  10  18  33  59  84 111 145 195 249 278 326
#
# _framework density 26.545173999999999
#
# number of rings (size 3 to 8) (size 9 to 14) (size 15 to 20)
#    0.000    2.000    2.500    2.625    1.750    0.500 
#    0.000    2.500    5.500   15.000    0.000    0.000 
#    0.000    0.000    0.000    0.000    0.000    0.000 
#
# Total GULP energy -89240.292711 kJ/mol
# GULP energy per Si atom -5577.518294 kJ/mol
# Density = 2.648476 g / cm^3
# Si number density = 26.545174 Si / 1000 Ang^3
#
#
#
# Elastic Constant Matrix: (Units=GPa)
#
#
# Indices 1 2 3 4 5 6 
#
# 1 225.6303 58.5386 40.3072 -3.0559 -9.4642 13.7123
# 2 58.5386 142.8226 17.5540 -29.0229 -3.6051 16.0630
# 3 40.3072 17.5540 60.4479 -17.4747 5.4009 -0.6666
# 4 -3.0559 -29.0229 -17.4747 40.9425 -1.4114 -9.3148
# 5 -9.4642 -3.6051 5.4009 -1.4114 11.1700 -7.3586
# 6 13.7123 16.0630 -0.6666 -9.3148 -7.3586 45.4403
#
#
#
# Elastic Compliance Matrix: (Units=1/GPa)
#
#
# Indices 1 2 3 4 5 6 
#
# 1 0.006174 -0.002353 -0.004921 -0.003292 0.005892 -0.000824
# 2 -0.002353 0.009355 0.000650 0.006504 0.000791 -0.001126
# 3 -0.004921 0.000650 0.023757 0.010133 -0.013143 0.001553
# 4 -0.003292 0.006504 0.010133 0.034685 0.003039 0.006445
# 5 0.005892 0.000791 -0.013143 0.003039 0.112435 0.016580
# 6 -0.000824 -0.001126 0.001553 0.006445 0.016580 0.026683
#
#
# Mechanical properties :
#
#
# Convention : Reuss Voigt Hill
#
# Bulk Modulus (GPa) = 38.40756 73.52228 55.96492
# Shear Modulus (GPa) = 21.27513 40.34396 30.80955
#
# Velocity S-wave (km/s) = 2.83409 3.90272 3.41052
# Velocity P-wave (km/s) = 5.02092 6.93293 6.05290
#
# Compressibility (1/GPa) = 0.02603654
#
# Stress axis : x y z
#
# Youngs Moduli (GPa) = 161.96032 106.89823 42.09365
#
# Poissons Ratio (x) = 0.25158 0.20714
# Poissons Ratio (y) = 0.38116 -0.02735
# Poissons Ratio (z) = 0.79700 -0.06947
#
# Static dielectric constant tensor:
#      x y z
#    x 2.521410 -0.035560 -0.064960 
#    y -0.035560 2.147960 0.003440 
#    z -0.064960 0.003440 2.176300 
# 
# From -- ./inp_files/474320.got.cif
#   From: 2010.05.17/outbox.cif.g08.bks.cpg/sg2_238_cif.got.tgz:474320.got - 2010.06.03 11:33:40.
