data_PCOD9076417
_publ_section_title
;
Structure prediction by ZEFSAII (Michael W. Deem and Ramdas Pophale) SiO2 
 PCOD9076417
Probable space group: P -1
;
_chemical_formula_sum "Si O2"
_cell_formula_units_Z 16
_cell_length_a 7.954024
_cell_length_b 18.781328
_cell_length_c 17.622128
_cell_angle_alpha 32.317793
_cell_angle_beta 48.342236
_cell_angle_gamma 73.108065
_cell_volume 772.088680
_symmetry_space_group_name_H-M "P -1"
_symmetry_group_IT_number 2
_symmetry_cell_setting 'triclinic'
loop_
_space_group_symop_operation_xyz
x,y,z
-x,-y,-z
loop_
_atom_site_type_symbol
_atom_site_label
_atom_site_fract_x
_atom_site_fract_y
_atom_site_fract_z
Si Si1 0.693207 0.185209 0.107691
Si Si2 0.149308 0.086876 0.294592
Si Si3 0.273062 0.855268 0.634604
Si Si4 0.920228 0.474220 0.219246
Si Si5 0.951837 0.040353 0.100021
Si Si6 0.045705 0.244774 0.443276
Si Si7 0.513023 0.834034 0.271418
Si Si8 0.492569 0.684496 0.657235
O O1 0.512238 0.207307 0.083944
O O2 0.953491 0.192344 0.992168
O O3 0.428532 0.976450 0.402035
O O4 0.815389 0.321162 0.018192
O O5 0.041894 0.193265 0.212730
O O6 0.003146 0.917004 0.436253
O O7 0.000000 0.000000 0.500000
O O8 0.304487 0.711344 0.742564
O O9 0.500000 0.000000 0.500000
O O10 0.038445 0.367790 0.276554
O O11 0.685428 0.370909 0.454353
O O12 0.723668 0.434935 0.241054
O O13 0.733697 0.956337 0.166404
O O14 0.783316 0.879486 0.357006
O O15 0.275959 0.113355 0.910235
O O16 0.746245 0.156579 0.664112
O O17 0.353868 0.365163 0.291695
#
# Coordination Sequence:
#
# PCOD9076417 Si02
#       8
#     2   2   2   2   2   2   2   2
#     4  10  19  34  55  76 105 141 166 220 264 310
#     4  10  18  33  56  75  99 134 182 219 254 302
#     4  10  19  34  54  78  97 131 183 221 255 298
#     4   9  20  36  49  77 115 138 168 207 271 317
#     4   9  16  32  56  81 101 135 183 212 258 299
#     4  10  18  35  55  77 103 142 172 214 264 302
#     4   8  17  32  54  80 103 137 174 215 258 315
#     4  10  19  35  57  75 109 139 171 225 253 311
#
# _framework density 20.723009999999999
#
# number of rings (size 3 to 8) (size 9 to 14) (size 15 to 20)
#    0.750    1.750    2.500    1.500    0.000    1.000 
#    2.250    6.250    0.000    0.750    0.000    0.000 
#    0.000    0.000    0.000    0.000    0.000    0.000 
#
# Total GULP energy -89134.247489 kJ/mol
# GULP energy per Si atom -5570.890468 kJ/mol
# Density = 2.067584 g / cm^3
# Si number density = 20.723010 Si / 1000 Ang^3
#
#
#
# Elastic Constant Matrix: (Units=GPa)
#
#
# Indices 1 2 3 4 5 6 
#
# 1 104.0273 25.0363 14.6854 -4.0937 -20.3550 -15.5986
# 2 25.0363 97.4861 23.2733 9.7960 -0.0930 -16.5841
# 3 14.6854 23.2733 57.9849 1.5877 -0.0625 -4.7052
# 4 -4.0937 9.7960 1.5877 27.8428 6.5687 -6.4546
# 5 -20.3550 -0.0930 -0.0625 6.5687 18.1006 0.8722
# 6 -15.5986 -16.5841 -4.7052 -6.4546 0.8722 30.5957
#
#
#
# Elastic Compliance Matrix: (Units=1/GPa)
#
#
# Indices 1 2 3 4 5 6 
#
# 1 0.014390 -0.002270 -0.002292 0.000605 0.015681 0.005434
# 2 -0.002270 0.012935 -0.004159 -0.003219 -0.001553 0.004579
# 3 -0.002292 -0.004159 0.019458 0.000612 -0.002743 -0.000223
# 4 0.000605 -0.003219 0.000612 0.042550 -0.015164 0.008066
# 5 0.015681 -0.001553 -0.002743 -0.015164 0.078304 0.001300
# 6 0.005434 0.004579 -0.000223 0.008066 0.001300 0.039567
#
#
# Mechanical properties :
#
#
# Convention : Reuss Voigt Hill
#
# Bulk Modulus (GPa) = 34.08195 42.83204 38.45699
# Shear Modulus (GPa) = 21.32883 28.40805 24.86844
#
# Velocity S-wave (km/s) = 3.21165 3.70651 3.46792
# Velocity P-wave (km/s) = 5.49864 6.24751 5.88500
#
# Compressibility (1/GPa) = 0.02934105
#
# Stress axis : x y z
#
# Youngs Moduli (GPa) = 69.49464 77.31164 51.39358
#
# Poissons Ratio (x) = 0.17548 0.11780
# Poissons Ratio (y) = 0.15773 0.21373
# Poissons Ratio (z) = 0.15929 0.32151
#
# Static dielectric constant tensor:
#      x y z
#    x 1.816130 -0.037690 0.026650 
#    y -0.037690 1.746900 0.008990 
#    z 0.026650 0.008990 1.805760 
# 
# From -- ./inp_files/224477.got.cif
#   From: 2010.05.17/outbox.cif.g08.bks.cpg/sg2_113_cif.got.tgz:224477.got - 2010.06.03 11:33:40.
