data_PCOD9076937
_publ_section_title
;
Structure prediction by ZEFSAII (Michael W. Deem and Ramdas Pophale) SiO2 
 PCOD9076937
Probable space group: P -1
;
_chemical_formula_sum "Si O2"
_cell_formula_units_Z 14
_cell_length_a 13.199759
_cell_length_b 15.297775
_cell_length_c 9.661179
_cell_angle_alpha 39.446848
_cell_angle_beta 31.294349
_cell_angle_gamma 52.071748
_cell_volume 637.773847
_symmetry_space_group_name_H-M "P -1"
_symmetry_group_IT_number 2
_symmetry_cell_setting 'triclinic'
loop_
_space_group_symop_operation_xyz
x,y,z
-x,-y,-z
loop_
_atom_site_type_symbol
_atom_site_label
_atom_site_fract_x
_atom_site_fract_y
_atom_site_fract_z
Si Si1 0.103342 0.358606 0.532574
Si Si2 0.385721 0.353474 0.450992
Si Si3 0.886402 0.564390 0.871644
Si Si4 0.216629 0.722185 0.812363
Si Si5 0.780439 0.918963 0.866837
Si Si6 0.458008 0.853766 0.111581
Si Si7 0.309496 0.575811 0.482382
O O1 0.299710 0.370326 0.379580
O O2 0.136202 0.343757 0.349327
O O3 0.000000 0.500000 0.500000
O O4 0.948038 0.242474 0.932069
O O5 0.604542 0.316422 0.255553
O O6 0.385405 0.493051 0.369024
O O7 0.243421 0.228513 0.846745
O O8 0.092855 0.608606 0.651535
O O9 0.882076 0.409981 0.000624
O O10 0.722462 0.533666 0.218712
O O11 0.321780 0.818099 0.452094
O O12 0.638408 0.015903 0.992115
O O13 0.676552 0.886922 0.877463
O O14 0.000000 0.000000 0.500000
O O15 0.430059 0.719824 0.212060
#
# Coordination Sequence:
#
# PCOD9076937 Si02
#       7
#     2   2   2   2   2   2   2
#     4  10  18  34  50  80 116 152 176 220 275 334
#     4  11  21  34  59  87 109 141 191 230 272 323
#     4   9  19  31  53  77 117 151 169 217 287 329
#     4   9  18  32  54  78 112 142 183 224 264 326
#     4  10  21  34  55  82 109 146 185 224 270 334
#     4   9  20  37  52  81 115 143 177 229 281 321
#     4  10  19  36  56  85 116 140 177 234 285 321
#
# _framework density 21.951353999999998
#
# number of rings (size 3 to 8) (size 9 to 14) (size 15 to 20)
#    0.000    2.286    2.857    0.857    4.000    7.429 
#    0.000    0.000    0.000    0.857    0.000    6.000 
#    0.000    0.000    0.000    0.000    0.000    0.000 
#
# Total GULP energy -78139.612376 kJ/mol
# GULP energy per Si atom -5581.400884 kJ/mol
# Density = 2.190139 g / cm^3
# Si number density = 21.951354 Si / 1000 Ang^3
#
#
#
# Elastic Constant Matrix: (Units=GPa)
#
#
# Indices 1 2 3 4 5 6 
#
# 1 137.3147 41.6924 36.1492 -0.7884 -19.6829 9.6272
# 2 41.6924 48.4917 27.6784 -12.5647 -12.1488 1.4904
# 3 36.1492 27.6784 94.1207 -5.5482 -22.8636 19.1780
# 4 -0.7884 -12.5647 -5.5482 33.0867 8.6043 0.2088
# 5 -19.6829 -12.1488 -22.8636 8.6043 44.8416 0.1222
# 6 9.6272 1.4904 19.1780 0.2088 0.1222 26.5080
#
#
#
# Elastic Compliance Matrix: (Units=1/GPa)
#
#
# Indices 1 2 3 4 5 6 
#
# 1 0.010813 -0.009369 -0.000303 -0.004070 0.002843 -0.003162
# 2 -0.009369 0.035930 -0.007847 0.012256 -0.000750 0.006966
# 3 -0.000303 -0.007847 0.016983 -0.001829 0.006784 -0.011753
# 4 -0.004070 0.012256 -0.001829 0.036109 -0.006332 0.001857
# 5 0.002843 -0.000750 0.006784 -0.006332 0.028036 -0.005978
# 6 -0.003162 0.006966 -0.011753 0.001857 -0.005978 0.046997
#
#
# Mechanical properties :
#
#
# Convention : Reuss Voigt Hill
#
# Bulk Modulus (GPa) = 34.85643 54.55189 44.70416
# Shear Modulus (GPa) = 22.78229 32.51440 27.64835
#
# Velocity S-wave (km/s) = 3.22507 3.85281 3.55283
# Velocity P-wave (km/s) = 5.45724 6.68562 6.10242
#
# Compressibility (1/GPa) = 0.02868911
#
# Stress axis : x y z
#
# Youngs Moduli (GPa) = 92.48285 27.83176 58.88168
#
# Poissons Ratio (x) = 0.26076 0.01782
# Poissons Ratio (y) = 0.86648 0.46203
# Poissons Ratio (z) = 0.02799 0.21839
#
# Static dielectric constant tensor:
#      x y z
#    x 1.848020 -0.052850 0.026220 
#    y -0.052850 1.833030 0.017590 
#    z 0.026220 0.017590 1.937920 
# 
# From -- ./inp_files/271730.got.cif
#   From: 2010.05.17/outbox.cif.g08.bks.cpg/sg2_136_cif.got.tgz:271730.got - 2010.06.03 11:33:40.
