data_PCOD9076907
_publ_section_title
;
Structure prediction by ZEFSAII (Michael W. Deem and Ramdas Pophale) SiO2 
 PCOD9076907
Probable space group: P -1
;
_chemical_formula_sum "Si O2"
_cell_formula_units_Z 14
_cell_length_a 7.941581
_cell_length_b 15.270900
_cell_length_c 15.018656
_cell_angle_alpha 150.863568
_cell_angle_beta 125.035408
_cell_angle_gamma 74.503632
_cell_volume 587.535203
_symmetry_space_group_name_H-M "P -1"
_symmetry_group_IT_number 2
_symmetry_cell_setting 'triclinic'
loop_
_space_group_symop_operation_xyz
x,y,z
-x,-y,-z
loop_
_atom_site_type_symbol
_atom_site_label
_atom_site_fract_x
_atom_site_fract_y
_atom_site_fract_z
Si Si1 0.681385 0.083444 0.043600
Si Si2 0.134149 0.192712 0.086991
Si Si3 0.327494 0.504845 0.581542
Si Si4 0.979043 0.277344 0.786240
Si Si5 0.564346 0.487777 0.176320
Si Si6 0.384681 0.032962 0.755433
Si Si7 0.082740 0.018327 0.339125
O O1 0.749010 0.327825 0.276397
O O2 0.500000 0.000000 0.000000
O O3 0.857016 0.007066 0.053010
O O4 0.530774 0.967142 0.803228
O O5 0.135766 0.322115 0.287909
O O6 0.399911 0.366865 0.271091
O O7 0.926763 0.087133 0.852392
O O8 0.370935 0.443139 0.638080
O O9 0.805697 0.145336 0.532038
O O10 0.860743 0.099821 0.673387
O O11 0.000000 0.500000 0.000000
O O12 0.272930 0.368357 0.952677
O O13 0.737588 0.714810 0.375687
O O14 0.578019 0.277253 0.987505
O O15 0.197210 0.046725 0.778414
#
# Coordination Sequence:
#
# PCOD9076907 Si02
#       7
#     2   2   2   2   2   2   2
#     4   9  16  33  59  87 114 153 202 236 295 361
#     4  10  18  33  64  86 121 164 195 249 300 354
#     4   9  18  33  57  88 121 159 200 242 298 357
#     4  11  25  40  63  87 118 157 201 250 307 358
#     4  10  21  40  61  88 120 156 203 247 298 365
#     4  10  21  40  62  87 116 159 200 249 299 355
#     4  11  21  40  62  88 119 159 201 244 307 355
#
# _framework density 23.828357
#
# number of rings (size 3 to 8) (size 9 to 14) (size 15 to 20)
#    0.000    2.000    5.714    1.714    2.000    4.571 
#    0.000    2.857    0.000    0.000    0.000    0.000 
#    0.000    0.000    0.000    0.000    0.000    0.000 
#
# Total GULP energy -78171.993766 kJ/mol
# GULP energy per Si atom -5583.713840 kJ/mol
# Density = 2.377412 g / cm^3
# Si number density = 23.828357 Si / 1000 Ang^3
#
#
#
# Elastic Constant Matrix: (Units=GPa)
#
#
# Indices 1 2 3 4 5 6 
#
# 1 33.8382 18.2927 19.4646 4.9559 -11.1006 8.9213
# 2 18.2927 147.3828 58.9126 -13.6180 4.3705 15.9042
# 3 19.4646 58.9126 147.2337 -21.2365 -3.0670 21.8041
# 4 4.9559 -13.6180 -21.2365 57.0738 17.9965 3.8782
# 5 -11.1006 4.3705 -3.0670 17.9965 44.5357 3.8483
# 6 8.9213 15.9042 21.8041 3.8782 3.8483 21.1747
#
#
#
# Elastic Compliance Matrix: (Units=1/GPa)
#
#
# Indices 1 2 3 4 5 6 
#
# 1 0.044141 -0.004164 -0.003390 -0.010406 0.016512 -0.013074
# 2 -0.004164 0.008819 -0.002280 0.002714 -0.002942 -0.002484
# 3 -0.003390 -0.002280 0.009875 0.004259 -0.001003 -0.007625
# 4 -0.010406 0.002714 0.004259 0.024805 -0.012213 -0.004363
# 5 0.016512 -0.002942 -0.001003 -0.012213 0.032360 -0.007358
# 6 -0.013074 -0.002484 -0.007625 -0.004363 -0.007358 0.064589
#
#
# Mechanical properties :
#
#
# Convention : Reuss Voigt Hill
#
# Bulk Modulus (GPa) = 23.16584 57.97718 40.57151
# Shear Modulus (GPa) = 22.86780 40.00916 31.43848
#
# Velocity S-wave (km/s) = 3.10124 4.10207 3.63626
# Velocity P-wave (km/s) = 4.75044 6.84252 5.89011
#
# Compressibility (1/GPa) = 0.04316701
#
# Stress axis : x y z
#
# Youngs Moduli (GPa) = 22.65443 113.38528 101.26287
#
# Poissons Ratio (x) = 0.47212 0.34331
# Poissons Ratio (y) = 0.09433 0.23092
# Poissons Ratio (z) = 0.07681 0.25857
#
# Static dielectric constant tensor:
#      x y z
#    x 2.056390 -0.053580 0.068000 
#    y -0.053580 1.952670 -0.017260 
#    z 0.068000 -0.017260 1.968030 
# 
# From -- ./inp_files/331396.got.cif
#   From: 2010.05.17/outbox.cif.g08.bks.cpg/sg2_166_cif.got.tgz:331396.got - 2010.06.03 11:33:40.
