data_PCOD9076871
_publ_section_title
;
Structure prediction by ZEFSAII (Michael W. Deem and Ramdas Pophale) SiO2 
 PCOD9076871
Probable space group: P -1
;
_chemical_formula_sum "Si O2"
_cell_formula_units_Z 14
_cell_length_a 19.327330
_cell_length_b 7.494509
_cell_length_c 7.840421
_cell_angle_alpha 57.273582
_cell_angle_beta 127.599012
_cell_angle_gamma 131.530435
_cell_volume 655.617202
_symmetry_space_group_name_H-M "P -1"
_symmetry_group_IT_number 2
_symmetry_cell_setting 'triclinic'
loop_
_space_group_symop_operation_xyz
x,y,z
-x,-y,-z
loop_
_atom_site_type_symbol
_atom_site_label
_atom_site_fract_x
_atom_site_fract_y
_atom_site_fract_z
Si Si1 0.244696 0.988877 0.144291
Si Si2 0.587904 0.320852 0.631321
Si Si3 0.881852 0.831956 0.932576
Si Si4 0.232594 0.723708 0.919131
Si Si5 0.727463 0.812369 0.448086
Si Si6 0.390151 0.442815 0.930278
Si Si7 0.385851 0.875898 0.596828
O O1 0.281872 0.866938 0.404641
O O2 0.164288 0.053554 0.064450
O O3 0.208356 0.822520 0.006700
O O4 0.346634 0.242023 0.116068
O O5 0.634846 0.611405 0.527928
O O6 0.591174 0.220080 0.498394
O O7 0.477081 0.147720 0.623109
O O8 0.664862 0.275446 0.881257
O O9 0.822817 0.813406 0.676465
O O10 0.849775 0.558348 0.086207
O O11 0.000000 0.000000 0.000000
O O12 0.251137 0.915719 0.698417
O O13 0.693606 0.691144 0.273820
O O14 0.389902 0.692473 0.834758
O O15 0.500000 0.500000 0.000000
#
# Coordination Sequence:
#
# PCOD9076871 Si02
#       7
#     2   2   2   2   2   2   2
#     4  10  21  37  60  86 116 157 198 239 294 351
#     4   8  14  27  52  82 114 148 180 221 275 341
#     4  11  25  42  59  84 115 150 202 258 300 344
#     4   9  19  38  59  83 116 148 191 247 295 350
#     4   9  18  35  57  81 116 154 188 238 293 342
#     4  10  18  33  61  93 124 158 193 231 284 356
#     4   9  15  27  51  84 117 150 186 224 276 340
#
# _framework density 21.353922000000001
#
# number of rings (size 3 to 8) (size 9 to 14) (size 15 to 20)
#    0.000    2.571    0.000    5.143    0.000    2.286 
#    0.000    9.286    0.000   12.857    0.000    0.000 
#    0.000    0.000    0.000    0.000    0.000    0.000 
#
# Total GULP energy -78130.617719 kJ/mol
# GULP energy per Si atom -5580.758409 kJ/mol
# Density = 2.130532 g / cm^3
# Si number density = 21.353922 Si / 1000 Ang^3
#
#
#
# Elastic Constant Matrix: (Units=GPa)
#
#
# Indices 1 2 3 4 5 6 
#
# 1 114.7832 47.9221 16.8408 0.2915 12.5688 -13.8094
# 2 47.9221 54.2581 30.4771 -11.8134 27.1794 -69.9731
# 3 16.8408 30.4771 83.1595 -19.0413 5.4886 -22.6261
# 4 0.2915 -11.8134 -19.0413 41.3741 -12.0933 14.3964
# 5 12.5688 27.1794 5.4886 -12.0933 24.2861 6.0225
# 6 -13.8094 -69.9731 -22.6261 14.3964 6.0225 -53.1516
#
#
#
# Elastic Compliance Matrix: (Units=1/GPa)
#
#
# Indices 1 2 3 4 5 6 
#
# 1 0.011772 -0.005752 -0.000039 -0.003551 -0.002236 0.003316
# 2 -0.005752 0.013513 -0.006083 0.004103 -0.005452 -0.013212
# 3 -0.000039 -0.006083 0.016230 0.006128 0.005374 0.003378
# 4 -0.003551 0.004103 0.006128 0.030423 0.010431 0.002334
# 5 -0.002236 -0.005452 0.005374 0.010431 0.048981 0.013846
# 6 0.003316 -0.013212 0.003378 0.002334 0.013846 -0.001519
#
#
# Mechanical properties :
#
#
# Convention : Reuss Voigt Hill
#
# Bulk Modulus (GPa) = 56.28565 49.18677 52.73621
# Shear Modulus (GPa) = 33.54093 12.96578 23.25335
#
# Velocity S-wave (km/s) = 3.96752 2.46679 3.30350
# Velocity P-wave (km/s) = 6.88506 5.58547 6.26903
#
# Compressibility (1/GPa) = 0.01776652
#
# Stress axis : x y z
#
# Youngs Moduli (GPa) = 84.94569 74.00193 61.61431
#
# Poissons Ratio (x) = 0.42568 0.00241
# Poissons Ratio (y) = 0.48863 0.37480
# Poissons Ratio (z) = 0.00333 0.45015
#
# Static dielectric constant tensor:
#      x y z
#    x 1.809060 -0.054410 -0.037260 
#    y -0.054410 1.812260 -0.048840 
#    z -0.037260 -0.048840 1.804950 
# 
# From -- ./inp_files/202409.got.cif
#   From: 2010.05.17/outbox.cif.g08.bks.cpg/sg2_102_cif.got.tgz:202409.got - 2010.06.03 11:33:40.
