data_PCOD9076530
_publ_section_title
;
Structure prediction by ZEFSAII (Michael W. Deem and Ramdas Pophale) SiO2 
 PCOD9076530
Probable space group: P -1
;
_chemical_formula_sum "Si O2"
_cell_formula_units_Z 16
_cell_length_a 8.715719
_cell_length_b 21.428810
_cell_length_c 12.060876
_cell_angle_alpha 149.365518
_cell_angle_beta 67.112176
_cell_angle_gamma 127.697642
_cell_volume 853.993373
_symmetry_space_group_name_H-M "P -1"
_symmetry_group_IT_number 2
_symmetry_cell_setting 'triclinic'
loop_
_space_group_symop_operation_xyz
x,y,z
-x,-y,-z
loop_
_atom_site_type_symbol
_atom_site_label
_atom_site_fract_x
_atom_site_fract_y
_atom_site_fract_z
Si Si1 0.898508 0.920443 0.789969
Si Si2 0.456046 0.695303 0.126462
Si Si3 0.446923 0.835365 0.784792
Si Si4 0.751985 0.902956 0.197651
Si Si5 0.912441 0.645580 0.293601
Si Si6 0.187103 0.800917 0.263357
Si Si7 0.581822 0.128772 0.911930
Si Si8 0.337979 0.766596 0.470580
O O1 0.665231 0.862356 0.767257
O O2 0.905935 0.779146 0.547821
O O3 0.036074 0.038436 0.832998
O O4 0.000000 0.000000 0.000000
O O5 0.664676 0.775061 0.120225
O O6 0.349660 0.774481 0.229898
O O7 0.470451 0.726822 0.301525
O O8 0.295671 0.517970 0.879106
O O9 0.328279 0.739758 0.562988
O O10 0.348830 0.789190 0.863682
O O11 0.500000 0.000000 0.000000
O O12 0.580866 0.849989 0.068743
O O13 0.772978 0.045029 0.467666
O O14 0.972543 0.673446 0.188392
O O15 0.108487 0.669115 0.335430
O O16 0.235362 0.816179 0.143012
O O17 0.450410 0.946693 0.691865
#
# Coordination Sequence:
#
# PCOD9076530 Si02
#       8
#     2   2   2   2   2   2   2   2
#     4  11  19  36  55  78 102 132 177 217 252 315
#     4  10  17  30  52  82 108 135 170 217 256 301
#     4  10  21  31  52  80 103 137 169 215 266 305
#     4  10  16  29  56  81 103 131 176 221 252 287
#     4  10  20  31  56  83 101 134 177 213 261 300
#     4   9  15  27  53  80 105 128 174 221 244 288
#     4  10  14  28  50  79 102 133 173 209 255 293
#     4  10  16  31  49  80 112 133 166 215 256 304
#
# _framework density 18.735507999999999
#
# number of rings (size 3 to 8) (size 9 to 14) (size 15 to 20)
#    0.000    2.000    6.250    3.000    0.000    0.000 
#    0.000    1.875    0.000    6.750    6.500    0.000 
#    0.000    0.000    0.000    0.000    0.000    0.000 
#
# Total GULP energy -89140.342741 kJ/mol
# GULP energy per Si atom -5571.271421 kJ/mol
# Density = 1.869286 g / cm^3
# Si number density = 18.735508 Si / 1000 Ang^3
#
#
#
# Elastic Constant Matrix: (Units=GPa)
#
#
# Indices 1 2 3 4 5 6 
#
# 1 15.3839 15.0228 7.9664 -11.4989 2.0778 -4.0827
# 2 15.0228 137.7350 56.8547 -27.7770 15.2440 -0.3043
# 3 7.9664 56.8547 61.2068 -16.8287 12.0901 -2.2199
# 4 -11.4989 -27.7770 -16.8287 39.8535 -1.5240 10.6520
# 5 2.0778 15.2440 12.0901 -1.5240 17.6211 -10.3278
# 6 -4.0827 -0.3043 -2.2199 10.6520 -10.3278 19.2215
#
#
#
# Elastic Compliance Matrix: (Units=1/GPa)
#
#
# Indices 1 2 3 4 5 6 
#
# 1 0.086869 -0.005514 -0.001348 0.018208 0.002604 0.009517
# 2 -0.005514 0.014320 -0.008252 0.007995 -0.013274 -0.013460
# 3 -0.001348 -0.008252 0.030286 0.009348 -0.020296 -0.013005
# 4 0.018208 0.007995 0.009348 0.049596 -0.035504 -0.041488
# 5 0.002604 -0.013274 -0.020296 -0.035504 0.130115 0.087586
# 6 0.009517 -0.013460 -0.013005 -0.041488 0.087586 0.122383
#
#
# Mechanical properties :
#
#
# Convention : Reuss Voigt Hill
#
# Bulk Modulus (GPa) = 9.87676 41.55706 25.71691
# Shear Modulus (GPa) = 10.04935 24.30468 17.17702
#
# Velocity S-wave (km/s) = 2.31850 3.60565 3.03118
# Velocity P-wave (km/s) = 3.52851 6.28994 5.09969
#
# Compressibility (1/GPa) = 0.10124778
#
# Stress axis : x y z
#
# Youngs Moduli (GPa) = 11.51164 69.83441 33.01834
#
# Poissons Ratio (x) = 0.38504 0.04451
# Poissons Ratio (y) = 0.06347 0.27246
# Poissons Ratio (z) = 0.01552 0.57626
#
# Static dielectric constant tensor:
#      x y z
#    x 1.579090 -0.050290 0.064140 
#    y -0.050290 1.699320 0.002460 
#    z 0.064140 0.002460 1.602430 
# 
# From -- ./inp_files/254121.got.cif
#   From: 2010.05.17/outbox.cif.g08.bks.cpg/sg2_128_cif.got.tgz:254121.got - 2010.06.03 11:33:40.
