data_PCOD9076605
_publ_section_title
;
Structure prediction by ZEFSAII (Michael W. Deem and Ramdas Pophale) SiO2 
 PCOD9076605
Probable space group: P -1
;
_chemical_formula_sum "Si O2"
_cell_formula_units_Z 16
_cell_length_a 20.487606
_cell_length_b 13.175816
_cell_length_c 9.471921
_cell_angle_alpha 32.268573
_cell_angle_beta 33.914866
_cell_angle_gamma 26.478789
_cell_volume 579.306403
_symmetry_space_group_name_H-M "P -1"
_symmetry_group_IT_number 2
_symmetry_cell_setting 'triclinic'
loop_
_space_group_symop_operation_xyz
x,y,z
-x,-y,-z
loop_
_atom_site_type_symbol
_atom_site_label
_atom_site_fract_x
_atom_site_fract_y
_atom_site_fract_z
Si Si1 0.598518 0.591007 0.720006
Si Si2 0.233357 0.700385 0.501987
Si Si3 0.104589 0.399170 0.793321
Si Si4 0.673976 0.017050 0.432757
Si Si5 0.495309 0.289795 0.701657
Si Si6 0.034682 0.109764 0.060955
Si Si7 0.416278 0.908588 0.927166
Si Si8 0.894245 0.453238 0.667754
O O1 0.747295 0.398830 0.577458
O O2 0.479920 0.840347 0.548300
O O3 0.500000 0.500000 0.000000
O O4 0.565636 0.698085 0.811272
O O5 0.333552 0.452610 0.714660
O O6 0.069188 0.905423 0.629317
O O7 0.319007 0.811393 0.214924
O O8 0.083281 0.590148 0.490101
O O9 0.000000 0.500000 0.000000
O O10 0.050255 0.279033 0.936320
O O11 0.283498 0.183278 0.771618
O O12 0.628707 0.120510 0.548170
O O13 0.743856 0.735123 0.628681
O O14 0.790840 0.058491 0.116313
O O15 0.500000 0.500000 0.500000
O O16 0.538829 0.114975 0.962152
O O17 0.929968 0.238688 0.955322
O O18 0.000000 0.500000 0.500000
#
# Coordination Sequence:
#
# PCOD9076605 Si02
#       8
#     2   2   2   2   2   2   2   2
#     4   9  16  32  53  75 103 144 176 213 255 327
#     4   9  20  36  55  82 109 135 179 220 270 315
#     4  10  20  33  57  83 105 139 182 224 262 311
#     4   9  16  33  55  75 101 145 188 203 253 329
#     4   9  19  33  54  78 106 144 182 209 257 325
#     4  10  20  36  56  83 107 137 179 226 263 314
#     4  10  18  33  58  79 105 141 181 217 265 319
#     4   8  17  32  53  76 101 143 181 207 254 322
#
# _framework density 27.619235
#
# number of rings (size 3 to 8) (size 9 to 14) (size 15 to 20)
#    0.000    3.000    2.500    0.750    5.250    0.500 
#    0.000    6.250    0.000    1.500    0.000    0.000 
#    0.000    0.000    0.000    0.000    0.000    0.000 
#
# Total GULP energy -89298.794975 kJ/mol
# GULP energy per Si atom -5581.174686 kJ/mol
# Density = 2.755637 g / cm^3
# Si number density = 27.619235 Si / 1000 Ang^3
#
#
#
# Elastic Constant Matrix: (Units=GPa)
#
#
# Indices 1 2 3 4 5 6 
#
# 1 100.5167 45.5554 55.6204 23.9000 35.9919 -2.6111
# 2 45.5554 129.8045 74.0318 42.7369 25.1938 -12.8952
# 3 55.6204 74.0318 187.1916 46.4588 52.6360 -16.0809
# 4 23.9000 42.7369 46.4588 71.6847 -0.9998 14.0094
# 5 35.9919 25.1938 52.6360 -0.9998 61.6936 11.5375
# 6 -2.6111 -12.8952 -16.0809 14.0094 11.5375 37.6529
#
#
#
# Elastic Compliance Matrix: (Units=1/GPa)
#
#
# Indices 1 2 3 4 5 6 
#
# 1 0.015592 -0.000945 0.001352 -0.007131 -0.011377 0.007474
# 2 -0.000945 0.013874 0.000712 -0.010770 -0.008040 0.011461
# 3 0.001352 0.000712 0.013874 -0.013246 -0.016149 0.016140
# 4 -0.007131 -0.010770 -0.013246 0.037972 0.026475 -0.032080
# 5 -0.011377 -0.008040 -0.016149 0.026475 0.046815 -0.034635
# 6 0.007474 0.011461 0.016140 -0.032080 -0.034635 0.060443
#
#
# Mechanical properties :
#
#
# Convention : Reuss Voigt Hill
#
# Bulk Modulus (GPa) = 21.94012 85.32534 53.63273
# Shear Modulus (GPa) = 24.81075 50.35992 37.58533
#
# Velocity S-wave (km/s) = 3.00044 4.27472 3.69296
# Velocity P-wave (km/s) = 4.46817 7.43807 6.13553
#
# Compressibility (1/GPa) = 0.04557860
#
# Stress axis : x y z
#
# Youngs Moduli (GPa) = 64.13423 72.07546 72.07685
#
# Poissons Ratio (x) = 0.06808 -0.09742
# Poissons Ratio (y) = 0.06058 -0.05130
# Poissons Ratio (z) = -0.08669 -0.05130
#
# Static dielectric constant tensor:
#      x y z
#    x 2.228630 -0.122710 -0.050610 
#    y -0.122710 2.553480 -0.295230 
#    z -0.050610 -0.295230 2.435850 
# 
# From -- ./inp_files/254565.got.cif
#   From: 2010.05.17/outbox.cif.g08.bks.cpg/sg2_128_cif.got.tgz:254565.got - 2010.06.03 11:33:40.
