data_PCOD9076195
_publ_section_title
;
Structure prediction by ZEFSAII (Michael W. Deem and Ramdas Pophale) SiO2 
 PCOD9076195
Probable space group: P -1
;
_chemical_formula_sum "Si O2"
_cell_formula_units_Z 12
_cell_length_a 22.799152
_cell_length_b 5.449268
_cell_length_c 11.234357
_cell_angle_alpha 79.070913
_cell_angle_beta 148.885043
_cell_angle_gamma 109.989585
_cell_volume 662.363007
_symmetry_space_group_name_H-M "P -1"
_symmetry_group_IT_number 2
_symmetry_cell_setting 'triclinic'
loop_
_space_group_symop_operation_xyz
x,y,z
-x,-y,-z
loop_
_atom_site_type_symbol
_atom_site_label
_atom_site_fract_x
_atom_site_fract_y
_atom_site_fract_z
Si Si1 0.004563 0.056543 0.306450
Si Si2 0.650765 0.333104 0.807155
Si Si3 0.890656 0.603107 0.332118
Si Si4 0.016578 0.780024 0.135590
Si Si5 0.159272 0.739870 0.173031
Si Si6 0.372829 0.125455 0.385030
O O1 0.060375 0.890645 0.331770
O O2 0.918771 0.862996 0.272908
O O3 0.096300 0.297158 0.518607
O O4 0.922723 0.149076 0.065228
O O5 0.517516 0.226719 0.644554
O O6 0.657481 0.610120 0.726636
O O7 0.656327 0.098352 0.750313
O O8 0.761265 0.401638 0.084989
O O9 0.000000 0.500000 0.500000
O O10 0.110626 0.691274 0.228665
O O11 0.000000 0.000000 0.000000
O O12 0.881977 0.555651 0.927702
O O13 0.292480 0.953078 0.368937
#
# Coordination Sequence:
#
# PCOD9076195 Si02
#       6
#     2   2   2   2   2   2
#     4  10  19  31  48  76 104 140 172 216 273 320
#     4  10  21  35  52  81 108 146 180 219 270 319
#     4  11  21  31  51  76 112 144 174 218 270 327
#     4   9  19  31  50  76 104 135 178 225 271 314
#     4  10  18  33  52  76 106 138 178 225 269 315
#     4  10  20  35  56  76 110 142 183 224 263 325
#
# _framework density 18.116954
#
# number of rings (size 3 to 8) (size 9 to 14) (size 15 to 20)
#    0.000    2.000    1.667    3.000    4.667    0.000 
#    0.000    0.000    0.000    1.000    0.000   16.333 
#    0.000    0.000    0.000    0.000    0.000    0.000 
#
# Total GULP energy -66808.188925 kJ/mol
# GULP energy per Si atom -5567.349077 kJ/mol
# Density = 1.807572 g / cm^3
# Si number density = 18.116954 Si / 1000 Ang^3
#
#
#
# Elastic Constant Matrix: (Units=GPa)
#
#
# Indices 1 2 3 4 5 6 
#
# 1 84.9496 17.8886 39.0391 21.3141 0.3040 -3.5597
# 2 17.8886 82.3919 21.6201 17.1295 3.7935 1.4469
# 3 39.0391 21.6201 108.9019 28.7771 8.6910 -12.8379
# 4 21.3141 17.1295 28.7771 30.1255 2.1227 -3.2451
# 5 0.3040 3.7935 8.6910 2.1227 29.5072 14.0502
# 6 -3.5597 1.4469 -12.8379 -3.2451 14.0502 32.5742
#
#
#
# Elastic Compliance Matrix: (Units=1/GPa)
#
#
# Indices 1 2 3 4 5 6 
#
# 1 0.015432 -0.000962 -0.003845 -0.007021 0.002307 -0.001481
# 2 -0.000962 0.013985 -0.000847 -0.006611 -0.000308 -0.001586
# 3 -0.003845 -0.000847 0.014697 -0.009530 -0.007071 0.007510
# 4 -0.007021 -0.006611 -0.009530 0.051172 -0.000460 0.001067
# 5 0.002307 -0.000308 -0.007071 -0.000460 0.046870 -0.022783
# 6 -0.001481 -0.001586 0.007510 0.001067 -0.022783 0.043501
#
#
# Mechanical properties :
#
#
# Convention : Reuss Voigt Hill
#
# Bulk Modulus (GPa) = 30.48153 48.14877 39.31515
# Shear Modulus (GPa) = 24.05002 31.62106 27.83554
#
# Velocity S-wave (km/s) = 3.64742 4.18231 3.92399
# Velocity P-wave (km/s) = 5.88215 7.06800 6.50216
#
# Compressibility (1/GPa) = 0.03280675
#
# Stress axis : x y z
#
# Youngs Moduli (GPa) = 64.79872 71.50634 68.04176
#
# Poissons Ratio (x) = 0.06881 0.26159
# Poissons Ratio (y) = 0.06236 0.05762
# Poissons Ratio (z) = 0.24912 0.06055
#
# Static dielectric constant tensor:
#      x y z
#    x 1.679340 -0.057510 0.016970 
#    y -0.057510 1.783640 0.003990 
#    z 0.016970 0.003990 1.608040 
# 
# From -- ./inp_files/361191.got.cif
#   From: 2010.05.17/outbox.cif.g08.bks.cpg/sg2_181_cif.got.tgz:361191.got - 2010.06.03 11:33:40.
