data_PCOD9076932
_publ_section_title
;
Structure prediction by ZEFSAII (Michael W. Deem and Ramdas Pophale) SiO2 
 PCOD9076932
Probable space group: P -1
;
_chemical_formula_sum "Si O2"
_cell_formula_units_Z 16
_cell_length_a 12.660455
_cell_length_b 11.234643
_cell_length_c 16.357675
_cell_angle_alpha 132.848043
_cell_angle_beta 154.335889
_cell_angle_gamma 63.403942
_cell_volume 630.815007
_symmetry_space_group_name_H-M "P -1"
_symmetry_group_IT_number 2
_symmetry_cell_setting 'triclinic'
loop_
_space_group_symop_operation_xyz
x,y,z
-x,-y,-z
loop_
_atom_site_type_symbol
_atom_site_label
_atom_site_fract_x
_atom_site_fract_y
_atom_site_fract_z
Si Si1 0.667346 0.792119 0.220349
Si Si2 0.417221 0.138140 0.286819
Si Si3 0.672169 0.685390 0.410939
Si Si4 0.817168 0.515124 0.139494
Si Si5 0.133088 0.923901 0.361874
Si Si6 0.760741 0.236792 0.231847
Si Si7 0.444640 0.191062 0.139749
Si Si8 0.109308 0.284391 0.244718
O O1 0.422083 0.634894 0.034594
O O2 0.832840 0.978231 0.479101
O O3 0.875185 0.717733 0.304322
O O4 0.481465 0.790100 0.013541
O O5 0.268079 0.249419 0.265905
O O6 0.680278 0.172387 0.541638
O O7 0.489738 0.177094 0.260193
O O8 0.185347 0.913593 0.033839
O O9 0.362371 0.533516 0.091568
O O10 0.737831 0.894837 0.525930
O O11 0.912560 0.652221 0.519782
O O12 0.712423 0.679033 0.531626
O O13 0.041334 0.447826 0.256902
O O14 0.814863 0.776318 0.041183
O O15 0.703239 0.024845 0.097943
O O16 0.704003 0.301327 0.309195
#
# Coordination Sequence:
#
# PCOD9076932 Si02
#       8
#     2   2   2   2   2   2   2   2
#     4  10  18  34  51  76 114 132 171 214 258 316
#     4  11  20  34  52  74 109 139 175 216 252 311
#     4  10  18  34  49  79 108 136 172 205 266 313
#     4  10  20  34  52  77 109 141 168 212 263 312
#     4  10  18  34  49  79 108 136 172 205 266 313
#     4  10  18  34  51  76 114 132 171 214 258 316
#     4  10  20  34  52  77 109 141 168 212 263 312
#     4  11  20  34  52  74 109 139 175 216 252 311
#
# _framework density 25.364014000000001
#
# number of rings (size 3 to 8) (size 9 to 14) (size 15 to 20)
#    0.000    1.750    7.500    0.000    0.000    2.500 
#    9.000    0.000    0.000    0.750    0.000    1.750 
#    0.000    0.000    0.000    0.000    0.000    0.000 
#
# Total GULP energy -89612.094908 kJ/mol
# GULP energy per Si atom -5600.755932 kJ/mol
# Density = 2.530628 g / cm^3
# Si number density = 25.364014 Si / 1000 Ang^3
#
#
#
# Elastic Constant Matrix: (Units=GPa)
#
#
# Indices 1 2 3 4 5 6 
#
# 1 88.1400 27.1110 8.2720 -1.6484 -5.7844 -1.2842
# 2 27.1110 103.6979 17.2451 -25.1996 9.7050 -18.2209
# 3 8.2720 17.2451 62.1727 -38.6747 -8.8942 3.6261
# 4 -1.6484 -25.1996 -38.6747 46.7170 10.3984 -4.4440
# 5 -5.7844 9.7050 -8.8942 10.3984 24.4208 6.3771
# 6 -1.2842 -18.2209 3.6261 -4.4440 6.3771 30.8421
#
#
#
# Elastic Compliance Matrix: (Units=1/GPa)
#
#
# Indices 1 2 3 4 5 6 
#
# 1 0.014752 -0.008266 -0.004271 -0.010860 0.011882 -0.007789
# 2 -0.008266 0.022663 0.004414 0.023066 -0.024647 0.020945
# 3 -0.004271 0.004414 0.034629 0.032400 -0.005011 0.004063
# 4 -0.010860 0.023066 0.032400 0.071215 -0.037407 0.027361
# 5 0.011882 -0.024647 -0.005011 -0.037407 0.076731 -0.034733
# 6 -0.007789 0.020945 0.004063 0.027361 -0.034733 0.055119
#
#
# Mechanical properties :
#
#
# Convention : Reuss Voigt Hill
#
# Bulk Modulus (GPa) = 17.92216 39.91855 28.92035
# Shear Modulus (GPa) = 16.13143 33.82148 24.97646
#
# Velocity S-wave (km/s) = 2.52463 3.65560 3.14143
# Velocity P-wave (km/s) = 3.94711 5.79571 4.95832
#
# Compressibility (1/GPa) = 0.05579685
#
# Stress axis : x y z
#
# Youngs Moduli (GPa) = 67.78654 44.12558 28.87790
#
# Poissons Ratio (x) = 0.36475 0.12335
# Poissons Ratio (y) = 0.56033 -0.12747
# Poissons Ratio (z) = 0.28954 -0.19478
#
# Static dielectric constant tensor:
#      x y z
#    x 2.027740 0.023730 0.081920 
#    y 0.023730 2.030560 0.000070 
#    z 0.081920 0.000070 2.066790 
# 
# From -- ./inp_files/522536.got.cif
#   From: 2010.05.17/outbox.cif.g08.bks.cpg/sg2_262_cif.got.tgz:522536.got - 2010.06.03 11:33:40.
