data_PCOD9076910
_publ_section_title
;
Structure prediction by ZEFSAII (Michael W. Deem and Ramdas Pophale) SiO2 
 PCOD9076910
Probable space group: P -1
;
_chemical_formula_sum "Si O2"
_cell_formula_units_Z 14
_cell_length_a 7.187484
_cell_length_b 13.067133
_cell_length_c 9.040109
_cell_angle_alpha 132.828550
_cell_angle_beta 80.736767
_cell_angle_gamma 107.505583
_cell_volume 592.694088
_symmetry_space_group_name_H-M "P -1"
_symmetry_group_IT_number 2
_symmetry_cell_setting 'triclinic'
loop_
_space_group_symop_operation_xyz
x,y,z
-x,-y,-z
loop_
_atom_site_type_symbol
_atom_site_label
_atom_site_fract_x
_atom_site_fract_y
_atom_site_fract_z
Si Si1 0.786736 0.503727 0.624793
Si Si2 0.000351 0.326906 0.636090
Si Si3 0.430273 0.399656 0.772126
Si Si4 0.143028 0.950449 0.814087
Si Si5 0.170546 0.727077 0.807225
Si Si6 0.278095 0.110076 0.669892
Si Si7 0.151280 0.827956 0.231298
O O1 0.582058 0.471547 0.697197
O O2 0.756634 0.410229 0.387133
O O3 0.910600 0.423720 0.636062
O O4 0.931620 0.664247 0.754727
O O5 0.219079 0.390363 0.723014
O O6 0.978929 0.170681 0.405734
O O7 0.872583 0.299940 0.774531
O O8 0.417076 0.242203 0.691844
O O9 0.500000 0.500000 0.000000
O O10 0.250706 0.857352 0.810628
O O11 0.282007 0.068506 0.803427
O O12 0.000000 0.000000 0.000000
O O13 0.212097 0.784104 0.022201
O O14 0.064779 0.144577 0.726768
O O15 0.278505 0.970841 0.433983
#
# Coordination Sequence:
#
# PCOD9076910 Si02
#       7
#     2   2   2   2   2   2   2
#     4  10  22  41  60  89 129 154 198 251 298 364
#     4   9  21  39  62  90 118 161 202 247 294 360
#     4  11  23  38  64  91 121 158 203 247 303 356
#     4  10  18  33  64  88 118 160 203 243 302 352
#     4  10  20  35  60  87 121 164 196 246 305 352
#     4   9  18  33  56  89 118 151 204 254 282 361
#     4   9  16  32  59  86 114 157 204 241 298 346
#
# _framework density 23.620951999999999
#
# number of rings (size 3 to 8) (size 9 to 14) (size 15 to 20)
#    0.000    2.286    1.429    2.571    0.000    2.286 
#    0.000   13.571    3.143    0.000    0.000    0.000 
#    0.000    0.000    0.000    0.000    0.000    0.000 
#
# Total GULP energy -78147.719480 kJ/mol
# GULP energy per Si atom -5581.979963 kJ/mol
# Density = 2.356719 g / cm^3
# Si number density = 23.620952 Si / 1000 Ang^3
#
#
#
# Elastic Constant Matrix: (Units=GPa)
#
#
# Indices 1 2 3 4 5 6 
#
# 1 58.6966 -5.1296 8.0341 1.2968 12.3215 7.8639
# 2 -5.1296 90.8271 -2.0786 -16.1634 12.0542 -17.3944
# 3 8.0341 -2.0786 128.4367 -27.8575 15.7156 -6.4279
# 4 1.2968 -16.1634 -27.8575 36.0439 -3.7116 4.9564
# 5 12.3215 12.0542 15.7156 -3.7116 9.7442 1.1158
# 6 7.8639 -17.3944 -6.4279 4.9564 1.1158 25.5097
#
#
#
# Elastic Compliance Matrix: (Units=1/GPa)
#
#
# Indices 1 2 3 4 5 6 
#
# 1 0.029173 0.010260 0.006038 0.001928 -0.058782 0.001720
# 2 0.010260 0.024188 0.009618 0.009848 -0.056524 0.016313
# 3 0.006038 0.009618 0.015301 0.010543 -0.041146 0.008304
# 4 0.001928 0.009848 0.010543 0.038163 -0.017331 0.002120
# 5 -0.058782 -0.056524 -0.041146 -0.017331 0.311338 -0.041040
# 6 0.001720 0.016313 0.008304 0.002120 -0.041040 0.053269
#
#
# Mechanical properties :
#
#
# Convention : Reuss Voigt Hill
#
# Bulk Modulus (GPa) = 8.29915 31.06802 19.68359
# Shear Modulus (GPa) = 10.87516 32.73521 21.80518
#
# Velocity S-wave (km/s) = 2.14803 3.72675 3.04160
# Velocity P-wave (km/s) = 3.11017 5.63023 4.54822
#
# Compressibility (1/GPa) = 0.12049431
#
# Stress axis : x y z
#
# Youngs Moduli (GPa) = 34.27799 41.34334 65.35582
#
# Poissons Ratio (x) = -0.42417 -0.39463
# Poissons Ratio (y) = -0.35168 -0.62862
# Poissons Ratio (z) = -0.20698 -0.39766
#
# Static dielectric constant tensor:
#      x y z
#    x 1.939590 -0.002230 -0.007690 
#    y -0.002230 2.055730 -0.015320 
#    z -0.007690 -0.015320 1.913220 
# 
# From -- ./inp_files/182258.got.cif
#   From: 2010.05.17/outbox.cif.g08.bks.cpg/sg2_92_cif.got.tgz:182258.got - 2010.06.03 11:33:40.
