data_PCOD9076163
_publ_section_title
;
Structure prediction by ZEFSAII (Michael W. Deem and Ramdas Pophale) SiO2 
 PCOD9076163
Probable space group: P -1
;
_chemical_formula_sum "Si O2"
_cell_formula_units_Z 14
_cell_length_a 7.709954
_cell_length_b 10.401093
_cell_length_c 12.382052
_cell_angle_alpha 75.006430
_cell_angle_beta 115.606739
_cell_angle_gamma 136.948859
_cell_volume 608.620287
_symmetry_space_group_name_H-M "P -1"
_symmetry_group_IT_number 2
_symmetry_cell_setting 'triclinic'
loop_
_space_group_symop_operation_xyz
x,y,z
-x,-y,-z
loop_
_atom_site_type_symbol
_atom_site_label
_atom_site_fract_x
_atom_site_fract_y
_atom_site_fract_z
Si Si1 0.862375 0.235654 0.751556
Si Si2 0.215333 0.947115 0.634573
Si Si3 0.097096 0.887179 0.850416
Si Si4 0.765588 0.591143 0.984874
Si Si5 0.686984 0.962147 0.589390
Si Si6 0.272041 0.666660 0.699487
Si Si7 0.443483 0.783830 0.958195
O O1 0.544537 0.117133 0.706078
O O2 0.872075 0.111985 0.703006
O O3 0.041981 0.441558 0.701279
O O4 0.984537 0.269385 0.895009
O O5 0.078113 0.925542 0.714163
O O6 0.175687 0.996101 0.497452
O O7 0.147598 0.755636 0.643931
O O8 0.277307 0.839613 0.907348
O O9 0.818122 0.704815 0.869933
O O10 0.268514 0.065268 0.937210
O O11 0.500000 0.500000 0.000000
O O12 0.723862 0.416032 0.986476
O O13 0.500000 0.000000 0.500000
O O14 0.470955 0.755087 0.630459
O O15 0.448498 0.753809 0.838836
#
# Coordination Sequence:
#
# PCOD9076163 Si02
#       7
#     2   2   2   2   2   2   2
#     4   9  16  29  46  67  95 125 157 198 239 278
#     4   9  18  27  45  72  94 123 159 195 240 284
#     4  10  18  33  50  70 103 127 156 205 243 284
#     4  11  22  33  49  74 100 130 165 197 240 295
#     4   8  15  26  42  69  95 121 156 194 240 282
#     4   8  14  25  43  68  96 119 149 193 239 283
#     4   9  18  32  53  74  92 129 164 198 249 285
#
# _framework density 23.002846999999999
#
# number of rings (size 3 to 8) (size 9 to 14) (size 15 to 20)
#    0.000    3.143    0.000    3.857    0.000    8.000 
#    0.000    0.000    0.000    0.857    0.000    5.000 
#    0.000    0.000    0.000    0.000    0.000    2.429 
#
# Total GULP energy -78173.716988 kJ/mol
# GULP energy per Si atom -5583.836928 kJ/mol
# Density = 2.295049 g / cm^3
# Si number density = 23.002847 Si / 1000 Ang^3
#
#
#
# Elastic Constant Matrix: (Units=GPa)
#
#
# Indices 1 2 3 4 5 6 
#
# 1 36.8835 33.1684 31.6538 -32.1270 -16.5989 3.0920
# 2 33.1684 115.2258 47.4191 -16.4321 -20.2188 24.6779
# 3 31.6538 47.4191 96.6331 -22.5830 -10.5512 22.2537
# 4 -32.1270 -16.4321 -22.5830 22.1302 6.1299 -28.7052
# 5 -16.5989 -20.2188 -10.5512 6.1299 33.9633 -21.9448
# 6 3.0920 24.6779 22.2537 -28.7052 -21.9448 7.6452
#
#
#
# Elastic Compliance Matrix: (Units=1/GPa)
#
#
# Indices 1 2 3 4 5 6 
#
# 1 0.027556 -0.002080 -0.002230 -0.002513 -0.008453 -0.031638
# 2 -0.002080 0.012028 -0.004474 0.002861 0.005791 0.002405
# 3 -0.002230 -0.004474 0.015287 0.008326 -0.001001 -0.000764
# 4 -0.002513 0.002861 0.008326 0.015870 -0.020742 -0.032407
# 5 -0.008453 0.005791 -0.001001 -0.020742 0.030556 -0.002534
# 6 -0.031638 0.002405 -0.000764 -0.032407 -0.002534 0.009109
#
#
# Mechanical properties :
#
#
# Convention : Reuss Voigt Hill
#
# Bulk Modulus (GPa) = 26.80755 52.58056 39.69406
# Shear Modulus (GPa) = 35.61095 21.84781 28.72938
#
# Velocity S-wave (km/s) = 3.93887 3.08521 3.53788
# Velocity P-wave (km/s) = 5.68908 5.96651 5.82944
#
# Compressibility (1/GPa) = 0.03730293
#
# Stress axis : x y z
#
# Youngs Moduli (GPa) = 36.29000 83.14240 65.41632
#
# Poissons Ratio (x) = 0.17294 0.14588
# Poissons Ratio (y) = 0.07548 0.29264
# Poissons Ratio (z) = 0.08093 0.37194
#
# Static dielectric constant tensor:
#      x y z
#    x 1.982450 -0.025700 -0.009850 
#    y -0.025700 1.849030 -0.026470 
#    z -0.009850 -0.026470 1.892320 
# 
# From -- ./inp_files/224773.got.cif
#   From: 2010.05.17/outbox.cif.g08.bks.cpg/sg2_113_cif.got.tgz:224773.got - 2010.06.03 11:33:40.
