data_PCOD9076064
_publ_section_title
;
Structure prediction by ZEFSAII (Michael W. Deem and Ramdas Pophale) SiO2 
 PCOD9076064
Probable space group: P -1
;
_chemical_formula_sum "Si O2"
_cell_formula_units_Z 14
_cell_length_a 22.596219
_cell_length_b 9.509054
_cell_length_c 12.514736
_cell_angle_alpha 45.007837
_cell_angle_beta 159.032276
_cell_angle_gamma 143.043291
_cell_volume 568.845901
_symmetry_space_group_name_H-M "P -1"
_symmetry_group_IT_number 2
_symmetry_cell_setting 'triclinic'
loop_
_space_group_symop_operation_xyz
x,y,z
-x,-y,-z
loop_
_atom_site_type_symbol
_atom_site_label
_atom_site_fract_x
_atom_site_fract_y
_atom_site_fract_z
Si Si1 0.871876 0.615310 0.684460
Si Si2 0.375849 0.311251 0.256916
Si Si3 0.789286 0.040197 0.658535
Si Si4 0.480987 0.769939 0.845500
Si Si5 0.761329 0.016098 0.997753
Si Si6 0.791777 0.503321 0.839895
Si Si7 0.544502 0.793141 0.183455
O O1 0.705339 0.456866 0.403165
O O2 0.777919 0.599741 0.648665
O O3 0.000000 0.500000 0.000000
O O4 0.019726 0.869940 0.742869
O O5 0.212291 0.129993 0.161615
O O6 0.595746 0.430740 0.612943
O O7 0.379159 0.536122 0.094299
O O8 0.366947 0.148503 0.229794
O O9 0.005731 0.704568 0.136806
O O10 0.730148 0.913042 0.513346
O O11 0.612816 0.071158 0.382748
O O12 0.660848 0.865114 0.015155
O O13 0.545084 0.746368 0.083612
O O14 0.772826 0.256145 0.918729
O O15 0.500000 0.000000 0.000000
#
# Coordination Sequence:
#
# PCOD9076064 Si02
#       7
#     2   2   2   2   2   2   2
#     4  10  18  32  59  98 131 153 196 257 316 370
#     4  12  22  39  70  96 121 165 219 263 310 369
#     4  11  21  42  67  91 129 166 218 256 301 376
#     4  11  20  40  63  92 137 166 196 257 323 381
#     4  11  20  33  65 104 125 154 200 263 332 369
#     4  11  20  34  66 105 127 149 208 273 315 364
#     4  10  27  46  62  85 130 184 209 252 314 372
#
# _framework density 24.611232999999999
#
# number of rings (size 3 to 8) (size 9 to 14) (size 15 to 20)
#    0.000    1.143    7.143    1.714    0.000    1.143 
#    0.000    4.286    0.000    0.000    0.000    0.000 
#    0.000    0.000    0.000    0.000    0.000    0.000 
#
# Total GULP energy -78153.301153 kJ/mol
# GULP energy per Si atom -5582.378654 kJ/mol
# Density = 2.455522 g / cm^3
# Si number density = 24.611233 Si / 1000 Ang^3
#
#
#
# Elastic Constant Matrix: (Units=GPa)
#
#
# Indices 1 2 3 4 5 6 
#
# 1 123.3992 45.3622 55.1840 15.5470 -31.9653 -0.2249
# 2 45.3622 161.4706 63.7009 19.9126 -16.3939 -1.8882
# 3 55.1840 63.7009 87.1623 19.7120 -26.7690 9.8092
# 4 15.5470 19.9126 19.7120 39.9100 -6.2990 0.3337
# 5 -31.9653 -16.3939 -26.7690 -6.2990 47.1830 9.9964
# 6 -0.2249 -1.8882 9.8092 0.3337 9.9964 49.3790
#
#
#
# Elastic Compliance Matrix: (Units=1/GPa)
#
#
# Indices 1 2 3 4 5 6 
#
# 1 0.012178 -0.000601 -0.005656 -0.000916 0.004664 0.000218
# 2 -0.000601 0.008991 -0.006636 -0.001250 -0.001639 0.001999
# 3 -0.005656 -0.006636 0.024445 -0.005163 0.008487 -0.006819
# 4 -0.000916 -0.001250 -0.005163 0.028523 -0.000357 0.000853
# 5 0.004664 -0.001639 0.008487 -0.000357 0.030213 -0.007841
# 6 0.000218 0.001999 -0.006819 0.000853 -0.007841 0.023265
#
#
# Mechanical properties :
#
#
# Convention : Reuss Voigt Hill
#
# Bulk Modulus (GPa) = 50.43302 77.83628 64.13465
# Shear Modulus (GPa) = 31.24796 41.14674 36.19735
#
# Velocity S-wave (km/s) = 3.56710 4.09328 3.83922
# Velocity P-wave (km/s) = 6.12388 7.35085 6.76524
#
# Compressibility (1/GPa) = 0.01982828
#
# Stress axis : x y z
#
# Youngs Moduli (GPa) = 82.11530 111.22263 40.90836
#
# Poissons Ratio (x) = 0.06683 0.23137
# Poissons Ratio (y) = 0.04934 0.27147
# Poissons Ratio (z) = 0.46443 0.73809
#
# Static dielectric constant tensor:
#      x y z
#    x 1.997660 -0.039000 0.051860 
#    y -0.039000 2.033860 -0.090750 
#    z 0.051860 -0.090750 2.008570 
# 
# From -- ./inp_files/469872.got.cif
#   From: 2010.05.17/outbox.cif.g08.bks.cpg/sg2_235_cif.got.tgz:469872.got - 2010.06.03 11:33:40.
