data_PCOD9076635
_publ_section_title
;
Structure prediction by ZEFSAII (Michael W. Deem and Ramdas Pophale) SiO2 
 PCOD9076635
Probable space group: P -1
;
_chemical_formula_sum "Si O2"
_cell_formula_units_Z 16
_cell_length_a 9.513764
_cell_length_b 7.292342
_cell_length_c 18.122863
_cell_angle_alpha 103.376067
_cell_angle_beta 32.377873
_cell_angle_gamma 112.145070
_cell_volume 613.958598
_symmetry_space_group_name_H-M "P -1"
_symmetry_group_IT_number 2
_symmetry_cell_setting 'triclinic'
loop_
_space_group_symop_operation_xyz
x,y,z
-x,-y,-z
loop_
_atom_site_type_symbol
_atom_site_label
_atom_site_fract_x
_atom_site_fract_y
_atom_site_fract_z
Si Si1 0.624830 0.054729 0.866606
Si Si2 0.128385 0.273706 0.388152
Si Si3 0.216759 0.147861 0.687449
Si Si4 0.215354 0.716993 0.606688
Si Si5 0.138787 0.009293 0.859556
Si Si6 0.813590 0.581664 0.897332
Si Si7 0.289420 0.618808 0.920888
Si Si8 0.262012 0.872521 0.326817
O O1 0.419266 0.857657 0.896625
O O2 0.659192 0.203460 0.793812
O O3 0.947063 0.106834 0.752809
O O4 0.500000 0.000000 0.000000
O O5 0.448455 0.414494 0.241264
O O6 0.137637 0.047067 0.375353
O O7 0.957063 0.280372 0.390966
O O8 0.963227 0.292535 0.537315
O O9 0.496689 0.309174 0.546131
O O10 0.277917 0.937361 0.636582
O O11 0.168491 0.175056 0.798108
O O12 0.029174 0.571937 0.738169
O O13 0.458112 0.028534 0.738694
O O14 0.927978 0.810064 0.895556
O O15 0.000000 0.000000 0.000000
O O16 0.500000 0.500000 0.000000
O O17 0.782337 0.453923 0.971414
O O18 0.000000 0.500000 0.000000
#
# Coordination Sequence:
#
# PCOD9076635 Si02
#       8
#     2   2   2   2   2   2   2   2
#     4  11  22  39  60  86 119 151 186 237 289 347
#     4  10  18  35  56  84 117 141 194 249 282 329
#     4  10  19  33  57  84 112 144 195 242 279 324
#     4  10  18  33  58  84 115 142 196 248 279 327
#     4  11  22  36  56  85 117 151 189 233 286 347
#     4  11  21  35  59  83 113 155 190 233 289 338
#     4  11  22  37  57  88 118 148 191 236 289 343
#     4  10  20  33  58  85 111 149 191 241 293 320
#
# _framework density 26.060392
#
# number of rings (size 3 to 8) (size 9 to 14) (size 15 to 20)
#    0.000    1.500    5.000    3.000    0.000    1.000 
#    0.000    0.000    0.000    9.000    0.000    0.000 
#    0.000    0.000    0.000    0.000    0.000    0.000 
#
# Total GULP energy -89242.188683 kJ/mol
# GULP energy per Si atom -5577.636793 kJ/mol
# Density = 2.600108 g / cm^3
# Si number density = 26.060392 Si / 1000 Ang^3
#
#
#
# Elastic Constant Matrix: (Units=GPa)
#
#
# Indices 1 2 3 4 5 6 
#
# 1 185.3751 22.3520 107.4411 -14.9852 10.5546 42.1943
# 2 22.3520 80.9678 40.3086 -6.1572 -0.5120 32.0198
# 3 107.4411 40.3086 293.3960 -36.6850 26.0927 23.2451
# 4 -14.9852 -6.1572 -36.6850 30.8104 6.2125 -1.4491
# 5 10.5546 -0.5120 26.0927 6.2125 67.8115 -9.9295
# 6 42.1943 32.0198 23.2451 -1.4491 -9.9295 38.6205
#
#
#
# Elastic Compliance Matrix: (Units=1/GPa)
#
#
# Indices 1 2 3 4 5 6 
#
# 1 0.009629 0.003788 -0.002512 0.002372 -0.002584 -0.012724
# 2 0.003788 0.020727 -0.001888 0.003375 -0.003069 -0.020849
# 3 -0.002512 -0.001888 0.005367 0.005242 -0.002059 0.000747
# 4 0.002372 0.003375 0.005242 0.041614 -0.007477 -0.008905
# 5 -0.002584 -0.003069 -0.002059 -0.007477 0.018215 0.011009
# 6 -0.012724 -0.020849 0.000747 -0.008905 0.011009 0.059127
#
#
# Mechanical properties :
#
#
# Convention : Reuss Voigt Hill
#
# Bulk Modulus (GPa) = 28.98627 99.99359 64.48993
# Shear Modulus (GPa) = 29.86800 53.42427 41.64614
#
# Velocity S-wave (km/s) = 3.38909 4.53262 4.00191
# Velocity P-wave (km/s) = 5.14407 8.11456 6.79366
#
# Compressibility (1/GPa) = 0.03449909
#
# Stress axis : x y z
#
# Youngs Moduli (GPa) = 103.85718 48.24574 186.32287
#
# Poissons Ratio (x) = -0.18277 0.46805
# Poissons Ratio (y) = -0.39345 0.35181
# Poissons Ratio (z) = 0.26089 0.09110
#
# Static dielectric constant tensor:
#      x y z
#    x 2.044670 -0.227740 0.041250 
#    y -0.227740 2.335740 0.095000 
#    z 0.041250 0.095000 2.272880 
# 
# From -- ./inp_files/468903.got.cif
#   From: 2010.05.17/outbox.cif.g08.bks.cpg/sg2_235_cif.got.tgz:468903.got - 2010.06.03 11:33:40.
