data_PCOD9076584
_publ_section_title
;
Structure prediction by ZEFSAII (Michael W. Deem and Ramdas Pophale) SiO2 
 PCOD9076584
Probable space group: P -1
;
_chemical_formula_sum "Si O2"
_cell_formula_units_Z 16
_cell_length_a 6.818515
_cell_length_b 15.309826
_cell_length_c 14.373555
_cell_angle_alpha 146.379702
_cell_angle_beta 57.433497
_cell_angle_gamma 101.071612
_cell_volume 585.185083
_symmetry_space_group_name_H-M "P -1"
_symmetry_group_IT_number 2
_symmetry_cell_setting 'triclinic'
loop_
_space_group_symop_operation_xyz
x,y,z
-x,-y,-z
loop_
_atom_site_type_symbol
_atom_site_label
_atom_site_fract_x
_atom_site_fract_y
_atom_site_fract_z
Si Si1 0.701942 0.268838 0.763777
Si Si2 0.585110 0.729035 0.415022
Si Si3 0.340835 0.005750 0.133258
Si Si4 0.135102 0.651411 0.374055
Si Si5 0.828387 0.362839 0.138687
Si Si6 0.859263 0.864873 0.320821
Si Si7 0.262361 0.389378 0.260887
Si Si8 0.934092 0.940878 0.063876
O O1 0.939865 0.241318 0.609570
O O2 0.834777 0.219146 0.786988
O O3 0.676175 0.092609 0.586916
O O4 0.500000 0.500000 0.000000
O O5 0.378857 0.679733 0.372829
O O6 0.791215 0.550807 0.269961
O O7 0.733549 0.770157 0.330784
O O8 0.380694 0.908057 0.690214
O O9 0.577676 0.835978 0.981637
O O10 0.111965 0.968166 0.121927
O O11 0.162640 0.222702 0.392948
O O12 0.500000 0.000000 0.000000
O O13 0.230958 0.452736 0.216784
O O14 0.511471 0.412323 0.255945
O O15 0.934802 0.279977 0.142142
O O16 0.062068 0.204880 0.866937
O O17 0.000000 0.500000 0.500000
O O18 0.000000 0.000000 0.000000
#
# Coordination Sequence:
#
# PCOD9076584 Si02
#       8
#     2   2   2   2   2   2   2   2
#     4  11  24  41  63  94 135 165 209 274 326 385
#     4  10  22  41  68  95 129 175 221 265 327 395
#     4  10  19  35  60  85 120 167 212 260 309 371
#     4  10  21  38  61  94 126 166 217 262 317 383
#     4  10  22  41  67  95 132 171 222 275 321 394
#     4  11  24  43  67  97 130 171 219 268 333 393
#     4  10  18  33  57  89 121 163 209 253 314 378
#     4  10  23  40  59  92 133 171 217 270 323 382
#
# _framework density 27.341777
#
# number of rings (size 3 to 8) (size 9 to 14) (size 15 to 20)
#    0.000    1.750    1.250    4.125    0.000    5.500 
#    0.000    1.250    0.000    0.000    0.000    0.000 
#    0.000    0.000    0.000    0.000    0.000    0.000 
#
# Total GULP energy -89184.607992 kJ/mol
# GULP energy per Si atom -5574.037999 kJ/mol
# Density = 2.727955 g / cm^3
# Si number density = 27.341777 Si / 1000 Ang^3
#
#
#
# Elastic Constant Matrix: (Units=GPa)
#
#
# Indices 1 2 3 4 5 6 
#
# 1 76.2387 30.2709 19.7408 13.8983 -14.4728 -10.3512
# 2 30.2709 226.2334 54.4692 23.4831 -18.7566 -3.2822
# 3 19.7408 54.4692 121.7495 11.5701 -16.2079 8.9589
# 4 13.8983 23.4831 11.5701 60.3091 3.0732 -13.1888
# 5 -14.4728 -18.7566 -16.2079 3.0732 39.1148 7.0113
# 6 -10.3512 -3.2822 8.9589 -13.1888 7.0113 63.1415
#
#
#
# Elastic Compliance Matrix: (Units=1/GPa)
#
#
# Indices 1 2 3 4 5 6 
#
# 1 0.015469 -0.001069 -0.001263 -0.002801 0.004628 0.001560
# 2 -0.001069 0.005292 -0.001831 -0.001572 0.001532 -0.000139
# 3 -0.001263 -0.001831 0.010020 -0.001623 0.003371 -0.002437
# 4 -0.002801 -0.001572 -0.001623 0.019322 -0.004743 0.004252
# 5 0.004628 0.001532 0.003371 -0.004743 0.030503 -0.004018
# 6 0.001560 -0.000139 -0.002437 0.004252 -0.004018 0.017766
#
#
# Mechanical properties :
#
#
# Convention : Reuss Voigt Hill
#
# Bulk Modulus (GPa) = 44.53000 70.35373 57.44186
# Shear Modulus (GPa) = 43.79004 53.82913 48.80958
#
# Velocity S-wave (km/s) = 4.00632 4.44187 4.22970
# Velocity P-wave (km/s) = 6.14187 7.21762 6.70137
#
# Compressibility (1/GPa) = 0.02245677
#
# Stress axis : x y z
#
# Youngs Moduli (GPa) = 64.64502 188.95924 99.80255
#
# Poissons Ratio (x) = 0.20194 0.12601
# Poissons Ratio (y) = 0.06909 0.18272
# Poissons Ratio (z) = 0.08162 0.34596
#
# Static dielectric constant tensor:
#      x y z
#    x 2.280140 -0.056580 0.124370 
#    y -0.056580 2.140230 -0.014820 
#    z 0.124370 -0.014820 2.226600 
# 
# From -- ./inp_files/505556.got.cif
#   From: 2010.05.17/outbox.cif.g08.bks.cpg/sg2_253_cif.got.tgz:505556.got - 2010.06.03 11:33:40.
