data_PCOD9076843
_publ_section_title
;
Structure prediction by ZEFSAII (Michael W. Deem and Ramdas Pophale) SiO2 
 PCOD9076843
Probable space group: P -1
;
_chemical_formula_sum "Si O2"
_cell_formula_units_Z 16
_cell_length_a 13.434308
_cell_length_b 13.799911
_cell_length_c 9.108120
_cell_angle_alpha 152.676770
_cell_angle_beta 119.104686
_cell_angle_gamma 63.930757
_cell_volume 677.093175
_symmetry_space_group_name_H-M "P -1"
_symmetry_group_IT_number 2
_symmetry_cell_setting 'triclinic'
loop_
_space_group_symop_operation_xyz
x,y,z
-x,-y,-z
loop_
_atom_site_type_symbol
_atom_site_label
_atom_site_fract_x
_atom_site_fract_y
_atom_site_fract_z
Si Si1 0.229564 0.260006 0.549778
Si Si2 0.868243 0.865022 0.983933
Si Si3 0.959682 0.596644 0.251930
Si Si4 0.881730 0.206719 0.879253
Si Si5 0.658069 0.301802 0.724341
Si Si6 0.459975 0.047999 0.371968
Si Si7 0.664765 0.207647 0.271596
Si Si8 0.173432 0.605274 0.586006
O O1 0.137917 0.215870 0.297828
O O2 0.154657 0.260375 0.643304
O O3 0.326833 0.090679 0.364601
O O4 0.300703 0.474523 0.882822
O O5 0.838436 0.647122 0.751973
O O6 0.997997 0.923035 0.197745
O O7 0.765547 0.034727 0.151770
O O8 0.068322 0.697224 0.539221
O O9 0.920228 0.406197 0.074291
O O10 0.000000 0.500000 0.000000
O O11 0.763915 0.142545 0.630122
O O12 0.843551 0.289675 0.125036
O O13 0.542102 0.228373 0.615196
O O14 0.644051 0.319188 0.562597
O O15 0.500000 0.000000 0.500000
O O16 0.448955 0.888807 0.011605
O O17 0.715929 0.347477 0.365762
#
# Coordination Sequence:
#
# PCOD9076843 Si02
#       8
#     2   2   2   2   2   2   2   2
#     4  10  20  41  70  90 125 174 213 252 324 383
#     4  10  20  40  64  98 129 171 209 253 319 395
#     4  10  18  33  60  98 133 158 202 263 317 375
#     4  10  19  36  66  93 130 168 215 252 313 396
#     4  11  22  43  64  93 130 163 210 276 318 362
#     4  11  25  46  64  90 123 170 229 266 303 379
#     4  11  26  41  65  97 131 164 210 274 330 362
#     4  11  18  38  65  91 131 166 210 250 311 399
#
# _framework density 23.630424999999999
#
# number of rings (size 3 to 8) (size 9 to 14) (size 15 to 20)
#    0.000    1.500    3.750    3.750    0.000    1.000 
#    9.000    0.625    0.000    0.000    0.000    0.000 
#    0.000    0.000    0.000    0.000    0.000    0.000 
#
# Total GULP energy -89249.827475 kJ/mol
# GULP energy per Si atom -5578.114217 kJ/mol
# Density = 2.357664 g / cm^3
# Si number density = 23.630425 Si / 1000 Ang^3
#
#
#
# Elastic Constant Matrix: (Units=GPa)
#
#
# Indices 1 2 3 4 5 6 
#
# 1 88.2264 9.9769 23.2328 -16.1093 11.8384 22.2037
# 2 9.9769 66.1818 19.0351 -25.4726 -1.8666 8.0933
# 3 23.2328 19.0351 51.7578 -31.7476 -2.2992 11.8366
# 4 -16.1093 -25.4726 -31.7476 44.3237 4.8008 0.4715
# 5 11.8384 -1.8666 -2.2992 4.8008 32.2584 -9.0237
# 6 22.2037 8.0933 11.8366 0.4715 -9.0237 37.7863
#
#
#
# Elastic Compliance Matrix: (Units=1/GPa)
#
#
# Indices 1 2 3 4 5 6 
#
# 1 0.017823 0.002145 -0.001163 0.008264 -0.011482 -0.013413
# 2 0.002145 0.020587 0.001769 0.014350 -0.003639 -0.007272
# 3 -0.001163 0.001769 0.041011 0.030668 -0.005066 -0.014135
# 4 0.008264 0.014350 0.030668 0.057599 -0.014675 -0.021760
# 5 -0.011482 -0.003639 -0.005066 -0.014675 0.042248 0.019386
# 6 -0.013413 -0.007272 -0.014135 -0.021760 0.019386 0.045233
#
#
# Mechanical properties :
#
#
# Convention : Reuss Voigt Hill
#
# Bulk Modulus (GPa) = 11.77528 34.51729 23.14628
# Shear Modulus (GPa) = 20.21774 33.13510 26.67642
#
# Velocity S-wave (km/s) = 2.92820 3.74869 3.36356
# Velocity P-wave (km/s) = 4.05295 5.77717 4.99010
#
# Compressibility (1/GPa) = 0.08492368
#
# Stress axis : x y z
#
# Youngs Moduli (GPa) = 56.10596 48.57338 24.38381
#
# Poissons Ratio (x) = -0.10417 0.02835
# Poissons Ratio (y) = -0.12033 -0.04314
# Poissons Ratio (z) = 0.06524 -0.08593
#
# Static dielectric constant tensor:
#      x y z
#    x 1.896090 -0.034310 -0.040740 
#    y -0.034310 2.023890 0.050660 
#    z -0.040740 0.050660 2.041990 
# 
# From -- ./inp_files/207284.got.cif
#   From: 2010.05.17/outbox.cif.g08.bks.cpg/sg2_104_cif.got.tgz:207284.got - 2010.06.03 11:33:40.
