data_PCOD9076847
_publ_section_title
;
Structure prediction by ZEFSAII (Michael W. Deem and Ramdas Pophale) SiO2 
 PCOD9076847
Probable space group: P -1
;
_chemical_formula_sum "Si O2"
_cell_formula_units_Z 16
_cell_length_a 10.419371
_cell_length_b 18.162535
_cell_length_c 19.375777
_cell_angle_alpha 29.997761
_cell_angle_beta 46.929105
_cell_angle_gamma 25.734876
_cell_volume 711.680043
_symmetry_space_group_name_H-M "P -1"
_symmetry_group_IT_number 2
_symmetry_cell_setting 'triclinic'
loop_
_space_group_symop_operation_xyz
x,y,z
-x,-y,-z
loop_
_atom_site_type_symbol
_atom_site_label
_atom_site_fract_x
_atom_site_fract_y
_atom_site_fract_z
Si Si1 0.844936 0.466084 0.988584
Si Si2 0.400069 0.216880 0.594269
Si Si3 0.585385 0.487083 0.698775
Si Si4 0.176733 0.440684 0.639252
Si Si5 0.775934 0.934438 0.291224
Si Si6 0.034573 0.201713 0.887760
Si Si7 0.693149 0.013573 0.895183
Si Si8 0.709687 0.586709 0.100393
O O1 0.067829 0.454437 0.908294
O O2 0.478102 0.752621 0.860723
O O3 0.831795 0.459299 0.082130
O O4 0.040242 0.208187 0.081899
O O5 0.546477 0.253739 0.472358
O O6 0.426553 0.227678 0.656536
O O7 0.459998 0.016142 0.703326
O O8 0.000000 0.500000 0.500000
O O9 0.339615 0.527931 0.746111
O O10 0.902101 0.255825 0.718697
O O11 0.727001 0.368879 0.820176
O O12 0.013588 0.394459 0.746084
O O13 0.923533 0.743549 0.458600
O O14 0.402049 0.318135 0.721610
O O15 0.109812 0.080665 0.032705
O O16 0.355698 0.921413 0.954081
O O17 0.500000 0.000000 0.000000
#
# Coordination Sequence:
#
# PCOD9076847 Si02
#       8
#     2   2   2   2   2   2   2   2
#     4  11  22  36  54  92 112 146 185 243 281 317
#     4   8  14  28  54  80 109 139 185 222 272 332
#     4  10  18  34  58  91 108 151 185 235 283 336
#     4   9  15  32  55  80 105 152 183 217 270 348
#     4  10  18  33  61  83 113 142 196 231 274 332
#     4  11  17  35  58  83 108 147 195 219 275 342
#     4  10  21  35  57  81 114 152 189 222 282 345
#     4  11  22  33  58  86 123 136 190 242 283 324
#
# _framework density 22.482015000000001
#
# number of rings (size 3 to 8) (size 9 to 14) (size 15 to 20)
#    0.000    2.250    7.500    0.375    1.750    0.000 
#    0.000    3.750    0.000    3.000    0.000    0.000 
#    0.000    0.000    0.000    0.000    0.000    0.000 
#
# Total GULP energy -89198.629679 kJ/mol
# GULP energy per Si atom -5574.914355 kJ/mol
# Density = 2.243084 g / cm^3
# Si number density = 22.482015 Si / 1000 Ang^3
#
#
#
# Elastic Constant Matrix: (Units=GPa)
#
#
# Indices 1 2 3 4 5 6 
#
# 1 42.4001 14.9870 24.1261 18.9552 14.4731 -0.7083
# 2 14.9870 44.3511 10.0009 3.8277 -9.4826 0.7919
# 3 24.1261 10.0009 70.6169 10.9038 17.4912 -6.3127
# 4 18.9552 3.8277 10.9038 29.8246 -2.6978 -11.8678
# 5 14.4731 -9.4826 17.4912 -2.6978 40.9874 12.4461
# 6 -0.7083 0.7919 -6.3127 -11.8678 12.4461 27.1158
#
#
#
# Elastic Compliance Matrix: (Units=1/GPa)
#
#
# Indices 1 2 3 4 5 6 
#
# 1 0.058390 -0.020316 -0.005935 -0.036126 -0.023920 -0.004095
# 2 -0.020316 0.034263 -0.005051 0.008975 0.020307 -0.008100
# 3 -0.005935 -0.005051 0.020449 -0.000213 -0.010723 0.009582
# 4 -0.036126 0.008975 -0.000213 0.065078 0.012711 0.021393
# 5 -0.023920 0.020307 -0.010723 0.012711 0.049259 -0.020761
# 6 -0.004095 -0.008100 0.009582 0.021393 -0.020761 0.058132
#
#
# Mechanical properties :
#
#
# Convention : Reuss Voigt Hill
#
# Bulk Modulus (GPa) = 19.80250 28.39956 24.10103
# Shear Modulus (GPa) = 13.69831 26.80249 20.25040
#
# Velocity S-wave (km/s) = 2.47108 3.45653 3.00449
# Velocity P-wave (km/s) = 4.11934 5.34694 4.77277
#
# Compressibility (1/GPa) = 0.05049867
#
# Stress axis : x y z
#
# Youngs Moduli (GPa) = 17.12627 29.18576 48.90113
#
# Poissons Ratio (x) = 0.59294 0.29022
# Poissons Ratio (y) = 0.34794 0.24701
# Poissons Ratio (z) = 0.10164 0.14742
#
# Static dielectric constant tensor:
#      x y z
#    x 1.904530 0.029710 -0.031070 
#    y 0.029710 1.874200 0.000830 
#    z -0.031070 0.000830 1.909190 
# 
# From -- ./inp_files/596243.got.cif
#   From: 2010.05.17/outbox.cif.g08.bks.cpg/sg2_299_cif.got.tgz:596243.got - 2010.06.03 11:33:40.
