data_PCOD9076188
_publ_section_title
;
Structure prediction by ZEFSAII (Michael W. Deem and Ramdas Pophale) SiO2 
 PCOD9076188
Probable space group: P -1
;
_chemical_formula_sum "Si O2"
_cell_formula_units_Z 14
_cell_length_a 9.939127
_cell_length_b 14.635353
_cell_length_c 12.701147
_cell_angle_alpha 53.420202
_cell_angle_beta 35.242040
_cell_angle_gamma 80.371683
_cell_volume 620.118647
_symmetry_space_group_name_H-M "P -1"
_symmetry_group_IT_number 2
_symmetry_cell_setting 'triclinic'
loop_
_space_group_symop_operation_xyz
x,y,z
-x,-y,-z
loop_
_atom_site_type_symbol
_atom_site_label
_atom_site_fract_x
_atom_site_fract_y
_atom_site_fract_z
Si Si1 0.488540 0.657652 0.645837
Si Si2 0.747962 0.438602 0.797349
Si Si3 0.872030 0.639462 0.771633
Si Si4 0.535350 0.102895 0.497608
Si Si5 0.538333 0.829061 0.302366
Si Si6 0.863348 0.609063 0.326412
Si Si7 0.207913 0.272801 0.921337
O O1 0.524850 0.792126 0.583110
O O2 0.408457 0.678734 0.563610
O O3 0.786193 0.675236 0.420012
O O4 0.250397 0.499849 0.973367
O O5 0.844755 0.577797 0.713937
O O6 0.000000 0.500000 0.500000
O O7 0.813834 0.349765 0.886302
O O8 0.381421 0.342817 0.067153
O O9 0.243699 0.783823 0.459538
O O10 0.334026 0.042705 0.776632
O O11 0.500000 0.000000 0.500000
O O12 0.901591 0.201927 0.235566
O O13 0.774095 0.846967 0.057706
O O14 0.551276 0.420161 0.650491
O O15 0.856193 0.666832 0.178993
#
# Coordination Sequence:
#
# PCOD9076188 Si02
#       7
#     2   2   2   2   2   2   2
#     4   9  19  31  53  75 105 135 168 212 256 322
#     4  11  22  29  46  76 120 136 166 205 247 334
#     4  11  19  33  50  78 110 141 165 205 266 307
#     4  10  22  34  49  79 106 136 174 218 259 299
#     4   9  20  32  53  79 101 137 170 209 259 321
#     4  10  18  33  51  84 105 136 166 203 277 308
#     4  10  19  32  58  73 108 137 162 217 263 323
#
# _framework density 22.576326999999999
#
# number of rings (size 3 to 8) (size 9 to 14) (size 15 to 20)
#    0.857    1.143    2.857    2.143    4.000    0.571 
#    0.000    0.000    0.000    0.000    0.000   13.000 
#    0.000    0.000    0.000    0.000    0.000    0.000 
#
# Total GULP energy -77963.735651 kJ/mol
# GULP energy per Si atom -5568.838261 kJ/mol
# Density = 2.252494 g / cm^3
# Si number density = 22.576327 Si / 1000 Ang^3
#
#
#
# Elastic Constant Matrix: (Units=GPa)
#
#
# Indices 1 2 3 4 5 6 
#
# 1 66.4462 18.1764 13.9852 14.3534 -22.9198 -13.0924
# 2 18.1764 154.8515 34.5810 39.1891 -17.4230 -5.9518
# 3 13.9852 34.5810 53.4443 22.7832 -9.1137 -3.9184
# 4 14.3534 39.1891 22.7832 38.4598 -1.6832 -3.9965
# 5 -22.9198 -17.4230 -9.1137 -1.6832 29.6430 19.9103
# 6 -13.0924 -5.9518 -3.9184 -3.9965 19.9103 27.8985
#
#
#
# Elastic Compliance Matrix: (Units=1/GPa)
#
#
# Indices 1 2 3 4 5 6 
#
# 1 0.023548 0.002352 0.000674 -0.011266 0.023851 -0.006988
# 2 0.002352 0.010156 -0.001212 -0.010681 0.011052 -0.006317
# 3 0.000674 -0.001212 0.027451 -0.015465 0.011965 -0.006842
# 4 -0.011266 -0.010681 -0.015465 0.050885 -0.029213 0.018400
# 5 0.023851 0.011052 0.011965 -0.029213 0.102319 -0.061976
# 6 -0.006988 -0.006317 -0.006842 0.018400 -0.061976 0.077122
#
#
# Mechanical properties :
#
#
# Convention : Reuss Voigt Hill
#
# Bulk Modulus (GPa) = 15.43638 45.35858 30.39748
# Shear Modulus (GPa) = 16.15778 33.06686 24.61232
#
# Velocity S-wave (km/s) = 2.67815 3.83125 3.30537
# Velocity P-wave (km/s) = 4.05162 6.30128 5.29725
#
# Compressibility (1/GPa) = 0.06478205
#
# Stress axis : x y z
#
# Youngs Moduli (GPa) = 42.46565 98.46113 36.42900
#
# Poissons Ratio (x) = -0.23154 -0.02455
# Poissons Ratio (y) = -0.09986 0.04416
# Poissons Ratio (z) = -0.02862 0.11935
#
# Static dielectric constant tensor:
#      x y z
#    x 1.899730 0.032280 0.002770 
#    y 0.032280 1.907910 -0.014970 
#    z 0.002770 -0.014970 1.904110 
# 
# From -- ./inp_files/520798.got.cif
#   From: 2010.05.17/outbox.cif.g08.bks.cpg/sg2_261_cif.got.tgz:520798.got - 2010.06.03 11:33:40.
