data_PCOD9076960
_publ_section_title
;
Structure prediction by ZEFSAII (Michael W. Deem and Ramdas Pophale) SiO2 
 PCOD9076960
Probable space group: P -1
;
_chemical_formula_sum "Si O2"
_cell_formula_units_Z 14
_cell_length_a 5.336459
_cell_length_b 23.800498
_cell_length_c 8.938160
_cell_angle_alpha 38.208672
_cell_angle_beta 87.506063
_cell_angle_gamma 71.848340
_cell_volume 626.887588
_symmetry_space_group_name_H-M "P -1"
_symmetry_group_IT_number 2
_symmetry_cell_setting 'triclinic'
loop_
_space_group_symop_operation_xyz
x,y,z
-x,-y,-z
loop_
_atom_site_type_symbol
_atom_site_label
_atom_site_fract_x
_atom_site_fract_y
_atom_site_fract_z
Si Si1 0.780157 0.792737 0.307658
Si Si2 0.257425 0.907810 0.264177
Si Si3 0.325345 0.275875 0.857000
Si Si4 0.180767 0.051528 0.215266
Si Si5 0.315108 0.618918 0.232169
Si Si6 0.878159 0.266406 0.303340
Si Si7 0.739148 0.892692 0.612255
O O1 0.536599 0.885150 0.211934
O O2 0.671289 0.745546 0.276303
O O3 0.978300 0.715626 0.589885
O O4 0.930519 0.851143 0.092471
O O5 0.287945 0.794285 0.507355
O O6 0.193184 0.954129 0.335530
O O7 0.000000 0.000000 0.000000
O O8 0.525371 0.323485 0.810464
O O9 0.997786 0.344903 0.768387
O O10 0.393343 0.171703 0.161088
O O11 0.069464 0.090830 0.300428
O O12 0.519079 0.003229 0.332569
O O13 0.500000 0.500000 0.500000
O O14 0.279889 0.647611 0.995469
O O15 0.115772 0.178292 0.381858
#
# Coordination Sequence:
#
# PCOD9076960 Si02
#       7
#     2   2   2   2   2   2   2
#     4  11  23  39  59  92 137 170 218 265 326 381
#     4  12  22  32  60  89 132 176 219 258 317 369
#     4  10  24  44  70  96 132 168 212 270 332 393
#     4  10  18  34  52  83 125 169 216 259 297 370
#     4  11  25  48  74  98 123 164 217 273 336 400
#     4  11  23  38  63  91 126 171 216 274 325 381
#     4   9  19  35  57  85 124 168 216 259 307 368
#
# _framework density 22.332553000000001
#
# number of rings (size 3 to 8) (size 9 to 14) (size 15 to 20)
#    0.000    1.429    2.857    2.571    4.000    1.714 
#    0.000    1.429    0.000    0.000    0.000    0.000 
#    0.000    0.000    0.000    0.000    0.000    0.000 
#
# Total GULP energy -78047.962392 kJ/mol
# GULP energy per Si atom -5574.854457 kJ/mol
# Density = 2.228172 g / cm^3
# Si number density = 22.332553 Si / 1000 Ang^3
#
#
#
# Elastic Constant Matrix: (Units=GPa)
#
#
# Indices 1 2 3 4 5 6 
#
# 1 65.2340 27.8983 27.0984 8.2495 8.4500 4.0488
# 2 27.8983 84.1550 54.9188 34.0176 3.0456 10.8280
# 3 27.0984 54.9188 152.4236 16.4749 20.4897 3.7599
# 4 8.2495 34.0176 16.4749 52.7527 0.0796 5.2254
# 5 8.4500 3.0456 20.4897 0.0796 24.9085 0.6912
# 6 4.0488 10.8280 3.7599 5.2254 0.6912 28.8035
#
#
#
# Elastic Compliance Matrix: (Units=1/GPa)
#
#
# Indices 1 2 3 4 5 6 
#
# 1 0.018702 -0.006096 -0.000562 0.001226 -0.005130 -0.000363
# 2 -0.006096 0.023368 -0.006610 -0.011555 0.004826 -0.005084
# 3 -0.000562 -0.006610 0.009846 0.001164 -0.007138 0.001239
# 4 0.001226 -0.011555 0.001164 0.025920 -0.000024 -0.000682
# 5 -0.005130 0.004826 -0.007138 -0.000024 0.047205 -0.001290
# 6 -0.000363 -0.005084 0.001239 -0.000682 -0.001290 0.036673
#
#
# Mechanical properties :
#
#
# Convention : Reuss Voigt Hill
#
# Bulk Modulus (GPa) = 39.40396 57.96041 48.68218
# Shear Modulus (GPa) = 25.41813 34.08609 29.75211
#
# Velocity S-wave (km/s) = 3.37733 3.91102 3.65393
# Velocity P-wave (km/s) = 5.73506 6.81208 6.29664
#
# Compressibility (1/GPa) = 0.02537816
#
# Stress axis : x y z
#
# Youngs Moduli (GPa) = 53.46964 42.79417 101.56924
#
# Poissons Ratio (x) = 0.26088 0.05712
# Poissons Ratio (y) = 0.32596 0.67139
# Poissons Ratio (z) = 0.03007 0.28288
#
# Static dielectric constant tensor:
#      x y z
#    x 2.026840 0.079600 0.005630 
#    y 0.079600 1.884340 0.078250 
#    z 0.005630 0.078250 1.828720 
# 
# From -- ./inp_files/36938.got.cif
#   From: 2010.05.17/outbox.cif.g08.bks.cpg/sg2_19_cif.got.tgz:36938.got - 2010.06.03 11:33:40.
