data_PCOD9076339
_publ_section_title
;
Structure prediction by ZEFSAII (Michael W. Deem and Ramdas Pophale) SiO2 
 PCOD9076339
Probable space group: P -1
;
_chemical_formula_sum "Si O2"
_cell_formula_units_Z 16
_cell_length_a 18.385068
_cell_length_b 6.416641
_cell_length_c 9.265613
_cell_angle_alpha 76.964385
_cell_angle_beta 102.824785
_cell_angle_gamma 134.345370
_cell_volume 758.300446
_symmetry_space_group_name_H-M "P -1"
_symmetry_group_IT_number 2
_symmetry_cell_setting 'triclinic'
loop_
_space_group_symop_operation_xyz
x,y,z
-x,-y,-z
loop_
_atom_site_type_symbol
_atom_site_label
_atom_site_fract_x
_atom_site_fract_y
_atom_site_fract_z
Si Si1 0.084371 0.972104 0.897140
Si Si2 0.049116 0.894105 0.227411
Si Si3 0.155932 0.268196 0.479194
Si Si4 0.475311 0.909300 0.838227
Si Si5 0.383899 0.164702 0.628944
Si Si6 0.281388 0.280399 0.748197
Si Si7 0.546703 0.872608 0.605794
Si Si8 0.021544 0.372673 0.357210
O O1 0.189612 0.110852 0.847916
O O2 0.050966 0.151756 0.821206
O O3 0.994575 0.677336 0.815589
O O4 0.084537 0.936272 0.072487
O O5 0.020730 0.621405 0.339490
O O6 0.139168 0.174986 0.319411
O O7 0.256375 0.397321 0.587805
O O8 0.121446 0.445873 0.445166
O O9 0.070333 0.951259 0.569815
O O10 0.381241 0.561079 0.829777
O O11 0.562465 0.973012 0.763589
O O12 0.439172 0.068343 0.737051
O O13 0.500000 0.000000 0.000000
O O14 0.293864 0.076834 0.704981
O O15 0.460188 0.518489 0.612464
O O16 0.367026 0.058227 0.471996
O O17 0.500000 0.000000 0.500000
#
# Coordination Sequence:
#
# PCOD9076339 Si02
#       8
#     2   2   2   2   2   2   2   2
#     4   9  20  34  50  79 112 144 187 227 265 324
#     4  10  18  33  55  76 108 153 187 221 271 321
#     4   9  19  32  49  79 107 137 187 230 263 321
#     4  10  21  37  58  83 109 142 182 227 280 337
#     4   9  18  35  59  79 103 140 176 222 278 329
#     4  10  21  36  52  78 115 144 184 234 275 323
#     4   8  16  34  58  81 102 131 175 218 268 334
#     4   9  17  32  54  75 104 145 184 223 269 322
#
# _framework density 21.099817000000002
#
# number of rings (size 3 to 8) (size 9 to 14) (size 15 to 20)
#    0.000    2.750    0.000    1.500    0.000    5.000 
#    0.000    8.750    0.000    0.000    0.000    0.000 
#    0.000    0.000    0.000    0.000    0.000    0.000 
#
# Total GULP energy -89073.437291 kJ/mol
# GULP energy per Si atom -5567.089831 kJ/mol
# Density = 2.105179 g / cm^3
# Si number density = 21.099817 Si / 1000 Ang^3
#
#
#
# Elastic Constant Matrix: (Units=GPa)
#
#
# Indices 1 2 3 4 5 6 
#
# 1 112.7242 37.1575 51.8529 6.0759 -34.8855 -22.4835
# 2 37.1575 47.5629 17.3279 -4.4104 -7.1918 -22.3409
# 3 51.8529 17.3279 138.9166 28.3961 -29.2504 -10.3599
# 4 6.0759 -4.4104 28.3961 34.6180 -9.8790 6.2325
# 5 -34.8855 -7.1918 -29.2504 -9.8790 35.9585 7.9240
# 6 -22.4835 -22.3409 -10.3599 6.2325 7.9240 28.3708
#
#
#
# Elastic Compliance Matrix: (Units=1/GPa)
#
#
# Indices 1 2 3 4 5 6 
#
# 1 0.017672 -0.010224 -0.002803 0.001425 0.012994 0.000989
# 2 -0.010224 0.040110 -0.001257 0.001103 -0.008137 0.025054
# 3 -0.002803 -0.001257 0.010829 -0.007877 0.003334 0.001542
# 4 0.001425 0.001103 -0.007877 0.039944 0.008841 -0.012123
# 5 0.012994 -0.008137 0.003334 0.008841 0.046067 -0.009702
# 6 0.000989 0.025054 0.001542 -0.012123 -0.009702 0.061696
#
#
# Mechanical properties :
#
#
# Convention : Reuss Voigt Hill
#
# Bulk Modulus (GPa) = 24.97301 56.87559 40.92430
# Shear Modulus (GPa) = 19.36233 32.64718 26.00476
#
# Velocity S-wave (km/s) = 3.03257 3.93781 3.51445
# Velocity P-wave (km/s) = 4.91155 6.90573 5.99218
#
# Compressibility (1/GPa) = 0.04004323
#
# Stress axis : x y z
#
# Youngs Moduli (GPa) = 56.58622 24.93140 92.34674
#
# Poissons Ratio (x) = 0.25489 0.25882
# Poissons Ratio (y) = 0.57852 0.11612
# Poissons Ratio (z) = 0.15859 0.03135
#
# Static dielectric constant tensor:
#      x y z
#    x 1.849380 0.011360 -0.054040 
#    y 0.011360 1.814200 0.011070 
#    z -0.054040 0.011070 1.819640 
# 
# From -- ./inp_files/322504.got.cif
#   From: 2010.05.17/outbox.cif.g08.bks.cpg/sg2_162_cif.got.tgz:322504.got - 2010.06.03 11:33:40.
