data_PCOD9076562
_publ_section_title
;
Structure prediction by ZEFSAII (Michael W. Deem and Ramdas Pophale) SiO2 
 PCOD9076562
Probable space group: P -1
;
_chemical_formula_sum "Si O2"
_cell_formula_units_Z 14
_cell_length_a 16.884840
_cell_length_b 23.772385
_cell_length_c 7.550081
_cell_angle_alpha 29.330873
_cell_angle_beta 144.074883
_cell_angle_gamma 159.368168
_cell_volume 522.760901
_symmetry_space_group_name_H-M "P -1"
_symmetry_group_IT_number 2
_symmetry_cell_setting 'triclinic'
loop_
_space_group_symop_operation_xyz
x,y,z
-x,-y,-z
loop_
_atom_site_type_symbol
_atom_site_label
_atom_site_fract_x
_atom_site_fract_y
_atom_site_fract_z
Si Si1 0.441641 0.867084 0.115691
Si Si2 0.757368 0.900515 0.761723
Si Si3 0.554426 0.408105 0.700882
Si Si4 0.032018 0.695552 0.368527
Si Si5 0.636697 0.270891 0.979143
Si Si6 0.003918 0.636410 0.080024
Si Si7 0.077469 0.189141 0.859684
O O1 0.543120 0.824304 0.512940
O O2 0.522098 0.905425 0.958044
O O3 0.187961 0.742678 0.967342
O O4 0.500000 0.000000 0.000000
O O5 0.655730 0.729246 0.173131
O O6 0.883075 0.921947 0.769138
O O7 0.917247 0.084782 0.676198
O O8 0.501711 0.262854 0.882809
O O9 0.664413 0.585653 0.303083
O O10 0.773796 0.520282 0.900584
O O11 0.047112 0.729506 0.090423
O O12 0.797648 0.466093 0.619444
O O13 0.022513 0.800606 0.191780
O O14 0.212420 0.717590 0.675487
O O15 0.000000 0.500000 0.500000
#
# Coordination Sequence:
#
# PCOD9076562 Si02
#       7
#     2   2   2   2   2   2   2
#     4  12  23  36  59  90 119 151 191 245 301 344
#     4  11  22  42  60  83 122 155 198 241 286 348
#     4  11  21  39  64  87 116 155 195 240 297 343
#     4  10  18  34  58  85 116 152 191 236 292 342
#     4  10  18  33  57  86 116 145 191 243 290 346
#     4  12  19  36  60  87 116 148 188 244 294 339
#     4  10  24  40  60  85 116 162 198 236 286 351
#
# _framework density 26.780888000000001
#
# number of rings (size 3 to 8) (size 9 to 14) (size 15 to 20)
#    0.000    1.143    4.286    3.857    0.000    1.143 
#    0.000   10.714    0.000    4.286    0.000    0.000 
#    0.000    0.000    0.000    0.000    0.000    0.000 
#
# Total GULP energy -78055.200007 kJ/mol
# GULP energy per Si atom -5575.371429 kJ/mol
# Density = 2.671993 g / cm^3
# Si number density = 26.780888 Si / 1000 Ang^3
#
#
#
# Elastic Constant Matrix: (Units=GPa)
#
#
# Indices 1 2 3 4 5 6 
#
# 1 193.8988 24.2936 26.9284 -16.3122 51.0872 -35.1812
# 2 24.2936 74.7084 5.3727 -10.8084 6.7003 -17.2549
# 3 26.9284 5.3727 54.2754 -1.1959 25.1243 -2.4182
# 4 -16.3122 -10.8084 -1.1959 28.9041 -7.4871 4.1112
# 5 51.0872 6.7003 25.1243 -7.4871 51.0014 -8.0878
# 6 -35.1812 -17.2549 -2.4182 4.1112 -8.0878 58.1681
#
#
#
# Elastic Compliance Matrix: (Units=1/GPa)
#
#
# Indices 1 2 3 4 5 6 
#
# 1 0.007885 -0.000861 -0.000529 0.001882 -0.006705 0.003426
# 2 -0.000861 0.015238 -0.001143 0.004824 0.000720 0.003711
# 3 -0.000529 -0.001143 0.024143 -0.002619 -0.011773 -0.001107
# 4 0.001882 0.004824 -0.002619 0.038462 0.004475 0.000364
# 5 -0.006705 0.000720 -0.011773 0.004475 0.032669 -0.000105
# 6 0.003426 0.003711 -0.001107 0.000364 -0.000105 0.020278
#
#
# Mechanical properties :
#
#
# Convention : Reuss Voigt Hill
#
# Bulk Modulus (GPa) = 23.69659 48.45243 36.07451
# Shear Modulus (GPa) = 31.68383 45.36725 38.52554
#
# Velocity S-wave (km/s) = 3.44332 4.12031 3.79693
# Velocity P-wave (km/s) = 4.96751 6.38493 5.72029
#
# Compressibility (1/GPa) = 0.04220016
#
# Stress axis : x y z
#
# Youngs Moduli (GPa) = 126.81717 65.62563 41.41975
#
# Poissons Ratio (x) = 0.05651 0.02191
# Poissons Ratio (y) = 0.10920 0.04734
# Poissons Ratio (z) = 0.06709 0.07501
#
# Static dielectric constant tensor:
#      x y z
#    x 2.055820 0.031740 -0.063040 
#    y 0.031740 2.271020 -0.122790 
#    z -0.063040 -0.122790 2.159790 
# 
# From -- ./inp_files/177333.got.cif
#   From: 2010.05.17/outbox.cif.g08.bks.cpg/sg2_89_cif.got.tgz:177333.got - 2010.06.03 11:33:40.
