data_PCOD9076286
_publ_section_title
;
Structure prediction by ZEFSAII (Michael W. Deem and Ramdas Pophale) SiO2 
 PCOD9076286
Probable space group: P -1
;
_chemical_formula_sum "Si O2"
_cell_formula_units_Z 16
_cell_length_a 7.951279
_cell_length_b 17.048911
_cell_length_c 21.548419
_cell_angle_alpha 25.741151
_cell_angle_beta 67.964133
_cell_angle_gamma 51.105569
_cell_volume 815.875265
_symmetry_space_group_name_H-M "P -1"
_symmetry_group_IT_number 2
_symmetry_cell_setting 'triclinic'
loop_
_space_group_symop_operation_xyz
x,y,z
-x,-y,-z
loop_
_atom_site_type_symbol
_atom_site_label
_atom_site_fract_x
_atom_site_fract_y
_atom_site_fract_z
Si Si1 0.368541 0.003795 0.213464
Si Si2 0.616607 0.587554 0.385078
Si Si3 0.398121 0.881017 0.484525
Si Si4 0.636292 0.212993 0.305201
Si Si5 0.782057 0.797870 0.404392
Si Si6 0.572046 0.655520 0.883609
Si Si7 0.142419 0.548344 0.889739
Si Si8 0.207089 0.780488 0.480643
O O1 0.434163 0.882152 0.222747
O O2 0.635241 0.834794 0.337113
O O3 0.225438 0.942870 0.315578
O O4 0.244693 0.292764 0.025108
O O5 0.500000 0.500000 0.500000
O O6 0.659054 0.483791 0.383650
O O7 0.910223 0.419188 0.486752
O O8 0.399066 0.855686 0.575299
O O9 0.662051 0.770830 0.497579
O O10 0.348089 0.733478 0.558371
O O11 0.147204 0.181913 0.283373
O O12 0.419585 0.307783 0.217054
O O13 0.677801 0.398280 0.182155
O O14 0.907830 0.965529 0.409803
O O15 0.663418 0.078144 0.237395
O O16 0.500000 0.500000 0.000000
O O17 0.813128 0.510545 0.000079
#
# Coordination Sequence:
#
# PCOD9076286 Si02
#       8
#     2   2   2   2   2   2   2   2
#     4   9  19  31  54  79 111 140 183 231 277 316
#     4  10  19  34  53  78 109 145 185 229 276 322
#     4  10  21  33  55  81 114 150 180 216 271 339
#     4  10  18  33  54  79 113 152 183 213 269 339
#     4  10  19  34  51  82 108 145 182 227 271 325
#     4   9  18  30  51  80 113 140 169 226 275 317
#     4   9  18  33  52  82 115 144 175 225 283 320
#     4   9  17  31  51  77 106 144 180 220 267 322
#
# _framework density 19.61084
#
# number of rings (size 3 to 8) (size 9 to 14) (size 15 to 20)
#    0.000    2.500    1.250    1.875    0.000    9.500 
#    0.000    0.000    0.000    3.750    0.000    3.500 
#    0.000    0.000    0.250    0.000    0.000    0.000 
#
# Total GULP energy -89120.923741 kJ/mol
# GULP energy per Si atom -5570.057734 kJ/mol
# Density = 1.956620 g / cm^3
# Si number density = 19.610840 Si / 1000 Ang^3
#
#
#
# Elastic Constant Matrix: (Units=GPa)
#
#
# Indices 1 2 3 4 5 6 
#
# 1 94.2658 53.6952 28.1531 -5.8025 -2.1493 12.5148
# 2 53.6952 109.7906 50.8523 -5.2016 2.5404 26.6394
# 3 28.1531 50.8523 58.7510 3.5549 -1.7451 16.8551
# 4 -5.8025 -5.2016 3.5549 30.0481 10.2792 -3.1038
# 5 -2.1493 2.5404 -1.7451 10.2792 24.3547 -14.0224
# 6 12.5148 26.6394 16.8551 -3.1038 -14.0224 45.4991
#
#
#
# Elastic Compliance Matrix: (Units=1/GPa)
#
#
# Indices 1 2 3 4 5 6 
#
# 1 0.014957 -0.006855 -0.001602 0.001309 0.002071 0.001220
# 2 -0.006855 0.021530 -0.013592 0.007190 -0.011975 -0.008885
# 3 -0.001602 -0.013592 0.030737 -0.008568 0.006125 -0.001684
# 4 0.001309 0.007190 -0.008568 0.042920 -0.022468 -0.005392
# 5 0.002071 -0.011975 0.006125 -0.022468 0.065568 0.022848
# 6 0.001220 -0.008885 -0.001684 -0.005392 0.022848 0.034143
#
#
# Mechanical properties :
#
#
# Convention : Reuss Voigt Hill
#
# Bulk Modulus (GPa) = 43.24124 58.68986 50.96555
# Shear Modulus (GPa) = 19.10856 28.65415 23.88135
#
# Velocity S-wave (km/s) = 3.12490 3.82663 3.49343
# Velocity P-wave (km/s) = 5.92601 7.03679 6.50515
#
# Compressibility (1/GPa) = 0.02312607
#
# Stress axis : x y z
#
# Youngs Moduli (GPa) = 66.85707 46.44631 32.53412
#
# Poissons Ratio (x) = 0.31841 0.05210
# Poissons Ratio (y) = 0.45833 0.44221
# Poissons Ratio (z) = 0.10707 0.63131
#
# Static dielectric constant tensor:
#      x y z
#    x 1.796500 -0.007820 -0.023720 
#    y -0.007820 1.704810 0.007440 
#    z -0.023720 0.007440 1.734070 
# 
# From -- ./inp_files/590967.got.cif
#   From: 2010.05.17/outbox.cif.g08.bks.cpg/sg2_296_cif.got.tgz:590967.got - 2010.06.03 11:33:40.
