data_PCOD9076898
_publ_section_title
;
Structure prediction by ZEFSAII (Michael W. Deem and Ramdas Pophale) SiO2 
 PCOD9076898
Probable space group: P -1
;
_chemical_formula_sum "Si O2"
_cell_formula_units_Z 12
_cell_length_a 6.927093
_cell_length_b 11.083592
_cell_length_c 6.867629
_cell_angle_alpha 77.070387
_cell_angle_beta 76.741469
_cell_angle_gamma 59.474880
_cell_volume 438.459948
_symmetry_space_group_name_H-M "P -1"
_symmetry_group_IT_number 2
_symmetry_cell_setting 'triclinic'
loop_
_space_group_symop_operation_xyz
x,y,z
-x,-y,-z
loop_
_atom_site_type_symbol
_atom_site_label
_atom_site_fract_x
_atom_site_fract_y
_atom_site_fract_z
Si Si1 0.366001 0.647579 0.861232
Si Si2 0.275948 0.255708 0.158418
Si Si3 0.529753 0.764772 0.290014
Si Si4 0.839567 0.442770 0.391175
Si Si5 0.077471 0.771406 0.223055
Si Si6 0.213166 0.023358 0.496028
O O1 0.515389 0.724949 0.816397
O O2 0.307886 0.613177 0.675839
O O3 0.500000 0.500000 0.000000
O O4 0.131053 0.739290 0.996905
O O5 0.054459 0.400956 0.217398
O O6 0.226868 0.141280 0.317322
O O7 0.335101 0.220008 0.930660
O O8 0.690715 0.608687 0.387233
O O9 0.301587 0.775950 0.245527
O O10 0.438220 0.883626 0.433296
O O11 0.911714 0.358720 0.607576
O O12 0.856568 0.911701 0.294426
O O13 0.000000 0.000000 0.500000
#
# Coordination Sequence:
#
# PCOD9076898 Si02
#       6
#     2   2   2   2   2   2
#     4  11  22  38  66  96 129 160 208 267 314 368
#     4  10  21  38  63  96 122 165 216 253 316 375
#     4  10  18  33  63  89 123 167 207 251 321 372
#     4  11  21  39  66  95 126 163 208 265 315 366
#     4   9  20  38  62  92 123 166 209 253 315 369
#     4   9  19  37  62  87 124 173 206 252 317 375
#
# _framework density 27.368525000000002
#
# number of rings (size 3 to 8) (size 9 to 14) (size 15 to 20)
#    0.000    2.000    3.333    1.500    0.000    0.000 
#    0.000   10.000    0.000   82.000    0.000    0.000 
#    0.000    0.000    0.000    0.000    0.000    0.000 
#
# Total GULP energy -67324.845543 kJ/mol
# GULP energy per Si atom -5610.403795 kJ/mol
# Density = 2.730623 g / cm^3
# Si number density = 27.368525 Si / 1000 Ang^3
#
#
#
# Elastic Constant Matrix: (Units=GPa)
#
#
# Indices 1 2 3 4 5 6 
#
# 1 154.0492 32.1323 52.2335 8.8323 -33.2542 9.0651
# 2 32.1323 202.6866 87.6614 53.8610 -18.3299 -0.1674
# 3 52.2335 87.6614 172.7773 31.1677 -38.2094 4.6713
# 4 8.8323 53.8610 31.1677 53.2606 -7.2717 -21.0882
# 5 -33.2542 -18.3299 -38.2094 -7.2717 51.3454 11.3552
# 6 9.0651 -0.1674 4.6713 -21.0882 11.3552 27.6519
#
#
#
# Elastic Compliance Matrix: (Units=1/GPa)
#
#
# Indices 1 2 3 4 5 6 
#
# 1 0.008803 0.000579 -0.000334 -0.004515 0.007046 -0.009163
# 2 0.000579 0.008925 -0.001708 -0.011655 0.002828 -0.009897
# 3 -0.000334 -0.001708 0.010065 -0.007089 0.007930 -0.010264
# 4 -0.004515 -0.011655 -0.007089 0.052867 -0.015801 0.049414
# 5 0.007046 0.002828 0.007930 -0.015801 0.035395 -0.030218
# 6 -0.009163 -0.009897 -0.010264 0.049414 -0.030218 0.090935
#
#
# Mechanical properties :
#
#
# Convention : Reuss Voigt Hill
#
# Bulk Modulus (GPa) = 40.21468 97.06308 68.63888
# Shear Modulus (GPa) = 22.91394 50.28398 36.59896
#
# Velocity S-wave (km/s) = 2.89664 4.29101 3.66083
# Velocity P-wave (km/s) = 5.09049 7.75194 6.55766
#
# Compressibility (1/GPa) = 0.02486654
#
# Stress axis : x y z
#
# Youngs Moduli (GPa) = 113.59456 112.03964 99.35113
#
# Poissons Ratio (x) = -0.06482 0.03323
# Poissons Ratio (y) = -0.06572 0.16967
# Poissons Ratio (z) = 0.03799 0.19134
#
# Static dielectric constant tensor:
#      x y z
#    x 2.164020 0.005970 -0.004500 
#    y 0.005970 2.142300 0.013430 
#    z -0.004500 0.013430 2.087380 
# 
# From -- ./inp_files/168365.got.cif
#   From: 2010.05.17/outbox.cif.g08.bks.cpg/sg2_85_cif.got.tgz:168365.got - 2010.06.03 11:33:40.
