data_PCOD9076357
_publ_section_title
;
Structure prediction by ZEFSAII (Michael W. Deem and Ramdas Pophale) SiO2 
 PCOD9076357
Probable space group: P -1
;
_chemical_formula_sum "Si O2"
_cell_formula_units_Z 14
_cell_length_a 17.868804
_cell_length_b 26.067760
_cell_length_c 9.466985
_cell_angle_alpha 138.031275
_cell_angle_beta 30.295539
_cell_angle_gamma 159.434707
_cell_volume 727.125632
_symmetry_space_group_name_H-M "P -1"
_symmetry_group_IT_number 2
_symmetry_cell_setting 'triclinic'
loop_
_space_group_symop_operation_xyz
x,y,z
-x,-y,-z
loop_
_atom_site_type_symbol
_atom_site_label
_atom_site_fract_x
_atom_site_fract_y
_atom_site_fract_z
Si Si1 0.439307 0.261517 0.269299
Si Si2 0.660506 0.938259 0.439353
Si Si3 0.749258 0.940880 0.617816
Si Si4 0.789601 0.730862 0.720838
Si Si5 0.422768 0.432903 0.647435
Si Si6 0.337568 0.662247 0.224523
Si Si7 0.798632 0.129700 0.936869
O O1 0.424732 0.205000 0.317991
O O2 0.506832 0.381992 0.423823
O O3 0.665680 0.331868 0.926798
O O4 0.101807 0.100275 0.419123
O O5 0.722883 0.923993 0.457637
O O6 0.510729 0.812024 0.317529
O O7 0.425923 0.901372 0.775107
O O8 0.980421 0.121108 0.247679
O O9 0.639798 0.976879 0.915982
O O10 0.604618 0.571677 0.737357
O O11 0.015511 0.806387 0.379224
O O12 0.540092 0.678582 0.964783
O O13 0.500000 0.500000 0.500000
O O14 0.058138 0.269145 0.911860
O O15 0.000000 0.500000 0.500000
#
# Coordination Sequence:
#
# PCOD9076357 Si02
#       7
#     2   2   2   2   2   2   2
#     4  10  19  35  57  89 108 154 181 237 277 335
#     4  11  21  34  60  89 110 145 189 241 279 326
#     4   9  18  35  60  83 115 140 199 227 279 325
#     4  10  18  33  55  81 110 142 192 231 264 326
#     4   9  15  30  57  78 107 138 195 224 266 321
#     4  12  23  35  55  87 120 146 185 230 291 336
#     4   9  17  33  57  85 106 146 193 231 269 331
#
# _framework density 19.253893999999999
#
# number of rings (size 3 to 8) (size 9 to 14) (size 15 to 20)
#    0.000    2.000    5.714    3.000    2.000    0.000 
#    0.000    1.429    0.000    0.857    0.000    0.000 
#    0.000    0.000    0.000    0.000    0.000    0.000 
#
# Total GULP energy -78004.449339 kJ/mol
# GULP energy per Si atom -5571.746381 kJ/mol
# Density = 1.921007 g / cm^3
# Si number density = 19.253894 Si / 1000 Ang^3
#
#
#
# Elastic Constant Matrix: (Units=GPa)
#
#
# Indices 1 2 3 4 5 6 
#
# 1 45.2745 32.0169 10.4539 5.3968 -7.5245 -17.6427
# 2 32.0169 157.3279 25.9314 12.8327 -3.0790 -13.4067
# 3 10.4539 25.9314 67.7190 1.7999 -17.0022 -5.4205
# 4 5.3968 12.8327 1.7999 16.2883 -4.7167 -5.8796
# 5 -7.5245 -3.0790 -17.0022 -4.7167 15.0705 0.3828
# 6 -17.6427 -13.4067 -5.4205 -5.8796 0.3828 31.0978
#
#
#
# Elastic Compliance Matrix: (Units=1/GPa)
#
#
# Indices 1 2 3 4 5 6 
#
# 1 0.036347 -0.006456 0.003961 0.006203 0.022746 0.019421
# 2 -0.006456 0.008678 -0.004504 -0.007481 -0.008821 -0.002012
# 3 0.003961 -0.004504 0.023948 0.010881 0.031324 0.006152
# 4 0.006203 -0.007481 0.010881 0.081476 0.038909 0.017116
# 5 0.022746 -0.008821 0.031324 0.038909 0.122908 0.020405
# 6 0.019421 -0.002012 0.006152 0.017116 0.020405 0.046365
#
#
# Mechanical properties :
#
#
# Convention : Reuss Voigt Hill
#
# Bulk Modulus (GPa) = 18.18921 45.23621 31.71271
# Shear Modulus (GPa) = 14.20283 25.95259 20.07771
#
# Velocity S-wave (km/s) = 2.71894 3.67538 3.23272
# Velocity P-wave (km/s) = 4.39595 6.44645 5.51730
#
# Compressibility (1/GPa) = 0.05497765
#
# Stress axis : x y z
#
# Youngs Moduli (GPa) = 27.51261 115.22964 41.75787
#
# Poissons Ratio (x) = 0.74387 -0.16542
# Poissons Ratio (y) = 0.17761 0.18806
# Poissons Ratio (z) = -0.10899 0.51895
#
# Static dielectric constant tensor:
#      x y z
#    x 1.694010 0.011070 0.005750 
#    y 0.011070 1.763920 0.007220 
#    z 0.005750 0.007220 1.688110 
# 
# From -- ./inp_files/251615.got.cif
#   From: 2010.05.17/outbox.cif.g08.bks.cpg/sg2_126_cif.got.tgz:251615.got - 2010.06.03 11:33:40.
