data_PCOD9076551
_publ_section_title
;
Structure prediction by ZEFSAII (Michael W. Deem and Ramdas Pophale) SiO2 
 PCOD9076551
Probable space group: P -1
;
_chemical_formula_sum "Si O2"
_cell_formula_units_Z 14
_cell_length_a 7.392836
_cell_length_b 7.940144
_cell_length_c 14.192652
_cell_angle_alpha 56.800242
_cell_angle_beta 84.492109
_cell_angle_gamma 114.537406
_cell_volume 574.091795
_symmetry_space_group_name_H-M "P -1"
_symmetry_group_IT_number 2
_symmetry_cell_setting 'triclinic'
loop_
_space_group_symop_operation_xyz
x,y,z
-x,-y,-z
loop_
_atom_site_type_symbol
_atom_site_label
_atom_site_fract_x
_atom_site_fract_y
_atom_site_fract_z
Si Si1 0.061213 0.196335 0.564714
Si Si2 0.630256 0.286312 0.066944
Si Si3 0.683166 0.657458 0.801142
Si Si4 0.442035 0.558076 0.335312
Si Si5 0.966905 0.461225 0.644867
Si Si6 0.138505 0.958697 0.867867
Si Si7 0.805855 0.064669 0.906403
O O1 0.950338 0.260554 0.464165
O O2 0.310384 0.314069 0.480384
O O3 0.061009 0.359692 0.598596
O O4 0.904877 0.918024 0.686279
O O5 0.505218 0.323282 0.146267
O O6 0.802136 0.227617 0.112243
O O7 0.435216 0.062730 0.084174
O O8 0.723949 0.501545 0.919831
O O9 0.592754 0.522034 0.747300
O O10 0.688587 0.781157 0.267786
O O11 0.288940 0.657466 0.331836
O O12 0.955588 0.347793 0.781147
O O13 0.907642 0.930331 0.891580
O O14 0.190183 0.970348 0.973218
#
# Coordination Sequence:
#
# PCOD9076551 Si02
#       7
#     2   2   2   2   2   2   2
#     4   9  18  33  57  86 111 149 187 232 271 338
#     4  11  21  37  59  85 111 153 186 227 282 343
#     4  11  20  32  59  83 117 150 182 225 292 330
#     4  10  18  33  57  85 111 146 185 229 277 335
#     4   9  18  34  61  79 111 145 193 227 272 326
#     4  11  22  36  62  85 110 145 195 234 279 322
#     4  11  20  37  62  84 111 142 194 243 268 326
#
# _framework density 24.386344000000001
#
# number of rings (size 3 to 8) (size 9 to 14) (size 15 to 20)
#    0.857    0.857    4.286    1.714    0.000    0.000 
#    0.000    3.571    3.143    0.857    0.000    0.000 
#    0.000    0.000    0.000    0.000    0.000    0.000 
#
# Total GULP energy -78109.684821 kJ/mol
# GULP energy per Si atom -5579.263202 kJ/mol
# Density = 2.433084 g / cm^3
# Si number density = 24.386344 Si / 1000 Ang^3
#
#
#
# Elastic Constant Matrix: (Units=GPa)
#
#
# Indices 1 2 3 4 5 6 
#
# 1 107.1903 6.1474 28.9515 0.4142 -9.9404 -23.2922
# 2 6.1474 39.1023 38.2219 7.5797 -10.1453 -9.2541
# 3 28.9515 38.2219 200.4605 -21.5639 8.3550 -11.4634
# 4 0.4142 7.5797 -21.5639 45.4581 -9.2447 -4.1562
# 5 -9.9404 -10.1453 8.3550 -9.2447 33.9922 3.5974
# 6 -23.2922 -9.2541 -11.4634 -4.1562 3.5974 22.4008
#
#
#
# Elastic Compliance Matrix: (Units=1/GPa)
#
#
# Indices 1 2 3 4 5 6 
#
# 1 0.012975 0.004192 -0.002039 0.000309 0.004195 0.013563
# 2 0.004192 0.041718 -0.009117 -0.007554 0.012432 0.013530
# 3 -0.002039 -0.009117 0.007617 0.004295 -0.003963 -0.000556
# 4 0.000309 -0.007554 0.004295 0.026355 0.003554 0.003717
# 5 0.004195 0.012432 -0.003963 0.003554 0.036049 0.002340
# 6 0.013563 0.013530 -0.000556 0.003717 0.002340 0.064362
#
#
# Mechanical properties :
#
#
# Convention : Reuss Voigt Hill
#
# Bulk Modulus (GPa) = 20.66918 54.82163 37.74541
# Shear Modulus (GPa) = 22.81739 38.59904 30.70821
#
# Velocity S-wave (km/s) = 3.06218 3.98278 3.55242
# Velocity P-wave (km/s) = 4.58222 6.60903 5.68665
#
# Compressibility (1/GPa) = 0.04838121
#
# Stress axis : x y z
#
# Youngs Moduli (GPa) = 77.07408 23.97034 131.28910
#
# Poissons Ratio (x) = -0.10048 0.26772
# Poissons Ratio (y) = -0.32309 1.19695
# Poissons Ratio (z) = 0.15717 0.21853
#
# Static dielectric constant tensor:
#      x y z
#    x 1.926840 0.004060 0.004400 
#    y 0.004060 1.989220 -0.043770 
#    z 0.004400 -0.043770 2.051690 
# 
# From -- ./inp_files/554225.got.cif
#   From: 2010.05.17/outbox.cif.g08.bks.cpg/sg2_278_cif.got.tgz:554225.got - 2010.06.03 11:33:40.
