data_PCOD9076027
_publ_section_title
;
Structure prediction by ZEFSAII (Michael W. Deem and Ramdas Pophale) SiO2 
 PCOD9076027
Probable space group: P -1
;
_chemical_formula_sum "Si O2"
_cell_formula_units_Z 16
_cell_length_a 14.065410
_cell_length_b 8.075532
_cell_length_c 5.862053
_cell_angle_alpha 79.090691
_cell_angle_beta 72.039855
_cell_angle_gamma 86.330395
_cell_volume 621.941230
_symmetry_space_group_name_H-M "P -1"
_symmetry_group_IT_number 2
_symmetry_cell_setting 'triclinic'
loop_
_space_group_symop_operation_xyz
x,y,z
-x,-y,-z
loop_
_atom_site_type_symbol
_atom_site_label
_atom_site_fract_x
_atom_site_fract_y
_atom_site_fract_z
Si Si1 0.543781 0.384756 0.303295
Si Si2 0.359994 0.537917 0.184686
Si Si3 0.024298 0.635821 0.134690
Si Si4 0.848096 0.596409 0.590041
Si Si5 0.641718 0.056596 0.878116
Si Si6 0.124437 0.961090 0.801105
Si Si7 0.863260 0.936252 0.735442
Si Si8 0.633945 0.020548 0.395794
O O1 0.500000 0.500000 0.500000
O O2 0.447886 0.404699 0.206357
O O3 0.577171 0.200116 0.392219
O O4 0.641347 0.461454 0.089462
O O5 0.259205 0.471380 0.386845
O O6 0.380533 0.739104 0.163715
O O7 0.091914 0.559460 0.306827
O O8 0.917541 0.675012 0.322032
O O9 0.091160 0.772766 0.927071
O O10 0.000000 0.500000 0.000000
O O11 0.838018 0.741950 0.749748
O O12 0.611175 0.964503 0.688821
O O13 0.761735 0.045080 0.797976
O O14 0.609362 0.967041 0.164354
O O15 0.245224 0.977493 0.695162
O O16 0.089372 0.002635 0.556684
O O17 0.092112 0.047216 0.046715
#
# Coordination Sequence:
#
# PCOD9076027 Si02
#       8
#     2   2   2   2   2   2   2   2
#     4  10  18  32  58  95 121 169 216 272 321 394
#     4  10  21  36  61  91 130 165 220 273 331 385
#     4  11  27  43  68  96 132 174 220 280 339 388
#     4  11  26  44  63  99 134 170 218 286 335 391
#     4   9  17  33  58  85 117 168 207 253 309 387
#     4  10  23  44  69  94 132 184 225 267 326 411
#     4  10  23  42  69  95 131 181 225 265 334 401
#     4   9  17  31  58  87 119 155 212 260 303 372
#
# _framework density 25.725904
#
# number of rings (size 3 to 8) (size 9 to 14) (size 15 to 20)
#    0.000    2.000    1.250    2.250    8.750    2.000 
#    0.000    0.000    0.000   15.000    0.000    0.000 
#    0.000    0.000    0.000    0.000    0.000    0.000 
#
# Total GULP energy -89187.435413 kJ/mol
# GULP energy per Si atom -5574.214713 kJ/mol
# Density = 2.566735 g / cm^3
# Si number density = 25.725904 Si / 1000 Ang^3
#
#
#
# Elastic Constant Matrix: (Units=GPa)
#
#
# Indices 1 2 3 4 5 6 
#
# 1 83.1671 -3.0209 44.8711 -5.5464 2.7489 -13.2818
# 2 -3.0209 61.9601 26.1594 12.7230 4.6838 3.7290
# 3 44.8711 26.1594 193.6920 20.1364 32.3315 12.8973
# 4 -5.5464 12.7230 20.1364 42.5211 -12.1678 -3.7254
# 5 2.7489 4.6838 32.3315 -12.1678 39.7017 2.8154
# 6 -13.2818 3.7290 12.8973 -3.7254 2.8154 38.4600
#
#
#
# Elastic Compliance Matrix: (Units=1/GPa)
#
#
# Indices 1 2 3 4 5 6 
#
# 1 0.017069 0.001122 -0.006299 0.007144 0.005424 0.008193
# 2 0.001122 0.018248 -0.001699 -0.005293 -0.002388 -0.001150
# 3 -0.006299 -0.001699 0.009570 -0.007948 -0.009216 -0.005315
# 4 0.007144 -0.005293 -0.007948 0.035311 0.016869 0.007831
# 5 0.005424 -0.002388 -0.009216 0.016869 0.037480 0.004086
# 6 0.008193 -0.001150 -0.005315 0.007831 0.004086 0.031184
#
#
# Mechanical properties :
#
#
# Convention : Reuss Voigt Hill
#
# Bulk Modulus (GPa) = 32.11927 52.75982 42.43954
# Shear Modulus (GPa) = 28.90286 42.19055 35.54670
#
# Velocity S-wave (km/s) = 3.35549 4.05409 3.72122
# Velocity P-wave (km/s) = 5.24640 6.51668 5.91573
#
# Compressibility (1/GPa) = 0.03113396
#
# Stress axis : x y z
#
# Youngs Moduli (GPa) = 58.58538 54.80042 104.49017
#
# Poissons Ratio (x) = -0.06147 0.65823
# Poissons Ratio (y) = -0.06572 0.17753
# Poissons Ratio (z) = 0.36906 0.09310
#
# Static dielectric constant tensor:
#      x y z
#    x 1.932110 0.039580 -0.164380 
#    y 0.039580 2.087660 0.020280 
#    z -0.164380 0.020280 1.840990 
# 
# From -- ./inp_files/90027.got.cif
#   From: 2010.05.17/outbox.cif.g08.bks.cpg/sg2_46_cif.got.tgz:90027.got - 2010.06.03 11:33:40.
