data_PCOD9076916
_publ_section_title
;
Structure prediction by ZEFSAII (Michael W. Deem and Ramdas Pophale) SiO2 
 PCOD9076916
Probable space group: P -1
;
_chemical_formula_sum "Si O2"
_cell_formula_units_Z 16
_cell_length_a 11.160420
_cell_length_b 11.674953
_cell_length_c 12.346369
_cell_angle_alpha 61.576964
_cell_angle_beta 141.784049
_cell_angle_gamma 91.139982
_cell_volume 664.510014
_symmetry_space_group_name_H-M "P -1"
_symmetry_group_IT_number 2
_symmetry_cell_setting 'triclinic'
loop_
_space_group_symop_operation_xyz
x,y,z
-x,-y,-z
loop_
_atom_site_type_symbol
_atom_site_label
_atom_site_fract_x
_atom_site_fract_y
_atom_site_fract_z
Si Si1 0.481029 0.943383 0.692920
Si Si2 0.882363 0.561901 0.218867
Si Si3 0.967762 0.122183 0.335330
Si Si4 0.780746 0.989185 0.750886
Si Si5 0.692178 0.346548 0.783532
Si Si6 0.657725 0.485987 0.930212
Si Si7 0.895249 0.341690 0.518515
Si Si8 0.160739 0.980957 0.927369
O O1 0.646253 0.000019 0.759833
O O2 0.227224 0.086977 0.513677
O O3 0.407187 0.931954 0.522514
O O4 0.631777 0.764912 0.943515
O O5 0.850396 0.508690 0.103350
O O6 0.893653 0.440118 0.370370
O O7 0.099270 0.566531 0.412752
O O8 0.741629 0.314419 0.123439
O O9 0.000000 0.000000 0.500000
O O10 0.922380 0.065877 0.217342
O O11 0.071176 0.939030 0.186915
O O12 0.013692 0.786239 0.988162
O O13 0.500000 0.500000 0.500000
O O14 0.690104 0.430905 0.854065
O O15 0.623898 0.220487 0.797334
O O16 0.360490 0.632561 0.679023
O O17 0.137128 0.138443 0.796682
#
# Coordination Sequence:
#
# PCOD9076916 Si02
#       8
#     2   2   2   2   2   2   2   2
#     4  10  18  38  60  90 137 170 223 275 325 409
#     4  11  25  39  65 102 136 179 230 273 337 410
#     4  10  18  33  64  97 128 174 223 272 344 398
#     4   8  18  36  67  88 126 172 226 269 331 408
#     4   9  20  39  68  99 125 168 230 278 345 404
#     4  11  21  39  66  95 134 174 218 287 338 393
#     4  11  23  42  66  99 136 178 231 277 330 412
#     4   8  18  38  63  91 124 174 218 270 333 402
#
# _framework density 24.07789
#
# number of rings (size 3 to 8) (size 9 to 14) (size 15 to 20)
#    0.750    1.500    1.250    3.375    1.750    0.000 
#    0.000    8.125    2.750    9.000    0.000    0.000 
#    0.000    0.000    0.000    0.000    0.000    0.000 
#
# Total GULP energy -89081.995920 kJ/mol
# GULP energy per Si atom -5567.624745 kJ/mol
# Density = 2.402309 g / cm^3
# Si number density = 24.077890 Si / 1000 Ang^3
#
#
#
# Elastic Constant Matrix: (Units=GPa)
#
#
# Indices 1 2 3 4 5 6 
#
# 1 58.2779 9.2728 31.6183 -1.3542 -15.2451 12.0618
# 2 9.2728 114.8060 33.8272 12.8633 -10.0750 6.4617
# 3 31.6183 33.8272 122.6914 -21.0908 -42.4689 15.7495
# 4 -1.3542 12.8633 -21.0908 37.5370 11.9173 -1.5734
# 5 -15.2451 -10.0750 -42.4689 11.9173 35.0138 -4.0728
# 6 12.0618 6.4617 15.7495 -1.5734 -4.0728 24.3666
#
#
#
# Elastic Compliance Matrix: (Units=1/GPa)
#
#
# Indices 1 2 3 4 5 6 
#
# 1 0.022039 0.000577 -0.003331 -0.003510 0.005970 -0.008138
# 2 0.000577 0.010537 -0.003714 -0.005935 0.000688 -0.000947
# 3 -0.003331 -0.003714 0.017137 0.005555 0.015741 -0.005453
# 4 -0.003510 -0.005935 0.005555 0.034262 -0.008092 0.000581
# 5 0.005970 0.000688 0.015741 -0.008092 0.052618 -0.005040
# 6 -0.008138 -0.000947 -0.005453 0.000581 -0.005040 0.048039
#
#
# Mechanical properties :
#
#
# Convention : Reuss Voigt Hill
#
# Bulk Modulus (GPa) = 27.19219 49.46800 38.33009
# Shear Modulus (GPa) = 23.82906 34.12062 28.97484
#
# Velocity S-wave (km/s) = 3.14931 3.76851 3.47274
# Velocity P-wave (km/s) = 4.95400 6.28691 5.65983
#
# Compressibility (1/GPa) = 0.03677526
#
# Stress axis : x y z
#
# Youngs Moduli (GPa) = 45.37396 94.90539 58.35453
#
# Poissons Ratio (x) = -0.05473 0.19438
# Poissons Ratio (y) = -0.02616 0.21675
# Poissons Ratio (z) = 0.15114 0.35251
#
# Static dielectric constant tensor:
#      x y z
#    x 2.559280 0.016280 0.026570 
#    y 0.016280 1.956160 0.076070 
#    z 0.026570 0.076070 2.023000 
# 
# From -- ./inp_files/428041.got.cif
#   From: 2010.05.17/outbox.cif.g08.bks.cpg/sg2_215_cif.got.tgz:428041.got - 2010.06.03 11:33:40.
