data_PCOD9076534
_publ_section_title
;
Structure prediction by ZEFSAII (Michael W. Deem and Ramdas Pophale) SiO2 
 PCOD9076534
Probable space group: P -1
;
_chemical_formula_sum "Si O2"
_cell_formula_units_Z 14
_cell_length_a 7.954358
_cell_length_b 15.240432
_cell_length_c 15.431083
_cell_angle_alpha 31.721658
_cell_angle_beta 128.888968
_cell_angle_gamma 144.450046
_cell_volume 559.097083
_symmetry_space_group_name_H-M "P -1"
_symmetry_group_IT_number 2
_symmetry_cell_setting 'triclinic'
loop_
_space_group_symop_operation_xyz
x,y,z
-x,-y,-z
loop_
_atom_site_type_symbol
_atom_site_label
_atom_site_fract_x
_atom_site_fract_y
_atom_site_fract_z
Si Si1 0.041019 0.184877 0.467955
Si Si2 0.988799 0.510764 0.382581
Si Si3 0.438589 0.007541 0.859911
Si Si4 0.504246 0.325506 0.770520
Si Si5 0.758017 0.758239 0.073652
Si Si6 0.062405 0.027891 0.218996
Si Si7 0.403699 0.055966 0.618067
O O1 0.209474 0.420052 0.375977
O O2 0.845364 0.999253 0.637366
O O3 0.264719 0.157471 0.527077
O O4 0.840986 0.138521 0.363366
O O5 0.880767 0.636109 0.211661
O O6 0.705639 0.241672 0.505151
O O7 0.000000 0.500000 0.500000
O O8 0.331989 0.713280 0.292871
O O9 0.498770 0.124385 0.954041
O O10 0.115234 0.900124 0.869638
O O11 0.456894 0.978454 0.787612
O O12 0.498320 0.384300 0.820054
O O13 0.204153 0.212887 0.716090
O O14 0.000000 0.000000 0.000000
O O15 0.712595 0.805626 0.923499
#
# Coordination Sequence:
#
# PCOD9076534 Si02
#       7
#     2   2   2   2   2   2   2
#     4  10  20  37  56  81 115 150 187 225 271 337
#     4  10  18  33  57  83 106 145 186 227 269 329
#     4  10  20  35  59  86 110 143 184 237 278 323
#     4  11  20  34  60  86 112 142 186 233 278 325
#     4  10  19  34  55  85 113 140 184 229 280 323
#     4  10  21  36  56  87 115 142 184 230 284 323
#     4   9  20  36  57  79 114 154 186 217 280 340
#
# _framework density 25.040372999999999
#
# number of rings (size 3 to 8) (size 9 to 14) (size 15 to 20)
#    0.000    2.000    4.286    0.857    0.000    0.571 
#    0.000    0.714    0.000    3.429    0.000    0.000 
#    0.000    0.000    0.000    0.000    0.000    0.000 
#
# Total GULP energy -78060.220258 kJ/mol
# GULP energy per Si atom -5575.730018 kJ/mol
# Density = 2.498338 g / cm^3
# Si number density = 25.040373 Si / 1000 Ang^3
#
#
#
# Elastic Constant Matrix: (Units=GPa)
#
#
# Indices 1 2 3 4 5 6 
#
# 1 55.7987 -11.3081 -6.5123 -0.0927 -5.3446 -3.9767
# 2 -11.3081 82.1272 19.2074 15.2362 7.4774 -5.4022
# 3 -6.5123 19.2074 95.4386 22.2307 -28.0992 -9.4665
# 4 -0.0927 15.2362 22.2307 24.5134 -7.9151 -5.5345
# 5 -5.3446 7.4774 -28.0992 -7.9151 26.3551 -3.7431
# 6 -3.9767 -5.4022 -9.4665 -5.5345 -3.7431 25.2472
#
#
#
# Elastic Compliance Matrix: (Units=1/GPa)
#
#
# Indices 1 2 3 4 5 6 
#
# 1 0.020093 0.001340 0.004616 -0.000444 0.009403 0.006479
# 2 0.001340 0.016502 -0.004846 -0.010615 -0.013097 -0.002344
# 3 0.004616 -0.004846 0.021521 -0.006195 0.024828 0.010082
# 4 -0.000444 -0.010615 -0.006195 0.060702 0.016114 0.011032
# 5 0.009403 -0.013097 0.024828 0.016114 0.078158 0.023108
# 6 0.006479 -0.002344 0.010082 0.011032 0.023108 0.049752
#
#
# Mechanical properties :
#
#
# Convention : Reuss Voigt Hill
#
# Bulk Modulus (GPa) = 16.57389 26.23760 21.40575
# Shear Modulus (GPa) = 18.89501 30.68828 24.79165
#
# Velocity S-wave (km/s) = 2.74995 3.50459 3.14995
# Velocity P-wave (km/s) = 4.08854 5.18431 4.66868
#
# Compressibility (1/GPa) = 0.06033586
#
# Stress axis : x y z
#
# Youngs Moduli (GPa) = 49.76743 60.60046 46.46639
#
# Poissons Ratio (x) = -0.08117 -0.21449
# Poissons Ratio (y) = -0.06666 0.22516
# Poissons Ratio (z) = -0.22973 0.29364
#
# Static dielectric constant tensor:
#      x y z
#    x 2.439540 0.021340 -0.160930 
#    y 0.021340 1.960330 -0.085180 
#    z -0.160930 -0.085180 2.076590 
# 
# From -- ./inp_files/503903.got.cif
#   From: 2010.05.17/outbox.cif.g08.bks.cpg/sg2_252_cif.got.tgz:503903.got - 2010.06.03 11:33:40.
