data_PCOD9076394
_publ_section_title
;
Structure prediction by ZEFSAII (Michael W. Deem and Ramdas Pophale) SiO2 
 PCOD9076394
Probable space group: P -1
;
_chemical_formula_sum "Si O2"
_cell_formula_units_Z 14
_cell_length_a 7.925410
_cell_length_b 14.104442
_cell_length_c 11.927889
_cell_angle_alpha 52.432846
_cell_angle_beta 79.554491
_cell_angle_gamma 120.851232
_cell_volume 624.059348
_symmetry_space_group_name_H-M "P -1"
_symmetry_group_IT_number 2
_symmetry_cell_setting 'triclinic'
loop_
_space_group_symop_operation_xyz
x,y,z
-x,-y,-z
loop_
_atom_site_type_symbol
_atom_site_label
_atom_site_fract_x
_atom_site_fract_y
_atom_site_fract_z
Si Si1 0.878856 0.626143 0.440920
Si Si2 0.219939 0.416782 0.142035
Si Si3 0.245966 0.560348 0.813604
Si Si4 0.591838 0.613710 0.166691
Si Si5 0.275780 0.067501 0.136506
Si Si6 0.081379 0.576982 0.265387
Si Si7 0.237556 0.030992 0.433251
O O1 0.936770 0.608949 0.322949
O O2 0.552371 0.458931 0.642010
O O3 0.995896 0.582689 0.536744
O O4 0.045405 0.840900 0.292001
O O5 0.341434 0.511596 0.181783
O O6 0.500000 0.500000 0.000000
O O7 0.151309 0.472770 0.013486
O O8 0.932761 0.182476 0.362276
O O9 0.328232 0.475652 0.812315
O O10 0.512362 0.795223 0.637015
O O11 0.038073 0.497631 0.791700
O O12 0.811288 0.844419 0.950056
O O13 0.321558 0.082416 0.254794
O O14 0.577123 0.212179 0.933575
O O15 0.000000 0.000000 0.500000
#
# Coordination Sequence:
#
# PCOD9076394 Si02
#       7
#     2   2   2   2   2   2   2
#     4  10  21  44  63  81 115 163 214 236 296 349
#     4  10  18  33  55  86 120 147 186 234 294 351
#     4  11  22  38  58  94 129 147 197 246 299 353
#     4  10  19  36  63  90 115 157 196 247 295 347
#     4  11  21  38  64  86 116 162 205 234 298 360
#     4  10  25  41  60  85 121 165 194 254 290 347
#     4  12  19  34  62  90 119 161 190 238 298 357
#
# _framework density 22.433762000000002
#
# number of rings (size 3 to 8) (size 9 to 14) (size 15 to 20)
#    0.000    1.429    5.714    1.286    0.000    2.286 
#    0.000    2.143    0.000    0.000    0.000    0.000 
#    0.000    0.000    0.000    0.000    0.000    0.000 
#
# Total GULP energy -78181.891794 kJ/mol
# GULP energy per Si atom -5584.420842 kJ/mol
# Density = 2.238270 g / cm^3
# Si number density = 22.433762 Si / 1000 Ang^3
#
#
#
# Elastic Constant Matrix: (Units=GPa)
#
#
# Indices 1 2 3 4 5 6 
#
# 1 50.1324 4.8645 10.3629 1.4776 9.9641 -2.0291
# 2 4.8645 89.4572 36.2492 9.5268 5.7427 -16.4837
# 3 10.3629 36.2492 123.5790 -12.7631 8.8193 -5.2742
# 4 1.4776 9.5268 -12.7631 54.2184 -13.3571 2.3752
# 5 9.9641 5.7427 8.8193 -13.3571 23.3227 9.3308
# 6 -2.0291 -16.4837 -5.2742 2.3752 9.3308 37.8882
#
#
#
# Elastic Compliance Matrix: (Units=1/GPa)
#
#
# Indices 1 2 3 4 5 6 
#
# 1 0.023623 0.002179 -0.001820 -0.005564 -0.015586 0.006147
# 2 0.002179 0.016123 -0.004434 -0.007118 -0.011188 0.009715
# 3 -0.001820 -0.004434 0.009813 0.003287 0.000431 -0.000973
# 4 -0.005564 -0.007118 0.003287 0.026499 0.022078 -0.010035
# 5 -0.015586 -0.011188 0.000431 0.022078 0.074969 -0.025489
# 6 0.006147 0.009715 -0.000973 -0.010035 -0.025489 0.037720
#
#
# Mechanical properties :
#
#
# Convention : Reuss Voigt Hill
#
# Bulk Modulus (GPa) = 24.15020 40.68021 32.41520
# Shear Modulus (GPa) = 23.73041 37.19866 30.46454
#
# Velocity S-wave (km/s) = 3.25591 4.07646 3.68907
# Velocity P-wave (km/s) = 4.99230 6.35056 5.71195
#
# Compressibility (1/GPa) = 0.04140752
#
# Stress axis : x y z
#
# Youngs Moduli (GPa) = 42.33227 62.02210 101.91041
#
# Poissons Ratio (x) = -0.13513 0.18548
# Poissons Ratio (y) = -0.09223 0.45189
# Poissons Ratio (z) = 0.07704 0.27502
#
# Static dielectric constant tensor:
#      x y z
#    x 1.894150 -0.041710 -0.074500 
#    y -0.041710 1.782940 0.138150 
#    z -0.074500 0.138150 1.579330 
# 
# From -- ./inp_files/397051.got.cif
#   From: 2010.05.17/outbox.cif.g08.bks.cpg/sg2_199_cif.got.tgz:397051.got - 2010.06.03 11:33:40.
