data_PCOD9076688
_publ_section_title
;
Structure prediction by ZEFSAII (Michael W. Deem and Ramdas Pophale) SiO2 
 PCOD9076688
Probable space group: P -1
;
_chemical_formula_sum "Si O2"
_cell_formula_units_Z 16
_cell_length_a 16.218931
_cell_length_b 15.017760
_cell_length_c 9.243233
_cell_angle_alpha 144.896250
_cell_angle_beta 36.805265
_cell_angle_gamma 135.217616
_cell_volume 765.786053
_symmetry_space_group_name_H-M "P -1"
_symmetry_group_IT_number 2
_symmetry_cell_setting 'triclinic'
loop_
_space_group_symop_operation_xyz
x,y,z
-x,-y,-z
loop_
_atom_site_type_symbol
_atom_site_label
_atom_site_fract_x
_atom_site_fract_y
_atom_site_fract_z
Si Si1 0.040022 0.747537 0.218350
Si Si2 0.785606 0.167428 0.635260
Si Si3 0.840275 0.769502 0.291960
Si Si4 0.177274 0.469846 0.563405
Si Si5 0.031117 0.338122 0.313798
Si Si6 0.506002 0.458550 0.769635
Si Si7 0.602609 0.894246 0.642973
Si Si8 0.639617 0.455328 0.173742
O O1 0.135674 0.836623 0.326867
O O2 0.950284 0.829061 0.339692
O O3 0.926912 0.633329 0.318935
O O4 0.131429 0.641207 0.857450
O O5 0.899074 0.236669 0.446821
O O6 0.692627 0.997214 0.529069
O O7 0.681183 0.294947 0.957511
O O8 0.708179 0.854440 0.566240
O O9 0.772344 0.590081 0.186847
O O10 0.914462 0.761423 0.022371
O O11 0.333360 0.483273 0.418348
O O12 0.147316 0.391366 0.344200
O O13 0.000000 0.500000 0.500000
O O14 0.468452 0.273501 0.541866
O O15 0.400107 0.544093 0.939184
O O16 0.500000 0.500000 0.000000
O O17 0.500000 0.000000 0.000000
O O18 0.500000 0.500000 0.500000
#
# Coordination Sequence:
#
# PCOD9076688 Si02
#       8
#     2   2   2   2   2   2   2   2
#     4  10  19  33  60  93 118 155 212 270 308 369
#     4  11  23  39  61  91 130 167 213 266 330 378
#     4  11  21  37  62  92 123 167 219 257 320 386
#     4  10  18  33  58  92 123 150 210 271 310 359
#     4  11  20  37  64  94 126 165 208 268 325 381
#     4  11  24  40  66  92 124 171 221 264 308 384
#     4  11  25  44  63  93 138 176 208 265 333 386
#     4  11  20  36  62  90 125 175 219 259 311 387
#
# _framework density 20.893564000000001
#
# number of rings (size 3 to 8) (size 9 to 14) (size 15 to 20)
#    0.000    1.250    2.500    6.750    0.000    1.000 
#    0.000    0.625    0.000    6.000    0.000    0.000 
#    0.000    0.000    0.000    0.000    0.000    0.000 
#
# Total GULP energy -89404.190819 kJ/mol
# GULP energy per Si atom -5587.761926 kJ/mol
# Density = 2.084601 g / cm^3
# Si number density = 20.893564 Si / 1000 Ang^3
#
#
#
# Elastic Constant Matrix: (Units=GPa)
#
#
# Indices 1 2 3 4 5 6 
#
# 1 144.5829 16.0128 38.0334 6.0489 2.6335 -0.8278
# 2 16.0128 85.1261 2.0410 3.1016 9.9333 14.1296
# 3 38.0334 2.0410 70.2564 -3.3825 -1.3967 -0.8585
# 4 6.0489 3.1016 -3.3825 26.5358 -8.0870 -2.4636
# 5 2.6335 9.9333 -1.3967 -8.0870 28.3247 -7.6038
# 6 -0.8278 14.1296 -0.8585 -2.4636 -7.6038 24.3625
#
#
#
# Elastic Compliance Matrix: (Units=1/GPa)
#
#
# Indices 1 2 3 4 5 6 
#
# 1 0.008427 -0.001241 -0.004683 -0.002764 -0.001329 0.000147
# 2 -0.001241 0.015612 -0.000442 -0.006040 -0.010605 -0.013033
# 3 -0.004683 -0.000442 0.017091 0.004509 0.003308 0.002188
# 4 -0.002764 -0.006040 0.004509 0.047018 0.019925 0.014542
# 5 -0.001329 -0.010605 0.003308 0.019925 0.051528 0.024319
# 6 0.000147 -0.013033 0.002188 0.014542 0.024319 0.057748
#
#
# Mechanical properties :
#
#
# Convention : Reuss Voigt Hill
#
# Bulk Modulus (GPa) = 35.21647 45.79331 40.50489
# Shear Modulus (GPa) = 22.76611 32.10315 27.43463
#
# Velocity S-wave (km/s) = 3.30452 3.92409 3.62756
# Velocity P-wave (km/s) = 5.60817 6.51892 6.08062
#
# Compressibility (1/GPa) = 0.02839581
#
# Stress axis : x y z
#
# Youngs Moduli (GPa) = 118.67162 64.05231 58.50896
#
# Poissons Ratio (x) = 0.07952 0.27402
# Poissons Ratio (y) = 0.14733 0.02588
# Poissons Ratio (z) = 0.55578 0.02833
#
# Static dielectric constant tensor:
#      x y z
#    x 1.752030 -0.010330 -0.002090 
#    y -0.010330 1.776140 -0.028650 
#    z -0.002090 -0.028650 1.772710 
# 
# From -- ./inp_files/314187.got.cif
#   From: 2010.05.17/outbox.cif.g08.bks.cpg/sg2_158_cif.got.tgz:314187.got - 2010.06.03 11:33:40.
