data_PCOD9076939
_publ_section_title
;
Structure prediction by ZEFSAII (Michael W. Deem and Ramdas Pophale) SiO2 
 PCOD9076939
Probable space group: P -1
;
_chemical_formula_sum "Si O2"
_cell_formula_units_Z 16
_cell_length_a 12.986712
_cell_length_b 10.190419
_cell_length_c 19.054612
_cell_angle_alpha 35.723327
_cell_angle_beta 139.790730
_cell_angle_gamma 127.223676
_cell_volume 949.756597
_symmetry_space_group_name_H-M "P -1"
_symmetry_group_IT_number 2
_symmetry_cell_setting 'triclinic'
loop_
_space_group_symop_operation_xyz
x,y,z
-x,-y,-z
loop_
_atom_site_type_symbol
_atom_site_label
_atom_site_fract_x
_atom_site_fract_y
_atom_site_fract_z
Si Si1 0.323081 0.278090 0.457322
Si Si2 0.910775 0.844830 0.270595
Si Si3 0.549569 0.651779 0.357609
Si Si4 0.464915 0.881539 0.607347
Si Si5 0.961832 0.712919 0.791442
Si Si6 0.774815 0.418921 0.463422
Si Si7 0.613824 0.106378 0.954964
Si Si8 0.757379 0.569941 0.880866
O O1 0.407181 0.502257 0.376872
O O2 0.352989 0.264314 0.561571
O O3 0.141406 0.291132 0.330584
O O4 0.407606 0.065721 0.553766
O O5 0.836140 0.646660 0.362477
O O6 0.072466 0.738496 0.367368
O O7 0.775573 0.951593 0.102753
O O8 0.960984 0.048675 0.258191
O O9 0.660863 0.488702 0.437905
O O10 0.478286 0.848437 0.185048
O O11 0.325747 0.712217 0.589975
O O12 0.627353 0.742494 0.771003
O O13 0.500000 0.000000 0.500000
O O14 0.840371 0.675485 0.809754
O O15 0.100655 0.520664 0.955530
O O16 0.665713 0.351758 0.901476
O O17 0.500000 0.000000 0.000000
#
# Coordination Sequence:
#
# PCOD9076939 Si02
#       8
#     2   2   2   2   2   2   2   2
#     4  11  22  36  56  81 116 147 179 225 282 328
#     4  10  21  30  59  84 108 138 187 234 269 310
#     4  11  22  37  55  83 113 148 181 223 280 333
#     4  12  17  33  57  82 104 142 189 229 266 318
#     4  10  18  34  50  83 109 140 177 230 273 321
#     4  11  19  35  54  86 108 138 191 227 268 325
#     4  11  18  35  57  83 108 144 184 231 270 323
#     4  10  19  29  56  82 106 132 190 231 265 311
#
# _framework density 16.846422
#
# number of rings (size 3 to 8) (size 9 to 14) (size 15 to 20)
#    0.000    1.250    7.500    0.000    0.000    0.000 
#    0.000    1.875    0.000    6.000    0.000    0.000 
#    0.000    0.000    0.000    0.000    0.000    0.000 
#
# Total GULP energy -89275.761668 kJ/mol
# GULP energy per Si atom -5579.735104 kJ/mol
# Density = 1.680808 g / cm^3
# Si number density = 16.846422 Si / 1000 Ang^3
#
#
#
# Elastic Constant Matrix: (Units=GPa)
#
#
# Indices 1 2 3 4 5 6 
#
# 1 28.5293 17.5317 30.4579 11.6651 1.3430 3.8915
# 2 17.5317 90.6874 44.5850 14.1621 -11.3111 3.7661
# 3 30.4579 44.5850 141.2835 27.1628 15.4945 -7.9464
# 4 11.6651 14.1621 27.1628 34.5713 4.3720 -6.0200
# 5 1.3430 -11.3111 15.4945 4.3720 31.6029 -3.7224
# 6 3.8915 3.7661 -7.9464 -6.0200 -3.7224 31.1544
#
#
#
# Elastic Compliance Matrix: (Units=1/GPa)
#
#
# Indices 1 2 3 4 5 6 
#
# 1 0.052577 -0.003506 -0.008751 -0.011391 0.001147 -0.010440
# 2 -0.003506 0.015528 -0.004584 -0.002988 0.008106 -0.002217
# 3 -0.008751 -0.004584 0.011889 -0.003139 -0.006272 0.003324
# 4 -0.011391 -0.002988 -0.003139 0.038279 -0.003403 0.007973
# 5 0.001147 0.008106 -0.006272 -0.003403 0.038180 0.001181
# 6 -0.010440 -0.002217 0.003324 0.007973 0.001181 0.036200
#
#
# Mechanical properties :
#
#
# Convention : Reuss Voigt Hill
#
# Bulk Modulus (GPa) = 21.59261 49.51663 35.55462
# Shear Modulus (GPa) = 20.68075 30.66076 25.67076
#
# Velocity S-wave (km/s) = 3.50752 4.27079 3.90784
# Velocity P-wave (km/s) = 5.40821 7.33324 6.44302
#
# Compressibility (1/GPa) = 0.04631214
#
# Stress axis : x y z
#
# Youngs Moduli (GPa) = 19.01990 64.40051 84.10983
#
# Poissons Ratio (x) = 0.22581 0.73604
# Poissons Ratio (y) = 0.06669 0.38552
# Poissons Ratio (z) = 0.16644 0.29518
#
# Static dielectric constant tensor:
#      x y z
#    x 1.559100 0.033400 0.020120 
#    y 0.033400 1.563590 0.002710 
#    z 0.020120 0.002710 1.598250 
# 
# From -- ./inp_files/415604.got.cif
#   From: 2010.05.17/outbox.cif.g08.bks.cpg/sg2_208_cif.got.tgz:415604.got - 2010.06.03 11:33:40.
