data_PCOD9076501
_publ_section_title
;
Structure prediction by ZEFSAII (Michael W. Deem and Ramdas Pophale) SiO2 
 PCOD9076501
Probable space group: P -1
;
_chemical_formula_sum "Si O2"
_cell_formula_units_Z 16
_cell_length_a 9.379119
_cell_length_b 26.068982
_cell_length_c 24.838700
_cell_angle_alpha 11.387975
_cell_angle_beta 139.998838
_cell_angle_gamma 141.052318
_cell_volume 753.480886
_symmetry_space_group_name_H-M "P -1"
_symmetry_group_IT_number 2
_symmetry_cell_setting 'triclinic'
loop_
_space_group_symop_operation_xyz
x,y,z
-x,-y,-z
loop_
_atom_site_type_symbol
_atom_site_label
_atom_site_fract_x
_atom_site_fract_y
_atom_site_fract_z
Si Si1 0.760324 0.401202 0.360060
Si Si2 0.704446 0.328625 0.900566
Si Si3 0.111502 0.752490 0.846232
Si Si4 0.669589 0.873760 0.275901
Si Si5 0.145719 0.647641 0.342100
Si Si6 0.233372 0.360939 0.558704
Si Si7 0.259618 0.156858 0.014696
Si Si8 0.300115 0.338227 0.251995
O O1 0.696303 0.603628 0.176555
O O2 0.571702 0.387017 0.274031
O O3 0.029760 0.471622 0.355633
O O4 0.721255 0.112568 0.673555
O O5 0.734371 0.623100 0.582814
O O6 0.441320 0.228926 0.945731
O O7 0.842889 0.308792 0.015765
O O8 0.749432 0.129524 0.072287
O O9 0.849150 0.690117 0.816062
O O10 0.215879 0.060423 0.545616
O O11 0.230895 0.569996 0.029557
O O12 0.395993 0.804436 0.266452
O O13 0.749582 0.878047 0.232197
O O14 0.158925 0.419059 0.537760
O O15 0.000000 0.500000 0.500000
O O16 0.996780 0.850991 0.068922
O O17 0.500000 0.500000 0.500000
#
# Coordination Sequence:
#
# PCOD9076501 Si02
#       8
#     2   2   2   2   2   2   2   2
#     4  11  20  38  62  83 120 156 198 241 300 351
#     4  12  21  37  59  83 122 151 202 236 303 351
#     4  10  20  32  55  90 125 147 187 250 303 356
#     4  11  25  39  58  81 121 163 195 241 296 357
#     4  10  21  39  61  86 114 149 199 252 291 342
#     4   9  23  43  59  86 121 160 203 242 295 350
#     4  11  22  34  58  91 115 150 196 253 288 344
#     4  10  18  33  56  89 123 151 185 245 314 345
#
# _framework density 21.234779
#
# number of rings (size 3 to 8) (size 9 to 14) (size 15 to 20)
#    0.000    1.500    3.750    1.500    1.750    5.500 
#    0.000    6.250    0.000    1.500    0.000    0.000 
#    0.000    0.000    0.000    0.000    0.000    0.000 
#
# Total GULP energy -89268.267694 kJ/mol
# GULP energy per Si atom -5579.266731 kJ/mol
# Density = 2.118645 g / cm^3
# Si number density = 21.234779 Si / 1000 Ang^3
#
#
#
# Elastic Constant Matrix: (Units=GPa)
#
#
# Indices 1 2 3 4 5 6 
#
# 1 120.5954 24.2409 21.6650 6.3705 18.3242 -5.3249
# 2 24.2409 166.5398 17.3505 7.3999 4.0144 7.5561
# 3 21.6650 17.3505 127.1234 -14.0779 5.9303 -3.2247
# 4 6.3705 7.3999 -14.0779 40.2660 1.3097 8.5358
# 5 18.3242 4.0144 5.9303 1.3097 33.1193 -0.9274
# 6 -5.3249 7.5561 -3.2247 8.5358 -0.9274 20.7372
#
#
#
# Elastic Compliance Matrix: (Units=1/GPa)
#
#
# Indices 1 2 3 4 5 6 
#
# 1 0.009816 -0.001212 -0.001462 -0.002430 -0.004827 0.003519
# 2 -0.001212 0.006411 -0.000814 -0.000748 0.000000 -0.002466
# 3 -0.001462 -0.000814 0.008642 0.003470 -0.000783 -0.000198
# 4 -0.002430 -0.000748 0.003470 0.029097 -0.000668 -0.011819
# 5 -0.004827 0.000000 -0.000783 -0.000668 0.033042 0.000391
# 6 0.003519 -0.002466 -0.000198 -0.011819 0.000391 0.054876
#
#
# Mechanical properties :
#
#
# Convention : Reuss Voigt Hill
#
# Bulk Modulus (GPa) = 55.88621 60.08570 57.98596
# Shear Modulus (GPa) = 32.29465 42.22464 37.25965
#
# Velocity S-wave (km/s) = 3.90402 4.46406 4.19340
# Velocity P-wave (km/s) = 6.83354 7.41133 7.12829
#
# Compressibility (1/GPa) = 0.01789350
#
# Stress axis : x y z
#
# Youngs Moduli (GPa) = 101.87723 155.98517 115.70869
#
# Poissons Ratio (x) = 0.18901 0.16918
# Poissons Ratio (y) = 0.12345 0.09417
# Poissons Ratio (z) = 0.14896 0.12695
#
# Static dielectric constant tensor:
#      x y z
#    x 1.235580 0.128650 0.600810 
#    y 0.128650 1.799910 -0.106890 
#    z 0.600810 -0.106890 1.045700 
# 
# From -- ./inp_files/617685.got.cif
#   From: 2010.05.17/outbox.cif.g08.bks.cpg/sg2_309_cif.got.tgz:617685.got - 2010.06.03 11:33:40.
