data_PCOD9076256
_publ_section_title
;
Structure prediction by ZEFSAII (Michael W. Deem and Ramdas Pophale) SiO2 
 PCOD9076256
Probable space group: P -1
;
_chemical_formula_sum "Si O2"
_cell_formula_units_Z 16
_cell_length_a 5.698744
_cell_length_b 10.220197
_cell_length_c 12.339062
_cell_angle_alpha 86.979160
_cell_angle_beta 76.613300
_cell_angle_gamma 92.935925
_cell_volume 696.668302
_symmetry_space_group_name_H-M "P -1"
_symmetry_group_IT_number 2
_symmetry_cell_setting 'triclinic'
loop_
_space_group_symop_operation_xyz
x,y,z
-x,-y,-z
loop_
_atom_site_type_symbol
_atom_site_label
_atom_site_fract_x
_atom_site_fract_y
_atom_site_fract_z
Si Si1 0.103363 0.526063 0.713764
Si Si2 0.410750 0.799092 0.106628
Si Si3 0.664112 0.386671 0.524300
Si Si4 0.250716 0.883369 0.468120
Si Si5 0.044517 0.221965 0.688805
Si Si6 0.575062 0.468782 0.773725
Si Si7 0.315861 0.978645 0.684231
Si Si8 0.235144 0.939498 0.925490
O O1 0.126126 0.596290 0.590419
O O2 0.344466 0.551667 0.762521
O O3 0.128758 0.371119 0.694150
O O4 0.830345 0.538586 0.787246
O O5 0.188592 0.810130 0.211080
O O6 0.502189 0.656746 0.135623
O O7 0.577076 0.932498 0.097041
O O8 0.312194 0.818561 0.995188
O O9 0.500000 0.500000 0.500000
O O10 0.573795 0.235700 0.525111
O O11 0.675742 0.411953 0.650562
O O12 0.039918 0.812818 0.422518
O O13 0.403728 0.997879 0.381955
O O14 0.181281 0.930452 0.591296
O O15 0.234417 0.122972 0.711611
O O16 0.235268 0.897400 0.801608
O O17 0.000000 0.000000 0.000000
#
# Coordination Sequence:
#
# PCOD9076256 Si02
#       8
#     2   2   2   2   2   2   2   2
#     4  10  20  30  56  79 117 138 187 233 286 327
#     4  10  20  31  52  78 108 144 189 241 280 323
#     4  10  18  33  53  82 113 147 185 238 283 340
#     4  11  22  36  54  78 122 150 184 227 288 360
#     4  11  19  34  54  79 117 146 188 230 286 351
#     4  10  19  32  50  79 113 139 174 235 284 341
#     4  11  22  36  53  80 114 160 184 225 287 350
#     4  11  20  33  53  76 107 146 198 238 270 328
#
# _framework density 22.966453000000001
#
# number of rings (size 3 to 8) (size 9 to 14) (size 15 to 20)
#    0.000    1.500    5.000    3.000    1.750    0.000 
#    0.000    0.000    0.000    0.000    0.000    7.000 
#    0.000    0.125    0.000    0.000    0.000    0.000 
#
# Total GULP energy -89137.301263 kJ/mol
# GULP energy per Si atom -5571.081329 kJ/mol
# Density = 2.291418 g / cm^3
# Si number density = 22.966453 Si / 1000 Ang^3
#
#
#
# Elastic Constant Matrix: (Units=GPa)
#
#
# Indices 1 2 3 4 5 6 
#
# 1 88.1621 5.7684 27.8455 -10.5085 1.1580 6.4052
# 2 5.7684 25.7105 11.7739 -17.7498 -5.6016 -4.0802
# 3 27.8455 11.7739 143.5298 -30.0827 16.6936 -4.0984
# 4 -10.5085 -17.7498 -30.0827 35.0792 0.6813 -0.7866
# 5 1.1580 -5.6016 16.6936 0.6813 30.1337 -11.7691
# 6 6.4052 -4.0802 -4.0984 -0.7866 -11.7691 23.1208
#
#
#
# Elastic Compliance Matrix: (Units=1/GPa)
#
#
# Indices 1 2 3 4 5 6 
#
# 1 0.012648 -0.002818 -0.002031 0.000540 -0.001988 -0.005355
# 2 -0.002818 0.074655 0.000272 0.037317 0.023660 0.027317
# 3 -0.002031 0.000272 0.009619 0.007880 -0.005453 -0.000192
# 4 0.000540 0.037317 0.007880 0.054475 0.006368 0.012928
# 5 -0.001988 0.023660 -0.005453 0.006368 0.052534 0.030718
# 6 -0.005355 0.027317 -0.000192 0.012928 0.030718 0.065597
#
#
# Mechanical properties :
#
#
# Convention : Reuss Voigt Hill
#
# Bulk Modulus (GPa) = 11.39363 38.68644 25.04004
# Shear Modulus (GPa) = 16.23701 31.80105 24.01903
#
# Velocity S-wave (km/s) = 2.66181 3.72516 3.23744
# Velocity P-wave (km/s) = 3.79720 5.94842 4.99011
#
# Compressibility (1/GPa) = 0.08776832
#
# Stress axis : x y z
#
# Youngs Moduli (GPa) = 79.06291 13.39497 103.95755
#
# Poissons Ratio (x) = 0.03775 0.21116
# Poissons Ratio (y) = 0.22280 -0.02829
# Poissons Ratio (z) = 0.16059 -0.00365
#
# Static dielectric constant tensor:
#      x y z
#    x 2.050410 0.020130 0.009470 
#    y 0.020130 1.871280 -0.035110 
#    z 0.009470 -0.035110 1.955000 
# 
# From -- ./inp_files/108925.got.cif
#   From: 2010.05.17/outbox.cif.g08.bks.cpg/sg2_55_cif.got.tgz:108925.got - 2010.06.03 11:33:40.
