data_PCOD9076913
_publ_section_title
;
Structure prediction by ZEFSAII (Michael W. Deem and Ramdas Pophale) SiO2 
 PCOD9076913
Probable space group: P -1
;
_chemical_formula_sum "Si O2"
_cell_formula_units_Z 16
_cell_length_a 11.605745
_cell_length_b 23.404234
_cell_length_c 8.804552
_cell_angle_alpha 51.671289
_cell_angle_beta 74.224031
_cell_angle_gamma 30.953924
_cell_volume 737.962874
_symmetry_space_group_name_H-M "P -1"
_symmetry_group_IT_number 2
_symmetry_cell_setting 'triclinic'
loop_
_space_group_symop_operation_xyz
x,y,z
-x,-y,-z
loop_
_atom_site_type_symbol
_atom_site_label
_atom_site_fract_x
_atom_site_fract_y
_atom_site_fract_z
Si Si1 0.330620 0.307235 0.754287
Si Si2 0.463766 0.953757 0.842043
Si Si3 0.977821 0.177489 0.405026
Si Si4 0.596788 0.263686 0.509278
Si Si5 0.759516 0.600815 0.037290
Si Si6 0.033355 0.657585 0.938722
Si Si7 0.296678 0.910918 0.481976
Si Si8 0.792503 0.756744 0.528066
O O1 0.516809 0.271320 0.685025
O O2 0.305187 0.315693 0.930316
O O3 0.000000 0.500000 0.500000
O O4 0.475501 0.151205 0.907101
O O5 0.780046 0.803438 0.914938
O O6 0.263396 0.041245 0.625577
O O7 0.303607 0.111478 0.714483
O O8 0.788106 0.229997 0.492382
O O9 0.843567 0.329624 0.154998
O O10 0.055556 0.087433 0.375279
O O11 0.755287 0.112092 0.604618
O O12 0.287576 0.460071 0.219108
O O13 0.908596 0.445179 0.305626
O O14 0.461484 0.764635 0.781256
O O15 0.000000 0.500000 0.000000
O O16 0.871912 0.724131 0.731507
O O17 0.533201 0.842084 0.467613
#
# Coordination Sequence:
#
# PCOD9076913 Si02
#       8
#     2   2   2   2   2   2   2   2
#     4  12  23  39  60  90 126 159 200 253 303 361
#     4  11  20  38  63  87 121 159 206 248 299 355
#     4  11  22  39  63  92 122 161 205 252 294 361
#     4  12  26  37  60  94 131 158 194 252 316 352
#     4  10  19  35  61  88 115 153 206 248 290 354
#     4  11  19  39  63  91 120 155 210 252 297 352
#     4  11  19  38  60  92 119 156 208 246 292 358
#     4  10  18  33  64  91 110 151 210 256 285 346
#
# _framework density 21.681307
#
# number of rings (size 3 to 8) (size 9 to 14) (size 15 to 20)
#    0.000    1.000    6.250    3.750    0.000    0.500 
#    0.000    3.750    0.000    3.000    0.000    0.000 
#    0.000    0.000    0.000    0.000    0.000    0.000 
#
# Total GULP energy -89321.558572 kJ/mol
# GULP energy per Si atom -5582.597411 kJ/mol
# Density = 2.163196 g / cm^3
# Si number density = 21.681307 Si / 1000 Ang^3
#
#
#
# Elastic Constant Matrix: (Units=GPa)
#
#
# Indices 1 2 3 4 5 6 
#
# 1 91.8197 32.5156 18.6800 0.3094 -34.0579 -9.3679
# 2 32.5156 51.5915 11.0616 8.6220 -13.6137 -6.6296
# 3 18.6800 11.0616 68.9945 -5.7545 -35.0987 4.7671
# 4 0.3094 8.6220 -5.7545 23.8286 6.7248 -11.7989
# 5 -34.0579 -13.6137 -35.0987 6.7248 41.3758 -0.2785
# 6 -9.3679 -6.6296 4.7671 -11.7989 -0.2785 29.3328
#
#
#
# Elastic Compliance Matrix: (Units=1/GPa)
#
#
# Indices 1 2 3 4 5 6 
#
# 1 0.019809 -0.008582 0.004555 0.001233 0.017174 0.004305
# 2 -0.008582 0.027588 -0.001820 -0.011330 0.002305 -0.000745
# 3 0.004555 -0.001820 0.027126 -0.002340 0.026514 -0.004055
# 4 0.001233 -0.011330 -0.002340 0.060686 -0.014410 0.022487
# 5 0.017174 0.002305 0.026514 -0.014410 0.063874 -0.003493
# 6 0.004305 -0.000745 -0.004055 0.022487 -0.003493 0.044969
#
#
# Mechanical properties :
#
#
# Convention : Reuss Voigt Hill
#
# Bulk Modulus (GPa) = 15.91664 37.43557 26.67610
# Shear Modulus (GPa) = 18.07082 28.91733 23.49407
#
# Velocity S-wave (km/s) = 2.89013 3.65601 3.29539
# Velocity P-wave (km/s) = 4.30049 5.92669 5.17783
#
# Compressibility (1/GPa) = 0.06282733
#
# Stress axis : x y z
#
# Youngs Moduli (GPa) = 50.48308 36.24735 36.86563
#
# Poissons Ratio (x) = 0.31108 -0.16792
# Poissons Ratio (y) = 0.43325 0.06710
# Poissons Ratio (z) = -0.22994 0.06598
#
# Static dielectric constant tensor:
#      x y z
#    x 1.837040 0.022840 -0.033950 
#    y 0.022840 1.802370 -0.021520 
#    z -0.033950 -0.021520 1.837020 
# 
# From -- ./inp_files/284729.got.cif
#   From: 2010.05.17/outbox.cif.g08.bks.cpg/sg2_143_cif.got.tgz:284729.got - 2010.06.03 11:33:40.
