data_PCOD9076678
_publ_section_title
;
Structure prediction by ZEFSAII (Michael W. Deem and Ramdas Pophale) SiO2 
 PCOD9076678
Probable space group: P -1
;
_chemical_formula_sum "Si O2"
_cell_formula_units_Z 16
_cell_length_a 9.590154
_cell_length_b 12.009604
_cell_length_c 13.086291
_cell_angle_alpha 141.956418
_cell_angle_beta 54.880522
_cell_angle_gamma 122.030008
_cell_volume 750.751651
_symmetry_space_group_name_H-M "P -1"
_symmetry_group_IT_number 2
_symmetry_cell_setting 'triclinic'
loop_
_space_group_symop_operation_xyz
x,y,z
-x,-y,-z
loop_
_atom_site_type_symbol
_atom_site_label
_atom_site_fract_x
_atom_site_fract_y
_atom_site_fract_z
Si Si1 0.466643 0.397535 0.047825
Si Si2 0.157734 0.912931 0.416020
Si Si3 0.836035 0.458589 0.966792
Si Si4 0.651485 0.058022 0.057231
Si Si5 0.868503 0.150694 0.384153
Si Si6 0.537689 0.035983 0.310545
Si Si7 0.853239 0.723024 0.789566
Si Si8 0.992794 0.777686 0.991592
O O1 0.640085 0.463053 0.087395
O O2 0.446057 0.181355 0.868016
O O3 0.500000 0.500000 0.000000
O O4 0.299291 0.424152 0.204494
O O5 0.174887 0.746567 0.214673
O O6 0.128789 0.832811 0.483954
O O7 0.342251 0.043339 0.431599
O O8 0.000000 0.000000 0.500000
O O9 0.881936 0.599860 0.956816
O O10 0.000000 0.500000 0.000000
O O11 0.804671 0.209187 0.060827
O O12 0.578013 0.114305 0.236676
O O13 0.500000 0.000000 0.000000
O O14 0.749018 0.883869 0.912337
O O15 0.012070 0.296019 0.371380
O O16 0.680270 0.131122 0.397940
O O17 0.925271 0.952777 0.194253
O O18 0.968903 0.784772 0.884976
#
# Coordination Sequence:
#
# PCOD9076678 Si02
#       8
#     2   2   2   2   2   2   2   2
#     4  10  18  33  58  90 118 147 193 248 292 348
#     4  11  26  40  58  85 122 161 200 243 301 357
#     4  11  24  39  59  87 121 157 199 245 301 351
#     4  10  20  31  59  95 121 149 200 246 291 349
#     4  11  19  39  62  88 119 153 196 247 298 358
#     4  10  20  36  58  87 116 154 202 236 293 359
#     4  10  19  34  59  92 118 149 198 243 298 349
#     4  11  19  37  65  89 118 153 198 253 293 348
#
# _framework density 21.311976000000001
#
# number of rings (size 3 to 8) (size 9 to 14) (size 15 to 20)
#    0.000    1.500    5.000    1.875    8.750    0.000 
#    0.000    0.625    0.000    1.500    0.000    0.000 
#    0.000    0.000    0.000    0.000    0.000    0.000 
#
# Total GULP energy -89303.443094 kJ/mol
# GULP energy per Si atom -5581.465193 kJ/mol
# Density = 2.126347 g / cm^3
# Si number density = 21.311976 Si / 1000 Ang^3
#
#
#
# Elastic Constant Matrix: (Units=GPa)
#
#
# Indices 1 2 3 4 5 6 
#
# 1 175.0091 44.3592 31.5300 -29.3476 8.6536 35.6694
# 2 44.3592 89.3042 7.3547 -20.1232 -16.9324 31.0156
# 3 31.5300 7.3547 23.6337 -20.6654 0.9712 11.7995
# 4 -29.3476 -20.1232 -20.6654 32.1197 0.6301 -12.9381
# 5 8.6536 -16.9324 0.9712 0.6301 27.3930 -7.4647
# 6 35.6694 31.0156 11.7995 -12.9381 -7.4647 38.3592
#
#
#
# Elastic Compliance Matrix: (Units=1/GPa)
#
#
# Indices 1 2 3 4 5 6 
#
# 1 0.009532 -0.004213 -0.011742 -0.003002 -0.006240 -0.004073
# 2 -0.004213 0.021612 0.019381 0.017254 0.010426 -0.011670
# 3 -0.011742 0.019381 0.126729 0.075929 0.004763 -0.017197
# 4 -0.003002 0.017254 0.075929 0.086198 0.005762 -0.004320
# 5 -0.006240 0.010426 0.004763 0.005762 0.046500 0.006900
# 6 -0.004073 -0.011670 -0.017197 -0.004320 0.006900 0.044468
#
#
# Mechanical properties :
#
#
# Convention : Reuss Voigt Hill
#
# Bulk Modulus (GPa) = 6.07075 50.49276 28.28176
# Shear Modulus (GPa) = 13.05152 33.22124 23.13638
#
# Velocity S-wave (km/s) = 2.47736 3.95246 3.29843
# Velocity P-wave (km/s) = 3.32232 6.67629 5.27307
#
# Compressibility (1/GPa) = 0.16472427
#
# Stress axis : x y z
#
# Youngs Moduli (GPa) = 104.90483 46.27036 7.89086
#
# Poissons Ratio (x) = 0.19495 0.09265
# Poissons Ratio (y) = 0.44199 -0.15293
# Poissons Ratio (z) = 1.23178 -0.89674
#
# Static dielectric constant tensor:
#      x y z
#    x 1.827650 0.014030 -0.039750 
#    y 0.014030 1.848600 -0.027520 
#    z -0.039750 -0.027520 1.778010 
# 
# From -- ./inp_files/259972.got.cif
#   From: 2010.05.17/outbox.cif.g08.bks.cpg/sg2_130_cif.got.tgz:259972.got - 2010.06.03 11:33:40.
