data_PCOD9076392
_publ_section_title
;
Structure prediction by ZEFSAII (Michael W. Deem and Ramdas Pophale) SiO2 
 PCOD9076392
Probable space group: P -1
;
_chemical_formula_sum "Si O2"
_cell_formula_units_Z 14
_cell_length_a 9.715967
_cell_length_b 15.175711
_cell_length_c 7.248626
_cell_angle_alpha 84.670982
_cell_angle_beta 131.317396
_cell_angle_gamma 63.932958
_cell_volume 593.622966
_symmetry_space_group_name_H-M "P -1"
_symmetry_group_IT_number 2
_symmetry_cell_setting 'triclinic'
loop_
_space_group_symop_operation_xyz
x,y,z
-x,-y,-z
loop_
_atom_site_type_symbol
_atom_site_label
_atom_site_fract_x
_atom_site_fract_y
_atom_site_fract_z
Si Si1 0.583641 0.724430 0.805655
Si Si2 0.076219 0.108565 0.435440
Si Si3 0.737717 0.797607 0.622147
Si Si4 0.400303 0.859955 0.970187
Si Si5 0.995740 0.449758 0.241137
Si Si6 0.764197 0.305078 0.389189
Si Si7 0.314405 0.481889 0.682225
O O1 0.613751 0.801959 0.696989
O O2 0.589118 0.750027 0.020017
O O3 0.331852 0.748750 0.571761
O O4 0.794599 0.585517 0.967199
O O5 0.157892 0.138053 0.324394
O O6 0.826616 0.132262 0.183225
O O7 0.014294 0.198249 0.528869
O O8 0.280440 0.976678 0.720444
O O9 0.954080 0.656299 0.800624
O O10 0.538249 0.849048 0.273420
O O11 0.244875 0.426235 0.493498
O O12 0.881844 0.459728 0.335583
O O13 0.734059 0.404212 0.460168
O O14 0.574217 0.385067 0.033578
#
# Coordination Sequence:
#
# PCOD9076392 Si02
#       7
#     2   2   2   2   2   2   2
#     4  10  23  38  58  89 122 150 196 245 289 353
#     4  10  21  40  65  86 115 159 200 241 292 351
#     4  12  22  40  62  89 121 155 194 246 297 344
#     4  10  23  44  61  85 120 155 201 245 289 348
#     4  10  18  33  55  86 118 151 192 239 290 352
#     4   9  17  34  55  86 115 152 198 236 286 353
#     4   9  16  30  59  82 113 159 190 231 296 343
#
# _framework density 23.583993
#
# number of rings (size 3 to 8) (size 9 to 14) (size 15 to 20)
#    0.000    2.000    1.429    4.286    0.000    0.571 
#    2.571    7.143    0.000    0.000    0.000    0.000 
#    0.000    0.000    0.000    0.000    0.000    0.000 
#
# Total GULP energy -78213.824735 kJ/mol
# GULP energy per Si atom -5586.701767 kJ/mol
# Density = 2.353032 g / cm^3
# Si number density = 23.583993 Si / 1000 Ang^3
#
#
#
# Elastic Constant Matrix: (Units=GPa)
#
#
# Indices 1 2 3 4 5 6 
#
# 1 132.1107 19.1949 24.1580 -2.7564 -17.1688 42.3774
# 2 19.1949 64.3127 10.3543 -12.5132 0.8588 23.5439
# 3 24.1580 10.3543 52.1533 -9.2682 4.6433 -3.4113
# 4 -2.7564 -12.5132 -9.2682 30.8349 -0.2565 -0.6099
# 5 -17.1688 0.8588 4.6433 -0.2565 13.2534 -5.6938
# 6 42.3774 23.5439 -3.4113 -0.6099 -5.6938 39.6187
#
#
#
# Elastic Compliance Matrix: (Units=1/GPa)
#
#
# Indices 1 2 3 4 5 6 
#
# 1 0.018047 0.003315 -0.012154 -0.000925 0.018981 -0.019606
# 2 0.003315 0.023845 -0.005821 0.007831 -0.003021 -0.018530
# 3 -0.012154 -0.005821 0.029694 0.005647 -0.018603 0.016430
# 4 -0.000925 0.007831 0.005647 0.037123 -0.004354 -0.003233
# 5 0.018981 -0.003021 -0.018603 -0.004354 0.104450 -0.005165
# 6 -0.019606 -0.018530 0.016430 -0.003233 -0.005165 0.057846
#
#
# Mechanical properties :
#
#
# Convention : Reuss Voigt Hill
#
# Bulk Modulus (GPa) = 23.66020 39.55457 31.60739
# Shear Modulus (GPa) = 15.90255 29.73272 22.81763
#
# Velocity S-wave (km/s) = 2.59953 3.55451 3.11385
# Velocity P-wave (km/s) = 4.36626 5.80123 5.13412
#
# Compressibility (1/GPa) = 0.04226506
#
# Stress axis : x y z
#
# Youngs Moduli (GPa) = 55.41117 41.93831 33.67644
#
# Poissons Ratio (x) = -0.13901 0.40931
# Poissons Ratio (y) = -0.18367 0.19602
# Poissons Ratio (z) = 0.67348 0.24411
#
# Static dielectric constant tensor:
#      x y z
#    x 1.934300 0.040890 0.004370 
#    y 0.040890 1.953280 0.008330 
#    z 0.004370 0.008330 1.902400 
# 
# From -- ./inp_files/201024.got.cif
#   From: 2010.05.17/outbox.cif.g08.bks.cpg/sg2_101_cif.got.tgz:201024.got - 2010.06.03 11:33:40.
