data_PCOD9076772
_publ_section_title
;
Structure prediction by ZEFSAII (Michael W. Deem and Ramdas Pophale) SiO2 
 PCOD9076772
Probable space group: P -1
;
_chemical_formula_sum "Si O2"
_cell_formula_units_Z 16
_cell_length_a 14.286859
_cell_length_b 13.997092
_cell_length_c 9.259970
_cell_angle_alpha 82.074267
_cell_angle_beta 42.551216
_cell_angle_gamma 50.490481
_cell_volume 747.136734
_symmetry_space_group_name_H-M "P -1"
_symmetry_group_IT_number 2
_symmetry_cell_setting 'triclinic'
loop_
_space_group_symop_operation_xyz
x,y,z
-x,-y,-z
loop_
_atom_site_type_symbol
_atom_site_label
_atom_site_fract_x
_atom_site_fract_y
_atom_site_fract_z
Si Si1 0.657347 0.662801 0.273444
Si Si2 0.803855 0.041109 0.148548
Si Si3 0.577312 0.648010 0.911831
Si Si4 0.148551 0.012537 0.367160
Si Si5 0.756387 0.243132 0.962237
Si Si6 0.439338 0.461260 0.769606
Si Si7 0.083174 0.518685 0.693242
Si Si8 0.965136 0.227339 0.260021
O O1 0.409265 0.850041 0.525279
O O2 0.614238 0.575690 0.297832
O O3 0.770489 0.607080 0.314531
O O4 0.832788 0.611247 0.971514
O O5 0.728753 0.151913 0.077830
O O6 0.000000 0.000000 0.000000
O O7 0.896956 0.890531 0.009256
O O8 0.781841 0.567632 0.591972
O O9 0.419121 0.662501 0.992740
O O10 0.654515 0.544270 0.983450
O O11 0.408110 0.829339 0.115189
O O12 0.016074 0.118174 0.640639
O O13 0.094236 0.117452 0.279720
O O14 0.000000 0.000000 0.500000
O O15 0.675488 0.370326 0.136583
O O16 0.711653 0.321610 0.515204
O O17 0.060212 0.644789 0.726769
#
# Coordination Sequence:
#
# PCOD9076772 Si02
#       8
#     2   2   2   2   2   2   2   2
#     4  11  26  44  57  89 124 165 201 251 296 359
#     4  12  23  36  61  92 125 152 199 258 304 342
#     4  11  19  38  62  90 120 159 194 249 301 357
#     4  10  18  33  59  95 121 147 191 252 306 354
#     4  11  20  35  59  96 119 152 195 259 302 354
#     4  12  22  35  66  94 117 150 212 253 297 347
#     4  11  25  43  63  82 126 167 205 237 303 368
#     4  12  20  36  65  93 113 159 200 251 298 359
#
# _framework density 21.415089999999999
#
# number of rings (size 3 to 8) (size 9 to 14) (size 15 to 20)
#    0.000    0.750    8.750    1.125    1.750    2.000 
#    0.000    0.000    0.000    1.500    0.000    0.000 
#    0.000    0.000    0.000    0.000    0.000    0.000 
#
# Total GULP energy -89436.259271 kJ/mol
# GULP energy per Si atom -5589.766204 kJ/mol
# Density = 2.136635 g / cm^3
# Si number density = 21.415090 Si / 1000 Ang^3
#
#
#
# Elastic Constant Matrix: (Units=GPa)
#
#
# Indices 1 2 3 4 5 6 
#
# 1 32.4525 -8.9831 24.1794 -0.5912 -1.6720 2.5661
# 2 -8.9831 38.5295 32.1114 2.2743 -3.3824 -1.1216
# 3 24.1794 32.1114 187.9335 17.2417 2.5893 16.0129
# 4 -0.5912 2.2743 17.2417 28.6313 6.5809 8.7068
# 5 -1.6720 -3.3824 2.5893 6.5809 23.2135 3.3801
# 6 2.5661 -1.1216 16.0129 8.7068 3.3801 20.7455
#
#
#
# Elastic Compliance Matrix: (Units=1/GPa)
#
#
# Indices 1 2 3 4 5 6 
#
# 1 0.042707 0.017694 -0.008933 0.003507 0.005630 0.000180
# 2 0.017694 0.038850 -0.009498 -0.000583 0.007241 0.006308
# 3 -0.008933 -0.009498 0.008785 -0.002946 -0.001486 -0.004711
# 4 0.003507 -0.000583 -0.002946 0.043578 -0.009688 -0.014902
# 5 0.005630 0.007241 -0.001486 -0.009688 0.047872 -0.002892
# 6 0.000180 0.006308 -0.004711 -0.014902 -0.002892 0.058884
#
#
# Mechanical properties :
#
#
# Convention : Reuss Voigt Hill
#
# Bulk Modulus (GPa) = 11.25249 39.28121 25.26685
# Shear Modulus (GPa) = 18.39766 28.62525 23.51145
#
# Velocity S-wave (km/s) = 2.93422 3.66004 3.31704
# Velocity P-wave (km/s) = 4.09211 6.02028 5.14729
#
# Compressibility (1/GPa) = 0.08886926
#
# Stress axis : x y z
#
# Youngs Moduli (GPa) = 23.41511 25.74033 113.82456
#
# Poissons Ratio (x) = -0.45546 1.01676
# Poissons Ratio (y) = -0.41432 1.08115
# Poissons Ratio (z) = 0.20916 0.24449
#
# Static dielectric constant tensor:
#      x y z
#    x 1.805450 -0.070860 0.038490 
#    y -0.070860 1.809190 0.006160 
#    z 0.038490 0.006160 1.839330 
# 
# From -- ./inp_files/179129.got.cif
#   From: 2010.05.17/outbox.cif.g08.bks.cpg/sg2_90_cif.got.tgz:179129.got - 2010.06.03 11:33:40.
