data_PCOD9076131
_publ_section_title
;
Structure prediction by ZEFSAII (Michael W. Deem and Ramdas Pophale) SiO2 
 PCOD9076131
Probable space group: P -1
;
_chemical_formula_sum "Si O2"
_cell_formula_units_Z 16
_cell_length_a 11.856578
_cell_length_b 9.108603
_cell_length_c 19.189589
_cell_angle_alpha 30.399705
_cell_angle_beta 44.343952
_cell_angle_gamma 44.872778
_cell_volume 707.863696
_symmetry_space_group_name_H-M "P -1"
_symmetry_group_IT_number 2
_symmetry_cell_setting 'triclinic'
loop_
_space_group_symop_operation_xyz
x,y,z
-x,-y,-z
loop_
_atom_site_type_symbol
_atom_site_label
_atom_site_fract_x
_atom_site_fract_y
_atom_site_fract_z
Si Si1 0.371170 0.881198 0.813970
Si Si2 0.205207 0.613356 0.883007
Si Si3 0.352208 0.882410 0.212389
Si Si4 0.852711 0.247423 0.922999
Si Si5 0.661139 0.065225 0.955962
Si Si6 0.617110 0.224623 0.603656
Si Si7 0.991441 0.292272 0.195444
Si Si8 0.874554 0.456108 0.326930
O O1 0.549899 0.936517 0.730538
O O2 0.244656 0.215169 0.737263
O O3 0.337706 0.748058 0.809124
O O4 0.302700 0.694006 0.979550
O O5 0.278156 0.286836 0.949141
O O6 0.103474 0.811096 0.784816
O O7 0.069973 0.554735 0.022442
O O8 0.159695 0.051335 0.241529
O O9 0.481683 0.090681 0.060244
O O10 0.408648 0.707869 0.330234
O O11 0.351421 0.759692 0.183786
O O12 0.938162 0.512906 0.759440
O O13 0.786320 0.138513 0.926048
O O14 0.000000 0.000000 0.000000
O O15 0.500000 0.500000 0.500000
O O16 0.802782 0.224745 0.497613
O O17 0.869235 0.393354 0.272488
#
# Coordination Sequence:
#
# PCOD9076131 Si02
#       8
#     2   2   2   2   2   2   2   2
#     4  10  19  35  63  93 117 155 215 249 285 362
#     4  10  20  34  63  94 122 155 202 253 305 357
#     4  10  22  39  61  89 127 163 197 252 314 355
#     4  10  18  32  63  93 115 153 208 250 287 353
#     4  10  21  39  63  91 127 159 199 255 309 353
#     4  10  22  41  63  85 122 168 205 244 304 369
#     4  10  21  35  59  95 125 154 198 253 311 355
#     4  10  21  35  60  89 119 161 200 248 301 354
#
# _framework density 22.603221000000001
#
# number of rings (size 3 to 8) (size 9 to 14) (size 15 to 20)
#    0.000    2.000    2.500    1.500   10.500    0.500 
#    0.000    8.125    0.000    0.000    0.000    0.000 
#    0.000    0.000    0.000    0.000    0.000    0.000 
#
# Total GULP energy -89266.822647 kJ/mol
# GULP energy per Si atom -5579.176415 kJ/mol
# Density = 2.255178 g / cm^3
# Si number density = 22.603221 Si / 1000 Ang^3
#
#
#
# Elastic Constant Matrix: (Units=GPa)
#
#
# Indices 1 2 3 4 5 6 
#
# 1 165.1962 38.3363 74.7610 12.4226 3.8960 34.6649
# 2 38.3363 83.8508 34.3492 12.1753 3.4962 15.6821
# 3 74.7610 34.3492 123.6209 21.1175 -17.6115 17.1944
# 4 12.4226 12.1753 21.1175 16.2524 3.2680 10.7702
# 5 3.8960 3.4962 -17.6115 3.2680 55.0743 3.2434
# 6 34.6649 15.6821 17.1944 10.7702 3.2434 40.7728
#
#
#
# Elastic Compliance Matrix: (Units=1/GPa)
#
#
# Indices 1 2 3 4 5 6 
#
# 1 0.010351 -0.001690 -0.006348 0.006815 -0.002643 -0.007063
# 2 -0.001690 0.014723 -0.001974 -0.005790 -0.000998 -0.001785
# 3 -0.006348 -0.001974 0.016014 -0.018249 0.006560 0.003702
# 4 0.006815 -0.005790 -0.018249 0.100872 -0.010660 -0.021669
# 5 -0.002643 -0.000998 0.006560 -0.010660 0.021079 0.001004
# 6 -0.007063 -0.001785 0.003702 -0.021669 0.001004 0.035300
#
#
# Mechanical properties :
#
#
# Convention : Reuss Voigt Hill
#
# Bulk Modulus (GPa) = 47.47573 74.17343 60.82458
# Shear Modulus (GPa) = 22.18431 37.43468 29.80950
#
# Velocity S-wave (km/s) = 3.13624 4.07402 3.63549
# Velocity P-wave (km/s) = 5.84501 7.41733 6.67761
#
# Compressibility (1/GPa) = 0.02106339
#
# Stress axis : x y z
#
# Youngs Moduli (GPa) = 96.61315 67.91959 62.44537
#
# Poissons Ratio (x) = 0.11479 0.39643
# Poissons Ratio (y) = 0.16328 0.12325
# Poissons Ratio (z) = 0.61335 0.13405
#
# Static dielectric constant tensor:
#      x y z
#    x 1.562500 0.249710 -0.134740 
#    y 0.249710 1.654770 0.109070 
#    z -0.134740 0.109070 1.809290 
# 
# From -- ./inp_files/565121.got.cif
#   From: 2010.05.17/outbox.cif.g08.bks.cpg/sg2_283_cif.got.tgz:565121.got - 2010.06.03 11:33:40.
