data_PCOD9076578
_publ_section_title
;
Structure prediction by ZEFSAII (Michael W. Deem and Ramdas Pophale) SiO2 
 PCOD9076578
Probable space group: P -1
;
_chemical_formula_sum "Si O2"
_cell_formula_units_Z 16
_cell_length_a 7.745621
_cell_length_b 8.011947
_cell_length_c 17.348489
_cell_angle_alpha 127.225876
_cell_angle_beta 131.975680
_cell_angle_gamma 77.723067
_cell_volume 602.864529
_symmetry_space_group_name_H-M "P -1"
_symmetry_group_IT_number 2
_symmetry_cell_setting 'triclinic'
loop_
_space_group_symop_operation_xyz
x,y,z
-x,-y,-z
loop_
_atom_site_type_symbol
_atom_site_label
_atom_site_fract_x
_atom_site_fract_y
_atom_site_fract_z
Si Si1 0.748561 0.805044 0.391840
Si Si2 0.412403 0.050887 0.291751
Si Si3 0.198234 0.260684 0.856121
Si Si4 0.500894 0.975109 0.850651
Si Si5 0.981524 0.335701 0.133674
Si Si6 0.754998 0.803514 0.572485
Si Si7 0.899774 0.698385 0.001053
Si Si8 0.914772 0.385821 0.296465
O O1 0.680928 0.789052 0.457871
O O2 0.187713 0.411347 0.674055
O O3 0.534449 0.868406 0.303372
O O4 0.000000 0.000000 0.500000
O O5 0.431088 0.202680 0.414839
O O6 0.134356 0.918217 0.144932
O O7 0.524727 0.158577 0.274371
O O8 0.137909 0.472138 0.866698
O O9 0.951743 0.051440 0.711718
O O10 0.275289 0.294616 0.978890
O O11 0.403124 0.178969 0.855721
O O12 0.321913 0.829796 0.820245
O O13 0.771168 0.097799 0.996706
O O14 0.051234 0.373230 0.253605
O O15 0.167087 0.342402 0.120216
O O16 0.899439 0.632663 0.586732
O O17 0.000000 0.500000 0.000000
#
# Coordination Sequence:
#
# PCOD9076578 Si02
#       8
#     2   2   2   2   2   2   2   2
#     4  12  24  42  66  87 112 157 208 252 294 345
#     4  10  21  40  63  89 117 155 203 243 289 359
#     4   9  17  34  59  85 117 158 202 241 286 352
#     4  10  20  36  56  86 123 155 192 246 299 351
#     4  10  18  33  57  88 120 158 196 238 293 359
#     4  10  22  41  60  86 122 155 194 250 299 340
#     4   8  17  33  57  89 121 152 191 242 291 342
#     4  11  23  39  58  88 121 156 196 244 301 358
#
# _framework density 26.539959
#
# number of rings (size 3 to 8) (size 9 to 14) (size 15 to 20)
#    0.000    2.000    0.000    4.500    0.000    2.000 
#    0.000   20.000    0.000    0.000    0.000    0.000 
#    0.000    0.000    0.000    0.000    0.000    0.000 
#
# Total GULP energy -89548.601609 kJ/mol
# GULP energy per Si atom -5596.787601 kJ/mol
# Density = 2.647955 g / cm^3
# Si number density = 26.539959 Si / 1000 Ang^3
#
#
#
# Elastic Constant Matrix: (Units=GPa)
#
#
# Indices 1 2 3 4 5 6 
#
# 1 81.8427 40.6250 33.5769 -19.4841 -38.7838 4.1154
# 2 40.6250 133.8018 43.3335 -21.4939 -13.9705 -11.6719
# 3 33.5769 43.3335 84.2571 -9.3329 -23.0973 7.6714
# 4 -19.4841 -21.4939 -9.3329 54.6365 13.3175 -23.8557
# 5 -38.7838 -13.9705 -23.0973 13.3175 43.3472 -9.4271
# 6 4.1154 -11.6719 7.6714 -23.8557 -9.4271 51.9785
#
#
#
# Elastic Compliance Matrix: (Units=1/GPa)
#
#
# Indices 1 2 3 4 5 6 
#
# 1 0.025059 -0.004043 -0.002469 0.003301 0.019330 0.002494
# 2 -0.004043 0.011315 -0.004956 0.005294 -0.003048 0.005469
# 3 -0.002469 -0.004956 0.016863 -0.002876 0.005241 -0.003775
# 4 0.003301 0.005294 -0.002876 0.027583 -0.002394 0.013577
# 5 0.019330 -0.003048 0.005241 -0.002394 0.043748 0.003847
# 6 0.002494 0.005469 -0.003775 0.013577 0.003847 0.027756
#
#
# Mechanical properties :
#
#
# Convention : Reuss Voigt Hill
#
# Bulk Modulus (GPa) = 33.00045 59.44136 46.22091
# Shear Modulus (GPa) = 26.97447 42.15019 34.56233
#
# Velocity S-wave (km/s) = 3.19152 3.98952 3.61262
# Velocity P-wave (km/s) = 5.10316 6.60812 5.90379
#
# Compressibility (1/GPa) = 0.03030262
#
# Stress axis : x y z
#
# Youngs Moduli (GPa) = 39.90546 88.37471 59.30082
#
# Poissons Ratio (x) = 0.35726 0.14644
# Poissons Ratio (y) = 0.16132 0.29387
# Poissons Ratio (z) = 0.09855 0.43795
#
# Static dielectric constant tensor:
#      x y z
#    x 2.129790 0.036450 -0.006760 
#    y 0.036450 2.071680 -0.001610 
#    z -0.006760 -0.001610 2.055740 
# 
# From -- ./inp_files/557607.got.cif
#   From: 2010.05.17/outbox.cif.g08.bks.cpg/sg2_279_cif.got.tgz:557607.got - 2010.06.03 11:33:40.
