data_PCOD9076811
_publ_section_title
;
Structure prediction by ZEFSAII (Michael W. Deem and Ramdas Pophale) SiO2 
 PCOD9076811
Probable space group: P -1
;
_chemical_formula_sum "Si O2"
_cell_formula_units_Z 14
_cell_length_a 8.125253
_cell_length_b 14.453747
_cell_length_c 8.902505
_cell_angle_alpha 113.244575
_cell_angle_beta 45.645106
_cell_angle_gamma 132.763391
_cell_volume 542.423288
_symmetry_space_group_name_H-M "P -1"
_symmetry_group_IT_number 2
_symmetry_cell_setting 'triclinic'
loop_
_space_group_symop_operation_xyz
x,y,z
-x,-y,-z
loop_
_atom_site_type_symbol
_atom_site_label
_atom_site_fract_x
_atom_site_fract_y
_atom_site_fract_z
Si Si1 0.178963 0.297850 0.548349
Si Si2 0.902223 0.686929 0.910669
Si Si3 0.382264 0.776488 0.964422
Si Si4 0.819981 0.023975 0.509310
Si Si5 0.455069 0.565808 0.855013
Si Si6 0.790505 0.021108 0.058067
Si Si7 0.536767 0.237533 0.444630
O O1 0.347460 0.414416 0.400409
O O2 0.394027 0.303635 0.535523
O O3 0.898192 0.256590 0.791420
O O4 0.053703 0.175231 0.438913
O O5 0.634374 0.631480 0.934496
O O6 0.010844 0.825204 0.985253
O O7 0.139996 0.690623 0.657473
O O8 0.792260 0.580100 0.039121
O O9 0.652705 0.915206 0.945440
O O10 0.354395 0.649937 0.928135
O O11 0.405017 0.792982 0.780938
O O12 0.517129 0.009757 0.707394
O O13 0.685314 0.896492 0.416199
O O14 0.000000 0.000000 0.500000
O O15 0.000000 0.000000 0.000000
#
# Coordination Sequence:
#
# PCOD9076811 Si02
#       7
#     2   2   2   2   2   2   2
#     4   9  19  35  59  85 117 151 197 240 294 348
#     4  10  21  38  60  83 119 157 198 235 298 354
#     4  10  20  37  64  87 117 150 197 244 298 345
#     4   8  16  32  55  81 116 147 186 238 291 343
#     4  10  21  40  60  81 120 162 189 243 295 349
#     4  10  18  33  60  88 114 148 200 244 289 352
#     4   9  19  37  60  86 118 156 190 244 297 351
#
# _framework density 25.810101
#
# number of rings (size 3 to 8) (size 9 to 14) (size 15 to 20)
#    0.000    2.571    1.429    0.000    0.000    7.429 
#    0.000   13.571    6.286    0.000    0.000    0.000 
#    0.000    0.000    0.000    0.000    0.000    0.000 
#
# Total GULP energy -77968.368348 kJ/mol
# GULP energy per Si atom -5569.169168 kJ/mol
# Density = 2.575136 g / cm^3
# Si number density = 25.810101 Si / 1000 Ang^3
#
#
#
# Elastic Constant Matrix: (Units=GPa)
#
#
# Indices 1 2 3 4 5 6 
#
# 1 79.6445 41.4229 32.6800 5.6158 -19.4850 -26.3383
# 2 41.4229 180.3004 55.5808 -15.6820 -6.7631 -18.0903
# 3 32.6800 55.5808 126.7938 -4.8857 -12.7042 -11.8478
# 4 5.6158 -15.6820 -4.8857 33.6516 2.4059 8.2653
# 5 -19.4850 -6.7631 -12.7042 2.4059 32.3262 1.5809
# 6 -26.3383 -18.0903 -11.8478 8.2653 1.5809 37.6805
#
#
#
# Elastic Compliance Matrix: (Units=1/GPa)
#
#
# Indices 1 2 3 4 5 6 
#
# 1 0.025283 -0.003880 -0.002310 -0.011517 0.013544 0.017041
# 2 -0.003880 0.007365 -0.002338 0.004059 -0.001984 -0.000719
# 3 -0.002310 -0.002338 0.009729 0.000543 0.001896 0.000124
# 4 -0.011517 0.004059 0.000543 0.037579 -0.008000 -0.013838
# 5 0.013544 -0.001984 0.001896 -0.008000 0.039573 0.009205
# 6 0.017041 -0.000719 0.000124 -0.013838 0.009205 0.040794
#
#
# Mechanical properties :
#
#
# Convention : Reuss Voigt Hill
#
# Bulk Modulus (GPa) = 39.49307 71.78959 55.64133
# Shear Modulus (GPa) = 26.90782 37.86865 32.38824
#
# Velocity S-wave (km/s) = 3.23233 3.83456 3.54625
# Velocity P-wave (km/s) = 5.40973 6.89058 6.19457
#
# Compressibility (1/GPa) = 0.02532090
#
# Stress axis : x y z
#
# Youngs Moduli (GPa) = 39.55287 135.77779 102.78125
#
# Poissons Ratio (x) = 0.52687 0.23741
# Poissons Ratio (y) = 0.15348 0.24029
# Poissons Ratio (z) = 0.09136 0.31743
#
# Static dielectric constant tensor:
#      x y z
#    x 2.064610 0.076070 -0.049350 
#    y 0.076070 2.056380 -0.048780 
#    z -0.049350 -0.048780 2.302200 
# 
# From -- ./inp_files/399242.got.cif
#   From: 2010.05.17/outbox.cif.g08.bks.cpg/sg2_200_cif.got.tgz:399242.got - 2010.06.03 11:33:40.
