data_PCOD9076048
_publ_section_title
;
Structure prediction by ZEFSAII (Michael W. Deem and Ramdas Pophale) SiO2 
 PCOD9076048
Probable space group: P -1
;
_chemical_formula_sum "Si O2"
_cell_formula_units_Z 14
_cell_length_a 17.772986
_cell_length_b 5.268168
_cell_length_c 8.880347
_cell_angle_alpha 68.246681
_cell_angle_beta 81.621486
_cell_angle_gamma 109.183047
_cell_volume 694.647035
_symmetry_space_group_name_H-M "P -1"
_symmetry_group_IT_number 2
_symmetry_cell_setting 'triclinic'
loop_
_space_group_symop_operation_xyz
x,y,z
-x,-y,-z
loop_
_atom_site_type_symbol
_atom_site_label
_atom_site_fract_x
_atom_site_fract_y
_atom_site_fract_z
Si Si1 0.095789 0.192248 0.891298
Si Si2 0.651353 0.805602 0.518091
Si Si3 0.177795 0.872571 0.728824
Si Si4 0.626760 0.318865 0.863108
Si Si5 0.509635 0.795383 0.843823
Si Si6 0.245654 0.494389 0.969696
Si Si7 0.613991 0.378923 0.338288
O O1 0.116823 0.538142 0.765550
O O2 0.155771 0.233196 0.011072
O O3 0.128405 0.041393 0.784700
O O4 0.000000 0.000000 0.000000
O O5 0.618644 0.598041 0.720222
O O6 0.617236 0.592275 0.428627
O O7 0.752507 0.927720 0.453182
O O8 0.631877 0.096403 0.447767
O O9 0.232546 0.788540 0.856386
O O10 0.597495 0.065647 0.798789
O O11 0.563537 0.145844 0.056339
O O12 0.716495 0.451892 0.887432
O O13 0.472817 0.731434 0.701811
O O14 0.500000 0.500000 0.000000
O O15 0.312712 0.459732 0.842376
#
# Coordination Sequence:
#
# PCOD9076048 Si02
#       7
#     2   2   2   2   2   2   2
#     4  10  18  32  59  87 107 141 186 225 269 327
#     4  11  21  39  58  85 110 152 186 233 281 334
#     4   9  18  34  56  82 110 143 179 230 269 327
#     4  10  23  38  56  84 110 149 192 234 283 329
#     4  10  24  39  56  80 112 153 192 240 275 331
#     4   8  19  35  57  81 109 148 184 228 271 331
#     4  10  22  38  60  77 116 147 191 232 282 326
#
# _framework density 20.154119000000001
#
# number of rings (size 3 to 8) (size 9 to 14) (size 15 to 20)
#    0.857    1.429    1.429    0.429   10.000    1.143 
#    0.000    0.000    0.000    1.714    0.000    0.000 
#    0.000    0.000    0.000    0.000    0.000    0.000 
#
# Total GULP energy -78007.176859 kJ/mol
# GULP energy per Si atom -5571.941204 kJ/mol
# Density = 2.010825 g / cm^3
# Si number density = 20.154119 Si / 1000 Ang^3
#
#
#
# Elastic Constant Matrix: (Units=GPa)
#
#
# Indices 1 2 3 4 5 6 
#
# 1 75.5859 23.9840 23.2275 2.3439 -13.8813 26.2685
# 2 23.9840 116.1932 25.2432 6.1021 -7.6665 4.2642
# 3 23.2275 25.2432 71.9344 -1.4938 -8.0564 15.1894
# 4 2.3439 6.1021 -1.4938 18.8990 -2.5184 0.3376
# 5 -13.8813 -7.6665 -8.0564 -2.5184 28.9783 -3.3371
# 6 26.2685 4.2642 15.1894 0.3376 -3.3371 38.2954
#
#
#
# Elastic Compliance Matrix: (Units=1/GPa)
#
#
# Indices 1 2 3 4 5 6 
#
# 1 0.020303 -0.002762 -0.002269 -0.000668 0.006911 -0.012111
# 2 -0.002762 0.009955 -0.003053 -0.003092 0.000430 0.002062
# 3 -0.002269 -0.003053 0.017042 0.003040 0.002570 -0.004666
# 4 -0.000668 -0.003092 0.003040 0.054832 0.004414 -0.000502
# 5 0.006911 0.000430 0.002570 0.004414 0.038747 -0.002471
# 6 -0.012111 0.002062 -0.004666 -0.000502 -0.002471 0.035830
#
#
# Mechanical properties :
#
#
# Convention : Reuss Voigt Hill
#
# Bulk Modulus (GPa) = 32.12220 45.40255 38.76238
# Shear Modulus (GPa) = 24.59988 29.98511 27.29249
#
# Velocity S-wave (km/s) = 3.49748 3.86137 3.68392
# Velocity P-wave (km/s) = 5.68179 6.51589 6.11308
#
# Compressibility (1/GPa) = 0.03113112
#
# Stress axis : x y z
#
# Youngs Moduli (GPa) = 49.25494 100.45305 58.67954
#
# Poissons Ratio (x) = 0.27748 0.13314
# Poissons Ratio (y) = 0.13606 0.17914
# Poissons Ratio (z) = 0.11175 0.30667
#
# Static dielectric constant tensor:
#      x y z
#    x 1.752730 -0.028090 -0.047070 
#    y -0.028090 1.771880 0.029680 
#    z -0.047070 0.029680 1.772020 
# 
# From -- ./inp_files/44933.got.cif
#   From: 2010.05.17/outbox.cif.g08.bks.cpg/sg2_23_cif.got.tgz:44933.got - 2010.06.03 11:33:40.
