data_PCOD9076364
_publ_section_title
;
Structure prediction by ZEFSAII (Michael W. Deem and Ramdas Pophale) SiO2 
 PCOD9076364
Probable space group: P -1
;
_chemical_formula_sum "Si O2"
_cell_formula_units_Z 16
_cell_length_a 8.731512
_cell_length_b 11.077181
_cell_length_c 18.354290
_cell_angle_alpha 119.847948
_cell_angle_beta 32.936428
_cell_angle_gamma 112.329504
_cell_volume 834.484792
_symmetry_space_group_name_H-M "P -1"
_symmetry_group_IT_number 2
_symmetry_cell_setting 'triclinic'
loop_
_space_group_symop_operation_xyz
x,y,z
-x,-y,-z
loop_
_atom_site_type_symbol
_atom_site_label
_atom_site_fract_x
_atom_site_fract_y
_atom_site_fract_z
Si Si1 0.099404 0.624115 0.045712
Si Si2 0.131721 0.357302 0.701327
Si Si3 0.244381 0.838175 0.930508
Si Si4 0.791319 0.991495 0.779956
Si Si5 0.893765 0.330311 0.206432
Si Si6 0.547739 0.309427 0.954336
Si Si7 0.126954 0.939427 0.782056
Si Si8 0.659369 0.952995 0.496824
O O1 0.141159 0.749854 0.012998
O O2 0.388997 0.605021 0.971509
O O3 0.000000 0.500000 0.000000
O O4 0.878836 0.653799 0.209036
O O5 0.222735 0.508738 0.689711
O O6 0.293932 0.215276 0.567840
O O7 0.798459 0.349231 0.812686
O O8 0.559865 0.882895 0.827573
O O9 0.224133 0.743582 0.839351
O O10 0.035906 0.978606 0.062619
O O11 0.944585 0.965046 0.788647
O O12 0.629247 0.146314 0.891070
O O13 0.032539 0.991373 0.620964
O O14 0.852113 0.224411 0.256927
O O15 0.231695 0.332952 0.060976
O O16 0.435705 0.994202 0.661856
O O17 0.500000 0.000000 0.500000
#
# Coordination Sequence:
#
# PCOD9076364 Si02
#       8
#     2   2   2   2   2   2   2   2
#     4  10  18  33  55  82 108 145 183 231 274 328
#     4   9  20  35  55  82 113 148 182 229 283 329
#     4  12  20  34  56  88 115 141 187 241 276 318
#     4  10  19  36  60  78 109 146 196 232 267 324
#     4  12  22  32  53  87 123 143 178 236 289 330
#     4   9  18  34  53  79 113 146 183 225 279 323
#     4  11  21  34  57  87 107 149 191 229 277 332
#     4   9  19  39  60  79 103 152 196 226 270 339
#
# _framework density 19.173507000000001
#
# number of rings (size 3 to 8) (size 9 to 14) (size 15 to 20)
#    0.750    1.000    3.750    2.625    0.000    0.500 
#    0.000    0.625    0.000    3.000    6.500    0.000 
#    0.000    0.000    0.000    0.000    0.000    0.000 
#
# Total GULP energy -89102.489486 kJ/mol
# GULP energy per Si atom -5568.905593 kJ/mol
# Density = 1.912987 g / cm^3
# Si number density = 19.173507 Si / 1000 Ang^3
#
#
#
# Elastic Constant Matrix: (Units=GPa)
#
#
# Indices 1 2 3 4 5 6 
#
# 1 47.1172 28.1984 14.6615 1.6377 -7.7703 12.7462
# 2 28.1984 125.3565 21.8887 -2.8876 -11.4272 -4.9193
# 3 14.6615 21.8887 63.9109 -15.8042 -7.5023 5.1606
# 4 1.6377 -2.8876 -15.8042 18.3793 -3.0284 -7.4700
# 5 -7.7703 -11.4272 -7.5023 -3.0284 10.2902 2.3933
# 6 12.7462 -4.9193 5.1606 -7.4700 2.3933 38.2752
#
#
#
# Elastic Compliance Matrix: (Units=1/GPa)
#
#
# Indices 1 2 3 4 5 6 
#
# 1 0.033274 -0.006056 -0.005889 -0.012556 0.013755 -0.014376
# 2 -0.006056 0.010315 -0.000571 0.004361 0.006856 0.003842
# 3 -0.005889 -0.000571 0.026404 0.027690 0.021768 0.002371
# 4 -0.012556 0.004361 0.027690 0.093282 0.039102 0.016769
# 5 0.013755 0.006856 0.021768 0.039102 0.144426 -0.008034
# 6 -0.014376 0.003842 0.002371 0.016769 -0.008034 0.034863
#
#
# Mechanical properties :
#
#
# Convention : Reuss Voigt Hill
#
# Bulk Modulus (GPa) = 22.24043 40.65354 31.44698
# Shear Modulus (GPa) = 13.06900 24.83135 18.95017
#
# Velocity S-wave (km/s) = 2.61361 3.60264 3.14722
# Velocity P-wave (km/s) = 4.55332 6.20921 5.44459
#
# Compressibility (1/GPa) = 0.04496317
#
# Stress axis : x y z
#
# Youngs Moduli (GPa) = 30.05320 96.94274 37.87244
#
# Poissons Ratio (x) = 0.58710 0.22302
# Poissons Ratio (y) = 0.18201 0.02161
# Poissons Ratio (z) = 0.17697 0.05532
#
# Static dielectric constant tensor:
#      x y z
#    x 1.665830 -0.028300 -0.005070 
#    y -0.028300 1.716700 0.001040 
#    z -0.005070 0.001040 1.707380 
# 
# From -- ./inp_files/589061.got.cif
#   From: 2010.05.17/outbox.cif.g08.bks.cpg/sg2_295_cif.got.tgz:589061.got - 2010.06.03 11:33:40.
