data_PCOD9076725
_publ_section_title
;
Structure prediction by ZEFSAII (Michael W. Deem and Ramdas Pophale) SiO2 
 PCOD9076725
Probable space group: P -1
;
_chemical_formula_sum "Si O2"
_cell_formula_units_Z 14
_cell_length_a 10.902569
_cell_length_b 25.590750
_cell_length_c 8.725984
_cell_angle_alpha 33.087184
_cell_angle_beta 120.681860
_cell_angle_gamma 147.673188
_cell_volume 522.899663
_symmetry_space_group_name_H-M "P -1"
_symmetry_group_IT_number 2
_symmetry_cell_setting 'triclinic'
loop_
_space_group_symop_operation_xyz
x,y,z
-x,-y,-z
loop_
_atom_site_type_symbol
_atom_site_label
_atom_site_fract_x
_atom_site_fract_y
_atom_site_fract_z
Si Si1 0.113181 0.729491 0.442978
Si Si2 0.250441 0.382201 0.759980
Si Si3 0.174612 0.143705 0.493777
Si Si4 0.627571 0.048205 0.639009
Si Si5 0.588506 0.285828 0.231426
Si Si6 0.545349 0.855100 0.836110
Si Si7 0.334204 0.499799 0.847437
O O1 0.028025 0.734551 0.224297
O O2 0.297016 0.904375 0.250333
O O3 0.274877 0.722453 0.571897
O O4 0.776764 0.495345 0.871396
O O5 0.500000 0.500000 0.500000
O O6 0.342313 0.509531 0.644280
O O7 0.187630 0.248547 0.143285
O O8 0.241024 0.097491 0.531966
O O9 0.437266 0.291872 0.428915
O O10 0.833468 0.956965 0.801199
O O11 0.427971 0.021917 0.527395
O O12 0.468211 0.855015 0.953297
O O13 0.976462 0.277261 0.225290
O O14 0.627362 0.295721 0.048600
O O15 0.500000 0.500000 0.000000
#
# Coordination Sequence:
#
# PCOD9076725 Si02
#       7
#     2   2   2   2   2   2   2
#     4  10  20  36  61  84 113 153 192 233 279 334
#     4  11  20  33  58  91 111 144 199 242 268 328
#     4  11  20  37  61  87 110 152 192 237 277 343
#     4  10  18  37  57  87 108 150 195 235 270 339
#     4  10  20  36  57  84 120 150 185 229 293 342
#     4  10  21  32  61  85 114 147 193 233 286 336
#     4  10  18  33  59  85 108 143 199 232 270 329
#
# _framework density 26.773779000000001
#
# number of rings (size 3 to 8) (size 9 to 14) (size 15 to 20)
#    0.000    1.714    5.714    1.286    0.000    0.000 
#    0.000    3.571    0.000    3.429    0.000    0.000 
#    0.000    0.000    0.000    0.000    0.000    0.000 
#
# Total GULP energy -78096.028144 kJ/mol
# GULP energy per Si atom -5578.287725 kJ/mol
# Density = 2.671284 g / cm^3
# Si number density = 26.773779 Si / 1000 Ang^3
#
#
#
# Elastic Constant Matrix: (Units=GPa)
#
#
# Indices 1 2 3 4 5 6 
#
# 1 95.8810 63.8825 17.2899 6.6730 -2.8769 12.8056
# 2 63.8825 230.5783 26.8903 14.7073 3.6112 -13.1808
# 3 17.2899 26.8903 71.6794 18.0000 -7.2100 0.6492
# 4 6.6730 14.7073 18.0000 37.6538 -0.9109 0.6236
# 5 -2.8769 3.6112 -7.2100 -0.9109 19.0976 -8.4951
# 6 12.8056 -13.1808 0.6492 0.6236 -8.4951 56.8750
#
#
#
# Elastic Compliance Matrix: (Units=1/GPa)
#
#
# Indices 1 2 3 4 5 6 
#
# 1 0.013868 -0.003861 -0.001822 -0.000004 0.000379 -0.003940
# 2 -0.003861 0.005739 -0.001087 -0.001101 -0.001222 0.002041
# 3 -0.001822 -0.001087 0.017303 -0.007382 0.006566 0.001023
# 4 -0.000004 -0.001101 -0.007382 0.030495 -0.001445 -0.000720
# 5 0.000379 -0.001222 0.006566 -0.001445 0.058776 0.008352
# 6 -0.003940 0.002041 0.001023 -0.000720 0.008352 0.020186
#
#
# Mechanical properties :
#
#
# Convention : Reuss Voigt Hill
#
# Bulk Modulus (GPa) = 42.78579 68.25157 55.51868
# Shear Modulus (GPa) = 29.81576 42.06367 35.93971
#
# Velocity S-wave (km/s) = 3.34071 3.96798 3.66778
# Velocity P-wave (km/s) = 5.55839 6.82206 6.22238
#
# Compressibility (1/GPa) = 0.02337225
#
# Stress axis : x y z
#
# Youngs Moduli (GPa) = 72.10742 174.23672 57.79278
#
# Poissons Ratio (x) = 0.67266 0.10530
# Poissons Ratio (y) = 0.27838 0.06280
# Poissons Ratio (z) = 0.13138 0.18933
#
# Static dielectric constant tensor:
#      x y z
#    x 2.229850 -0.136980 -0.113020 
#    y -0.136980 2.168240 -0.105450 
#    z -0.113020 -0.105450 2.239700 
# 
# From -- ./inp_files/199016.got.cif
#   From: 2010.05.17/outbox.cif.g08.bks.cpg/sg2_100_cif.got.tgz:199016.got - 2010.06.03 11:33:40.
