data_PCOD9076462
_publ_section_title
;
Structure prediction by ZEFSAII (Michael W. Deem and Ramdas Pophale) SiO2 
 PCOD9076462
Probable space group: P -1
;
_chemical_formula_sum "Si O2"
_cell_formula_units_Z 14
_cell_length_a 20.443773
_cell_length_b 11.910570
_cell_length_c 7.973554
_cell_angle_alpha 112.911432
_cell_angle_beta 133.809619
_cell_angle_gamma 30.189092
_cell_volume 575.872692
_symmetry_space_group_name_H-M "P -1"
_symmetry_group_IT_number 2
_symmetry_cell_setting 'triclinic'
loop_
_space_group_symop_operation_xyz
x,y,z
-x,-y,-z
loop_
_atom_site_type_symbol
_atom_site_label
_atom_site_fract_x
_atom_site_fract_y
_atom_site_fract_z
Si Si1 0.241625 0.792803 0.756016
Si Si2 0.877405 0.317384 0.595921
Si Si3 0.169134 0.428720 0.895680
Si Si4 0.442422 0.690061 0.769034
Si Si5 0.048450 0.082217 0.113286
Si Si6 0.776608 0.704560 0.715164
Si Si7 0.700616 0.890687 0.348624
O O1 0.245686 0.659889 0.584745
O O2 0.353354 0.764109 0.837686
O O3 0.343573 0.634379 0.022125
O O4 0.016474 0.113831 0.568021
O O5 0.777354 0.568655 0.555107
O O6 0.019605 0.160665 0.918470
O O7 0.285928 0.238902 0.830385
O O8 0.120426 0.630978 0.926017
O O9 0.935898 0.657171 0.619790
O O10 0.273780 0.255615 0.154519
O O11 0.275171 0.835987 0.434229
O O12 0.443340 0.831503 0.819338
O O13 0.000000 0.000000 0.000000
O O14 0.657835 0.923115 0.489049
O O15 0.000000 0.500000 0.000000
#
# Coordination Sequence:
#
# PCOD9076462 Si02
#       7
#     2   2   2   2   2   2   2
#     4  10  22  37  56  82 112 147 186 233 278 333
#     4  10  21  36  59  82 110 145 189 233 274 332
#     4   8  17  28  49  82 106 138 185 226 271 327
#     4  10  21  37  56  82 113 146 185 229 286 330
#     4  10  18  33  56  83 113 143 184 230 276 335
#     4   9  18  31  52  85 107 138 189 231 271 333
#     4   9  17  31  54  76 107 147 181 223 277 334
#
# _framework density 24.310928000000001
#
# number of rings (size 3 to 8) (size 9 to 14) (size 15 to 20)
#    0.000    2.571    1.429    0.857    8.000    0.571 
#    0.000    0.714    0.000    5.143    0.000    0.000 
#    0.000    0.000    0.000    0.000    0.000    0.000 
#
# Total GULP energy -78115.347798 kJ/mol
# GULP energy per Si atom -5579.667700 kJ/mol
# Density = 2.425560 g / cm^3
# Si number density = 24.310928 Si / 1000 Ang^3
#
#
#
# Elastic Constant Matrix: (Units=GPa)
#
#
# Indices 1 2 3 4 5 6 
#
# 1 79.1604 39.4376 18.7210 -5.1639 -18.8010 13.6451
# 2 39.4376 86.3487 16.4951 15.8108 -2.8453 22.9135
# 3 18.7210 16.4951 96.7627 3.4785 -19.2760 6.8687
# 4 -5.1639 15.8108 3.4785 31.8542 11.6325 0.9608
# 5 -18.8010 -2.8453 -19.2760 11.6325 37.1812 -12.1615
# 6 13.6451 22.9135 6.8687 0.9608 -12.1615 33.0628
#
#
#
# Elastic Compliance Matrix: (Units=1/GPa)
#
#
# Indices 1 2 3 4 5 6 
#
# 1 0.019701 -0.009999 -0.000915 0.005454 0.007541 0.001604
# 2 -0.009999 0.021193 -0.001484 -0.009796 -0.005001 -0.011808
# 3 -0.000915 -0.001484 0.012250 -0.003513 0.007429 0.001696
# 4 0.005454 -0.009796 -0.003513 0.042436 -0.013379 -0.000887
# 5 0.007541 -0.005001 0.007429 -0.013379 0.043312 0.015131
# 6 0.001604 -0.011808 0.001696 -0.000887 0.015131 0.043005
#
#
# Mechanical properties :
#
#
# Convention : Reuss Voigt Hill
#
# Bulk Modulus (GPa) = 35.27562 45.73103 40.50332
# Shear Modulus (GPa) = 23.13284 32.92752 28.03018
#
# Velocity S-wave (km/s) = 3.08805 3.68425 3.39925
# Velocity P-wave (km/s) = 5.22077 6.07865 5.66597
#
# Compressibility (1/GPa) = 0.02834819
#
# Stress axis : x y z
#
# Youngs Moduli (GPa) = 50.75981 47.18450 81.63025
#
# Poissons Ratio (x) = 0.47180 0.07468
# Poissons Ratio (y) = 0.50755 0.12116
# Poissons Ratio (z) = 0.04644 0.07003
#
# Static dielectric constant tensor:
#      x y z
#    x 2.017580 -0.065750 0.082870 
#    y -0.065750 1.958420 -0.033240 
#    z 0.082870 -0.033240 2.064880 
# 
# From -- ./inp_files/171092.got.cif
#   From: 2010.05.17/outbox.cif.g08.bks.cpg/sg2_86_cif.got.tgz:171092.got - 2010.06.03 11:33:40.
