data_PCOD9076999
_publ_section_title
;
Structure prediction by ZEFSAII (Michael W. Deem and Ramdas Pophale) SiO2 
 PCOD9076999
Probable space group: P -1
;
_chemical_formula_sum "Si O2"
_cell_formula_units_Z 14
_cell_length_a 10.465891
_cell_length_b 14.257081
_cell_length_c 12.484553
_cell_angle_alpha 148.600539
_cell_angle_beta 48.005263
_cell_angle_gamma 138.571406
_cell_volume 639.911629
_symmetry_space_group_name_H-M "P -1"
_symmetry_group_IT_number 2
_symmetry_cell_setting 'triclinic'
loop_
_space_group_symop_operation_xyz
x,y,z
-x,-y,-z
loop_
_atom_site_type_symbol
_atom_site_label
_atom_site_fract_x
_atom_site_fract_y
_atom_site_fract_z
Si Si1 0.780284 0.762911 0.299012
Si Si2 0.261258 0.008321 0.801374
Si Si3 0.822546 0.364804 0.389024
Si Si4 0.479497 0.699015 0.238922
Si Si5 0.193680 0.242529 0.253669
Si Si6 0.069243 0.492070 0.179345
Si Si7 0.112052 0.216207 0.506566
O O1 0.585897 0.743930 0.335959
O O2 0.765110 0.720524 0.392163
O O3 0.856137 0.617809 0.055173
O O4 0.940446 0.992520 0.408281
O O5 0.296439 0.844773 0.689002
O O6 0.039499 0.891838 0.768678
O O7 0.400023 0.120496 0.735033
O O8 0.283376 0.174278 0.039997
O O9 0.738286 0.518908 0.561742
O O10 0.000000 0.500000 0.500000
O O11 0.915965 0.336275 0.198207
O O12 0.255308 0.636108 0.287725
O O13 0.500000 0.500000 0.000000
O O14 0.219830 0.206051 0.327745
O O15 0.978102 0.629135 0.314949
#
# Coordination Sequence:
#
# PCOD9076999 Si02
#       7
#     2   2   2   2   2   2   2
#     4  10  20  35  53  81 116 149 181 223 278 337
#     4  10  18  34  54  78 113 144 177 234 275 319
#     4   9  19  31  52  82 105 137 187 226 269 321
#     4  10  22  35  55  87 117 146 178 228 294 327
#     4   9  18  31  55  80 103 136 193 228 265 313
#     4  10  21  37  55  85 114 141 183 237 279 323
#     4  10  19  35  57  84 106 148 193 224 268 334
#
# _framework density 21.878021
#
# number of rings (size 3 to 8) (size 9 to 14) (size 15 to 20)
#    0.000    2.286    1.429    1.286   10.000    0.571 
#    0.000    0.000    0.000    3.429    3.714   31.000 
#    0.000    0.000    0.000    0.000    0.000    0.000 
#
# Total GULP energy -78213.971134 kJ/mol
# GULP energy per Si atom -5586.712224 kJ/mol
# Density = 2.182823 g / cm^3
# Si number density = 21.878021 Si / 1000 Ang^3
#
#
#
# Elastic Constant Matrix: (Units=GPa)
#
#
# Indices 1 2 3 4 5 6 
#
# 1 118.2802 57.4032 37.1936 -15.6457 23.2097 -31.9423
# 2 57.4032 87.6818 32.9733 -3.5397 -2.2575 -24.7653
# 3 37.1936 32.9733 92.0453 -23.7692 12.1905 -13.0596
# 4 -15.6457 -3.5397 -23.7692 34.5033 -10.1940 3.7494
# 5 23.2097 -2.2575 12.1905 -10.1940 30.5660 -6.4686
# 6 -31.9423 -24.7653 -13.0596 3.7494 -6.4686 31.5635
#
#
#
# Elastic Compliance Matrix: (Units=1/GPa)
#
#
# Indices 1 2 3 4 5 6 
#
# 1 0.018000 -0.009581 -0.000542 0.002510 -0.011675 0.007783
# 2 -0.009581 0.022173 -0.005254 -0.003128 0.011722 0.008302
# 3 -0.000542 -0.005254 0.015758 0.009114 -0.003198 0.000111
# 4 0.002510 -0.003128 0.009114 0.038090 0.007098 0.000787
# 5 -0.011675 0.011722 -0.003198 0.007098 0.047120 0.004873
# 6 0.007783 0.008302 0.000111 0.000787 0.004873 0.047023
#
#
# Mechanical properties :
#
#
# Convention : Reuss Voigt Hill
#
# Bulk Modulus (GPa) = 39.71934 61.46082 50.59008
# Shear Modulus (GPa) = 21.99621 30.68906 26.34263
#
# Velocity S-wave (km/s) = 3.17425 3.74937 3.47373
# Velocity P-wave (km/s) = 5.62395 6.84815 6.26602
#
# Compressibility (1/GPa) = 0.02517665
#
# Stress axis : x y z
#
# Youngs Moduli (GPa) = 55.55690 45.09927 63.45846
#
# Poissons Ratio (x) = 0.43209 0.03442
# Poissons Ratio (y) = 0.53228 0.33341
# Poissons Ratio (z) = 0.03013 0.23695
#
# Static dielectric constant tensor:
#      x y z
#    x 1.792800 0.000840 -0.014140 
#    y 0.000840 1.803430 -0.020300 
#    z -0.014140 -0.020300 1.852410 
# 
# From -- ./inp_files/316192.got.cif
#   From: 2010.05.17/outbox.cif.g08.bks.cpg/sg2_159_cif.got.tgz:316192.got - 2010.06.03 11:33:40.
