data_PCOD9076641
_publ_section_title
;
Structure prediction by ZEFSAII (Michael W. Deem and Ramdas Pophale) SiO2 
 PCOD9076641
Probable space group: P -1
;
_chemical_formula_sum "Si O2"
_cell_formula_units_Z 16
_cell_length_a 8.621972
_cell_length_b 18.912494
_cell_length_c 24.316972
_cell_angle_alpha 158.263324
_cell_angle_beta 136.681466
_cell_angle_gamma 34.085063
_cell_volume 806.132547
_symmetry_space_group_name_H-M "P -1"
_symmetry_group_IT_number 2
_symmetry_cell_setting 'triclinic'
loop_
_space_group_symop_operation_xyz
x,y,z
-x,-y,-z
loop_
_atom_site_type_symbol
_atom_site_label
_atom_site_fract_x
_atom_site_fract_y
_atom_site_fract_z
Si Si1 0.646746 0.603086 0.244679
Si Si2 0.920411 0.946230 0.617624
Si Si3 0.134882 0.568710 0.301619
Si Si4 0.734151 0.291813 0.202112
Si Si5 0.855784 0.779663 0.157889
Si Si6 0.666766 0.182616 0.980924
Si Si7 0.852480 0.884912 0.356842
Si Si8 0.745039 0.706156 0.465344
O O1 0.580604 0.413576 0.091158
O O2 0.630300 0.687624 0.363701
O O3 0.970467 0.472664 0.215858
O O4 0.414823 0.842774 0.325221
O O5 0.953477 0.772271 0.548974
O O6 0.047051 0.780203 0.475281
O O7 0.044854 0.095489 0.764817
O O8 0.466584 0.406216 0.256292
O O9 0.984145 0.665164 0.273124
O O10 0.649075 0.252507 0.091274
O O11 0.822073 0.470669 0.346019
O O12 0.011142 0.036471 0.106321
O O13 0.912912 0.830589 0.269966
O O14 0.538252 0.886462 0.136516
O O15 0.000000 0.500000 0.000000
O O16 0.518029 0.069305 0.409280
O O17 0.000000 0.000000 0.500000
#
# Coordination Sequence:
#
# PCOD9076641 Si02
#       8
#     2   2   2   2   2   2   2   2
#     4  10  18  34  58  88 118 144 190 245 288 336
#     4  11  19  34  56  92 117 143 186 247 297 325
#     4  11  19  32  61  91 110 148 198 242 279 340
#     4  10  21  39  62  80 112 161 201 229 277 360
#     4  12  23  36  58  86 121 152 186 243 296 338
#     4  10  23  41  55  81 120 160 192 230 295 347
#     4  12  19  33  58  89 114 146 198 233 282 344
#     4  10  18  33  58  85 111 147 193 240 278 332
#
# _framework density 19.847852
#
# number of rings (size 3 to 8) (size 9 to 14) (size 15 to 20)
#    0.000    1.250    6.250    1.500    0.000    0.500 
#    0.000    6.875    0.000    0.000    0.000    0.000 
#    0.000    0.000    0.000    0.000    0.000    0.000 
#
# Total GULP energy -89137.926735 kJ/mol
# GULP energy per Si atom -5571.120421 kJ/mol
# Density = 1.980268 g / cm^3
# Si number density = 19.847852 Si / 1000 Ang^3
#
#
#
# Elastic Constant Matrix: (Units=GPa)
#
#
# Indices 1 2 3 4 5 6 
#
# 1 84.5266 14.6899 46.2425 2.3007 6.4245 -32.4936
# 2 14.6899 43.0732 25.2515 2.5118 -1.0490 -18.8703
# 3 46.2425 25.2515 74.7077 0.6664 13.3387 -23.2547
# 4 2.3007 2.5118 0.6664 27.7457 -15.2683 0.5936
# 5 6.4245 -1.0490 13.3387 -15.2683 30.3816 -1.5801
# 6 -32.4936 -18.8703 -23.2547 0.5936 -1.5801 23.4807
#
#
#
# Elastic Compliance Matrix: (Units=1/GPa)
#
#
# Indices 1 2 3 4 5 6 
#
# 1 0.035036 0.017421 -0.010954 -0.006837 -0.002749 0.051624
# 2 0.017421 0.046366 -0.011215 -0.004761 0.003080 0.050591
# 3 -0.010954 -0.011215 0.026763 -0.005684 -0.012592 0.001630
# 4 -0.006837 -0.004761 -0.005684 0.054077 0.030003 -0.018263
# 5 -0.002749 0.003080 -0.012592 0.030003 0.053640 -0.010949
# 6 0.051624 0.050591 0.001630 -0.018263 -0.010949 0.156026
#
#
# Mechanical properties :
#
#
# Convention : Reuss Voigt Hill
#
# Bulk Modulus (GPa) = 10.13480 41.63056 25.88268
# Shear Modulus (GPa) = 12.06878 24.06317 18.06598
#
# Velocity S-wave (km/s) = 2.46857 3.48570 3.02026
# Velocity P-wave (km/s) = 3.63902 6.10087 5.02310
#
# Compressibility (1/GPa) = 0.09866993
#
# Stress axis : x y z
#
# Youngs Moduli (GPa) = 28.54216 21.56748 37.36540
#
# Poissons Ratio (x) = -0.37573 0.40929
# Poissons Ratio (y) = -0.49724 0.41904
# Poissons Ratio (z) = 0.31264 0.24187
#
# Static dielectric constant tensor:
#      x y z
#    x 1.639380 -0.046100 0.025010 
#    y -0.046100 1.677070 -0.002770 
#    z 0.025010 -0.002770 1.736900 
# 
# From -- ./inp_files/218908.got.cif
#   From: 2010.05.17/outbox.cif.g08.bks.cpg/sg2_110_cif.got.tgz:218908.got - 2010.06.03 11:33:40.
