data_PCOD9076481
_publ_section_title
;
Structure prediction by ZEFSAII (Michael W. Deem and Ramdas Pophale) SiO2 
 PCOD9076481
Probable space group: P -1
;
_chemical_formula_sum "Si O2"
_cell_formula_units_Z 16
_cell_length_a 7.635775
_cell_length_b 19.635394
_cell_length_c 11.236725
_cell_angle_alpha 40.131329
_cell_angle_beta 99.672130
_cell_angle_gamma 69.145178
_cell_volume 692.608855
_symmetry_space_group_name_H-M "P -1"
_symmetry_group_IT_number 2
_symmetry_cell_setting 'triclinic'
loop_
_space_group_symop_operation_xyz
x,y,z
-x,-y,-z
loop_
_atom_site_type_symbol
_atom_site_label
_atom_site_fract_x
_atom_site_fract_y
_atom_site_fract_z
Si Si1 0.031633 0.800537 0.273693
Si Si2 0.279785 0.308889 0.195137
Si Si3 0.095471 0.674202 0.956439
Si Si4 0.644322 0.487033 0.147896
Si Si5 0.697287 0.054240 0.400254
Si Si6 0.817737 0.337441 0.767406
Si Si7 0.906347 0.052963 0.220068
Si Si8 0.309284 0.860031 0.316053
O O1 0.091253 0.698973 0.528764
O O2 0.042332 0.719341 0.268717
O O3 0.291764 0.766509 0.352967
O O4 0.775394 0.995076 0.957055
O O5 0.435090 0.164671 0.307372
O O6 0.439687 0.236220 0.436551
O O7 0.985249 0.385186 0.060958
O O8 0.284764 0.423978 0.988535
O O9 0.400076 0.582325 0.089676
O O10 0.079966 0.644587 0.131476
O O11 0.883895 0.866558 0.657537
O O12 0.500000 0.500000 0.000000
O O13 0.655318 0.115621 0.179307
O O14 0.861354 0.059615 0.500744
O O15 0.500000 0.500000 0.500000
O O16 0.860105 0.196181 0.998376
O O17 0.053535 0.945713 0.261983
#
# Coordination Sequence:
#
# PCOD9076481 Si02
#       8
#     2   2   2   2   2   2   2   2
#     4  10  20  35  61  86 122 163 206 246 302 365
#     4  11  22  39  65  94 123 156 207 257 304 362
#     4  11  23  39  64  93 122 160 202 252 311 362
#     4  12  24  40  63  93 125 163 203 255 307 362
#     4   9  17  31  55  87 118 147 193 249 297 350
#     4  10  18  33  56  85 119 158 194 239 305 365
#     4   8  15  28  54  82 111 149 195 238 286 354
#     4   9  18  36  59  89 115 164 208 247 300 362
#
# _framework density 23.101061000000001
#
# number of rings (size 3 to 8) (size 9 to 14) (size 15 to 20)
#    0.000    2.000    2.500    4.125    0.000    0.500 
#    0.000    0.625    2.750    0.750    0.000    0.000 
#    0.000    0.000    0.000    0.000    0.000    0.000 
#
# Total GULP energy -89131.545583 kJ/mol
# GULP energy per Si atom -5570.721599 kJ/mol
# Density = 2.304848 g / cm^3
# Si number density = 23.101061 Si / 1000 Ang^3
#
#
#
# Elastic Constant Matrix: (Units=GPa)
#
#
# Indices 1 2 3 4 5 6 
#
# 1 69.1360 9.4160 27.6932 4.0645 -3.9483 21.7425
# 2 9.4160 79.4500 18.1826 13.4690 3.7429 3.6865
# 3 27.6932 18.1826 130.0194 15.9482 -19.0305 17.0129
# 4 4.0645 13.4690 15.9482 45.8683 5.0396 5.5762
# 5 -3.9483 3.7429 -19.0305 5.0396 24.5657 1.9930
# 6 21.7425 3.6865 17.0129 5.5762 1.9930 31.6150
#
#
#
# Elastic Compliance Matrix: (Units=1/GPa)
#
#
# Indices 1 2 3 4 5 6 
#
# 1 0.019499 -0.001510 -0.001996 0.000625 0.002699 -0.012440
# 2 -0.001510 0.013810 -0.001866 -0.003058 -0.003260 0.001177
# 3 -0.001996 -0.001866 0.010716 -0.003522 0.009323 -0.004143
# 4 0.000625 -0.003058 -0.003522 0.024907 -0.007099 -0.002124
# 5 0.002699 -0.003260 0.009323 -0.007099 0.051003 -0.008456
# 6 -0.012440 0.001177 -0.004143 -0.002124 -0.008456 0.043186
#
#
# Mechanical properties :
#
#
# Convention : Reuss Voigt Hill
#
# Bulk Modulus (GPa) = 30.04688 43.24323 36.64505
# Shear Modulus (GPa) = 27.03323 35.29737 31.16530
#
# Velocity S-wave (km/s) = 3.42455 3.91315 3.67697
# Velocity P-wave (km/s) = 5.35460 6.25913 5.82445
#
# Compressibility (1/GPa) = 0.03328133
#
# Stress axis : x y z
#
# Youngs Moduli (GPa) = 51.28446 72.41220 93.31907
#
# Poissons Ratio (x) = 0.10935 0.18625
# Poissons Ratio (y) = 0.07744 0.17412
# Poissons Ratio (z) = 0.10236 0.13511
#
# Static dielectric constant tensor:
#      x y z
#    x 2.068960 -0.122640 0.052570 
#    y -0.122640 2.049880 -0.032250 
#    z 0.052570 -0.032250 1.893040 
# 
# From -- ./inp_files/404703.got.cif
#   From: 2010.05.17/outbox.cif.g08.bks.cpg/sg2_203_cif.got.tgz:404703.got - 2010.06.03 11:33:40.
