data_PCOD9076268
_publ_section_title
;
Structure prediction by ZEFSAII (Michael W. Deem and Ramdas Pophale) SiO2 
 PCOD9076268
Probable space group: P -1
;
_chemical_formula_sum "Si O2"
_cell_formula_units_Z 16
_cell_length_a 8.329705
_cell_length_b 23.001423
_cell_length_c 7.562449
_cell_angle_alpha 35.092171
_cell_angle_beta 52.330551
_cell_angle_gamma 66.377676
_cell_volume 643.448950
_symmetry_space_group_name_H-M "P -1"
_symmetry_group_IT_number 2
_symmetry_cell_setting 'triclinic'
loop_
_space_group_symop_operation_xyz
x,y,z
-x,-y,-z
loop_
_atom_site_type_symbol
_atom_site_label
_atom_site_fract_x
_atom_site_fract_y
_atom_site_fract_z
Si Si1 0.047010 0.905414 0.978380
Si Si2 0.296104 0.601345 0.767445
Si Si3 0.602561 0.478349 0.749794
Si Si4 0.500063 0.177691 0.820189
Si Si5 0.817833 0.374310 0.583508
Si Si6 0.233915 0.967825 0.082564
Si Si7 0.206231 0.288858 0.537949
Si Si8 0.450230 0.850880 0.737901
O O1 0.250445 0.902034 0.737074
O O2 0.121848 0.921119 0.092189
O O3 0.942594 0.000535 0.758550
O O4 0.902694 0.790671 0.340765
O O5 0.506409 0.579004 0.588577
O O6 0.329034 0.715855 0.535905
O O7 0.142045 0.591375 0.732931
O O8 0.270755 0.531506 0.131988
O O9 0.737341 0.459570 0.539640
O O10 0.398663 0.382588 0.125838
O O11 0.604648 0.104278 0.808712
O O12 0.301470 0.214500 0.788398
O O13 0.471527 0.137362 0.140367
O O14 0.019840 0.339107 0.608639
O O15 0.635350 0.268666 0.959363
O O16 0.370297 0.081064 0.664695
#
# Coordination Sequence:
#
# PCOD9076268 Si02
#       8
#     2   2   2   2   2   2   2   2
#     4   9  18  31  50  76 101 133 180 228 264 319
#     4   9  20  38  59  84 113 146 186 230 274 334
#     4  10  20  39  61  82 113 148 183 227 284 332
#     4   9  18  34  52  74 111 144 177 232 274 316
#     4  10  20  38  60  83 114 147 183 230 279 327
#     4  10  18  33  54  73 102 148 185 216 279 334
#     4  10  21  36  53  82 113 140 187 236 271 329
#     4   9  18  35  54  75 107 145 182 222 274 331
#
# _framework density 24.865997
#
# number of rings (size 3 to 8) (size 9 to 14) (size 15 to 20)
#    0.000    2.500    0.000    3.375    0.000    1.000 
#    0.000   27.500    0.000    0.000    0.000    0.000 
#    0.000    0.000    0.000    0.000    0.000    0.000 
#
# Total GULP energy -89405.556960 kJ/mol
# GULP energy per Si atom -5587.847310 kJ/mol
# Density = 2.480940 g / cm^3
# Si number density = 24.865997 Si / 1000 Ang^3
#
#
#
# Elastic Constant Matrix: (Units=GPa)
#
#
# Indices 1 2 3 4 5 6 
#
# 1 101.6324 6.8119 33.6643 -0.7712 5.0433 -0.0474
# 2 6.8119 96.0558 11.0899 -1.5982 8.6831 -7.8729
# 3 33.6643 11.0899 52.6024 -13.9010 -18.2233 3.1123
# 4 -0.7712 -1.5982 -13.9010 22.4785 1.1827 0.2054
# 5 5.0433 8.6831 -18.2233 1.1827 34.1851 -20.4424
# 6 -0.0474 -7.8729 3.1123 0.2054 -20.4424 41.7557
#
#
#
# Elastic Compliance Matrix: (Units=1/GPa)
#
#
# Indices 1 2 3 4 5 6 
#
# 1 0.016846 0.001849 -0.019280 -0.010281 -0.016638 -0.006290
# 2 0.001849 0.011618 -0.006906 -0.002988 -0.007316 -0.000859
# 3 -0.019280 -0.006906 0.054141 0.030028 0.041185 0.014656
# 4 -0.010281 -0.002988 0.030028 0.061366 0.020216 0.006782
# 5 -0.016638 -0.007316 0.041185 0.020216 0.073652 0.031490
# 6 -0.006290 -0.000859 0.014656 0.006782 0.031490 0.038071
#
#
# Mechanical properties :
#
#
# Convention : Reuss Voigt Hill
#
# Bulk Modulus (GPa) = 29.47063 39.26920 34.36991
# Shear Modulus (GPa) = 15.83891 32.93215 24.38553
#
# Velocity S-wave (km/s) = 2.52657 3.64316 3.13497
# Velocity P-wave (km/s) = 4.51541 5.78994 5.19193
#
# Compressibility (1/GPa) = 0.03393209
#
# Stress axis : x y z
#
# Youngs Moduli (GPa) = 59.36028 86.07384 18.47020
#
# Poissons Ratio (x) = -0.15912 0.35610
# Poissons Ratio (y) = -0.10974 0.12755
# Poissons Ratio (z) = 1.14445 0.59440
#
# Static dielectric constant tensor:
#      x y z
#    x 2.044690 -0.025620 0.004310 
#    y -0.025620 1.961620 -0.011940 
#    z 0.004310 -0.011940 1.969940 
# 
# From -- ./inp_files/227244.got.cif
#   From: 2010.05.17/outbox.cif.g08.bks.cpg/sg2_114_cif.got.tgz:227244.got - 2010.06.03 11:33:40.
