data_PCOD9076053
_publ_section_title
;
Structure prediction by ZEFSAII (Michael W. Deem and Ramdas Pophale) SiO2 
 PCOD9076053
Probable space group: P -1
;
_chemical_formula_sum "Si O2"
_cell_formula_units_Z 15
_cell_length_a 8.048932
_cell_length_b 16.866137
_cell_length_c 9.052598
_cell_angle_alpha 31.669554
_cell_angle_beta 67.743382
_cell_angle_gamma 74.387695
_cell_volume 593.548029
_symmetry_space_group_name_H-M "P -1"
_symmetry_group_IT_number 2
_symmetry_cell_setting 'triclinic'
loop_
_space_group_symop_operation_xyz
x,y,z
-x,-y,-z
loop_
_atom_site_type_symbol
_atom_site_label
_atom_site_fract_x
_atom_site_fract_y
_atom_site_fract_z
Si Si1 0.301773 0.256549 0.989276
Si Si2 0.500000 0.500000 0.500000
Si Si3 0.948048 0.504396 0.243065
Si Si4 0.313372 0.508289 0.234832
Si Si5 0.324927 0.034736 0.592251
Si Si6 0.480610 0.253976 0.416968
Si Si7 0.151796 0.744288 0.556832
Si Si8 0.964372 0.951313 0.761309
O O1 0.508379 0.306978 0.814260
O O2 0.241202 0.428728 0.758562
O O3 0.265771 0.171347 0.290514
O O4 0.196085 0.179643 0.008685
O O5 0.424757 0.480906 0.383825
O O6 0.904454 0.343162 0.435640
O O7 0.098139 0.506726 0.315153
O O8 0.047627 0.628567 0.897220
O O9 0.347133 0.373884 0.321554
O O10 0.403560 0.665778 0.884757
O O11 0.377717 0.099659 0.631925
O O12 0.151708 0.911564 0.829652
O O13 0.500000 0.000000 0.500000
O O14 0.634704 0.240200 0.507381
O O15 0.095070 0.910994 0.341107
O O16 0.000000 0.000000 0.500000
#
# Coordination Sequence:
#
# PCOD9076053 Si02
#       8
#     2   1   2   2   2   2   2   2
#     4  11  23  38  59  85 125 166 202 250 305 370
#     4  12  24  42  58  90 128 166 202 250 308 374
#     4  10  20  34  57  89 118 161 199 251 306 356
#     4  10  22  35  60  86 125 159 201 250 304 358
#     4  11  21  34  61  92 124 153 205 259 309 353
#     4  10  19  35  58  93 116 156 202 257 298 350
#     4  10  18  32  59  87 127 150 195 259 310 350
#     4  10  19  34  53  86 119 160 194 252 303 358
#
# _framework density 25.271757000000001
#
# number of rings (size 3 to 8) (size 9 to 14) (size 15 to 20)
#    0.000    1.600    4.000    3.200    5.600    0.533 
#    0.000    0.000    0.000   10.400    0.000    0.000 
#    0.000    0.000    0.000    0.000    0.000    0.000 
#
# Total GULP energy -83628.812638 kJ/mol
# GULP energy per Si atom -5575.254176 kJ/mol
# Density = 2.521424 g / cm^3
# Si number density = 25.271757 Si / 1000 Ang^3
#
#
#
# Elastic Constant Matrix: (Units=GPa)
#
#
# Indices 1 2 3 4 5 6 
#
# 1 133.0169 46.0795 12.9652 -17.3113 -7.1441 17.6929
# 2 46.0795 109.2280 19.4393 -32.9468 -12.2716 20.4915
# 3 12.9652 19.4393 28.8934 -9.7442 -19.0128 11.2645
# 4 -17.3113 -32.9468 -9.7442 42.2806 14.3033 -6.6138
# 5 -7.1441 -12.2716 -19.0128 14.3033 32.1811 -10.9128
# 6 17.6929 20.4915 11.2645 -6.6138 -10.9128 47.9720
#
#
#
# Elastic Compliance Matrix: (Units=1/GPa)
#
#
# Indices 1 2 3 4 5 6 
#
# 1 0.009036 -0.002951 -0.001868 0.001143 -0.001334 -0.001779
# 2 -0.002951 0.014652 -0.007063 0.009639 -0.004622 -0.003234
# 3 -0.001868 -0.007063 0.063159 -0.004052 0.034724 -0.003784
# 4 0.001143 0.009639 -0.004052 0.035415 -0.014917 -0.002098
# 5 -0.001334 -0.004622 0.034724 -0.014917 0.058009 0.005452
# 6 -0.001779 -0.003234 -0.003784 -0.002098 0.005452 0.024723
#
#
# Mechanical properties :
#
#
# Convention : Reuss Voigt Hill
#
# Bulk Modulus (GPa) = 15.85243 47.56737 31.70990
# Shear Modulus (GPa) = 20.01714 37.33036 28.67375
#
# Velocity S-wave (km/s) = 2.81744 3.84755 3.37206
# Velocity P-wave (km/s) = 4.10735 6.21300 5.26649
#
# Compressibility (1/GPa) = 0.06308182
#
# Stress axis : x y z
#
# Youngs Moduli (GPa) = 110.66949 68.24990 15.83310
#
# Poissons Ratio (x) = 0.20139 0.02958
# Poissons Ratio (y) = 0.32657 0.11183
# Poissons Ratio (z) = 0.20677 0.48207
#
# Static dielectric constant tensor:
#      x y z
#    x -1.043880 0.149250 2.909830 
#    y 0.149250 1.925920 -0.201840 
#    z 2.909830 -0.201840 -0.703680 
# 
# From -- ./inp_files/205189.got.cif
#   From: 2010.05.17/outbox.cif.g08.bks.cpg/sg2_103_cif.got.tgz:205189.got - 2010.06.03 11:33:40.
