data_PCOD9076308
_publ_section_title
;
Structure prediction by ZEFSAII (Michael W. Deem and Ramdas Pophale) SiO2 
 PCOD9076308
Probable space group: P -1
;
_chemical_formula_sum "Si O2"
_cell_formula_units_Z 16
_cell_length_a 14.886950
_cell_length_b 10.744122
_cell_length_c 9.132346
_cell_angle_alpha 135.271498
_cell_angle_beta 37.686864
_cell_angle_gamma 123.493727
_cell_volume 628.256128
_symmetry_space_group_name_H-M "P -1"
_symmetry_group_IT_number 2
_symmetry_cell_setting 'triclinic'
loop_
_space_group_symop_operation_xyz
x,y,z
-x,-y,-z
loop_
_atom_site_type_symbol
_atom_site_label
_atom_site_fract_x
_atom_site_fract_y
_atom_site_fract_z
Si Si1 0.142284 0.096349 0.338244
Si Si2 0.728562 0.535927 0.710830
Si Si3 0.102115 0.330857 0.117516
Si Si4 0.326357 0.780142 0.941457
Si Si5 0.171849 0.469117 0.728509
Si Si6 0.520416 0.229914 0.759456
Si Si7 0.403247 0.144343 0.518173
Si Si8 0.082478 0.731340 0.446818
O O1 0.187376 0.256450 0.520739
O O2 0.060828 0.176747 0.367409
O O3 0.000000 0.000000 0.500000
O O4 0.260371 0.936263 0.051649
O O5 0.822184 0.596479 0.773930
O O6 0.798871 0.457401 0.410422
O O7 0.624349 0.390314 0.788174
O O8 0.635696 0.709435 0.922309
O O9 0.080353 0.521885 0.229425
O O10 0.955072 0.249383 0.313077
O O11 0.231949 0.208303 0.779642
O O12 0.278677 0.586498 0.786294
O O13 0.500034 0.805900 0.708066
O O14 0.233488 0.799457 0.231604
O O15 0.000000 0.500000 0.000000
O O16 0.483413 0.226655 0.629549
O O17 0.584194 0.057622 0.611578
#
# Coordination Sequence:
#
# PCOD9076308 Si02
#       8
#     2   2   2   2   2   2   2   2
#     4  10  20  35  56  86 116 147 182 243 288 327
#     4  10  18  33  54  82 111 148 182 233 285 336
#     4  10  21  37  58  76 115 160 187 221 278 353
#     4  11  22  37  62  92 110 145 191 247 290 325
#     4  12  19  32  56  88 115 142 183 240 288 335
#     4   9  19  32  55  82 114 139 182 238 294 327
#     4  10  20  34  57  87 110 143 189 241 282 336
#     4  10  21  37  57  79 114 158 190 220 283 348
#
# _framework density 25.467319
#
# number of rings (size 3 to 8) (size 9 to 14) (size 15 to 20)
#    0.000    1.750    5.000    0.750    3.500    0.500 
#    0.000    0.000    8.250    3.000    0.000    0.000 
#    0.000    0.000    0.000    0.000    0.000    0.000 
#
# Total GULP energy -89145.029316 kJ/mol
# GULP energy per Si atom -5571.564332 kJ/mol
# Density = 2.540935 g / cm^3
# Si number density = 25.467319 Si / 1000 Ang^3
#
#
#
# Elastic Constant Matrix: (Units=GPa)
#
#
# Indices 1 2 3 4 5 6 
#
# 1 32.0398 9.3100 -1.4089 -8.6912 4.4146 -7.7170
# 2 9.3100 99.3511 29.7389 3.7735 -3.9147 -16.4176
# 3 -1.4089 29.7389 131.9397 -25.9600 -22.9006 -10.1216
# 4 -8.6912 3.7735 -25.9600 56.7591 -3.8561 8.2288
# 5 4.4146 -3.9147 -22.9006 -3.8561 31.4799 4.1757
# 6 -7.7170 -16.4176 -10.1216 8.2288 4.1757 28.8423
#
#
#
# Elastic Compliance Matrix: (Units=1/GPa)
#
#
# Indices 1 2 3 4 5 6 
#
# 1 0.036062 -0.003042 0.001913 0.005173 -0.004439 0.007755
# 2 -0.003042 0.012539 -0.003464 -0.003955 -0.001882 0.006509
# 3 0.001913 -0.003464 0.010957 0.006164 0.008100 -0.000546
# 4 0.005173 -0.003955 0.006164 0.022864 0.006893 -0.006225
# 5 -0.004439 -0.001882 0.008100 0.006893 0.039840 -0.007151
# 6 0.007755 0.006509 -0.000546 -0.006225 -0.007151 0.043071
#
#
# Mechanical properties :
#
#
# Convention : Reuss Voigt Hill
#
# Bulk Modulus (GPa) = 19.85229 37.62340 28.73785
# Shear Modulus (GPa) = 26.13563 38.46230 32.29897
#
# Velocity S-wave (km/s) = 3.20698 3.89042 3.56512
# Velocity P-wave (km/s) = 4.63951 5.91488 5.31558
#
# Compressibility (1/GPa) = 0.05037202
#
# Stress axis : x y z
#
# Youngs Moduli (GPa) = 27.73005 79.75119 91.26344
#
# Poissons Ratio (x) = 0.24259 -0.17459
# Poissons Ratio (y) = 0.08435 0.31617
# Poissons Ratio (z) = -0.05305 0.27629
#
# Static dielectric constant tensor:
#      x y z
#    x 2.071990 -0.062660 -0.054660 
#    y -0.062660 2.153360 -0.046530 
#    z -0.054660 -0.046530 2.158090 
# 
# From -- ./inp_files/437966.got.cif
#   From: 2010.05.17/outbox.cif.g08.bks.cpg/sg2_219_cif.got.tgz:437966.got - 2010.06.03 11:33:40.
