data_PCOD9076934
_publ_section_title
;
Structure prediction by ZEFSAII (Michael W. Deem and Ramdas Pophale) SiO2 
 PCOD9076934
Probable space group: P -1
;
_chemical_formula_sum "Si O2"
_cell_formula_units_Z 16
_cell_length_a 22.672721
_cell_length_b 5.322978
_cell_length_c 16.568649
_cell_angle_alpha 108.726010
_cell_angle_beta 159.862138
_cell_angle_gamma 69.701929
_cell_volume 645.608373
_symmetry_space_group_name_H-M "P -1"
_symmetry_group_IT_number 2
_symmetry_cell_setting 'triclinic'
loop_
_space_group_symop_operation_xyz
x,y,z
-x,-y,-z
loop_
_atom_site_type_symbol
_atom_site_label
_atom_site_fract_x
_atom_site_fract_y
_atom_site_fract_z
Si Si1 0.920743 0.381851 0.015602
Si Si2 0.606696 0.523544 0.814997
Si Si3 0.708337 0.196438 0.497171
Si Si4 0.203747 0.012842 0.943141
Si Si5 0.897005 0.720100 0.501033
Si Si6 0.753445 0.602575 0.463505
Si Si7 0.100617 0.163530 0.062336
Si Si8 0.188620 0.222688 0.780318
O O1 0.043458 0.419884 0.251730
O O2 0.817896 0.644964 0.872872
O O3 0.813047 0.139326 0.861115
O O4 0.061233 0.275874 0.112975
O O5 0.405457 0.626786 0.564057
O O6 0.668672 0.210478 0.868462
O O7 0.651098 0.630657 0.972761
O O8 0.722865 0.701071 0.928924
O O9 0.694296 0.357883 0.411102
O O10 0.908396 0.164265 0.777733
O O11 0.661711 0.895179 0.404326
O O12 0.013177 0.935915 0.710432
O O13 0.197554 0.985223 0.833263
O O14 0.760645 0.630667 0.379638
O O15 0.818337 0.839137 0.328367
O O16 0.026232 0.447451 0.618343
#
# Coordination Sequence:
#
# PCOD9076934 Si02
#       8
#     2   2   2   2   2   2   2   2
#     4   8  14  27  40  67  89 121 148 178 223 265
#     4   9  18  32  50  66  91 120 162 192 218 268
#     4  10  19  33  45  72  99 129 148 179 229 286
#     4   9  18  32  52  67  84 119 159 210 219 255
#     4  10  18  34  50  74  90 117 157 198 245 267
#     4  10  21  29  48  71 104 121 142 190 241 284
#     4   8  14  25  46  60  91 121 154 178 206 270
#     4   8  19  33  53  68  85 121 162 206 222 262
#
# _framework density 24.782824999999999
#
# number of rings (size 3 to 8) (size 9 to 14) (size 15 to 20)
#    0.750    2.250    0.000    1.125    1.750    0.000 
#    0.000    1.250    0.000    0.000    0.000    4.375 
#    0.000    0.125    0.000    0.000    0.000    0.000 
#
# Total GULP energy -89166.194024 kJ/mol
# GULP energy per Si atom -5572.887127 kJ/mol
# Density = 2.472642 g / cm^3
# Si number density = 24.782825 Si / 1000 Ang^3
#
#
#
# Elastic Constant Matrix: (Units=GPa)
#
#
# Indices 1 2 3 4 5 6 
#
# 1 101.8843 22.8671 20.0555 -13.9978 -9.6446 23.5459
# 2 22.8671 164.5445 1.2558 -20.9508 3.7153 42.7374
# 3 20.0555 1.2558 23.1230 -5.0523 1.0872 1.5427
# 4 -13.9978 -20.9508 -5.0523 17.1566 3.5309 -5.4225
# 5 -9.6446 3.7153 1.0872 3.5309 21.8345 -5.4069
# 6 23.5459 42.7374 1.5427 -5.4225 -5.4069 34.5078
#
#
#
# Elastic Compliance Matrix: (Units=1/GPa)
#
#
# Indices 1 2 3 4 5 6 
#
# 1 0.015346 0.001357 -0.011364 0.006947 0.003513 -0.010001
# 2 0.001357 0.011294 0.002214 0.012515 -0.006957 -0.014136
# 3 -0.011364 0.002214 0.056036 0.012851 -0.009513 0.003035
# 4 0.006947 0.012515 0.012851 0.083013 -0.015657 -0.010223
# 5 0.003513 -0.006957 -0.009513 -0.015657 0.054699 0.012754
# 6 -0.010001 -0.014136 0.003035 -0.010223 0.012754 0.053567
#
#
# Mechanical properties :
#
#
# Convention : Reuss Voigt Hill
#
# Bulk Modulus (GPa) = 14.90518 41.98984 28.44751
# Shear Modulus (GPa) = 16.03070 31.05801 23.54435
#
# Velocity S-wave (km/s) = 2.54608 3.54391 3.08559
# Velocity P-wave (km/s) = 3.83024 5.80738 4.91916
#
# Compressibility (1/GPa) = 0.06709076
#
# Stress axis : x y z
#
# Youngs Moduli (GPa) = 65.16460 88.54268 17.84580
#
# Poissons Ratio (x) = -0.12015 0.20279
# Poissons Ratio (y) = -0.08843 -0.03952
# Poissons Ratio (z) = 0.74051 -0.19607
#
# Static dielectric constant tensor:
#      x y z
#    x 2.027240 -0.024380 0.003140 
#    y -0.024380 2.118690 0.007540 
#    z 0.003140 0.007540 2.016560 
# 
# From -- ./inp_files/122296.got.cif
#   From: 2010.05.17/outbox.cif.g08.bks.cpg/sg2_62_cif.got.tgz:122296.got - 2010.06.03 11:33:40.
