data_PCOD9076556
_publ_section_title
;
Structure prediction by ZEFSAII (Michael W. Deem and Ramdas Pophale) SiO2 
 PCOD9076556
Probable space group: P -1
;
_chemical_formula_sum "Si O2"
_cell_formula_units_Z 14
_cell_length_a 7.720937
_cell_length_b 9.960410
_cell_length_c 19.716137
_cell_angle_alpha 155.552863
_cell_angle_beta 110.417269
_cell_angle_gamma 74.536125
_cell_volume 582.985630
_symmetry_space_group_name_H-M "P -1"
_symmetry_group_IT_number 2
_symmetry_cell_setting 'triclinic'
loop_
_space_group_symop_operation_xyz
x,y,z
-x,-y,-z
loop_
_atom_site_type_symbol
_atom_site_label
_atom_site_fract_x
_atom_site_fract_y
_atom_site_fract_z
Si Si1 0.718784 0.762721 0.817298
Si Si2 0.032057 0.248765 0.035087
Si Si3 0.922303 0.817897 0.199109
Si Si4 0.532229 0.039476 0.444032
Si Si5 0.562768 0.064260 0.238130
Si Si6 0.124320 0.188065 0.660724
Si Si7 0.731339 0.808624 0.630121
O O1 0.773418 0.773082 0.909517
O O2 0.543120 0.936322 0.848452
O O3 0.602255 0.940050 0.730785
O O4 0.897053 0.910909 0.864700
O O5 0.932948 0.456450 0.173418
O O6 0.007467 0.478092 0.071680
O O7 0.918530 0.973152 0.345777
O O8 0.705833 0.797950 0.139218
O O9 0.052433 0.055841 0.277202
O O10 0.660008 0.790079 0.316852
O O11 0.500000 0.000000 0.500000
O O12 0.655926 0.391765 0.614380
O O13 0.341749 0.038781 0.378582
O O14 0.682609 0.418841 0.434165
O O15 0.000000 0.000000 0.500000
#
# Coordination Sequence:
#
# PCOD9076556 Si02
#       7
#     2   2   2   2   2   2   2
#     4  10  20  37  55  84 119 153 185 240 294 341
#     4   9  20  36  59  82 114 154 191 235 292 343
#     4  10  20  37  58  83 114 151 192 237 285 340
#     4  11  19  34  58  88 114 151 195 239 287 337
#     4  10  21  34  56  85 119 148 191 239 292 334
#     4  10  18  33  57  86 107 145 194 234 276 336
#     4  10  19  34  55  86 117 147 191 244 284 339
#
# _framework density 24.014313000000001
#
# number of rings (size 3 to 8) (size 9 to 14) (size 15 to 20)
#    0.857    1.143    2.857    2.143    0.000    0.571 
#    0.000    2.857    0.000    1.714    0.000    0.000 
#    0.000    0.000    0.000    0.000    0.000    0.000 
#
# Total GULP energy -78098.982963 kJ/mol
# GULP energy per Si atom -5578.498783 kJ/mol
# Density = 2.395966 g / cm^3
# Si number density = 24.014313 Si / 1000 Ang^3
#
#
#
# Elastic Constant Matrix: (Units=GPa)
#
#
# Indices 1 2 3 4 5 6 
#
# 1 99.1966 33.5297 19.3140 1.2941 1.6654 0.5943
# 2 33.5297 126.9125 9.7051 3.3253 -0.7538 -25.2331
# 3 19.3140 9.7051 49.5864 -2.5712 8.7417 1.9028
# 4 1.2941 3.3253 -2.5712 21.2446 2.9317 8.8631
# 5 1.6654 -0.7538 8.7417 2.9317 21.4232 -5.9140
# 6 0.5943 -25.2331 1.9028 8.8631 -5.9140 41.8309
#
#
#
# Elastic Compliance Matrix: (Units=1/GPa)
#
#
# Indices 1 2 3 4 5 6 
#
# 1 0.011958 -0.003256 -0.003937 0.000133 -0.000003 -0.001984
# 2 -0.003256 0.010824 -0.002342 -0.006048 0.004803 0.008643
# 3 -0.003937 -0.002342 0.025038 0.007880 -0.012718 -0.005963
# 4 0.000133 -0.006048 0.007880 0.059166 -0.016756 -0.018914
# 5 -0.000003 0.004803 -0.012718 -0.016756 0.058555 0.015305
# 6 -0.001984 0.008643 -0.005963 -0.018914 0.015305 0.035590
#
#
# Mechanical properties :
#
#
# Convention : Reuss Voigt Hill
#
# Bulk Modulus (GPa) = 34.78258 44.53259 39.65759
# Shear Modulus (GPa) = 21.75942 31.10952 26.43447
#
# Velocity S-wave (km/s) = 3.01342 3.60315 3.32140
# Velocity P-wave (km/s) = 5.15976 5.99122 5.59097
#
# Compressibility (1/GPa) = 0.02875002
#
# Stress axis : x y z
#
# Youngs Moduli (GPa) = 83.62355 92.38593 39.93909
#
# Poissons Ratio (x) = 0.30082 0.15724
# Poissons Ratio (y) = 0.27229 0.09355
# Poissons Ratio (z) = 0.32922 0.21639
#
# Static dielectric constant tensor:
#      x y z
#    x 1.966510 -0.026880 0.015050 
#    y -0.026880 2.011470 0.021320 
#    z 0.015050 0.021320 1.932450 
# 
# From -- ./inp_files/555786.got.cif
#   From: 2010.05.17/outbox.cif.g08.bks.cpg/sg2_278_cif.got.tgz:555786.got - 2010.06.03 11:33:40.
