data_PCOD9076566
_publ_section_title
;
Structure prediction by ZEFSAII (Michael W. Deem and Ramdas Pophale) SiO2 
 PCOD9076566
Probable space group: P -1
;
_chemical_formula_sum "Si O2"
_cell_formula_units_Z 14
_cell_length_a 7.737753
_cell_length_b 11.585451
_cell_length_c 12.830161
_cell_angle_alpha 129.960263
_cell_angle_beta 98.250657
_cell_angle_gamma 120.437443
_cell_volume 535.648696
_symmetry_space_group_name_H-M "P -1"
_symmetry_group_IT_number 2
_symmetry_cell_setting 'triclinic'
loop_
_space_group_symop_operation_xyz
x,y,z
-x,-y,-z
loop_
_atom_site_type_symbol
_atom_site_label
_atom_site_fract_x
_atom_site_fract_y
_atom_site_fract_z
Si Si1 0.745988 0.496088 0.011713
Si Si2 0.069771 0.657962 0.314577
Si Si3 0.386623 0.721899 0.767116
Si Si4 0.884456 0.175590 0.225394
Si Si5 0.605679 0.842825 0.417906
Si Si6 0.402927 0.450045 0.301184
Si Si7 0.199504 0.193640 0.918617
O O1 0.930105 0.759437 0.132710
O O2 0.931485 0.510815 0.106982
O O3 0.552005 0.307579 0.790995
O O4 0.520643 0.401717 0.023620
O O5 0.376084 0.790536 0.428241
O O6 0.856924 0.475658 0.282486
O O7 0.129051 0.875302 0.428365
O O8 0.256031 0.766251 0.710925
O O9 0.477333 0.619501 0.675326
O O10 0.658633 0.970933 0.997793
O O11 0.185602 0.392783 0.320908
O O12 0.906988 0.049615 0.231924
O O13 0.629718 0.712791 0.417113
O O14 0.215102 0.259888 0.077088
#
# Coordination Sequence:
#
# PCOD9076566 Si02
#       7
#     2   2   2   2   2   2   2
#     4  10  19  37  56  87 120 150 194 240 294 348
#     4  11  20  39  57  91 120 149 203 237 289 359
#     4  10  19  31  56  88 111 154 199 233 293 347
#     4  10  18  33  57  86 119 150 197 248 278 349
#     4  10  23  35  60  89 119 157 188 248 295 334
#     4  10  18  35  54  88 117 149 200 240 285 350
#     4   9  18  32  54  86 116 149 196 238 288 346
#
# _framework density 26.136533
#
# number of rings (size 3 to 8) (size 9 to 14) (size 15 to 20)
#    0.000    2.000    4.286    2.143    0.000    0.571 
#    0.000    0.000    0.000    1.714    7.429    0.000 
#    0.000    0.000    0.000    0.000    0.000    0.000 
#
# Total GULP energy -78255.130993 kJ/mol
# GULP energy per Si atom -5589.652214 kJ/mol
# Density = 2.607704 g / cm^3
# Si number density = 26.136533 Si / 1000 Ang^3
#
#
#
# Elastic Constant Matrix: (Units=GPa)
#
#
# Indices 1 2 3 4 5 6 
#
# 1 96.5819 25.3149 5.1876 -6.3473 -3.7493 2.0685
# 2 25.3149 76.9468 26.0587 27.4161 21.9865 -26.2152
# 3 5.1876 26.0587 90.4660 4.4775 -2.1946 -3.4774
# 4 -6.3473 27.4161 4.4775 17.1057 -22.7414 16.4516
# 5 -3.7493 21.9865 -2.1946 -22.7414 1.0676 29.0685
# 6 2.0685 -26.2152 -3.4774 16.4516 29.0685 30.8372
#
#
#
# Elastic Compliance Matrix: (Units=1/GPa)
#
#
# Indices 1 2 3 4 5 6 
#
# 1 0.010496 -0.001398 -0.000179 -0.000701 -0.003740 0.001987
# 2 -0.001398 0.008630 -0.002515 0.003775 0.010020 -0.004312
# 3 -0.000179 -0.002515 0.011907 -0.001925 -0.001136 0.001314
# 4 -0.000701 0.003775 -0.001925 0.017367 -0.018458 0.011174
# 5 -0.003740 0.010020 -0.001136 -0.018458 0.007366 0.011544
# 6 0.001987 -0.004312 0.001314 0.011174 0.011544 0.011935
#
#
# Mechanical properties :
#
#
# Convention : Reuss Voigt Hill
#
# Bulk Modulus (GPa) = 43.76461 41.90190 42.83326
# Shear Modulus (GPa) = 59.87887 23.63101 41.75494
#
# Velocity S-wave (km/s) = 4.79163 3.01015 4.00130
# Velocity P-wave (km/s) = 6.88433 5.30548 6.14581
#
# Compressibility (1/GPa) = 0.02284951
#
# Stress axis : x y z
#
# Youngs Moduli (GPa) = 95.27381 115.87025 83.98467
#
# Poissons Ratio (x) = 0.16193 0.01503
# Poissons Ratio (y) = 0.13315 0.21125
# Poissons Ratio (z) = 0.01705 0.29146
#
# Static dielectric constant tensor:
#      x y z
#    x 2.122820 -0.104010 -0.022660 
#    y -0.104010 2.024770 -0.011090 
#    z -0.022660 -0.011090 2.075480 
# 
# From -- ./inp_files/207749.got.cif
#   From: 2010.05.17/outbox.cif.g08.bks.cpg/sg2_104_cif.got.tgz:207749.got - 2010.06.03 11:33:40.
