data_PCOD9076252
_publ_section_title
;
Structure prediction by ZEFSAII (Michael W. Deem and Ramdas Pophale) SiO2 
 PCOD9076252
Probable space group: P -1
;
_chemical_formula_sum "Si O2"
_cell_formula_units_Z 16
_cell_length_a 15.763337
_cell_length_b 11.901947
_cell_length_c 17.088124
_cell_angle_alpha 157.671122
_cell_angle_beta 33.051245
_cell_angle_gamma 143.632178
_cell_volume 657.347261
_symmetry_space_group_name_H-M "P -1"
_symmetry_group_IT_number 2
_symmetry_cell_setting 'triclinic'
loop_
_space_group_symop_operation_xyz
x,y,z
-x,-y,-z
loop_
_atom_site_type_symbol
_atom_site_label
_atom_site_fract_x
_atom_site_fract_y
_atom_site_fract_z
Si Si1 0.636524 0.427984 0.012096
Si Si2 0.312131 0.394323 0.566995
Si Si3 0.592525 0.814855 0.167963
Si Si4 0.676990 0.066124 0.873153
Si Si5 0.128844 0.780049 0.607199
Si Si6 0.273943 0.280292 0.242502
Si Si7 0.701093 0.006863 0.548196
Si Si8 0.132948 0.899427 0.964562
O O1 0.710242 0.262438 0.774862
O O2 0.712900 0.394900 0.017578
O O3 0.614871 0.746611 0.197500
O O4 0.454246 0.286141 0.078310
O O5 0.500000 0.500000 0.500000
O O6 0.309401 0.118265 0.334080
O O7 0.201036 0.598174 0.740320
O O8 0.255412 0.279568 0.623321
O O9 0.480058 0.049127 0.377554
O O10 0.757781 0.920434 0.068700
O O11 0.500000 0.500000 0.000000
O O12 0.764917 0.902146 0.765197
O O13 0.500000 0.000000 0.000000
O O14 0.231973 0.614352 0.481948
O O15 0.211249 0.882634 0.527476
O O16 0.000000 0.500000 0.500000
O O17 0.045167 0.049567 0.880642
O O18 0.173017 0.077779 0.128007
#
# Coordination Sequence:
#
# PCOD9076252 Si02
#       8
#     2   2   2   2   2   2   2   2
#     4   9  14  26  49  74  94 127 175 211 249 300
#     4  11  20  34  54  79 108 137 175 220 261 315
#     4  10  14  27  51  75  99 130 172 222 250 297
#     4   9  19  30  51  79 104 137 172 213 270 312
#     4  10  20  31  52  81 105 136 181 221 254 304
#     4  10  16  32  51  76 106 135 174 221 260 310
#     4  10  17  29  51  76 105 137 169 217 267 300
#     4  11  20  32  53  81 106 134 178 220 262 304
#
# _framework density 24.340256
#
# number of rings (size 3 to 8) (size 9 to 14) (size 15 to 20)
#    0.000    2.000    5.000    3.750    0.000    0.500 
#    0.000    0.625    0.000   27.000    0.000    3.500 
#    0.000    0.000    0.000    0.000    0.000    0.000 
#
# Total GULP energy -89120.283231 kJ/mol
# GULP energy per Si atom -5570.017702 kJ/mol
# Density = 2.428486 g / cm^3
# Si number density = 24.340256 Si / 1000 Ang^3
#
#
#
# Elastic Constant Matrix: (Units=GPa)
#
#
# Indices 1 2 3 4 5 6 
#
# 1 79.7071 54.5877 15.6480 -0.5239 -6.1922 -54.1951
# 2 54.5877 99.2059 23.1846 -1.9716 -13.0297 -59.9601
# 3 15.6480 23.1846 91.9125 0.4913 -29.9992 -16.7275
# 4 -0.5239 -1.9716 0.4913 34.3604 -6.9279 -3.7788
# 5 -6.1922 -13.0297 -29.9992 -6.9279 27.9507 8.2378
# 6 -54.1951 -59.9601 -16.7275 -3.7788 8.2378 62.5619
#
#
#
# Elastic Compliance Matrix: (Units=1/GPa)
#
#
# Indices 1 2 3 4 5 6 
#
# 1 0.031061 -0.001636 -0.000724 0.002902 -0.001458 0.025513
# 2 -0.001636 0.025513 -0.000113 0.005136 0.006046 0.022519
# 3 -0.000724 -0.000113 0.017530 0.003755 0.019040 0.001672
# 4 0.002902 0.005136 0.003755 0.032901 0.012639 0.008763
# 5 -0.001458 0.006046 0.019040 0.012639 0.061153 0.002333
# 6 0.025513 0.022519 0.001672 0.008763 0.002333 0.060337
#
#
# Mechanical properties :
#
#
# Convention : Reuss Voigt Hill
#
# Bulk Modulus (GPa) = 14.45933 50.85179 32.65556
# Shear Modulus (GPa) = 19.49368 36.80164 28.14766
#
# Velocity S-wave (km/s) = 2.83306 3.89262 3.40431
# Velocity P-wave (km/s) = 4.08106 6.41410 5.37567
#
# Compressibility (1/GPa) = 0.06915949
#
# Stress axis : x y z
#
# Youngs Moduli (GPa) = 32.19454 39.19532 57.04437
#
# Poissons Ratio (x) = 0.06412 0.04129
# Poissons Ratio (y) = 0.05267 0.00644
# Poissons Ratio (z) = 0.02330 0.00443
#
# Static dielectric constant tensor:
#      x y z
#    x 2.125910 -0.083890 -0.213460 
#    y -0.083890 2.030780 0.152610 
#    z -0.213460 0.152610 2.298650 
# 
# From -- ./inp_files/575864.got.cif
#   From: 2010.05.17/outbox.cif.g08.bks.cpg/sg2_288_cif.got.tgz:575864.got - 2010.06.03 11:33:40.
