data_PCOD9076676
_publ_section_title
;
Structure prediction by ZEFSAII (Michael W. Deem and Ramdas Pophale) SiO2 
 PCOD9076676
Probable space group: P -1
;
_chemical_formula_sum "Si O2"
_cell_formula_units_Z 15
_cell_length_a 9.982675
_cell_length_b 8.265320
_cell_length_c 16.238033
_cell_angle_alpha 147.691362
_cell_angle_beta 76.609855
_cell_angle_gamma 118.409899
_cell_volume 586.950411
_symmetry_space_group_name_H-M "P -1"
_symmetry_group_IT_number 2
_symmetry_cell_setting 'triclinic'
loop_
_space_group_symop_operation_xyz
x,y,z
-x,-y,-z
loop_
_atom_site_type_symbol
_atom_site_label
_atom_site_fract_x
_atom_site_fract_y
_atom_site_fract_z
Si Si1 0.500000 0.500000 0.500000
Si Si2 0.782342 0.681992 0.108190
Si Si3 0.002376 0.195493 0.424210
Si Si4 0.691137 0.246945 0.308413
Si Si5 0.422562 0.148498 0.001818
Si Si6 0.837950 0.636911 0.903082
Si Si7 0.584195 0.566591 0.706345
Si Si8 0.249159 0.815100 0.427863
O O1 0.538979 0.175692 0.353184
O O2 0.572394 0.623829 0.637037
O O3 0.603863 0.396192 0.045672
O O4 0.917405 0.841674 0.229033
O O5 0.756561 0.999011 0.218002
O O6 0.845091 0.584582 0.976690
O O7 0.888018 0.151487 0.496336
O O8 0.000000 0.500000 0.500000
O O9 0.178304 0.351584 0.506368
O O10 0.664207 0.205281 0.196240
O O11 0.316253 0.321870 0.069500
O O12 0.413812 0.163941 0.109142
O O13 0.799002 0.299484 0.708587
O O14 0.000000 0.000000 0.000000
O O15 0.730383 0.499869 0.673057
O O16 0.416604 0.185019 0.581322
#
# Coordination Sequence:
#
# PCOD9076676 Si02
#       8
#     1   2   2   2   2   2   2   2
#     4  12  26  38  56  88 124 158 198 246 306 358
#     4  10  19  35  62  92 118 151 200 253 298 346
#     4  10  18  33  58  89 119 152 191 248 300 347
#     4  10  22  36  58  85 123 156 194 239 302 359
#     4  10  20  37  61  87 114 156 204 249 293 352
#     4  10  19  29  53  95 128 147 184 253 311 346
#     4  10  22  36  58  90 116 158 194 251 294 358
#     4  10  19  35  61  88 120 147 204 245 295 347
#
# _framework density 25.555823
#
# number of rings (size 3 to 8) (size 9 to 14) (size 15 to 20)
#    0.000    1.867    1.333    5.600    5.600    1.600 
#    0.000    0.667    0.000    0.800    0.000    0.000 
#    0.000    0.000    0.000    0.000    0.000    0.000 
#
# Total GULP energy -83599.316151 kJ/mol
# GULP energy per Si atom -5573.287743 kJ/mol
# Density = 2.549766 g / cm^3
# Si number density = 25.555823 Si / 1000 Ang^3
#
#
#
# Elastic Constant Matrix: (Units=GPa)
#
#
# Indices 1 2 3 4 5 6 
#
# 1 -16.6456 54.0745 38.7471 -7.4199 3.0677 -11.9767
# 2 54.0745 72.7882 60.6792 -27.7964 15.2093 14.4381
# 3 38.7471 60.6792 183.5674 -71.6421 13.7656 -8.9565
# 4 -7.4199 -27.7964 -71.6421 50.7031 -0.4620 0.6883
# 5 3.0677 15.2093 13.7656 -0.4620 35.1975 -1.2260
# 6 -11.9767 14.4381 -8.9565 0.6883 -1.2260 26.1241
#
#
#
# Elastic Compliance Matrix: (Units=1/GPa)
#
#
# Indices 1 2 3 4 5 6 
#
# 1 -0.010322 0.013847 -0.000471 0.005543 -0.005278 -0.012940
# 2 0.013847 0.008655 -0.006697 -0.002703 -0.002390 -0.000772
# 3 -0.000471 -0.006697 0.015235 0.017653 -0.002509 0.008126
# 4 0.005543 -0.002703 0.017653 0.043828 -0.005341 0.008682
# 5 -0.005278 -0.002390 -0.002509 -0.005341 0.030802 -0.000372
# 6 -0.012940 -0.000772 0.008126 0.008682 -0.000372 0.035313
#
#
# Mechanical properties :
#
#
# Convention : Reuss Voigt Hill
#
# Bulk Modulus (GPa) = 37.13861 60.74573 48.94217
# Shear Modulus (GPa) = 41.97174 28.15222 35.06198
#
# Velocity S-wave (km/s) = 4.05699 3.32263 3.70804
# Velocity P-wave (km/s) = 6.04231 6.20816 6.12580
#
# Compressibility (1/GPa) = 0.02692615
#
# Stress axis : x y z
#
# Youngs Moduli (GPa) = -96.88140 115.54154 65.63953
#
# Poissons Ratio (x) = -1.59989 0.03089
# Poissons Ratio (y) = 1.34150 0.43959
# Poissons Ratio (z) = -0.04560 0.77378
#
# Static dielectric constant tensor:
#      x y z
#    x 2.125150 0.016840 0.023990 
#    y 0.016840 2.066890 -0.001490 
#    z 0.023990 -0.001490 2.027900 
# 
# From -- ./inp_files/514738.got.cif
#   From: 2010.05.17/outbox.cif.g08.bks.cpg/sg2_258_cif.got.tgz:514738.got - 2010.06.03 11:33:40.
