data_PCOD9076604
_publ_section_title
;
Structure prediction by ZEFSAII (Michael W. Deem and Ramdas Pophale) SiO2 
 PCOD9076604
Probable space group: P -1
;
_chemical_formula_sum "Si O2"
_cell_formula_units_Z 11
_cell_length_a 14.971505
_cell_length_b 13.659652
_cell_length_c 9.569229
_cell_angle_alpha 147.096349
_cell_angle_beta 29.563338
_cell_angle_gamma 151.689274
_cell_volume 434.527308
_symmetry_space_group_name_H-M "P -1"
_symmetry_group_IT_number 2
_symmetry_cell_setting 'triclinic'
loop_
_space_group_symop_operation_xyz
x,y,z
-x,-y,-z
loop_
_atom_site_type_symbol
_atom_site_label
_atom_site_fract_x
_atom_site_fract_y
_atom_site_fract_z
Si Si1 0.723409 0.962709 0.061017
Si Si2 0.207908 0.257879 0.797611
Si Si3 0.500000 0.500000 0.500000
Si Si4 0.833109 0.609972 0.411801
Si Si5 0.688752 0.023870 0.865638
Si Si6 0.492404 0.298348 0.701924
O O1 0.804264 0.800705 0.732139
O O2 0.652925 0.997799 0.048455
O O3 0.558573 0.861197 0.292977
O O4 0.959904 0.178132 0.040320
O O5 0.383363 0.506591 0.820286
O O6 0.290378 0.191935 0.739267
O O7 0.281290 0.172851 0.458813
O O8 0.699507 0.516108 0.339092
O O9 0.716790 0.417355 0.452245
O O10 0.089606 0.748597 0.200932
O O11 0.500000 0.000000 0.000000
O O12 0.500000 0.500000 0.000000
#
# Coordination Sequence:
#
# PCOD9076604 Si02
#       6
#     2   2   1   2   2   2
#     4  10  17  34  53  81 102 137 178 221 258 310
#     4  10  18  32  57  79 106 136 173 224 264 303
#     4  10  14  28  54  78  96 128 168 218 264 286
#     4   9  17  32  54  78 104 131 173 224 262 298
#     4  11  21  35  53  77 110 147 179 204 254 323
#     4   9  19  31  55  84 106 125 176 229 272 303
#
# _framework density 25.314862999999999
#
# number of rings (size 3 to 8) (size 9 to 14) (size 15 to 20)
#    0.000    2.182    3.636    1.636    0.000    0.000 
#    0.000    5.455    0.000    0.000    0.000    0.000 
#    0.000    0.000    0.000    0.000    0.000    0.000 
#
# Total GULP energy -61323.154689 kJ/mol
# GULP energy per Si atom -5574.832244 kJ/mol
# Density = 2.525725 g / cm^3
# Si number density = 25.314863 Si / 1000 Ang^3
#
#
#
# Elastic Constant Matrix: (Units=GPa)
#
#
# Indices 1 2 3 4 5 6 
#
# 1 203.7747 99.6015 55.7967 -50.3516 12.4728 -34.8034
# 2 99.6015 152.9990 53.2479 -54.5544 -19.3347 -15.9764
# 3 55.7967 53.2479 79.3439 -19.2614 9.7561 -21.6655
# 4 -50.3516 -54.5544 -19.2614 59.3846 -1.5443 0.5403
# 5 12.4728 -19.3347 9.7561 -1.5443 29.5570 -7.5661
# 6 -34.8034 -15.9764 -21.6655 0.5403 -7.5661 53.0478
#
#
#
# Elastic Compliance Matrix: (Units=1/GPa)
#
#
# Indices 1 2 3 4 5 6 
#
# 1 0.009268 -0.005337 -0.000653 0.002552 -0.006210 0.003295
# 2 -0.005337 0.019416 -0.008511 0.011024 0.018703 0.001425
# 3 -0.000653 -0.008511 0.020742 -0.001973 -0.011244 0.003896
# 4 0.002552 0.011024 -0.001973 0.028694 0.009634 0.005271
# 5 -0.006210 0.018703 -0.011244 0.009634 0.054075 0.004581
# 6 0.003295 0.001425 0.003896 0.005271 0.004581 0.023633
#
#
# Mechanical properties :
#
#
# Convention : Reuss Voigt Hill
#
# Bulk Modulus (GPa) = 48.96360 94.82332 71.89346
# Shear Modulus (GPa) = 26.09084 43.56264 34.82674
#
# Velocity S-wave (km/s) = 3.21386 4.15279 3.71312
# Velocity P-wave (km/s) = 5.75810 7.78030 6.84430
#
# Compressibility (1/GPa) = 0.02042334
#
# Stress axis : x y z
#
# Youngs Moduli (GPa) = 107.89388 51.50506 48.21118
#
# Poissons Ratio (x) = 0.27488 0.03149
# Poissons Ratio (y) = 0.57582 0.41033
# Poissons Ratio (z) = 0.07048 0.43837
#
# Static dielectric constant tensor:
#      x y z
#    x 1.980730 0.078830 0.006270 
#    y 0.078830 0.335930 -0.088440 
#    z 0.006270 -0.088440 2.099430 
# 
# From -- ./inp_files/145408.got.cif
#   From: 2010.05.17/outbox.cif.g08.bks.cpg/sg2_73_cif.got.tgz:145408.got - 2010.06.03 11:33:40.
