data_PCOD9076756
_publ_section_title
;
Structure prediction by ZEFSAII (Michael W. Deem and Ramdas Pophale) SiO2 
 PCOD9076756
Probable space group: P -1
;
_chemical_formula_sum "Si O2"
_cell_formula_units_Z 16
_cell_length_a 13.777128
_cell_length_b 7.991014
_cell_length_c 17.404430
_cell_angle_alpha 146.201365
_cell_angle_beta 42.376574
_cell_angle_gamma 137.465824
_cell_volume 678.654452
_symmetry_space_group_name_H-M "P -1"
_symmetry_group_IT_number 2
_symmetry_cell_setting 'triclinic'
loop_
_space_group_symop_operation_xyz
x,y,z
-x,-y,-z
loop_
_atom_site_type_symbol
_atom_site_label
_atom_site_fract_x
_atom_site_fract_y
_atom_site_fract_z
Si Si1 0.412596 0.569757 0.488229
Si Si2 0.274375 0.161244 0.032111
Si Si3 0.739765 0.828778 0.444257
Si Si4 0.701455 0.924376 0.190348
Si Si5 0.239484 0.557537 0.430519
Si Si6 0.454997 0.306546 0.124684
Si Si7 0.949965 0.219130 0.272473
Si Si8 0.863833 0.563135 0.151531
O O1 0.588609 0.608225 0.402536
O O2 0.303286 0.248555 0.470595
O O3 0.357577 0.649946 0.468712
O O4 0.399564 0.846115 0.657993
O O5 0.414388 0.342296 0.073113
O O6 0.123995 0.243455 0.176157
O O7 0.279831 0.189536 0.948652
O O8 0.253617 0.790094 0.918089
O O9 0.870748 0.689322 0.284092
O O10 0.755559 0.178666 0.536579
O O11 0.599823 0.612654 0.176914
O O12 0.863738 0.148033 0.214395
O O13 0.298821 0.296460 0.255702
O O14 0.084120 0.512894 0.552380
O O15 0.500000 0.000000 0.000000
O O16 0.855569 0.882859 0.239272
O O17 0.000000 0.500000 0.000000
#
# Coordination Sequence:
#
# PCOD9076756 Si02
#       8
#     2   2   2   2   2   2   2   2
#     4  10  20  32  63  90 120 151 203 267 312 346
#     4  11  22  40  60  91 129 164 199 245 316 381
#     4  10  18  33  59  90 119 156 200 264 311 359
#     4  11  21  40  61  96 121 154 210 260 308 365
#     4  10  22  39  59  90 123 158 214 251 310 369
#     4  12  27  40  60  87 130 171 200 252 315 378
#     4   9  21  38  68  89 116 161 207 263 304 353
#     4   9  18  33  57  88 116 155 200 250 302 365
#
# _framework density 23.576062
#
# number of rings (size 3 to 8) (size 9 to 14) (size 15 to 20)
#    0.000    1.750    2.500    1.875    5.250    0.500 
#    2.250    0.000    0.000    0.750    0.000    0.000 
#    0.000    0.000    0.000    0.000    0.000    0.000 
#
# Total GULP energy -89086.258839 kJ/mol
# GULP energy per Si atom -5567.891177 kJ/mol
# Density = 2.352240 g / cm^3
# Si number density = 23.576062 Si / 1000 Ang^3
#
#
#
# Elastic Constant Matrix: (Units=GPa)
#
#
# Indices 1 2 3 4 5 6 
#
# 1 83.2239 30.6636 35.4514 -5.9695 -2.1770 1.2205
# 2 30.6636 48.3600 16.9506 -9.3615 -5.9253 -6.8061
# 3 35.4514 16.9506 143.0663 -18.6235 -22.5754 -3.5934
# 4 -5.9695 -9.3615 -18.6235 23.6415 -9.7609 -1.5865
# 5 -2.1770 -5.9253 -22.5754 -9.7609 30.5000 2.2929
# 6 1.2205 -6.8061 -3.5934 -1.5865 2.2929 24.8419
#
#
#
# Elastic Compliance Matrix: (Units=1/GPa)
#
#
# Indices 1 2 3 4 5 6 
#
# 1 0.018377 -0.012960 -0.005369 -0.008115 -0.007396 -0.005066
# 2 -0.012960 0.034732 0.004455 0.020905 0.015002 0.010747
# 3 -0.005369 0.004455 0.012289 0.016304 0.014574 0.002958
# 4 -0.008115 0.020905 0.016304 0.078521 0.039941 0.009813
# 5 -0.007396 0.015002 0.014574 0.039941 0.058462 0.003737
# 6 -0.005066 0.010747 0.002958 0.009813 0.003737 0.044158
#
#
# Mechanical properties :
#
#
# Convention : Reuss Voigt Hill
#
# Bulk Modulus (GPa) = 26.56096 48.97568 37.76832
# Shear Modulus (GPa) = 17.43158 28.56899 23.00028
#
# Velocity S-wave (km/s) = 2.72210 3.48484 3.12681
# Velocity P-wave (km/s) = 4.60112 6.08364 5.39356
#
# Compressibility (1/GPa) = 0.03764925
#
# Stress axis : x y z
#
# Youngs Moduli (GPa) = 54.41666 28.79188 81.37577
#
# Poissons Ratio (x) = 0.37315 0.43689
# Poissons Ratio (y) = 0.70526 -0.36253
# Poissons Ratio (z) = 0.29215 -0.12827
#
# Static dielectric constant tensor:
#      x y z
#    x 1.932540 -0.034820 0.035250 
#    y -0.034820 1.970190 -0.058120 
#    z 0.035250 -0.058120 1.965710 
# 
# From -- ./inp_files/572960.got.cif
#   From: 2010.05.17/outbox.cif.g08.bks.cpg/sg2_287_cif.got.tgz:572960.got - 2010.06.03 11:33:40.
