data_PCOD9076579
_publ_section_title
;
Structure prediction by ZEFSAII (Michael W. Deem and Ramdas Pophale) SiO2 
 PCOD9076579
Probable space group: P -1
;
_chemical_formula_sum "Si O2"
_cell_formula_units_Z 16
_cell_length_a 16.590045
_cell_length_b 13.241157
_cell_length_c 11.630319
_cell_angle_alpha 39.853052
_cell_angle_beta 33.209641
_cell_angle_gamma 25.249042
_cell_volume 596.220557
_symmetry_space_group_name_H-M "P -1"
_symmetry_group_IT_number 2
_symmetry_cell_setting 'triclinic'
loop_
_space_group_symop_operation_xyz
x,y,z
-x,-y,-z
loop_
_atom_site_type_symbol
_atom_site_label
_atom_site_fract_x
_atom_site_fract_y
_atom_site_fract_z
Si Si1 0.395915 0.884725 0.367567
Si Si2 0.186249 0.261900 0.912680
Si Si3 0.346348 0.965616 0.609215
Si Si4 0.018790 0.050026 0.063834
Si Si5 0.309076 0.358455 0.341790
Si Si6 0.087410 0.390555 0.266782
Si Si7 0.601683 0.561088 0.193718
Si Si8 0.334316 0.787743 0.108468
O O1 0.592212 0.845284 0.204394
O O2 0.303059 0.926343 0.570377
O O3 0.210100 0.133173 0.305262
O O4 0.505327 0.673215 0.336407
O O5 0.106545 0.390435 0.773102
O O6 0.216800 0.049540 0.051651
O O7 0.000000 0.500000 0.000000
O O8 0.555282 0.715107 0.638905
O O9 0.158937 0.091555 0.818696
O O10 0.381316 0.124680 0.420362
O O11 0.804120 0.280220 0.185755
O O12 0.175191 0.839364 0.156206
O O13 0.000000 0.000000 0.000000
O O14 0.424879 0.379010 0.093634
O O15 0.047947 0.554323 0.505269
O O16 0.280089 0.369376 0.052756
O O17 0.404477 0.662118 0.256804
#
# Coordination Sequence:
#
# PCOD9076579 Si02
#       8
#     2   2   2   2   2   2   2   2
#     4  12  23  33  56  96 125 157 189 228 302 374
#     4  12  19  32  52  83 130 161 181 223 282 364
#     4  10  19  37  59  86 121 150 198 244 291 349
#     4  11  25  45  66  82 107 159 213 252 290 334
#     4  10  18  33  57  88 122 158 185 237 295 351
#     4  12  20  30  55  90 127 160 181 223 296 360
#     4  12  23  37  59  88 124 159 193 239 295 354
#     4  11  22  38  59  89 122 151 195 245 290 356
#
# _framework density 26.835705000000001
#
# number of rings (size 3 to 8) (size 9 to 14) (size 15 to 20)
#    0.000    0.750    7.500    1.875    1.750    1.500 
#    0.000    0.625    0.000    0.750    0.000    0.000 
#    0.000    0.000    0.000    0.000    0.000    0.000 
#
# Total GULP energy -89410.820857 kJ/mol
# GULP energy per Si atom -5588.176304 kJ/mol
# Density = 2.677463 g / cm^3
# Si number density = 26.835705 Si / 1000 Ang^3
#
#
#
# Elastic Constant Matrix: (Units=GPa)
#
#
# Indices 1 2 3 4 5 6 
#
# 1 162.2188 39.9320 21.6375 5.1703 36.5986 1.2216
# 2 39.9320 111.4475 38.4609 32.5547 9.7721 4.0923
# 3 21.6375 38.4609 62.5993 30.8474 20.7180 7.9859
# 4 5.1703 32.5547 30.8474 33.4891 12.1574 11.0595
# 5 36.5986 9.7721 20.7180 12.1574 29.3981 -3.6331
# 6 1.2216 4.0923 7.9859 11.0595 -3.6331 39.3356
#
#
#
# Elastic Compliance Matrix: (Units=1/GPa)
#
#
# Indices 1 2 3 4 5 6 
#
# 1 0.011167 -0.005782 0.000528 0.011351 -0.017624 -0.004672
# 2 -0.005782 0.016302 -0.004373 -0.017323 0.012694 0.005414
# 3 0.000528 -0.004373 0.034029 -0.021258 -0.014622 -0.001844
# 4 0.011351 -0.017323 -0.021258 0.081941 -0.029752 -0.020021
# 5 -0.017624 0.012694 -0.014622 -0.029752 0.076523 0.017628
# 6 -0.004672 0.005414 -0.001844 -0.020021 0.017628 0.032636
#
#
# Mechanical properties :
#
#
# Convention : Reuss Voigt Hill
#
# Bulk Modulus (GPa) = 23.67269 59.59183 41.63226
# Shear Modulus (GPa) = 17.48656 36.19357 26.84006
#
# Velocity S-wave (km/s) = 2.55545 3.67646 3.16597
# Velocity P-wave (km/s) = 4.18898 6.34635 5.37698
#
# Compressibility (1/GPa) = 0.04224276
#
# Stress axis : x y z
#
# Youngs Moduli (GPa) = 89.54970 61.34216 29.38669
#
# Poissons Ratio (x) = 0.35470 -0.01551
# Poissons Ratio (y) = 0.51780 0.12851
# Poissons Ratio (z) = -0.04727 0.26826
#
# Static dielectric constant tensor:
#      x y z
#    x 2.231530 -0.039090 -0.081930 
#    y -0.039090 2.078430 0.005880 
#    z -0.081930 0.005880 2.237450 
# 
# From -- ./inp_files/451238.got.cif
#   From: 2010.05.17/outbox.cif.g08.bks.cpg/sg2_226_cif.got.tgz:451238.got - 2010.06.03 11:33:40.
