data_PCOD9076755
_publ_section_title
;
Structure prediction by ZEFSAII (Michael W. Deem and Ramdas Pophale) SiO2 
 PCOD9076755
Probable space group: P -1
;
_chemical_formula_sum "Si O2"
_cell_formula_units_Z 16
_cell_length_a 20.544478
_cell_length_b 9.667902
_cell_length_c 19.184812
_cell_angle_alpha 153.880111
_cell_angle_beta 148.815674
_cell_angle_gamma 38.117228
_cell_volume 865.742792
_symmetry_space_group_name_H-M "P -1"
_symmetry_group_IT_number 2
_symmetry_cell_setting 'triclinic'
loop_
_space_group_symop_operation_xyz
x,y,z
-x,-y,-z
loop_
_atom_site_type_symbol
_atom_site_label
_atom_site_fract_x
_atom_site_fract_y
_atom_site_fract_z
Si Si1 0.935083 0.732275 0.612917
Si Si2 0.702771 0.068664 0.909442
Si Si3 0.109634 0.242057 0.957424
Si Si4 0.441233 0.825097 0.561626
Si Si5 0.065117 0.228808 0.610095
Si Si6 0.136514 0.833375 0.028242
Si Si7 0.771647 0.264721 0.787112
Si Si8 0.745374 0.752190 0.321374
O O1 0.837803 0.674672 0.436654
O O2 0.978680 0.436986 0.568508
O O3 0.869315 0.993748 0.722074
O O4 0.044217 0.916497 0.758259
O O5 0.797984 0.012054 0.906597
O O6 0.560561 0.013336 0.735286
O O7 0.706668 0.422858 0.104448
O O8 0.764893 0.818138 0.908391
O O9 0.164033 0.403257 0.012023
O O10 0.000000 0.500000 0.000000
O O11 0.500000 0.500000 0.500000
O O12 0.351273 0.759460 0.384143
O O13 0.364005 0.020438 0.640449
O O14 0.177274 0.088112 0.597654
O O15 0.116352 0.487893 0.825044
O O16 0.000000 0.000000 0.500000
O O17 0.232872 0.811975 0.170922
O O18 0.000000 0.000000 0.000000
#
# Coordination Sequence:
#
# PCOD9076755 Si02
#       8
#     2   2   2   2   2   2   2   2
#     4  10  19  38  57  91 124 156 202 245 308 369
#     4  11  22  39  62  87 122 167 197 256 303 357
#     4  10  18  33  59  90 118 152 200 249 305 347
#     4  11  23  42  62  88 116 159 227 253 287 352
#     4  11  23  36  58  93 129 158 188 243 319 368
#     4  11  21  39  61  89 129 154 197 246 315 372
#     4  10  21  36  61  92 119 162 202 256 295 359
#     4  10  23  39  63  86 123 161 204 253 303 360
#
# _framework density 18.48124
#
# number of rings (size 3 to 8) (size 9 to 14) (size 15 to 20)
#    0.000    1.500    5.000    1.500    1.750    1.500 
#    0.000    0.000    0.000    1.500    0.000    0.000 
#    0.000    0.000    0.000    0.000    0.000    0.000 
#
# Total GULP energy -89096.577079 kJ/mol
# GULP energy per Si atom -5568.536067 kJ/mol
# Density = 1.843918 g / cm^3
# Si number density = 18.481240 Si / 1000 Ang^3
#
#
#
# Elastic Constant Matrix: (Units=GPa)
#
#
# Indices 1 2 3 4 5 6 
#
# 1 91.1130 35.8668 41.5244 2.3735 -4.9207 -6.5685
# 2 35.8668 87.2733 27.2549 -1.0865 -0.2422 -5.5465
# 3 41.5244 27.2549 70.1228 -12.2889 5.3049 1.6059
# 4 2.3735 -1.0865 -12.2889 24.7696 4.2247 3.6916
# 5 -4.9207 -0.2422 5.3049 4.2247 35.1138 -1.7062
# 6 -6.5685 -5.5465 1.6059 3.6916 -1.7062 33.6169
#
#
#
# Elastic Compliance Matrix: (Units=1/GPa)
#
#
# Indices 1 2 3 4 5 6 
#
# 1 0.018819 -0.003805 -0.011902 -0.009606 0.005806 0.004967
# 2 -0.003805 0.014237 -0.003543 -0.001110 0.000327 0.001913
# 3 -0.011902 -0.003543 0.026294 0.016333 -0.007939 -0.006363
# 4 -0.009606 -0.001110 0.016333 0.052515 -0.010584 -0.009144
# 5 0.005806 0.000327 -0.007939 -0.010584 0.031979 0.004353
# 6 0.004967 0.001913 -0.006363 -0.009144 0.004353 0.032562
#
#
# Mechanical properties :
#
#
# Convention : Reuss Voigt Hill
#
# Bulk Modulus (GPa) = 47.96029 50.86682 49.41355
# Shear Modulus (GPa) = 22.53701 28.29093 25.41397
#
# Velocity S-wave (km/s) = 3.49586 3.91678 3.71229
# Velocity P-wave (km/s) = 6.50398 6.93095 6.72086
#
# Compressibility (1/GPa) = 0.02085058
#
# Stress axis : x y z
#
# Youngs Moduli (GPa) = 53.13703 70.23782 38.03128
#
# Poissons Ratio (x) = 0.26727 0.45263
# Poissons Ratio (y) = 0.20220 0.13476
# Poissons Ratio (z) = 0.63241 0.24888
#
# Static dielectric constant tensor:
#      x y z
#    x 1.654580 -0.017980 0.008640 
#    y -0.017980 1.643350 0.005390 
#    z 0.008640 0.005390 1.689260 
# 
# From -- ./inp_files/277652.got.cif
#   From: 2010.05.17/outbox.cif.g08.bks.cpg/sg2_139_cif.got.tgz:277652.got - 2010.06.03 11:33:40.
