data_PCOD9076650
_publ_section_title
;
Structure prediction by ZEFSAII (Michael W. Deem and Ramdas Pophale) SiO2 
 PCOD9076650
Probable space group: P -1
;
_chemical_formula_sum "Si O2"
_cell_formula_units_Z 14
_cell_length_a 7.514898
_cell_length_b 8.790105
_cell_length_c 16.127785
_cell_angle_alpha 43.485487
_cell_angle_beta 130.140501
_cell_angle_gamma 128.834418
_cell_volume 534.137633
_symmetry_space_group_name_H-M "P -1"
_symmetry_group_IT_number 2
_symmetry_cell_setting 'triclinic'
loop_
_space_group_symop_operation_xyz
x,y,z
-x,-y,-z
loop_
_atom_site_type_symbol
_atom_site_label
_atom_site_fract_x
_atom_site_fract_y
_atom_site_fract_z
Si Si1 0.973488 0.946704 0.148151
Si Si2 0.408904 0.293501 0.619558
Si Si3 0.611317 0.477923 0.179897
Si Si4 0.264562 0.970223 0.563401
Si Si5 0.736414 0.358620 0.080502
Si Si6 0.072976 0.042692 0.319910
Si Si7 0.702923 0.122052 0.880477
O O1 0.749178 0.711170 0.177510
O O2 0.114809 0.989318 0.259217
O O3 0.128416 0.906898 0.133111
O O4 0.848797 0.139359 0.002856
O O5 0.500000 0.500000 0.500000
O O6 0.137972 0.191385 0.617421
O O7 0.593108 0.321917 0.739986
O O8 0.422783 0.087549 0.643359
O O9 0.690402 0.276874 0.328735
O O10 0.713520 0.469133 0.119790
O O11 0.335343 0.478250 0.074685
O O12 0.287535 0.082975 0.435072
O O13 0.000000 0.000000 0.500000
O O14 0.964063 0.258811 0.196845
O O15 0.520859 0.115838 0.094372
#
# Coordination Sequence:
#
# PCOD9076650 Si02
#       7
#     2   2   2   2   2   2   2
#     4  10  22  35  62  87 117 148 194 241 286 336
#     4  10  21  37  61  83 115 154 194 231 288 346
#     4  10  18  33  58  86 112 153 194 229 287 347
#     4  10  19  36  57  86 114 154 190 235 287 345
#     4   9  18  35  61  82 110 155 197 235 279 341
#     4  10  21  39  59  89 117 152 192 242 278 341
#     4   9  19  38  56  85 114 153 185 240 288 339
#
# _framework density 26.210473
#
# number of rings (size 3 to 8) (size 9 to 14) (size 15 to 20)
#    0.000    2.286    4.286    0.000    4.000    5.714 
#    0.000    2.143    0.000   18.000    0.000    0.000 
#    0.000    0.000    0.000    0.000    0.000    0.000 
#
# Total GULP energy -78122.073520 kJ/mol
# GULP energy per Si atom -5580.148109 kJ/mol
# Density = 2.615082 g / cm^3
# Si number density = 26.210473 Si / 1000 Ang^3
#
#
#
# Elastic Constant Matrix: (Units=GPa)
#
#
# Indices 1 2 3 4 5 6 
#
# 1 77.9156 8.7650 32.2704 -5.9178 -11.6198 1.0954
# 2 8.7650 35.9199 29.4872 4.8236 -4.2282 3.4299
# 3 32.2704 29.4872 181.0411 -3.2434 4.8074 -1.4143
# 4 -5.9178 4.8236 -3.2434 51.6766 -6.5053 -6.1005
# 5 -11.6198 -4.2282 4.8074 -6.5053 38.6795 0.7652
# 6 1.0954 3.4299 -1.4143 -6.1005 0.7652 22.1438
#
#
#
# Elastic Compliance Matrix: (Units=1/GPa)
#
#
# Indices 1 2 3 4 5 6 
#
# 1 0.014967 -0.001232 -0.002563 0.002275 0.005068 -0.000262
# 2 -0.001232 0.034350 -0.005595 -0.004064 0.003532 -0.006859
# 3 -0.002563 -0.005595 0.006973 0.000590 -0.002182 0.001677
# 4 0.002275 -0.004064 0.000590 0.021224 0.003611 0.006277
# 5 0.005068 0.003532 -0.002182 0.003611 0.028659 -0.000933
# 6 -0.000262 -0.006859 0.001677 0.006277 -0.000933 0.048103
#
#
# Mechanical properties :
#
#
# Convention : Reuss Voigt Hill
#
# Bulk Modulus (GPa) = 26.66004 48.43574 37.54789
# Shear Modulus (GPa) = 26.94545 37.45693 32.20119
#
# Velocity S-wave (km/s) = 3.20979 3.78442 3.50889
# Velocity P-wave (km/s) = 4.89189 6.13314 5.54734
#
# Compressibility (1/GPa) = 0.03750932
#
# Stress axis : x y z
#
# Youngs Moduli (GPa) = 66.81455 29.11207 143.40181
#
# Poissons Ratio (x) = 0.03587 0.36754
# Poissons Ratio (y) = 0.08232 0.80238
# Poissons Ratio (z) = 0.17125 0.16289
#
# Static dielectric constant tensor:
#      x y z
#    x 2.150870 0.065770 -0.014550 
#    y 0.065770 2.082340 -0.068970 
#    z -0.014550 -0.068970 2.138880 
# 
# From -- ./inp_files/189754.got.cif
#   From: 2010.05.17/outbox.cif.g08.bks.cpg/sg2_95_cif.got.tgz:189754.got - 2010.06.03 11:33:40.
