data_PCOD9076455
_publ_section_title
;
Structure prediction by ZEFSAII (Michael W. Deem and Ramdas Pophale) SiO2 
 PCOD9076455
Probable space group: P -1
;
_chemical_formula_sum "Si O2"
_cell_formula_units_Z 16
_cell_length_a 10.743077
_cell_length_b 14.689041
_cell_length_c 8.035859
_cell_angle_alpha 64.128449
_cell_angle_beta 115.430149
_cell_angle_gamma 62.953968
_cell_volume 631.563159
_symmetry_space_group_name_H-M "P -1"
_symmetry_group_IT_number 2
_symmetry_cell_setting 'triclinic'
loop_
_space_group_symop_operation_xyz
x,y,z
-x,-y,-z
loop_
_atom_site_type_symbol
_atom_site_label
_atom_site_fract_x
_atom_site_fract_y
_atom_site_fract_z
Si Si1 0.723788 0.168497 0.808235
Si Si2 0.930966 0.534496 0.671544
Si Si3 0.325412 0.374078 0.213000
Si Si4 0.867503 0.974116 0.486804
Si Si5 0.451185 0.325092 0.867167
Si Si6 0.095753 0.790326 0.347339
Si Si7 0.765403 0.855760 0.263219
Si Si8 0.297401 0.629972 0.952686
O O1 0.578061 0.199544 0.553116
O O2 0.577194 0.239890 0.830940
O O3 0.762250 0.260107 0.691820
O O4 0.952370 0.977827 0.130927
O O5 0.820652 0.551808 0.760872
O O6 0.803723 0.558976 0.418938
O O7 0.862820 0.691944 0.501818
O O8 0.196270 0.385632 0.987292
O O9 0.326403 0.493183 0.080260
O O10 0.805664 0.922069 0.363178
O O11 0.091424 0.783238 0.836885
O O12 0.000000 0.000000 0.500000
O O13 0.613505 0.168139 0.213353
O O14 0.490326 0.420477 0.850133
O O15 0.225053 0.701166 0.665783
O O16 0.905085 0.813739 0.215668
O O17 0.500000 0.000000 0.000000
#
# Coordination Sequence:
#
# PCOD9076455 Si02
#       8
#     2   2   2   2   2   2   2   2
#     4  10  20  34  52  78 112 140 174 221 268 315
#     4  10  19  30  49  80 111 135 175 224 266 314
#     4  10  20  34  51  81 111 141 174 227 268 310
#     4   9  16  27  47  77 103 129 170 215 259 296
#     4  10  18  33  56  83 105 141 176 229 265 307
#     4  10  20  35  53  82 105 141 179 218 264 324
#     4  11  16  30  52  78 102 134 177 217 260 309
#     4  10  19  33  55  82 106 136 188 220 265 310
#
# _framework density 25.333964999999999
#
# number of rings (size 3 to 8) (size 9 to 14) (size 15 to 20)
#    0.000    2.000    6.250    0.750    0.000    2.500 
#    0.000    0.000    0.000    0.750    9.750    9.625 
#    0.000    0.000    0.000    0.000    0.000    0.000 
#
# Total GULP energy -89085.430724 kJ/mol
# GULP energy per Si atom -5567.839420 kJ/mol
# Density = 2.527630 g / cm^3
# Si number density = 25.333965 Si / 1000 Ang^3
#
#
#
# Elastic Constant Matrix: (Units=GPa)
#
#
# Indices 1 2 3 4 5 6 
#
# 1 119.4165 22.2453 47.8765 11.4721 5.0414 24.9771
# 2 22.2453 59.6967 30.6731 15.8444 3.7424 26.4875
# 3 47.8765 30.6731 130.1721 27.5234 8.4339 11.0525
# 4 11.4721 15.8444 27.5234 52.7610 20.7632 3.7336
# 5 5.0414 3.7424 8.4339 20.7632 60.2808 8.6279
# 6 24.9771 26.4875 11.0525 3.7336 8.6279 42.4183
#
#
#
# Elastic Compliance Matrix: (Units=1/GPa)
#
#
# Indices 1 2 3 4 5 6 
#
# 1 0.010978 0.000445 -0.003583 -0.000453 0.000553 -0.005881
# 2 0.000445 0.027493 -0.004114 -0.006373 0.003386 -0.016486
# 3 -0.003583 -0.004114 0.010550 -0.003654 0.000016 0.002249
# 4 -0.000453 -0.006373 -0.003654 0.025950 -0.008663 0.004676
# 5 0.000553 0.003386 0.000016 -0.008663 0.020141 -0.005779
# 6 -0.005881 -0.016486 0.002249 0.004676 -0.005779 0.037510
#
#
# Mechanical properties :
#
#
# Convention : Reuss Voigt Hill
#
# Bulk Modulus (GPa) = 28.97106 56.76392 42.86749
# Shear Modulus (GPa) = 31.51920 44.99140 38.25530
#
# Velocity S-wave (km/s) = 3.53107 4.21875 3.89014
# Velocity P-wave (km/s) = 5.29954 6.79598 6.09387
#
# Compressibility (1/GPa) = 0.03451721
#
# Stress axis : x y z
#
# Youngs Moduli (GPa) = 91.09141 36.37235 94.78438
#
# Poissons Ratio (x) = -0.01620 0.33964
# Poissons Ratio (y) = -0.04058 0.38998
# Poissons Ratio (z) = 0.32641 0.14965
#
# Static dielectric constant tensor:
#      x y z
#    x 2.207800 -0.107280 0.100780 
#    y -0.107280 2.018520 0.024240 
#    z 0.100780 0.024240 2.130200 
# 
# From -- ./inp_files/436558.got.cif
#   From: 2010.05.17/outbox.cif.g08.bks.cpg/sg2_219_cif.got.tgz:436558.got - 2010.06.03 11:33:40.
