data_PCOD9076352
_publ_section_title
;
Structure prediction by ZEFSAII (Michael W. Deem and Ramdas Pophale) SiO2 
 PCOD9076352
Probable space group: P -1
;
_chemical_formula_sum "Si O2"
_cell_formula_units_Z 16
_cell_length_a 11.624282
_cell_length_b 7.957062
_cell_length_c 13.920462
_cell_angle_alpha 69.745865
_cell_angle_beta 94.515509
_cell_angle_gamma 140.086045
_cell_volume 736.808525
_symmetry_space_group_name_H-M "P -1"
_symmetry_group_IT_number 2
_symmetry_cell_setting 'triclinic'
loop_
_space_group_symop_operation_xyz
x,y,z
-x,-y,-z
loop_
_atom_site_type_symbol
_atom_site_label
_atom_site_fract_x
_atom_site_fract_y
_atom_site_fract_z
Si Si1 0.395489 0.026771 0.860753
Si Si2 0.147959 0.683369 0.743112
Si Si3 0.038103 0.234103 0.677291
Si Si4 0.669463 0.924859 0.763462
Si Si5 0.618933 0.591306 0.291686
Si Si6 0.595416 0.850957 0.475844
Si Si7 0.740665 0.216171 0.889030
Si Si8 0.255829 0.681474 0.448438
O O1 0.379340 0.211441 0.791318
O O2 0.607003 0.217942 0.852649
O O3 0.295789 0.803732 0.809984
O O4 0.288000 0.859972 0.986173
O O5 0.106721 0.467005 0.712947
O O6 0.957593 0.507670 0.818043
O O7 0.240914 0.954160 0.630619
O O8 0.177551 0.239434 0.700898
O O9 0.077243 0.365846 0.547902
O O10 0.816778 0.948923 0.740033
O O11 0.663790 0.956585 0.869475
O O12 0.761733 0.220866 0.666328
O O13 0.478142 0.652085 0.748487
O O14 0.484730 0.408091 0.413597
O O15 0.416863 0.729938 0.439147
O O16 0.669982 0.085433 0.513629
#
# Coordination Sequence:
#
# PCOD9076352 Si02
#       8
#     2   2   2   2   2   2   2   2
#     4  11  23  39  55  74 108 144 178 220 261 309
#     4  10  19  37  59  78 104 138 179 221 254 307
#     4   9  18  32  55  83 106 136 176 213 261 318
#     4  10  18  33  55  80 107 136 176 220 258 305
#     4  10  21  35  53  82 114 138 163 214 278 317
#     4   8  15  29  52  80 107 136 169 207 263 322
#     4  10  23  39  57  77  97 143 194 216 250 308
#     4   8  13  26  51  80 108 136 167 210 259 310
#
# _framework density 21.715275999999999
#
# number of rings (size 3 to 8) (size 9 to 14) (size 15 to 20)
#    0.000    2.500    0.000    4.500    0.000    3.000 
#    0.000    3.125    0.000    0.000    0.000    0.000 
#    0.000    0.000    0.000    0.000    0.000    0.000 
#
# Total GULP energy -89343.178573 kJ/mol
# GULP energy per Si atom -5583.948661 kJ/mol
# Density = 2.166585 g / cm^3
# Si number density = 21.715276 Si / 1000 Ang^3
#
#
#
# Elastic Constant Matrix: (Units=GPa)
#
#
# Indices 1 2 3 4 5 6 
#
# 1 98.9057 7.2890 51.8903 -17.1706 8.6159 11.4201
# 2 7.2890 27.2479 15.9561 11.4910 6.8282 3.5724
# 3 51.8903 15.9561 104.1422 9.4316 -1.7725 6.3598
# 4 -17.1706 11.4910 9.4316 28.0261 2.6866 -2.1365
# 5 8.6159 6.8282 -1.7725 2.6866 32.5745 5.4412
# 6 11.4201 3.5724 6.3598 -2.1365 5.4412 19.9323
#
#
#
# Elastic Compliance Matrix: (Units=1/GPa)
#
#
# Indices 1 2 3 4 5 6 
#
# 1 0.020336 -0.004845 -0.010929 0.018400 -0.005853 -0.003726
# 2 -0.004845 0.052148 -0.003230 -0.023069 -0.006899 -0.006129
# 3 -0.010929 -0.003230 0.016775 -0.011659 0.005660 -0.001307
# 4 0.018400 -0.023069 -0.011659 0.061413 -0.006686 0.005720
# 5 -0.005853 -0.006899 0.005660 -0.006686 0.035842 -0.007717
# 6 -0.003726 -0.006129 -0.001307 0.005720 -0.007717 0.056540
#
#
# Mechanical properties :
#
#
# Convention : Reuss Voigt Hill
#
# Bulk Modulus (GPa) = 19.51143 42.28519 30.89831
# Shear Modulus (GPa) = 16.77037 26.45060 21.61049
#
# Velocity S-wave (km/s) = 2.78202 3.49386 3.15806
# Velocity P-wave (km/s) = 4.39592 5.98255 5.24953
#
# Compressibility (1/GPa) = 0.05125200
#
# Stress axis : x y z
#
# Youngs Moduli (GPa) = 49.17386 19.17601 59.61388
#
# Poissons Ratio (x) = 0.09290 0.65152
# Poissons Ratio (y) = 0.23823 0.19255
# Poissons Ratio (z) = 0.53742 0.06194
#
# Static dielectric constant tensor:
#      x y z
#    x 1.800600 -0.011650 -0.027620 
#    y -0.011650 1.842720 -0.005890 
#    z -0.027620 -0.005890 1.779540 
# 
# From -- ./inp_files/234790.got.cif
#   From: 2010.05.17/outbox.cif.g08.bks.cpg/sg2_118_cif.got.tgz:234790.got - 2010.06.03 11:33:40.
