data_PCOD9076173
_publ_section_title
;
Structure prediction by ZEFSAII (Michael W. Deem and Ramdas Pophale) SiO2 
 PCOD9076173
Probable space group: P -1
;
_chemical_formula_sum "Si O2"
_cell_formula_units_Z 16
_cell_length_a 14.671669
_cell_length_b 7.911123
_cell_length_c 13.143622
_cell_angle_alpha 30.922699
_cell_angle_beta 121.757811
_cell_angle_gamma 104.680463
_cell_volume 594.150393
_symmetry_space_group_name_H-M "P -1"
_symmetry_group_IT_number 2
_symmetry_cell_setting 'triclinic'
loop_
_space_group_symop_operation_xyz
x,y,z
-x,-y,-z
loop_
_atom_site_type_symbol
_atom_site_label
_atom_site_fract_x
_atom_site_fract_y
_atom_site_fract_z
Si Si1 0.222190 0.664458 0.002513
Si Si2 0.357527 0.615961 0.680204
Si Si3 0.518355 0.665965 0.584747
Si Si4 0.776521 0.618584 0.446529
Si Si5 0.920553 0.442322 0.193910
Si Si6 0.867876 0.026503 0.518002
Si Si7 0.464125 0.077272 0.741695
Si Si8 0.001439 0.123816 0.738317
O O1 0.166629 0.456421 0.005598
O O2 0.202827 0.019304 0.737815
O O3 0.358088 0.477149 0.209899
O O4 0.140214 0.834894 0.965908
O O5 0.410180 0.779808 0.540629
O O6 0.289229 0.427151 0.671060
O O7 0.262531 0.898904 0.556992
O O8 0.471764 0.307825 0.964153
O O9 0.520140 0.322021 0.701204
O O10 0.505985 0.958370 0.340830
O O11 0.678162 0.699954 0.433433
O O12 0.906594 0.257106 0.706405
O O13 0.838405 0.452611 0.236096
O O14 0.000000 0.000000 0.500000
O O15 0.050776 0.402429 0.257767
O O16 0.944629 0.993626 0.681146
O O17 0.000000 0.500000 0.500000
#
# Coordination Sequence:
#
# PCOD9076173 Si02
#       8
#     2   2   2   2   2   2   2   2
#     4  10  14  27  44  67  91 115 152 184 222 265
#     4  10  15  29  47  66  94 119 147 180 226 265
#     4  10  19  27  44  69  93 126 147 179 222 270
#     4   9  15  26  44  67  90 119 146 182 222 269
#     4   7  15  28  44  72  86 112 156 187 220 270
#     4   7  14  26  43  68  88 115 148 184 224 265
#     4  10  18  29  42  66 100 121 149 177 222 271
#     4   8  14  21  42  68  89 110 146 187 223 267
#
# _framework density 26.929210000000001
#
# number of rings (size 3 to 8) (size 9 to 14) (size 15 to 20)
#    0.750    2.250    2.500    0.750    0.000    0.000 
#    0.000    1.250    0.000    0.750    0.000    2.625 
#    0.000    0.000    0.000    0.000    0.000    0.000 
#
# Total GULP energy -89070.016736 kJ/mol
# GULP energy per Si atom -5566.876046 kJ/mol
# Density = 2.686792 g / cm^3
# Si number density = 26.929210 Si / 1000 Ang^3
#
#
#
# Elastic Constant Matrix: (Units=GPa)
#
#
# Indices 1 2 3 4 5 6 
#
# 1 148.8776 22.8077 34.3781 6.9613 5.2451 -20.6985
# 2 22.8077 95.9026 32.2447 10.5436 1.9110 -3.9622
# 3 34.3781 32.2447 61.9890 1.5015 8.7321 -6.9501
# 4 6.9613 10.5436 1.5015 19.6989 1.2809 -7.0357
# 5 5.2451 1.9110 8.7321 1.2809 37.0593 0.0167
# 6 -20.6985 -3.9622 -6.9501 -7.0357 0.0167 28.2431
#
#
#
# Elastic Compliance Matrix: (Units=1/GPa)
#
#
# Indices 1 2 3 4 5 6 
#
# 1 0.008399 -0.000429 -0.003825 -0.000648 -0.000245 0.004993
# 2 -0.000429 0.013609 -0.007065 -0.007386 0.001280 -0.001985
# 3 -0.003825 -0.007065 0.022802 0.004771 -0.004633 0.003008
# 4 -0.000648 -0.007386 0.004771 0.059977 -0.002731 0.014606
# 5 -0.000245 0.001280 -0.004633 -0.002731 0.028139 -0.001837
# 6 0.004993 -0.001985 0.003008 0.014606 -0.001837 0.043167
#
#
# Mechanical properties :
#
#
# Convention : Reuss Voigt Hill
#
# Bulk Modulus (GPa) = 45.09997 53.95893 49.52945
# Shear Modulus (GPa) = 24.25741 31.48952 27.87346
#
# Velocity S-wave (km/s) = 3.00456 3.42328 3.22073
# Velocity P-wave (km/s) = 5.36847 5.97544 5.68007
#
# Compressibility (1/GPa) = 0.02217296
#
# Stress axis : x y z
#
# Youngs Moduli (GPa) = 119.06307 73.47958 43.85511
#
# Poissons Ratio (x) = 0.03153 0.16773
# Poissons Ratio (y) = 0.05109 0.30983
# Poissons Ratio (z) = 0.45538 0.51913
#
# Static dielectric constant tensor:
#      x y z
#    x 1.770080 0.113820 0.014580 
#    y 0.113820 2.314760 -0.013650 
#    z 0.014580 -0.013650 2.117700 
# 
# From -- ./inp_files/300515.got.cif
#   From: 2010.05.17/outbox.cif.g08.bks.cpg/sg2_151_cif.got.tgz:300515.got - 2010.06.03 11:33:40.
