data_PCOD9076754
_publ_section_title
;
Structure prediction by ZEFSAII (Michael W. Deem and Ramdas Pophale) SiO2 
 PCOD9076754
Probable space group: P -1
;
_chemical_formula_sum "Si O2"
_cell_formula_units_Z 14
_cell_length_a 13.371277
_cell_length_b 5.375761
_cell_length_c 16.971079
_cell_angle_alpha 122.497821
_cell_angle_beta 34.685195
_cell_angle_gamma 124.613265
_cell_volume 564.881082
_symmetry_space_group_name_H-M "P -1"
_symmetry_group_IT_number 2
_symmetry_cell_setting 'triclinic'
loop_
_space_group_symop_operation_xyz
x,y,z
-x,-y,-z
loop_
_atom_site_type_symbol
_atom_site_label
_atom_site_fract_x
_atom_site_fract_y
_atom_site_fract_z
Si Si1 0.765743 0.904582 0.507614
Si Si2 0.059337 0.791932 0.860491
Si Si3 0.872742 0.085362 0.898363
Si Si4 0.305309 0.200037 0.196852
Si Si5 0.485039 0.970862 0.597332
Si Si6 0.798469 0.500129 0.535734
Si Si7 0.473118 0.888716 0.165194
O O1 0.615309 0.775607 0.516968
O O2 0.881949 0.220505 0.450759
O O3 0.650146 0.995308 0.670473
O O4 0.868400 0.681918 0.442422
O O5 0.974526 0.437193 0.875923
O O6 0.276634 0.860167 0.734685
O O7 0.992421 0.903725 0.839560
O O8 0.000000 0.000000 0.000000
O O9 0.800419 0.943643 0.836534
O O10 0.685827 0.052610 0.063204
O O11 0.192321 0.295003 0.359154
O O12 0.436558 0.527803 0.141300
O O13 0.406516 0.977689 0.138612
O O14 0.587486 0.310038 0.623102
O O15 0.500000 0.000000 0.500000
#
# Coordination Sequence:
#
# PCOD9076754 Si02
#       7
#     2   2   2   2   2   2   2
#     4   8  17  31  55  85 110 143 198 251 294 336
#     4  12  28  42  61  90 136 167 196 255 321 371
#     4  12  24  38  60  90 129 169 202 249 321 371
#     4  10  19  35  60  91 124 156 211 256 301 366
#     4  10  23  42  66  89 118 166 219 251 294 373
#     4   8  18  33  59  86 113 149 203 257 299 337
#     4  10  18  33  59  89 123 159 206 251 303 365
#
# _framework density 24.783975999999999
#
# number of rings (size 3 to 8) (size 9 to 14) (size 15 to 20)
#    0.857    1.143    0.000    3.857    6.000    0.571 
#    0.000    0.000    0.000    1.714    0.000    0.000 
#    0.000    0.000    0.000    0.000    0.000    0.000 
#
# Total GULP energy -78306.922337 kJ/mol
# GULP energy per Si atom -5593.351596 kJ/mol
# Density = 2.472757 g / cm^3
# Si number density = 24.783976 Si / 1000 Ang^3
#
#
#
# Elastic Constant Matrix: (Units=GPa)
#
#
# Indices 1 2 3 4 5 6 
#
# 1 192.8929 66.9918 24.2773 -8.6036 6.4329 -26.8147
# 2 66.9918 154.2053 25.1648 -23.6973 -3.1600 -26.1560
# 3 24.2773 25.1648 76.9422 1.2079 -2.0277 -1.1114
# 4 -8.6036 -23.6973 1.2079 15.1691 1.4303 7.7023
# 5 6.4329 -3.1600 -2.0277 1.4303 35.9380 -0.9807
# 6 -26.8147 -26.1560 -1.1114 7.7023 -0.9807 62.9595
#
#
#
# Elastic Compliance Matrix: (Units=1/GPa)
#
#
# Indices 1 2 3 4 5 6 
#
# 1 0.006448 -0.002458 -0.001227 -0.000866 -0.001356 0.001788
# 2 -0.002458 0.010502 -0.002846 0.014406 0.000671 0.001514
# 3 -0.001227 -0.002846 0.014426 -0.006031 0.001004 -0.000696
# 4 -0.000866 0.014406 -0.006031 0.091588 -0.002720 -0.005737
# 5 -0.001356 0.000671 0.001004 -0.002720 0.028306 0.000492
# 6 0.001788 0.001514 -0.000696 -0.005737 0.000492 0.017971
#
#
# Mechanical properties :
#
#
# Convention : Reuss Voigt Hill
#
# Bulk Modulus (GPa) = 54.60489 72.98980 63.79734
# Shear Modulus (GPa) = 26.53862 43.32042 34.92952
#
# Velocity S-wave (km/s) = 3.27585 4.18535 3.75822
# Velocity P-wave (km/s) = 6.03228 7.27121 6.68053
#
# Compressibility (1/GPa) = 0.01831338
#
# Stress axis : x y z
#
# Youngs Moduli (GPa) = 155.09699 95.22385 69.32141
#
# Poissons Ratio (x) = 0.23411 0.08503
# Poissons Ratio (y) = 0.38130 0.19726
# Poissons Ratio (z) = 0.19025 0.27096
#
# Static dielectric constant tensor:
#      x y z
#    x 1.999590 -0.053060 0.010170 
#    y -0.053060 2.018640 0.011560 
#    z 0.010170 0.011560 1.989590 
# 
# From -- ./inp_files/596682.got.cif
#   From: 2010.05.17/outbox.cif.g08.bks.cpg/sg2_299_cif.got.tgz:596682.got - 2010.06.03 11:33:40.
