data_PCOD9076840
_publ_section_title
;
Structure prediction by ZEFSAII (Michael W. Deem and Ramdas Pophale) SiO2 
 PCOD9076840
Probable space group: P -1
;
_chemical_formula_sum "Si O2"
_cell_formula_units_Z 16
_cell_length_a 18.455010
_cell_length_b 12.611875
_cell_length_c 21.266713
_cell_angle_alpha 39.054064
_cell_angle_beta 161.019300
_cell_angle_gamma 151.098341
_cell_volume 735.500581
_symmetry_space_group_name_H-M "P -1"
_symmetry_group_IT_number 2
_symmetry_cell_setting 'triclinic'
loop_
_space_group_symop_operation_xyz
x,y,z
-x,-y,-z
loop_
_atom_site_type_symbol
_atom_site_label
_atom_site_fract_x
_atom_site_fract_y
_atom_site_fract_z
Si Si1 0.117132 0.569169 0.296187
Si Si2 0.731699 0.428876 0.769359
Si Si3 0.837526 0.171306 0.892088
Si Si4 0.748550 0.295981 0.342161
Si Si5 0.144098 0.041949 0.277828
Si Si6 0.226697 0.449457 0.867936
Si Si7 0.914873 0.772611 0.652508
Si Si8 0.857283 0.806641 0.286829
O O1 0.009400 0.667022 0.117385
O O2 0.015164 0.337399 0.289494
O O3 0.985661 0.538762 0.270316
O O4 0.487511 0.774977 0.505157
O O5 0.687392 0.251764 0.767125
O O6 0.848886 0.641978 0.724251
O O7 0.414153 0.314386 0.594055
O O8 0.000000 0.500000 0.000000
O O9 0.544368 0.901532 0.765009
O O10 0.051798 0.174618 0.112071
O O11 0.661401 0.383764 0.176946
O O12 0.000000 0.500000 0.500000
O O13 0.922708 0.223361 0.491101
O O14 0.977851 0.811765 0.205045
O O15 0.021069 0.953034 0.288768
O O16 0.525831 0.568261 0.101446
O O17 0.151524 0.043027 0.740461
#
# Coordination Sequence:
#
# PCOD9076840 Si02
#       8
#     2   2   2   2   2   2   2   2
#     4  11  25  44  61  94 135 167 206 263 320 378
#     4  10  18  33  60  95 119 155 214 267 300 356
#     4  11  21  37  66  93 118 162 214 253 316 368
#     4  12  22  40  65  94 122 162 213 263 311 373
#     4  12  22  41  68  94 122 166 220 266 310 374
#     4  12  27  41  63  96 133 169 206 263 329 371
#     4  10  21  37  60  91 128 167 205 256 317 373
#     4  12  22  40  67  95 128 164 218 264 309 381
#
# _framework density 21.753890999999999
#
# number of rings (size 3 to 8) (size 9 to 14) (size 15 to 20)
#    0.000    0.750    5.000    4.500    0.000    2.000 
#    0.000    0.625    0.000    0.000    0.000    0.000 
#    0.000    0.000    0.000    0.000    0.000    0.000 
#
# Total GULP energy -89392.152530 kJ/mol
# GULP energy per Si atom -5587.009533 kJ/mol
# Density = 2.170438 g / cm^3
# Si number density = 21.753891 Si / 1000 Ang^3
#
#
#
# Elastic Constant Matrix: (Units=GPa)
#
#
# Indices 1 2 3 4 5 6 
#
# 1 65.5361 20.2772 -7.2655 5.8964 10.1306 -20.7652
# 2 20.2772 82.3506 5.0798 -5.3625 -7.1471 -31.3239
# 3 -7.2655 5.0798 83.3481 -6.2196 -12.1020 1.9678
# 4 5.8964 -5.3625 -6.2196 37.4583 -1.5990 -8.5476
# 5 10.1306 -7.1471 -12.1020 -1.5990 22.8407 -0.8661
# 6 -20.7652 -31.3239 1.9678 -8.5476 -0.8661 30.0065
#
#
#
# Elastic Compliance Matrix: (Units=1/GPa)
#
#
# Indices 1 2 3 4 5 6 
#
# 1 0.021262 -0.001203 0.000206 -0.000935 -0.009274 0.012911
# 2 -0.001203 0.024813 -0.000026 0.010648 0.010106 0.028396
# 3 0.000206 -0.000026 0.013230 0.002501 0.007092 0.000165
# 4 -0.000935 0.010648 0.002501 0.033731 0.008197 0.020150
# 5 -0.009274 0.010106 0.007092 0.008197 0.055677 0.007609
# 6 0.012911 0.028396 0.000165 0.020150 0.007609 0.077852
#
#
# Mechanical properties :
#
#
# Convention : Reuss Voigt Hill
#
# Bulk Modulus (GPa) = 17.46449 29.71309 23.58879
# Shear Modulus (GPa) = 20.18598 32.27065 26.22832
#
# Velocity S-wave (km/s) = 3.04949 3.85573 3.47606
# Velocity P-wave (km/s) = 4.52160 5.78883 5.19401
#
# Compressibility (1/GPa) = 0.05725906
#
# Stress axis : x y z
#
# Youngs Moduli (GPa) = 47.03183 40.30210 75.58687
#
# Poissons Ratio (x) = 0.04848 -0.01555
# Poissons Ratio (y) = 0.05657 0.00193
# Poissons Ratio (z) = -0.00967 0.00103
#
# Static dielectric constant tensor:
#      x y z
#    x 1.823820 -0.009120 -0.001860 
#    y -0.009120 1.883340 -0.032010 
#    z -0.001860 -0.032010 1.824730 
# 
# From -- ./inp_files/272866.got.cif
#   From: 2010.05.17/outbox.cif.g08.bks.cpg/sg2_137_cif.got.tgz:272866.got - 2010.06.03 11:33:40.
