data_PCOD9076988
_publ_section_title
;
Structure prediction by ZEFSAII (Michael W. Deem and Ramdas Pophale) SiO2 
 PCOD9076988
Probable space group: P -1
;
_chemical_formula_sum "Si O2"
_cell_formula_units_Z 16
_cell_length_a 8.940820
_cell_length_b 12.107248
_cell_length_c 11.613197
_cell_angle_alpha 60.610005
_cell_angle_beta 127.019546
_cell_angle_gamma 115.984349
_cell_volume 855.955264
_symmetry_space_group_name_H-M "P -1"
_symmetry_group_IT_number 2
_symmetry_cell_setting 'triclinic'
loop_
_space_group_symop_operation_xyz
x,y,z
-x,-y,-z
loop_
_atom_site_type_symbol
_atom_site_label
_atom_site_fract_x
_atom_site_fract_y
_atom_site_fract_z
Si Si1 0.382013 0.849904 0.667749
Si Si2 0.005315 0.856295 0.355597
Si Si3 0.290729 0.864726 0.076533
Si Si4 0.703714 0.986422 0.238097
Si Si5 0.487472 0.418139 0.151868
Si Si6 0.208249 0.035664 0.165765
Si Si7 0.856378 0.579024 0.330516
Si Si8 0.088174 0.309242 0.956817
O O1 0.208416 0.838943 0.505902
O O2 0.427987 0.708111 0.775187
O O3 0.589785 0.933795 0.688617
O O4 0.321972 0.918568 0.718904
O O5 0.889736 0.924448 0.358354
O O6 0.883228 0.718049 0.332462
O O7 0.054377 0.950037 0.220719
O O8 0.515203 0.870948 0.200259
O O9 0.129023 0.733775 0.076359
O O10 0.240776 0.957038 0.107882
O O11 0.283575 0.930477 0.915774
O O12 0.637201 0.498941 0.269829
O O13 0.500000 0.500000 0.000000
O O14 0.257663 0.379887 0.085345
O O15 0.154435 0.171873 0.039062
O O16 0.907565 0.613445 0.201328
O O17 0.000000 0.500000 0.500000
#
# Coordination Sequence:
#
# PCOD9076988 Si02
#       8
#     2   2   2   2   2   2   2   2
#     4  10  21  36  54  87 125 151 185 243 300 361
#     4  12  20  35  60  87 120 153 188 245 304 350
#     4  10  18  34  53  86 115 149 189 237 293 344
#     4  10  22  33  55  87 126 152 184 233 305 366
#     4   9  20  36  57  86 111 152 199 243 281 334
#     4  10  19  33  58  93 110 143 198 249 303 333
#     4  11  21  35  59  88 114 152 201 247 284 335
#     4  10  18  34  60  82 118 142 194 251 289 339
#
# _framework density 18.692565999999999
#
# number of rings (size 3 to 8) (size 9 to 14) (size 15 to 20)
#    0.000    1.750    3.750    1.875    0.000    3.000 
#    0.000    0.000    0.000    7.500    0.000    0.000 
#    0.000    0.000    0.000    0.000    0.000    0.000 
#
# Total GULP energy -89115.959695 kJ/mol
# GULP energy per Si atom -5569.747481 kJ/mol
# Density = 1.865002 g / cm^3
# Si number density = 18.692566 Si / 1000 Ang^3
#
#
#
# Elastic Constant Matrix: (Units=GPa)
#
#
# Indices 1 2 3 4 5 6 
#
# 1 61.4612 28.7563 16.4776 -2.1640 3.9607 17.1024
# 2 28.7563 99.9204 32.0182 13.8679 4.6672 22.1101
# 3 16.4776 32.0182 99.5764 3.6818 16.2552 14.7480
# 4 -2.1640 13.8679 3.6818 33.0613 5.8691 8.4671
# 5 3.9607 4.6672 16.2552 5.8691 18.1298 5.0445
# 6 17.1024 22.1101 14.7480 8.4671 5.0445 29.0510
#
#
#
# Elastic Compliance Matrix: (Units=1/GPa)
#
#
# Indices 1 2 3 4 5 6 
#
# 1 0.021891 -0.004606 -0.000415 0.006567 -0.002381 -0.010672
# 2 -0.004606 0.014171 -0.003374 -0.005095 0.003561 -0.005495
# 3 -0.000415 -0.003374 0.013315 0.002577 -0.011039 -0.002782
# 4 0.006567 -0.005095 0.002577 0.037186 -0.011659 -0.010110
# 5 -0.002381 0.003561 -0.011039 -0.011659 0.069658 -0.004402
# 6 -0.010672 -0.005495 -0.002782 -0.010110 -0.004402 0.050010
#
#
# Mechanical properties :
#
#
# Convention : Reuss Voigt Hill
#
# Bulk Modulus (GPa) = 30.68640 46.16248 38.42444
# Shear Modulus (GPa) = 21.37832 28.29547 24.83689
#
# Velocity S-wave (km/s) = 3.38550 3.89489 3.64909
# Velocity P-wave (km/s) = 5.63331 6.70642 6.19315
#
# Compressibility (1/GPa) = 0.03258772
#
# Stress axis : x y z
#
# Youngs Moduli (GPa) = 45.68128 70.56585 75.10451
#
# Poissons Ratio (x) = 0.32501 0.03117
# Poissons Ratio (y) = 0.21040 0.25338
# Poissons Ratio (z) = 0.01896 0.23806
#
# Static dielectric constant tensor:
#      x y z
#    x 1.657140 0.051100 0.031130 
#    y 0.051100 1.674810 0.037470 
#    z 0.031130 0.037470 1.666110 
# 
# From -- ./inp_files/176293.got.cif
#   From: 2010.05.17/outbox.cif.g08.bks.cpg/sg2_89_cif.got.tgz:176293.got - 2010.06.03 11:33:40.
