data_PCOD9076891
_publ_section_title
;
Structure prediction by ZEFSAII (Michael W. Deem and Ramdas Pophale) SiO2 
 PCOD9076891
Probable space group: P -1
;
_chemical_formula_sum "Si O2"
_cell_formula_units_Z 16
_cell_length_a 10.994892
_cell_length_b 13.484307
_cell_length_c 8.620607
_cell_angle_alpha 99.235360
_cell_angle_beta 139.973654
_cell_angle_gamma 64.984886
_cell_volume 715.036153
_symmetry_space_group_name_H-M "P -1"
_symmetry_group_IT_number 2
_symmetry_cell_setting 'triclinic'
loop_
_space_group_symop_operation_xyz
x,y,z
-x,-y,-z
loop_
_atom_site_type_symbol
_atom_site_label
_atom_site_fract_x
_atom_site_fract_y
_atom_site_fract_z
Si Si1 0.937184 0.407789 0.750369
Si Si2 0.472252 0.715569 0.067840
Si Si3 0.561766 0.825331 0.448343
Si Si4 0.970062 0.377149 0.112190
Si Si5 0.995977 0.107460 0.439415
Si Si6 0.624441 0.020386 0.411398
Si Si7 0.195085 0.534519 0.699856
Si Si8 0.297660 0.194659 0.910487
O O1 0.824074 0.410352 0.475760
O O2 0.956024 0.524041 0.797752
O O3 0.172440 0.298859 0.932915
O O4 0.854824 0.392354 0.835419
O O5 0.475275 0.749306 0.257123
O O6 0.583506 0.582191 0.111251
O O7 0.631147 0.755128 0.150243
O O8 0.239559 0.791658 0.791174
O O9 0.434018 0.883877 0.492548
O O10 0.814807 0.743410 0.701518
O O11 0.533157 0.934455 0.347603
O O12 0.845067 0.397067 0.159495
O O13 0.134898 0.151133 0.683719
O O14 0.125436 0.057250 0.394226
O O15 0.000000 0.000000 0.500000
O O16 0.503549 0.090609 0.159420
O O17 0.000000 0.500000 0.500000
#
# Coordination Sequence:
#
# PCOD9076891 Si02
#       8
#     2   2   2   2   2   2   2   2
#     4  10  19  33  65  98 121 166 216 265 329 387
#     4  12  22  41  67  94 130 169 211 273 328 387
#     4  11  21  39  66  92 131 171 216 264 329 387
#     4  10  18  33  63 100 124 163 222 264 322 399
#     4  12  26  40  64  98 128 172 223 266 322 390
#     4  11  24  39  64  97 125 176 218 263 325 386
#     4  10  18  34  62  96 124 167 212 262 327 390
#     4  12  21  43  68  92 129 169 220 267 324 390
#
# _framework density 22.37649
#
# number of rings (size 3 to 8) (size 9 to 14) (size 15 to 20)
#    0.000    1.000    8.750    1.125    0.000    0.500 
#    0.000    0.625    0.000    0.750    0.000    0.000 
#    0.000    0.000    0.000    0.000    0.000    0.000 
#
# Total GULP energy -89399.635627 kJ/mol
# GULP energy per Si atom -5587.477227 kJ/mol
# Density = 2.232556 g / cm^3
# Si number density = 22.376490 Si / 1000 Ang^3
#
#
#
# Elastic Constant Matrix: (Units=GPa)
#
#
# Indices 1 2 3 4 5 6 
#
# 1 52.7216 20.5350 26.3297 12.1558 -17.5138 -15.1045
# 2 20.5350 105.8124 24.2467 -10.0196 -0.5857 -12.2658
# 3 26.3297 24.2467 81.0247 -18.3593 -13.7691 0.0364
# 4 12.1558 -10.0196 -18.3593 38.7302 -6.6079 -2.8304
# 5 -17.5138 -0.5857 -13.7691 -6.6079 43.7616 2.4859
# 6 -15.1045 -12.2658 0.0364 -2.8304 2.4859 40.5843
#
#
#
# Elastic Compliance Matrix: (Units=1/GPa)
#
#
# Indices 1 2 3 4 5 6 
#
# 1 0.036638 -0.004409 -0.013168 -0.016854 0.007308 0.010692
# 2 -0.004409 0.011192 -0.001409 0.003482 -0.001651 0.002087
# 3 -0.013168 -0.001409 0.020814 0.013917 0.003622 -0.004597
# 4 -0.016854 0.003482 0.013917 0.039044 0.003732 -0.002738
# 5 0.007308 -0.001651 0.003622 0.003732 0.027412 0.000799
# 6 0.010692 0.002087 -0.004597 -0.002738 0.000799 0.029014
#
#
# Mechanical properties :
#
#
# Convention : Reuss Voigt Hill
#
# Bulk Modulus (GPa) = 32.60350 42.42017 37.51184
# Shear Modulus (GPa) = 23.55061 35.84504 29.69783
#
# Velocity S-wave (km/s) = 3.24770 4.00672 3.64701
# Velocity P-wave (km/s) = 5.35401 6.35639 5.87662
#
# Compressibility (1/GPa) = 0.03067155
#
# Stress axis : x y z
#
# Youngs Moduli (GPa) = 27.29405 89.35237 48.04524
#
# Poissons Ratio (x) = 0.39394 0.63267
# Poissons Ratio (y) = 0.12034 0.06769
# Poissons Ratio (z) = 0.35941 0.12588
#
# Static dielectric constant tensor:
#      x y z
#    x 1.890020 -0.015080 -0.031440 
#    y -0.015080 1.844750 0.028190 
#    z -0.031440 0.028190 1.840720 
# 
# From -- ./inp_files/273512.got.cif
#   From: 2010.05.17/outbox.cif.g08.bks.cpg/sg2_137_cif.got.tgz:273512.got - 2010.06.03 11:33:40.
