data_PCOD9076115
_publ_section_title
;
Structure prediction by ZEFSAII (Michael W. Deem and Ramdas Pophale) SiO2 
 PCOD9076115
Probable space group: P -1
;
_chemical_formula_sum "Si O2"
_cell_formula_units_Z 16
_cell_length_a 14.864331
_cell_length_b 14.452865
_cell_length_c 8.846930
_cell_angle_alpha 93.119626
_cell_angle_beta 113.143489
_cell_angle_gamma 143.142991
_cell_volume 779.287805
_symmetry_space_group_name_H-M "P -1"
_symmetry_group_IT_number 2
_symmetry_cell_setting 'triclinic'
loop_
_space_group_symop_operation_xyz
x,y,z
-x,-y,-z
loop_
_atom_site_type_symbol
_atom_site_label
_atom_site_fract_x
_atom_site_fract_y
_atom_site_fract_z
Si Si1 0.495569 0.739344 0.798599
Si Si2 0.021277 0.918487 0.927366
Si Si3 0.658203 0.568969 0.432758
Si Si4 0.615023 0.487271 0.736590
Si Si5 0.478499 0.082415 0.916360
Si Si6 0.235507 0.854228 0.441539
Si Si7 0.663631 0.272016 0.576024
Si Si8 0.786686 0.457000 0.962391
O O1 0.357302 0.526984 0.705437
O O2 0.369698 0.690946 0.584352
O O3 0.530857 0.840824 0.966533
O O4 0.734846 0.908871 0.918707
O O5 0.891479 0.802029 0.670562
O O6 0.873910 0.727783 0.918794
O O7 0.000000 0.000000 0.000000
O O8 0.555099 0.439748 0.512523
O O9 0.516887 0.537792 0.287717
O O10 0.602814 0.380917 0.807014
O O11 0.279638 0.913486 0.650822
O O12 0.690181 0.287673 0.973499
O O13 0.500000 0.000000 0.000000
O O14 0.267007 0.770803 0.432086
O O15 0.995789 0.672315 0.206263
O O16 0.429001 0.063969 0.488241
O O17 0.832028 0.459281 0.823153
#
# Coordination Sequence:
#
# PCOD9076115 Si02
#       8
#     2   2   2   2   2   2   2   2
#     4  12  20  38  62  88 124 162 199 250 304 363
#     4  10  18  32  61  94 122 150 193 255 301 357
#     4   9  19  34  57  96 121 148 197 246 306 357
#     4   9  17  36  59  93 119 150 194 254 308 349
#     4  11  26  44  58  84 127 171 206 250 303 363
#     4  10  22  41  58  90 120 159 203 257 304 361
#     4  10  20  36  64  89 119 151 205 259 305 351
#     4  11  22  40  62  87 123 164 200 254 310 363
#
# _framework density 20.531566000000002
#
# number of rings (size 3 to 8) (size 9 to 14) (size 15 to 20)
#    0.750    1.000    3.750    1.125    0.000    1.500 
#    4.500    0.625    0.000    1.500    0.000    0.000 
#    0.000    0.000    0.000    0.000    0.000    0.000 
#
# Total GULP energy -89161.741747 kJ/mol
# GULP energy per Si atom -5572.608859 kJ/mol
# Density = 2.048484 g / cm^3
# Si number density = 20.531566 Si / 1000 Ang^3
#
#
#
# Elastic Constant Matrix: (Units=GPa)
#
#
# Indices 1 2 3 4 5 6 
#
# 1 98.0176 12.5212 58.5016 -8.0221 -23.6762 -24.5372
# 2 12.5212 31.9529 19.7365 -5.9756 1.1220 -17.7725
# 3 58.5016 19.7365 137.9510 3.0485 -24.7272 -7.6573
# 4 -8.0221 -5.9756 3.0485 21.5559 -0.7901 -0.8478
# 5 -23.6762 1.1220 -24.7272 -0.7901 39.3378 4.1274
# 6 -24.5372 -17.7725 -7.6573 -0.8478 4.1274 25.5118
#
#
#
# Elastic Compliance Matrix: (Units=1/GPa)
#
#
# Indices 1 2 3 4 5 6 
#
# 1 0.025855 0.019640 -0.011426 0.018224 0.004513 0.034995
# 2 0.019640 0.083171 -0.018571 0.035560 -0.009269 0.073937
# 3 -0.011426 -0.018571 0.014739 -0.012121 0.004845 -0.020689
# 4 0.018224 0.035560 -0.012121 0.066333 -0.000631 0.040969
# 5 0.004513 -0.009269 0.004845 -0.000631 0.032050 -0.005868
# 6 0.034995 0.073937 -0.020689 0.040969 -0.005868 0.120465
#
#
# Mechanical properties :
#
#
# Convention : Reuss Voigt Hill
#
# Bulk Modulus (GPa) = 9.70383 49.93777 29.82080
# Shear Modulus (GPa) = 12.57299 29.09191 20.83245
#
# Velocity S-wave (km/s) = 2.47730 3.76830 3.18882
# Velocity P-wave (km/s) = 3.59434 6.58094 5.30226
#
# Compressibility (1/GPa) = 0.10305212
#
# Stress axis : x y z
#
# Youngs Moduli (GPa) = 38.67727 12.02338 67.84664
#
# Poissons Ratio (x) = -0.23614 0.77519
# Poissons Ratio (y) = -0.75963 1.25999
# Poissons Ratio (z) = 0.44191 0.22329
#
# Static dielectric constant tensor:
#      x y z
#    x 1.758700 -0.010830 -0.050150 
#    y -0.010830 1.757100 0.009450 
#    z -0.050150 0.009450 1.767930 
# 
# From -- ./inp_files/313584.got.cif
#   From: 2010.05.17/outbox.cif.g08.bks.cpg/sg2_157_cif.got.tgz:313584.got - 2010.06.03 11:33:40.
