data_PCOD9076061
_publ_section_title
;
Structure prediction by ZEFSAII (Michael W. Deem and Ramdas Pophale) SiO2 
 PCOD9076061
Probable space group: P -1
;
_chemical_formula_sum "Si O2"
_cell_formula_units_Z 16
_cell_length_a 8.465115
_cell_length_b 24.364686
_cell_length_c 15.410873
_cell_angle_alpha 157.519138
_cell_angle_beta 38.198208
_cell_angle_gamma 143.988227
_cell_volume 704.052795
_symmetry_space_group_name_H-M "P -1"
_symmetry_group_IT_number 2
_symmetry_cell_setting 'triclinic'
loop_
_space_group_symop_operation_xyz
x,y,z
-x,-y,-z
loop_
_atom_site_type_symbol
_atom_site_label
_atom_site_fract_x
_atom_site_fract_y
_atom_site_fract_z
Si Si1 0.114847 0.684534 0.703397
Si Si2 0.154568 0.881290 0.517492
Si Si3 0.884192 0.748291 0.188891
Si Si4 0.606228 0.668798 0.379198
Si Si5 0.655084 0.964784 0.514467
Si Si6 0.362577 0.339447 0.231552
Si Si7 0.728090 0.344740 0.223089
Si Si8 0.698532 0.398575 0.011851
O O1 0.347664 0.716873 0.577146
O O2 0.247066 0.739344 0.820843
O O3 0.000000 0.500000 0.500000
O O4 0.881187 0.742232 0.850394
O O5 0.344765 0.959635 0.630439
O O6 0.840720 0.772833 0.496725
O O7 0.194232 0.993465 0.582896
O O8 0.315872 0.767622 0.252701
O O9 0.744781 0.690403 0.256852
O O10 0.680052 0.810544 0.315660
O O11 0.158210 0.895981 0.303475
O O12 0.998577 0.638749 0.924687
O O13 0.522801 0.490142 0.178946
O O14 0.454538 0.268229 0.171612
O O15 0.288327 0.487530 0.507434
O O16 0.632946 0.394765 0.135742
O O17 0.000000 0.500000 0.000000
#
# Coordination Sequence:
#
# PCOD9076061 Si02
#       8
#     2   2   2   2   2   2   2   2
#     4  10  20  37  56  80 129 165 188 233 299 378
#     4   9  19  33  61  86 114 156 200 249 298 345
#     4  10  21  37  62  87 119 155 203 257 289 347
#     4  10  19  37  55  90 128 149 192 250 304 360
#     4   9  19  38  56  87 113 155 211 252 285 343
#     4  10  20  35  56  83 125 162 193 229 305 377
#     4  10  20  36  57  85 116 160 198 237 303 356
#     4  10  18  32  59  92 119 149 191 247 307 366
#
# _framework density 22.725567000000002
#
# number of rings (size 3 to 8) (size 9 to 14) (size 15 to 20)
#    0.000    2.250    2.500    2.250    1.750    0.000 
#    2.250    5.625    0.000    7.500    0.000    0.000 
#    0.000    0.000    0.000    0.000    0.000    0.000 
#
# Total GULP energy -89158.498233 kJ/mol
# GULP energy per Si atom -5572.406140 kJ/mol
# Density = 2.267384 g / cm^3
# Si number density = 22.725567 Si / 1000 Ang^3
#
#
#
# Elastic Constant Matrix: (Units=GPa)
#
#
# Indices 1 2 3 4 5 6 
#
# 1 151.9474 2.0417 13.6325 -8.8239 -9.2295 -11.7081
# 2 2.0417 37.3342 22.7378 -14.9593 3.1064 4.7151
# 3 13.6325 22.7378 43.2707 -26.9240 0.6605 0.5382
# 4 -8.8239 -14.9593 -26.9240 32.6934 0.6618 -5.5048
# 5 -9.2295 3.1064 0.6605 0.6618 21.8463 -0.8901
# 6 -11.7081 4.7151 0.5382 -5.5048 -0.8901 28.2784
#
#
#
# Elastic Compliance Matrix: (Units=1/GPa)
#
#
# Indices 1 2 3 4 5 6 
#
# 1 0.007257 0.000589 -0.002046 0.001026 0.003145 0.003244
# 2 0.000589 0.041192 -0.021413 0.000418 -0.005230 -0.006300
# 3 -0.002046 -0.021413 0.060425 0.041029 -0.000500 0.009544
# 4 0.001026 0.000418 0.041029 0.067004 -0.002385 0.012543
# 5 0.003145 -0.005230 -0.000500 -0.002385 0.048066 0.003233
# 6 0.003244 -0.006300 0.009544 0.012543 0.003233 0.040118
#
#
# Mechanical properties :
#
#
# Convention : Reuss Voigt Hill
#
# Bulk Modulus (GPa) = 15.83914 34.37515 25.10714
# Shear Modulus (GPa) = 15.11265 29.50631 22.30948
#
# Velocity S-wave (km/s) = 2.58157 3.60721 3.13659
# Velocity P-wave (km/s) = 3.98383 5.70160 4.91829
#
# Compressibility (1/GPa) = 0.06313475
#
# Stress axis : x y z
#
# Youngs Moduli (GPa) = 137.78880 24.27630 16.54941
#
# Poissons Ratio (x) = -0.01429 0.03386
# Poissons Ratio (y) = -0.08112 0.35437
# Poissons Ratio (z) = 0.28189 0.51983
#
# Static dielectric constant tensor:
#      x y z
#    x 1.999110 0.045990 0.053860 
#    y 0.045990 1.828540 0.016410 
#    z 0.053860 0.016410 1.900650 
# 
# From -- ./inp_files/508609.got.cif
#   From: 2010.05.17/outbox.cif.g08.bks.cpg/sg2_255_cif.got.tgz:508609.got - 2010.06.03 11:33:40.
