data_PCOD9076375
_publ_section_title
;
Structure prediction by ZEFSAII (Michael W. Deem and Ramdas Pophale) SiO2 
 PCOD9076375
Probable space group: P -1
;
_chemical_formula_sum "Si O2"
_cell_formula_units_Z 16
_cell_length_a 8.113309
_cell_length_b 8.882833
_cell_length_c 13.815402
_cell_angle_alpha 107.974894
_cell_angle_beta 88.707015
_cell_angle_gamma 127.892252
_cell_volume 728.670837
_symmetry_space_group_name_H-M "P -1"
_symmetry_group_IT_number 2
_symmetry_cell_setting 'triclinic'
loop_
_space_group_symop_operation_xyz
x,y,z
-x,-y,-z
loop_
_atom_site_type_symbol
_atom_site_label
_atom_site_fract_x
_atom_site_fract_y
_atom_site_fract_z
Si Si1 0.224185 0.920220 0.221115
Si Si2 0.901991 0.254772 0.210433
Si Si3 0.754872 0.717612 0.453023
Si Si4 0.385931 0.063022 0.452630
Si Si5 0.503824 0.880092 0.065042
Si Si6 0.189761 0.579435 0.585626
Si Si7 0.868278 0.494945 0.089010
Si Si8 0.289622 0.324996 0.322188
O O1 0.368296 0.886972 0.151322
O O2 0.979541 0.727463 0.160931
O O3 0.267899 0.920603 0.333549
O O4 0.283027 0.140157 0.247011
O O5 0.793611 0.272525 0.307482
O O6 0.903416 0.392290 0.156066
O O7 0.128015 0.329109 0.260680
O O8 0.746570 0.020624 0.126887
O O9 0.770501 0.916671 0.480352
O O10 0.866473 0.622224 0.404073
O O11 0.525646 0.542532 0.369103
O O12 0.775746 0.720935 0.571786
O O13 0.584705 0.287153 0.448506
O O14 0.500000 0.000000 0.500000
O O15 0.374398 0.653034 0.977387
O O16 0.500000 0.000000 0.000000
O O17 0.000000 0.500000 0.500000
O O18 0.000000 0.500000 0.000000
#
# Coordination Sequence:
#
# PCOD9076375 Si02
#       8
#     2   2   2   2   2   2   2   2
#     4  10  19  36  58  80 114 149 186 236 288 334
#     4  11  20  34  63  88 106 153 196 229 287 341
#     4  10  18  37  52  81 127 156 184 229 263 345
#     4  11  22  35  56  86 119 157 192 222 279 347
#     4   9  18  37  58  80 105 140 194 243 285 330
#     4  12  20  35  59  87 118 151 195 229 275 341
#     4   9  21  38  58  81 110 144 192 243 290 337
#     4  10  18  33  55  84 115 151 191 223 272 352
#
# _framework density 21.957788999999998
#
# number of rings (size 3 to 8) (size 9 to 14) (size 15 to 20)
#    0.000    1.750    6.250    0.000    3.500    0.000 
#    0.000    8.125    0.000    3.000    0.000    0.000 
#    0.000    0.000    0.000    0.000    0.000    0.000 
#
# Total GULP energy -89159.263469 kJ/mol
# GULP energy per Si atom -5572.453967 kJ/mol
# Density = 2.190781 g / cm^3
# Si number density = 21.957789 Si / 1000 Ang^3
#
#
#
# Elastic Constant Matrix: (Units=GPa)
#
#
# Indices 1 2 3 4 5 6 
#
# 1 74.1457 4.2942 32.2275 -7.8140 18.2596 -14.7332
# 2 4.2942 46.9399 32.9577 10.8925 4.3456 0.8330
# 3 32.2275 32.9577 122.2587 26.7297 33.0683 -0.1808
# 4 -7.8140 10.8925 26.7297 33.2446 4.6051 1.6176
# 5 18.2596 4.3456 33.0683 4.6051 29.0889 5.4265
# 6 -14.7332 0.8330 -0.1808 1.6176 5.4265 30.6805
#
#
#
# Elastic Compliance Matrix: (Units=1/GPa)
#
#
# Indices 1 2 3 4 5 6 
#
# 1 0.022052 -0.000214 -0.004549 0.010048 -0.012516 0.012253
# 2 -0.000214 0.027364 -0.008387 -0.003071 0.006415 -0.001868
# 3 -0.004549 -0.008387 0.018055 -0.010833 -0.014957 0.001366
# 4 0.010048 -0.003071 -0.010833 0.042123 -0.000716 0.002750
# 5 -0.012516 0.006415 -0.014957 -0.000716 0.061587 -0.017128
# 6 0.012253 -0.001868 0.001366 0.002750 -0.017128 0.041421
#
#
# Mechanical properties :
#
#
# Convention : Reuss Voigt Hill
#
# Bulk Modulus (GPa) = 24.28818 42.47813 33.38315
# Shear Modulus (GPa) = 19.79209 30.19379 24.99294
#
# Velocity S-wave (km/s) = 3.00554 3.71223 3.37742
# Velocity P-wave (km/s) = 4.80933 6.14505 5.51776
#
# Compressibility (1/GPa) = 0.04117230
#
# Stress axis : x y z
#
# Youngs Moduli (GPa) = 45.34644 36.54473 55.38563
#
# Poissons Ratio (x) = 0.00783 0.25194
# Poissons Ratio (y) = 0.00971 0.46450
# Poissons Ratio (z) = 0.20627 0.30649
#
# Static dielectric constant tensor:
#      x y z
#    x 1.845510 0.089440 0.011550 
#    y 0.089440 1.936070 0.042740 
#    z 0.011550 0.042740 1.786180 
# 
# From -- ./inp_files/495610.got.cif
#   From: 2010.05.17/outbox.cif.g08.bks.cpg/sg2_248_cif.got.tgz:495610.got - 2010.06.03 11:33:40.
