data_PCOD9076092
_publ_section_title
;
Structure prediction by ZEFSAII (Michael W. Deem and Ramdas Pophale) SiO2 
 PCOD9076092
Probable space group: P -1
;
_chemical_formula_sum "Si O2"
_cell_formula_units_Z 16
_cell_length_a 8.280150
_cell_length_b 16.972022
_cell_length_c 9.090499
_cell_angle_alpha 129.287021
_cell_angle_beta 87.363690
_cell_angle_gamma 58.104914
_cell_volume 684.370314
_symmetry_space_group_name_H-M "P -1"
_symmetry_group_IT_number 2
_symmetry_cell_setting 'triclinic'
loop_
_space_group_symop_operation_xyz
x,y,z
-x,-y,-z
loop_
_atom_site_type_symbol
_atom_site_label
_atom_site_fract_x
_atom_site_fract_y
_atom_site_fract_z
Si Si1 0.803994 0.124576 0.827975
Si Si2 0.665798 0.992004 0.087856
Si Si3 0.740116 0.216399 0.625654
Si Si4 0.485282 0.626804 0.667138
Si Si5 0.634569 0.672830 0.422638
Si Si6 0.931315 0.469518 0.613438
Si Si7 0.959962 0.798095 0.608612
Si Si8 0.542066 0.027218 0.690096
O O1 0.779282 0.209629 0.788760
O O2 0.629466 0.105545 0.787083
O O3 0.749827 0.213434 0.079914
O O4 0.066616 0.959700 0.626452
O O5 0.681626 0.908932 0.129242
O O6 0.520378 0.156844 0.332998
O O7 0.871764 0.919248 0.876760
O O8 0.500000 0.000000 0.000000
O O9 0.474823 0.311941 0.708373
O O10 0.816866 0.270331 0.574946
O O11 0.500000 0.500000 0.500000
O O12 0.566366 0.632078 0.513586
O O13 0.655874 0.587318 0.745547
O O14 0.913246 0.558311 0.291878
O O15 0.000000 0.500000 0.500000
O O16 0.007787 0.317278 0.433958
O O17 0.764300 0.874419 0.580650
O O18 0.500000 0.000000 0.500000
#
# Coordination Sequence:
#
# PCOD9076092 Si02
#       8
#     2   2   2   2   2   2   2   2
#     4  10  23  41  63  96 136 170 212 265 333 398
#     4  10  18  32  60  91 121 156 208 276 329 369
#     4  10  22  40  66  92 132 165 204 277 342 385
#     4  11  24  42  63  90 130 179 223 264 314 386
#     4  11  20  38  63  91 123 163 221 271 326 379
#     4  10  22  37  61  87 127 167 218 272 310 377
#     4  10  20  37  58  92 125 163 215 263 327 385
#     4  10  19  34  63  96 130 161 204 278 339 384
#
# _framework density 23.379155999999998
#
# number of rings (size 3 to 8) (size 9 to 14) (size 15 to 20)
#    0.000    1.750    2.500    3.750    1.750    3.000 
#    0.000    3.125    0.000    0.000    0.000    0.000 
#    0.000    0.000    0.000    0.000    0.000    0.000 
#
# Total GULP energy -89138.950699 kJ/mol
# GULP energy per Si atom -5571.184419 kJ/mol
# Density = 2.332594 g / cm^3
# Si number density = 23.379156 Si / 1000 Ang^3
#
#
#
# Elastic Constant Matrix: (Units=GPa)
#
#
# Indices 1 2 3 4 5 6 
#
# 1 81.5810 47.3635 9.6736 -5.9807 8.4852 -6.0426
# 2 47.3635 102.5796 19.7587 -15.8823 4.8970 -13.8446
# 3 9.6736 19.7587 34.4823 -9.0466 6.1516 6.0263
# 4 -5.9807 -15.8823 -9.0466 23.5876 3.2413 3.6039
# 5 8.4852 4.8970 6.1516 3.2413 16.9787 -7.4925
# 6 -6.0426 -13.8446 6.0263 3.6039 -7.4925 57.9251
#
#
#
# Elastic Compliance Matrix: (Units=1/GPa)
#
#
# Indices 1 2 3 4 5 6 
#
# 1 0.017527 -0.008063 0.001542 0.000871 -0.007739 -0.001314
# 2 -0.008063 0.015924 -0.006536 0.005288 0.002395 0.003626
# 3 0.001542 -0.006536 0.042205 0.016614 -0.021593 -0.009619
# 4 0.000871 0.005288 0.016614 0.056559 -0.021735 -0.006704
# 5 -0.007739 0.002395 -0.021593 -0.021735 0.080104 0.013725
# 6 -0.001314 0.003626 -0.009619 -0.006704 0.013725 0.021186
#
#
# Mechanical properties :
#
#
# Convention : Reuss Voigt Hill
#
# Bulk Modulus (GPa) = 20.18516 41.35937 30.77227
# Shear Modulus (GPa) = 18.10708 29.15476 23.63092
#
# Velocity S-wave (km/s) = 2.78600 3.53518 3.18271
# Velocity P-wave (km/s) = 4.35908 5.86450 5.16692
#
# Compressibility (1/GPa) = 0.04954134
#
# Stress axis : x y z
#
# Youngs Moduli (GPa) = 57.05345 62.79786 23.69380
#
# Poissons Ratio (x) = 0.50633 -0.03653
# Poissons Ratio (y) = 0.46002 0.15487
# Poissons Ratio (z) = -0.08796 0.41047
#
# Static dielectric constant tensor:
#      x y z
#    x 2.045210 -0.013210 -0.060760 
#    y -0.013210 1.951070 0.034500 
#    z -0.060760 0.034500 1.909680 
# 
# From -- ./inp_files/215851.got.cif
#   From: 2010.05.17/outbox.cif.g08.bks.cpg/sg2_108_cif.got.tgz:215851.got - 2010.06.03 11:33:40.
