data_PCOD9076384
_publ_section_title
;
Structure prediction by ZEFSAII (Michael W. Deem and Ramdas Pophale) SiO2 
 PCOD9076384
Probable space group: P -1
;
_chemical_formula_sum "Si O2"
_cell_formula_units_Z 14
_cell_length_a 6.747199
_cell_length_b 9.757691
_cell_length_c 18.045281
_cell_angle_alpha 40.376918
_cell_angle_beta 135.321622
_cell_angle_gamma 121.173254
_cell_volume 540.394063
_symmetry_space_group_name_H-M "P -1"
_symmetry_group_IT_number 2
_symmetry_cell_setting 'triclinic'
loop_
_space_group_symop_operation_xyz
x,y,z
-x,-y,-z
loop_
_atom_site_type_symbol
_atom_site_label
_atom_site_fract_x
_atom_site_fract_y
_atom_site_fract_z
Si Si1 0.738402 0.014607 0.621516
Si Si2 0.603572 0.071774 0.289167
Si Si3 0.242069 0.376497 0.520152
Si Si4 0.914451 0.556165 0.870182
Si Si5 0.477639 0.538870 0.647411
Si Si6 0.209724 0.178446 0.008196
Si Si7 0.900202 0.475873 0.264270
O O1 0.626210 0.981020 0.688281
O O2 0.952630 0.806277 0.757641
O O3 0.500000 0.000000 0.500000
O O4 0.748180 0.267553 0.512741
O O5 0.456369 0.092055 0.162141
O O6 0.742074 0.276198 0.274146
O O7 0.801505 0.859631 0.424817
O O8 0.500000 0.500000 0.500000
O O9 0.338752 0.356063 0.639347
O O10 0.974767 0.499048 0.361128
O O11 0.593691 0.533926 0.764185
O O12 0.000000 0.500000 0.000000
O O13 0.080971 0.370796 0.945914
O O14 0.785952 0.555450 0.679796
O O15 0.268411 0.311644 0.895768
O O16 0.000000 0.000000 0.000000
#
# Coordination Sequence:
#
# PCOD9076384 Si02
#       7
#     2   2   2   2   2   2   2
#     4  10  20  33  55  82 109 150 193 230 275 343
#     4  12  20  34  57  87 116 149 186 244 286 328
#     4  10  18  33  55  85 112 143 187 237 277 328
#     4  10  19  34  55  86 106 146 193 234 270 338
#     4   9  19  35  55  85 112 143 193 234 274 334
#     4  11  23  38  59  87 111 148 195 240 281 333
#     4  10  21  33  55  90 116 144 186 243 288 333
#
# _framework density 25.907022000000001
#
# number of rings (size 3 to 8) (size 9 to 14) (size 15 to 20)
#    0.000    1.714    4.286    3.429    0.000    0.000 
#    0.000    0.000    0.000    4.286   22.286    0.000 
#    0.000    0.000    0.000    0.000    0.000    0.000 
#
# Total GULP energy -78031.401966 kJ/mol
# GULP energy per Si atom -5573.671569 kJ/mol
# Density = 2.584806 g / cm^3
# Si number density = 25.907022 Si / 1000 Ang^3
#
#
#
# Elastic Constant Matrix: (Units=GPa)
#
#
# Indices 1 2 3 4 5 6 
#
# 1 51.2871 8.9978 23.1300 8.3350 -0.2761 -5.4932
# 2 8.9978 121.3437 58.8450 21.2888 -24.3848 -6.6952
# 3 23.1300 58.8450 203.1281 29.5525 -29.9625 -3.3865
# 4 8.3350 21.2888 29.5525 67.8906 -13.4237 6.7906
# 5 -0.2761 -24.3848 -29.9625 -13.4237 41.9548 1.3501
# 6 -5.4932 -6.6952 -3.3865 6.7906 1.3501 40.8845
#
#
#
# Elastic Compliance Matrix: (Units=1/GPa)
#
#
# Indices 1 2 3 4 5 6 
#
# 1 0.021296 -0.000408 -0.002301 -0.002302 -0.002575 0.003071
# 2 -0.000408 0.010492 -0.002133 -0.001688 0.003979 0.001636
# 3 -0.002301 -0.002133 0.006418 -0.001263 0.002925 -0.000014
# 4 -0.002302 -0.001688 -0.001263 0.017194 0.003721 -0.003669
# 5 -0.002575 0.003979 0.002925 0.003721 0.029444 -0.001043
# 6 0.003071 0.001636 -0.000014 -0.003669 -0.001043 0.025782
#
#
# Mechanical properties :
#
#
# Convention : Reuss Voigt Hill
#
# Bulk Modulus (GPa) = 35.05946 61.96715 48.51331
# Shear Modulus (GPa) = 38.51577 49.13172 43.82374
#
# Velocity S-wave (km/s) = 3.85995 4.35956 4.11734
# Velocity P-wave (km/s) = 5.78168 7.02225 6.43194
#
# Compressibility (1/GPa) = 0.02852297
#
# Stress axis : x y z
#
# Youngs Moduli (GPa) = 46.95641 95.31244 155.81567
#
# Poissons Ratio (x) = 0.03886 0.35848
# Poissons Ratio (y) = 0.01914 0.33238
# Poissons Ratio (z) = 0.10803 0.20332
#
# Static dielectric constant tensor:
#      x y z
#    x 2.446280 0.005400 -0.073700 
#    y 0.005400 2.023880 -0.023040 
#    z -0.073700 -0.023040 2.096020 
# 
# From -- ./inp_files/610254.got.cif
#   From: 2010.05.17/outbox.cif.g08.bks.cpg/sg2_306_cif.got.tgz:610254.got - 2010.06.03 11:33:40.
