data_PCOD9076646
_publ_section_title
;
Structure prediction by ZEFSAII (Michael W. Deem and Ramdas Pophale) SiO2 
 PCOD9076646
Probable space group: P -1
;
_chemical_formula_sum "Si O2"
_cell_formula_units_Z 16
_cell_length_a 8.364350
_cell_length_b 15.655828
_cell_length_c 9.936481
_cell_angle_alpha 141.798985
_cell_angle_beta 92.101040
_cell_angle_gamma 110.998310
_cell_volume 626.798738
_symmetry_space_group_name_H-M "P -1"
_symmetry_group_IT_number 2
_symmetry_cell_setting 'triclinic'
loop_
_space_group_symop_operation_xyz
x,y,z
-x,-y,-z
loop_
_atom_site_type_symbol
_atom_site_label
_atom_site_fract_x
_atom_site_fract_y
_atom_site_fract_z
Si Si1 0.800064 0.601951 0.343614
Si Si2 0.771625 0.850764 0.172767
Si Si3 0.877890 0.943664 0.781356
Si Si4 0.442696 0.796293 0.238383
Si Si5 0.781353 0.193398 0.014286
Si Si6 0.618908 0.376178 0.311836
Si Si7 0.770007 0.550047 0.781298
Si Si8 0.168576 0.669463 0.305841
O O1 0.746225 0.733198 0.499678
O O2 0.777446 0.536265 0.413816
O O3 0.032777 0.707544 0.428070
O O4 0.652267 0.411966 0.028352
O O5 0.591931 0.755274 0.936902
O O6 0.776997 0.698247 0.042053
O O7 0.684311 0.905627 0.352142
O O8 0.971613 0.981162 0.251550
O O9 0.764673 0.029784 0.868997
O O10 0.000000 0.000000 0.000000
O O11 0.352044 0.811451 0.389839
O O12 0.337628 0.823559 0.146735
O O13 0.707329 0.270777 0.211482
O O14 0.016601 0.340617 0.158853
O O15 0.599643 0.452206 0.539841
O O16 0.750061 0.404672 0.687429
O O17 0.000000 0.500000 0.000000
#
# Coordination Sequence:
#
# PCOD9076646 Si02
#       8
#     2   2   2   2   2   2   2   2
#     4   9  18  34  58  85 108 142 186 232 268 317
#     4   9  21  36  53  81 118 147 170 230 288 325
#     4  11  22  34  56  84 119 142 178 223 283 339
#     4   9  19  40  60  76 111 143 195 233 263 316
#     4   9  18  33  55  80 110 148 175 222 280 330
#     4  10  19  35  58  85 113 142 186 225 276 335
#     4  11  17  28  59  86 106 143 190 226 275 321
#     4  10  18  33  58  86 105 138 199 241 254 307
#
# _framework density 25.526534000000002
#
# number of rings (size 3 to 8) (size 9 to 14) (size 15 to 20)
#    0.000    2.500    3.750    2.250    1.750    1.500 
#    0.000    3.750   11.000    0.000    0.000    0.000 
#    0.000    0.000    0.000    0.000    0.000    0.000 
#
# Total GULP energy -89437.389387 kJ/mol
# GULP energy per Si atom -5589.836837 kJ/mol
# Density = 2.546843 g / cm^3
# Si number density = 25.526534 Si / 1000 Ang^3
#
#
#
# Elastic Constant Matrix: (Units=GPa)
#
#
# Indices 1 2 3 4 5 6 
#
# 1 106.1180 30.4690 28.6599 13.5892 -27.2014 7.6431
# 2 30.4690 83.1645 33.8167 1.9402 -16.3600 5.3427
# 3 28.6599 33.8167 83.9585 33.0537 -25.4036 -7.7108
# 4 13.5892 1.9402 33.0537 25.1335 -22.4599 -8.7906
# 5 -27.2014 -16.3600 -25.4036 -22.4599 41.5463 6.6006
# 6 7.6431 5.3427 -7.7108 -8.7906 6.6006 53.5417
#
#
#
# Elastic Compliance Matrix: (Units=1/GPa)
#
#
# Indices 1 2 3 4 5 6 
#
# 1 0.012453 -0.002015 -0.002311 0.002450 0.007660 -0.002451
# 2 -0.002015 0.023190 -0.019179 0.040528 0.018052 -0.000360
# 3 -0.002311 -0.019179 0.042557 -0.074065 -0.022930 -0.000961
# 4 0.002450 0.040528 -0.074065 0.212593 0.085730 0.009275
# 5 0.007660 0.018052 -0.022930 0.085730 0.068610 -0.000580
# 6 -0.002451 -0.000360 -0.000961 0.009275 -0.000580 0.020519
#
#
# Mechanical properties :
#
#
# Convention : Reuss Voigt Hill
#
# Bulk Modulus (GPa) = 32.06292 51.01468 41.53880
# Shear Modulus (GPa) = 11.43305 36.06398 23.74852
#
# Velocity S-wave (km/s) = 2.11863 3.76281 3.05347
# Velocity P-wave (km/s) = 4.30961 6.23752 5.36094
#
# Compressibility (1/GPa) = 0.03118867
#
# Stress axis : x y z
#
# Youngs Moduli (GPa) = 80.30397 43.12166 23.49812
#
# Poissons Ratio (x) = 0.08691 0.05430
# Poissons Ratio (y) = 0.16185 0.45068
# Poissons Ratio (z) = 0.18557 0.82704
#
# Static dielectric constant tensor:
#      x y z
#    x 2.399320 -0.552500 -0.614410 
#    y -0.552500 2.874810 0.940140 
#    z -0.614410 0.940140 3.096900 
# 
# From -- ./inp_files/399809.got.cif
#   From: 2010.05.17/outbox.cif.g08.bks.cpg/sg2_200_cif.got.tgz:399809.got - 2010.06.03 11:33:40.
