data_PCOD9076186
_publ_section_title
;
Structure prediction by ZEFSAII (Michael W. Deem and Ramdas Pophale) SiO2 
 PCOD9076186
Probable space group: P -1
;
_chemical_formula_sum "Si O2"
_cell_formula_units_Z 14
_cell_length_a 14.325112
_cell_length_b 9.417415
_cell_length_c 12.034776
_cell_angle_alpha 132.124582
_cell_angle_beta 40.681507
_cell_angle_gamma 150.733538
_cell_volume 517.168347
_symmetry_space_group_name_H-M "P -1"
_symmetry_group_IT_number 2
_symmetry_cell_setting 'triclinic'
loop_
_space_group_symop_operation_xyz
x,y,z
-x,-y,-z
loop_
_atom_site_type_symbol
_atom_site_label
_atom_site_fract_x
_atom_site_fract_y
_atom_site_fract_z
Si Si1 0.533968 0.156889 0.681231
Si Si2 0.217659 0.354533 0.126711
Si Si3 0.900602 0.196105 0.016407
Si Si4 0.640747 0.399006 0.117237
Si Si5 0.817895 0.071965 0.767353
Si Si6 0.000000 0.500000 0.500000
Si Si7 0.262726 0.447939 0.491281
Si Si8 0.500000 0.500000 0.500000
O O1 0.596286 0.413712 0.829011
O O2 0.570513 0.258558 0.575230
O O3 0.730547 0.219125 0.576595
O O4 0.289828 0.872763 0.790409
O O5 0.124113 0.048398 0.050753
O O6 0.037688 0.331231 0.312787
O O7 0.318203 0.499497 0.992506
O O8 0.864555 0.158531 0.898231
O O9 0.143691 0.497163 0.989064
O O10 0.399711 0.063995 0.163375
O O11 0.612986 0.545847 0.304859
O O12 0.778205 0.801263 0.657015
O O13 0.025892 0.310792 0.626137
O O14 0.333730 0.473050 0.564850
#
# Coordination Sequence:
#
# PCOD9076186 Si02
#       8
#     2   2   2   2   2   1   2   1
#     4  10  20  37  64  88 119 157 205 255 306 361
#     4  10  20  36  59  90 121 154 205 257 302 363
#     4  12  19  35  61  94 122 153 199 261 318 355
#     4  11  22  33  56  93 125 157 199 251 311 369
#     4  10  18  33  51  82 126 155 189 245 302 370
#     4   8  20  38  64  86 116 168 208 246 312 364
#     4  10  19  32  54  84 124 159 195 243 306 364
#     4  10  20  32  52  92 130 156 192 246 314 370
#
# _framework density 27.070491000000001
#
# number of rings (size 3 to 8) (size 9 to 14) (size 15 to 20)
#    0.857    0.857    4.286    2.571    0.000    0.000 
#    0.000    0.714    0.000    4.286    0.000    0.000 
#    0.000    0.000    0.000    0.000    0.000    0.000 
#
# Total GULP energy -77939.658419 kJ/mol
# GULP energy per Si atom -5567.118458 kJ/mol
# Density = 2.700888 g / cm^3
# Si number density = 27.070491 Si / 1000 Ang^3
#
#
#
# Elastic Constant Matrix: (Units=GPa)
#
#
# Indices 1 2 3 4 5 6 
#
# 1 74.9712 52.7080 54.3315 -8.7161 -9.9439 16.0401
# 2 52.7080 135.6167 29.8970 -25.5737 -12.0810 28.5568
# 3 54.3315 29.8970 175.0196 -29.2511 -26.9653 17.3701
# 4 -8.7161 -25.5737 -29.2511 35.3110 20.3832 -22.1092
# 5 -9.9439 -12.0810 -26.9653 20.3832 59.0681 -8.1647
# 6 16.0401 28.5568 17.3701 -22.1092 -8.1647 50.6471
#
#
#
# Elastic Compliance Matrix: (Units=1/GPa)
#
#
# Indices 1 2 3 4 5 6 
#
# 1 0.024770 -0.008844 -0.007123 -0.010187 0.001997 -0.004540
# 2 -0.008844 0.012069 0.001987 0.007937 -0.001044 -0.001389
# 3 -0.007123 0.001987 0.008811 0.007402 0.000881 0.001487
# 4 -0.010187 0.007937 0.007402 0.057772 -0.013998 0.019175
# 5 0.001997 -0.001044 0.000881 -0.013998 0.021880 -0.002929
# 6 -0.004540 -0.001389 0.001487 0.019175 -0.002929 0.029354
#
#
# Mechanical properties :
#
#
# Convention : Reuss Voigt Hill
#
# Bulk Modulus (GPa) = 56.52652 73.27562 64.90107
# Shear Modulus (GPa) = 26.52368 45.58330 36.05349
#
# Velocity S-wave (km/s) = 3.13357 4.10796 3.65339
# Velocity P-wave (km/s) = 5.83257 7.04469 6.46709
#
# Compressibility (1/GPa) = 0.01769081
#
# Stress axis : x y z
#
# Youngs Moduli (GPa) = 40.37164 82.85697 113.49967
#
# Poissons Ratio (x) = 0.73276 0.80845
# Poissons Ratio (y) = 0.35703 -0.22555
# Poissons Ratio (z) = 0.28756 -0.16466
#
# Static dielectric constant tensor:
#      x y z
#    x 2.044440 0.036470 -0.064560 
#    y 0.036470 2.175590 0.042820 
#    z -0.064560 0.042820 2.126020 
# 
# From -- ./inp_files/449245.got.cif
#   From: 2010.05.17/outbox.cif.g08.bks.cpg/sg2_225_cif.got.tgz:449245.got - 2010.06.03 11:33:40.
