data_PCOD9076900
_publ_section_title
;
Structure prediction by ZEFSAII (Michael W. Deem and Ramdas Pophale) SiO2 
 PCOD9076900
Probable space group: P -1
;
_chemical_formula_sum "Si O2"
_cell_formula_units_Z 14
_cell_length_a 13.897270
_cell_length_b 8.706568
_cell_length_c 9.402360
_cell_angle_alpha 131.083400
_cell_angle_beta 66.823204
_cell_angle_gamma 82.720789
_cell_volume 655.171635
_symmetry_space_group_name_H-M "P -1"
_symmetry_group_IT_number 2
_symmetry_cell_setting 'triclinic'
loop_
_space_group_symop_operation_xyz
x,y,z
-x,-y,-z
loop_
_atom_site_type_symbol
_atom_site_label
_atom_site_fract_x
_atom_site_fract_y
_atom_site_fract_z
Si Si1 0.995909 0.974166 0.157770
Si Si2 0.722654 0.370502 0.501881
Si Si3 0.656665 0.797758 0.985360
Si Si4 0.116826 0.247683 0.344799
Si Si5 0.177103 0.440768 0.692538
Si Si6 0.521513 0.305936 0.482776
Si Si7 0.638295 0.743565 0.277661
O O1 0.083101 0.049017 0.225552
O O2 0.850707 0.183212 0.398984
O O3 0.054242 0.689665 0.976731
O O4 0.000000 0.000000 0.000000
O O5 0.637915 0.617874 0.792569
O O6 0.757850 0.458325 0.389980
O O7 0.652182 0.234526 0.434315
O O8 0.763047 0.815006 0.855813
O O9 0.696096 0.687525 0.054192
O O10 0.539310 0.074716 0.247615
O O11 0.139788 0.300297 0.522920
O O12 0.000000 0.500000 0.500000
O O13 0.268661 0.277653 0.667653
O O14 0.500000 0.500000 0.500000
O O15 0.409126 0.419618 0.730437
O O16 0.500000 0.000000 0.500000
#
# Coordination Sequence:
#
# PCOD9076900 Si02
#       7
#     2   2   2   2   2   2   2
#     4  10  18  33  63  92 121 147 201 254 294 357
#     4  10  20  36  64  92 115 157 209 248 301 360
#     4  10  22  39  60  86 128 151 198 256 305 347
#     4  11  19  35  65  95 117 157 201 243 306 366
#     4  10  20  37  61  89 122 157 201 246 299 363
#     4  11  22  38  64  87 114 166 215 245 297 356
#     4  10  23  44  59  85 130 164 200 254 305 353
#
# _framework density 21.368445999999999
#
# number of rings (size 3 to 8) (size 9 to 14) (size 15 to 20)
#    0.000    1.714    5.714    1.714    0.000    1.143 
#    2.571    4.286    0.000    0.000    0.000    0.000 
#    0.000    0.000    0.000    0.000    0.000    0.000 
#
# Total GULP energy -78063.225185 kJ/mol
# GULP energy per Si atom -5575.944656 kJ/mol
# Density = 2.131981 g / cm^3
# Si number density = 21.368446 Si / 1000 Ang^3
#
#
#
# Elastic Constant Matrix: (Units=GPa)
#
#
# Indices 1 2 3 4 5 6 
#
# 1 55.7713 5.6538 2.4291 9.5311 16.1418 -8.1847
# 2 5.6538 62.8045 20.7330 -1.3836 9.0922 -22.8587
# 3 2.4291 20.7330 79.5774 16.6062 17.6067 -0.7251
# 4 9.5311 -1.3836 16.6062 17.1156 -1.2374 -0.9837
# 5 16.1418 9.0922 17.6067 -1.2374 27.5297 1.8260
# 6 -8.1847 -22.8587 -0.7251 -0.9837 1.8260 34.5275
#
#
#
# Elastic Compliance Matrix: (Units=1/GPa)
#
#
# Indices 1 2 3 4 5 6 
#
# 1 0.032177 -0.000458 0.011979 -0.031155 -0.028320 0.008186
# 2 -0.000458 0.025611 -0.007893 0.010697 -0.003801 0.017187
# 3 0.011979 -0.007893 0.026572 -0.034836 -0.022870 -0.001611
# 4 -0.031155 0.010697 -0.034836 0.113483 0.042117 -0.000029
# 5 -0.028320 -0.003801 -0.022870 0.042117 0.071520 -0.012292
# 6 0.008186 0.017187 -0.001611 -0.000029 -0.012292 0.042897
#
#
# Mechanical properties :
#
#
# Convention : Reuss Voigt Hill
#
# Bulk Modulus (GPa) = 10.91527 28.42055 19.66791
# Shear Modulus (GPa) = 14.90123 27.12371 21.01247
#
# Velocity S-wave (km/s) = 2.64360 3.56664 3.13923
# Velocity P-wave (km/s) = 3.79965 5.50366 4.72904
#
# Compressibility (1/GPa) = 0.09161476
#
# Stress axis : x y z
#
# Youngs Moduli (GPa) = 31.07794 39.04613 37.63324
#
# Poissons Ratio (x) = 0.01790 -0.45081
# Poissons Ratio (y) = 0.01424 0.29705
# Poissons Ratio (z) = -0.37228 0.30820
#
# Static dielectric constant tensor:
#      x y z
#    x 1.845990 0.009290 -0.041230 
#    y 0.009290 1.892930 -0.000370 
#    z -0.041230 -0.000370 1.816790 
# 
# From -- ./inp_files/187026.got.cif
#   From: 2010.05.17/outbox.cif.g08.bks.cpg/sg2_94_cif.got.tgz:187026.got - 2010.06.03 11:33:40.
