data_PCOD9076396
_publ_section_title
;
Structure prediction by ZEFSAII (Michael W. Deem and Ramdas Pophale) SiO2 
 PCOD9076396
Probable space group: P -1
;
_chemical_formula_sum "Si O2"
_cell_formula_units_Z 16
_cell_length_a 6.786158
_cell_length_b 13.271083
_cell_length_c 13.706867
_cell_angle_alpha 38.598248
_cell_angle_beta 96.775235
_cell_angle_gamma 102.593322
_cell_volume 748.791452
_symmetry_space_group_name_H-M "P -1"
_symmetry_group_IT_number 2
_symmetry_cell_setting 'triclinic'
loop_
_space_group_symop_operation_xyz
x,y,z
-x,-y,-z
loop_
_atom_site_type_symbol
_atom_site_label
_atom_site_fract_x
_atom_site_fract_y
_atom_site_fract_z
Si Si1 0.747832 0.164688 0.687737
Si Si2 0.244938 0.207210 0.653635
Si Si3 0.646589 0.503625 0.722519
Si Si4 0.053247 0.118207 0.100819
Si Si5 0.777896 0.421476 0.336609
Si Si6 0.465447 0.814268 0.177791
Si Si7 0.955579 0.749052 0.218118
Si Si8 0.009869 0.538643 0.084289
O O1 0.740142 0.252551 0.518582
O O2 0.784518 0.195405 0.788338
O O3 0.017352 0.248065 0.655475
O O4 0.757726 0.973779 0.812772
O O5 0.273397 0.344180 0.463824
O O6 0.503578 0.193018 0.690574
O O7 0.281942 0.219782 0.774263
O O8 0.141514 0.015670 0.771670
O O9 0.432223 0.525625 0.730492
O O10 0.606981 0.339485 0.780459
O O11 0.777117 0.468642 0.848009
O O12 0.055386 0.288379 0.025792
O O13 0.037089 0.146050 0.962655
O O14 0.903665 0.561011 0.312988
O O15 0.871284 0.410612 0.245190
O O16 0.500000 0.000000 0.000000
O O17 0.000000 0.500000 0.000000
#
# Coordination Sequence:
#
# PCOD9076396 Si02
#       8
#     2   2   2   2   2   2   2   2
#     4  11  20  33  57  92 132 166 199 239 308 375
#     4  11  19  35  57  93 136 161 195 239 297 384
#     4  12  24  41  63  96 129 169 211 249 312 378
#     4  10  22  39  59  90 124 167 215 255 306 367
#     4  11  22  40  63  91 127 163 209 256 313 373
#     4  12  21  32  57  97 137 171 196 232 293 379
#     4  10  18  33  55  86 132 172 200 233 287 375
#     4  11  26  48  70  85 112 164 222 280 324 357
#
# _framework density 21.367764000000001
#
# number of rings (size 3 to 8) (size 9 to 14) (size 15 to 20)
#    0.000    1.000    2.500    8.250    1.750    0.500 
#    0.000    2.500    0.000    1.500    0.000    0.000 
#    0.000    0.000    0.000    0.000    0.000    0.000 
#
# Total GULP energy -89091.874994 kJ/mol
# GULP energy per Si atom -5568.242187 kJ/mol
# Density = 2.131913 g / cm^3
# Si number density = 21.367764 Si / 1000 Ang^3
#
#
#
# Elastic Constant Matrix: (Units=GPa)
#
#
# Indices 1 2 3 4 5 6 
#
# 1 122.9711 44.3971 36.7025 17.6556 7.6163 -16.4455
# 2 44.3971 109.3969 62.5547 24.1567 10.9470 -18.0713
# 3 36.7025 62.5547 123.5634 7.7973 19.5955 -2.6028
# 4 17.6556 24.1567 7.7973 25.2444 -10.2588 -4.2019
# 5 7.6163 10.9470 19.5955 -10.2588 45.9767 -7.7076
# 6 -16.4455 -18.0713 -2.6028 -4.2019 -7.7076 20.9302
#
#
#
# Elastic Compliance Matrix: (Units=1/GPa)
#
#
# Indices 1 2 3 4 5 6 
#
# 1 0.010708 -0.000858 -0.002150 -0.005340 -0.000834 0.006026
# 2 -0.000858 0.019406 -0.008025 -0.014604 -0.002429 0.011256
# 3 -0.002150 -0.008025 0.013170 0.002030 -0.004258 -0.008141
# 4 -0.005340 -0.014604 0.002030 0.064751 0.018491 0.003256
# 5 -0.000834 -0.002429 -0.004258 0.018491 0.030353 0.011607
# 6 0.006026 0.011256 -0.008141 0.003256 0.011607 0.066147
#
#
# Mechanical properties :
#
#
# Convention : Reuss Voigt Hill
#
# Bulk Modulus (GPa) = 47.13281 71.47111 59.30196
# Shear Modulus (GPa) = 21.39733 32.58207 26.98970
#
# Velocity S-wave (km/s) = 3.16790 3.90914 3.55787
# Velocity P-wave (km/s) = 5.95706 7.34138 6.68515
#
# Compressibility (1/GPa) = 0.02121664
#
# Stress axis : x y z
#
# Youngs Moduli (GPa) = 93.39106 51.53123 75.92918
#
# Poissons Ratio (x) = 0.04423 0.16323
# Poissons Ratio (y) = 0.08016 0.60936
# Poissons Ratio (z) = 0.20077 0.41356
#
# Static dielectric constant tensor:
#      x y z
#    x 2.207300 -0.053190 0.011650 
#    y -0.053190 1.689250 -0.017720 
#    z 0.011650 -0.017720 1.773120 
# 
# From -- ./inp_files/179216.got.cif
#   From: 2010.05.17/outbox.cif.g08.bks.cpg/sg2_90_cif.got.tgz:179216.got - 2010.06.03 11:33:40.
