data_PCOD9076931
_publ_section_title
;
Structure prediction by ZEFSAII (Michael W. Deem and Ramdas Pophale) SiO2 
 PCOD9076931
Probable space group: P -1
;
_chemical_formula_sum "Si O2"
_cell_formula_units_Z 13
_cell_length_a 10.708082
_cell_length_b 9.521972
_cell_length_c 8.684775
_cell_angle_alpha 48.776037
_cell_angle_beta 76.524828
_cell_angle_gamma 111.330330
_cell_volume 457.896955
_symmetry_space_group_name_H-M "P -1"
_symmetry_group_IT_number 2
_symmetry_cell_setting 'triclinic'
loop_
_space_group_symop_operation_xyz
x,y,z
-x,-y,-z
loop_
_atom_site_type_symbol
_atom_site_label
_atom_site_fract_x
_atom_site_fract_y
_atom_site_fract_z
Si Si1 0.688354 0.673002 0.976670
Si Si2 0.532903 0.154474 0.726489
Si Si3 0.500000 0.000000 0.500000
Si Si4 0.752092 0.805772 0.204920
Si Si5 0.036352 0.429235 0.697835
Si Si6 0.146437 0.816046 0.611358
Si Si7 0.740127 0.734722 0.595544
O O1 0.749507 0.632120 0.829327
O O2 0.745693 0.944794 0.721024
O O3 0.757577 0.721520 0.093975
O O4 0.471092 0.411114 0.232235
O O5 0.463447 0.996708 0.701165
O O6 0.426160 0.241381 0.710853
O O7 0.749428 0.382901 0.486714
O O8 0.500000 0.000000 0.000000
O O9 0.708298 0.162899 0.363038
O O10 0.759379 0.696371 0.442547
O O11 0.915593 0.121371 0.948356
O O12 0.002586 0.540612 0.766546
O O13 0.000000 0.500000 0.500000
O O14 0.112915 0.950428 0.643552
#
# Coordination Sequence:
#
# PCOD9076931 Si02
#       7
#     2   2   1   2   2   2   2
#     4   9  18  35  55  80 110 144 197 231 261 335
#     4  11  21  34  55  78 116 153 173 225 287 329
#     4  10  18  34  48  86 116 130 188 228 264 346
#     4  12  20  35  58  85 109 148 190 221 291 330
#     4  11  20  34  54  89 119 139 184 234 278 349
#     4   9  17  33  53  79 114 144 175 231 281 319
#     4   9  19  34  55  80 109 148 192 232 266 328
#
# _framework density 28.390666
#
# number of rings (size 3 to 8) (size 9 to 14) (size 15 to 20)
#    0.923    0.923    4.615    1.385    0.000    0.615 
#    0.000    0.000    0.000    3.692    0.000   16.154 
#    0.000    0.000    0.000    0.000    0.000    0.000 
#
# Total GULP energy -72429.510466 kJ/mol
# GULP energy per Si atom -5571.500805 kJ/mol
# Density = 2.832605 g / cm^3
# Si number density = 28.390666 Si / 1000 Ang^3
#
#
#
# Elastic Constant Matrix: (Units=GPa)
#
#
# Indices 1 2 3 4 5 6 
#
# 1 84.3563 63.7289 50.3175 21.0249 -3.3516 14.2014
# 2 63.7289 302.1719 94.1724 50.3039 16.1400 21.2008
# 3 50.3175 94.1724 149.1279 29.9336 10.9938 6.3932
# 4 21.0249 50.3039 29.9336 80.9255 10.0743 2.6679
# 5 -3.3516 16.1400 10.9938 10.0743 40.2817 -0.0046
# 6 14.2014 21.2008 6.3932 2.6679 -0.0046 52.0203
#
#
#
# Elastic Compliance Matrix: (Units=1/GPa)
#
#
# Indices 1 2 3 4 5 6 
#
# 1 0.017058 -0.001899 -0.004293 -0.002037 0.003861 -0.003251
# 2 -0.001899 0.004690 -0.001880 -0.001550 -0.001137 -0.001083
# 3 -0.004293 -0.001880 0.009668 -0.001073 -0.001974 0.000805
# 4 -0.002037 -0.001550 -0.001073 0.014589 -0.002904 0.000571
# 5 0.003861 -0.001137 -0.001974 -0.002904 0.026867 -0.000197
# 6 -0.003251 -0.001083 0.000805 0.000571 -0.000197 0.020424
#
#
# Mechanical properties :
#
#
# Convention : Reuss Voigt Hill
#
# Bulk Modulus (GPa) = 65.47603 105.78819 85.63211
# Shear Modulus (GPa) = 43.65667 56.47465 50.06566
#
# Velocity S-wave (km/s) = 3.92562 4.46488 4.20391
# Velocity P-wave (km/s) = 6.60757 7.99517 7.33426
#
# Compressibility (1/GPa) = 0.01527276
#
# Stress axis : x y z
#
# Youngs Moduli (GPa) = 58.62383 213.20180 103.43726
#
# Poissons Ratio (x) = 0.40481 0.44405
# Poissons Ratio (y) = 0.11131 0.19446
# Poissons Ratio (z) = 0.25167 0.40082
#
# Static dielectric constant tensor:
#      x y z
#    x 2.253210 -0.053820 -0.014560 
#    y -0.053820 2.128870 -0.039980 
#    z -0.014560 -0.039980 2.260150 
# 
# From -- ./inp_files/334191.got.cif
#   From: 2010.05.17/outbox.cif.g08.bks.cpg/sg2_168_cif.got.tgz:334191.got - 2010.06.03 11:33:40.
