data_PCOD9076588
_publ_section_title
;
Structure prediction by ZEFSAII (Michael W. Deem and Ramdas Pophale) SiO2 
 PCOD9076588
Probable space group: P -1
;
_chemical_formula_sum "Si O2"
_cell_formula_units_Z 14
_cell_length_a 10.514418
_cell_length_b 8.102605
_cell_length_c 14.229846
_cell_angle_alpha 45.297329
_cell_angle_beta 40.864125
_cell_angle_gamma 48.841991
_cell_volume 542.614469
_symmetry_space_group_name_H-M "P -1"
_symmetry_group_IT_number 2
_symmetry_cell_setting 'triclinic'
loop_
_space_group_symop_operation_xyz
x,y,z
-x,-y,-z
loop_
_atom_site_type_symbol
_atom_site_label
_atom_site_fract_x
_atom_site_fract_y
_atom_site_fract_z
Si Si1 0.636146 0.768417 0.961020
Si Si2 0.731721 0.844544 0.675338
Si Si3 0.894114 0.939327 0.866903
Si Si4 0.808869 0.772295 0.174627
Si Si5 0.237962 0.764404 0.877794
Si Si6 0.226882 0.524072 0.353474
Si Si7 0.216882 0.650528 0.517561
O O1 0.618718 0.778429 0.855637
O O2 0.857974 0.800781 0.850016
O O3 0.624954 0.505908 0.104431
O O4 0.500000 0.000000 0.000000
O O5 0.679709 0.712741 0.665519
O O6 0.974460 0.743067 0.597767
O O7 0.700180 0.130084 0.582033
O O8 0.804234 0.224049 0.787510
O O9 0.784554 0.827668 0.055607
O O10 0.123169 0.869516 0.803156
O O11 0.708435 0.014390 0.190739
O O12 0.746802 0.554768 0.342523
O O13 0.053804 0.728173 0.062977
O O14 0.300320 0.554279 0.406123
O O15 0.000000 0.500000 0.500000
#
# Coordination Sequence:
#
# PCOD9076588 Si02
#       7
#     2   2   2   2   2   2   2
#     4  12  23  37  56  87 127 163 199 238 291 368
#     4  10  19  34  53  83 122 149 194 245 295 343
#     4  10  19  36  57  89 116 151 200 252 290 348
#     4   9  18  34  60  84 120 142 196 256 302 341
#     4   9  18  34  57  82 118 145 195 249 296 335
#     4  10  19  31  58  91 119 144 195 254 311 340
#     4  10  18  33  57  90 117 146 191 255 303 346
#
# _framework density 25.801006999999998
#
# number of rings (size 3 to 8) (size 9 to 14) (size 15 to 20)
#    0.857    1.143    2.857    3.000    0.000    0.000 
#    2.571    2.857    0.000    1.714    0.000    0.000 
#    0.000    0.000    0.000    0.000    0.000    0.000 
#
# Total GULP energy -78292.253541 kJ/mol
# GULP energy per Si atom -5592.303824 kJ/mol
# Density = 2.574228 g / cm^3
# Si number density = 25.801007 Si / 1000 Ang^3
#
#
#
# Elastic Constant Matrix: (Units=GPa)
#
#
# Indices 1 2 3 4 5 6 
#
# 1 69.8045 47.6876 27.0671 -15.1010 11.5866 30.0939
# 2 47.6876 192.4677 70.9084 -11.4125 12.1627 30.1907
# 3 27.0671 70.9084 135.0999 -19.2753 23.4072 17.5832
# 4 -15.1010 -11.4125 -19.2753 50.6421 2.2406 -2.9117
# 5 11.5866 12.1627 23.4072 2.2406 33.2167 0.2471
# 6 30.0939 30.1907 17.5832 -2.9117 0.2471 55.3928
#
#
#
# Elastic Compliance Matrix: (Units=1/GPa)
#
#
# Indices 1 2 3 4 5 6 
#
# 1 0.023863 -0.003631 0.000815 0.006333 -0.007915 -0.010876
# 2 -0.003631 0.007360 -0.003272 -0.000771 0.000937 -0.001045
# 3 0.000815 -0.003272 0.010985 0.003890 -0.007076 -0.001911
# 4 0.006333 -0.000771 0.003890 0.023043 -0.006200 -0.003016
# 5 -0.007915 0.000937 -0.007076 -0.006200 0.037886 0.005540
# 6 -0.010876 -0.001045 -0.001911 -0.003016 0.005540 0.024954
#
#
# Mechanical properties :
#
#
# Convention : Reuss Voigt Hill
#
# Bulk Modulus (GPa) = 33.29711 76.52201 54.90956
# Shear Modulus (GPa) = 33.27194 44.63091 38.95143
#
# Velocity S-wave (km/s) = 3.59494 4.16361 3.88968
# Velocity P-wave (km/s) = 5.49225 7.26892 6.44213
#
# Compressibility (1/GPa) = 0.03003264
#
# Stress axis : x y z
#
# Youngs Moduli (GPa) = 41.90652 135.87621 91.02946
#
# Poissons Ratio (x) = 0.49339 -0.07421
# Poissons Ratio (y) = 0.15217 0.29782
# Poissons Ratio (z) = -0.03417 0.44454
#
# Static dielectric constant tensor:
#      x y z
#    x 2.121000 -0.116260 -0.076400 
#    y -0.116260 2.037230 0.079320 
#    z -0.076400 0.079320 2.050510 
# 
# From -- ./inp_files/529268.got.cif
#   From: 2010.05.17/outbox.cif.g08.bks.cpg/sg2_265_cif.got.tgz:529268.got - 2010.06.03 11:33:40.
