data_PCOD9076889
_publ_section_title
;
Structure prediction by ZEFSAII (Michael W. Deem and Ramdas Pophale) SiO2 
 PCOD9076889
Probable space group: P -1
;
_chemical_formula_sum "Si O2"
_cell_formula_units_Z 16
_cell_length_a 16.694391
_cell_length_b 16.207042
_cell_length_c 11.712443
_cell_angle_alpha 136.690345
_cell_angle_beta 152.172879
_cell_angle_gamma 30.125580
_cell_volume 733.014188
_symmetry_space_group_name_H-M "P -1"
_symmetry_group_IT_number 2
_symmetry_cell_setting 'triclinic'
loop_
_space_group_symop_operation_xyz
x,y,z
-x,-y,-z
loop_
_atom_site_type_symbol
_atom_site_label
_atom_site_fract_x
_atom_site_fract_y
_atom_site_fract_z
Si Si1 0.625385 0.461082 0.739262
Si Si2 0.745286 0.035928 0.805813
Si Si3 0.277548 0.022464 0.704676
Si Si4 0.112739 0.312873 0.101750
Si Si5 0.454232 0.072716 0.675279
Si Si6 0.276226 0.830184 0.315758
Si Si7 0.044609 0.364026 0.796506
Si Si8 0.508014 0.772562 0.913440
O O1 0.500000 0.500000 0.500000
O O2 0.606640 0.348583 0.673049
O O3 0.503131 0.639112 0.815437
O O4 0.898830 0.362987 0.958320
O O5 0.759787 0.903388 0.619312
O O6 0.682729 0.162048 0.757053
O O7 0.550160 0.107225 0.727418
O O8 0.992315 0.948884 0.086745
O O9 0.328285 0.918224 0.552676
O O10 0.270670 0.933726 0.713374
O O11 0.064628 0.221155 0.624143
O O12 0.500000 0.000000 0.000000
O O13 0.338036 0.122828 0.226310
O O14 0.142601 0.443460 0.284194
O O15 0.047671 0.338196 0.910152
O O16 0.414784 0.174825 0.836923
O O17 0.287111 0.316439 0.015346
#
# Coordination Sequence:
#
# PCOD9076889 Si02
#       8
#     2   2   2   2   2   2   2   2
#     4  11  22  39  59  95 132 166 192 260 335 377
#     4  10  24  40  66  86 121 178 217 253 298 368
#     4  10  18  33  62  93 120 155 201 255 312 369
#     4  10  20  34  60  90 129 155 208 249 311 381
#     4  11  21  42  67  90 122 166 223 258 297 372
#     4  11  22  41  64  90 127 170 212 249 316 381
#     4   9  19  33  56  97 122 151 193 260 321 364
#     4  10  20  35  63  95 124 158 201 260 321 366
#
# _framework density 21.827680999999998
#
# number of rings (size 3 to 8) (size 9 to 14) (size 15 to 20)
#    0.000    1.750    3.750    1.500    1.750    1.000 
#    2.250    3.125   11.000    0.000    0.000    0.000 
#    0.000    0.000    0.000    0.000    0.000    0.000 
#
# Total GULP energy -89285.434740 kJ/mol
# GULP energy per Si atom -5580.339671 kJ/mol
# Density = 2.177800 g / cm^3
# Si number density = 21.827681 Si / 1000 Ang^3
#
#
#
# Elastic Constant Matrix: (Units=GPa)
#
#
# Indices 1 2 3 4 5 6 
#
# 1 105.9960 25.7425 8.3667 11.2158 0.1718 27.6449
# 2 25.7425 116.5414 24.5602 33.3122 3.6991 31.6540
# 3 8.3667 24.5602 74.2118 3.4780 -0.8911 3.7177
# 4 11.2158 33.3122 3.4780 23.9079 -2.6704 1.8570
# 5 0.1718 3.6991 -0.8911 -2.6704 28.5786 2.6573
# 6 27.6449 31.6540 3.7177 1.8570 2.6573 30.3516
#
#
#
# Elastic Compliance Matrix: (Units=1/GPa)
#
#
# Indices 1 2 3 4 5 6 
#
# 1 0.014340 0.006203 -0.002113 -0.013693 -0.000525 -0.018388
# 2 0.006203 0.029243 -0.006906 -0.040675 -0.004827 -0.032391
# 3 -0.002113 -0.006906 0.015308 0.008042 0.001519 0.006627
# 4 -0.013693 -0.040675 0.008042 0.101320 0.010717 0.046770
# 5 -0.000525 -0.004827 0.001519 0.010717 0.036531 0.001472
# 6 -0.018388 -0.032391 0.006627 0.046770 0.001472 0.079673
#
#
# Mechanical properties :
#
#
# Convention : Reuss Voigt Hill
#
# Bulk Modulus (GPa) = 18.77641 46.00978 32.39310
# Shear Modulus (GPa) = 16.67766 32.43960 24.55863
#
# Velocity S-wave (km/s) = 2.76716 3.85927 3.35791
# Velocity P-wave (km/s) = 4.33940 6.40180 5.46870
#
# Compressibility (1/GPa) = 0.05325833
#
# Stress axis : x y z
#
# Youngs Moduli (GPa) = 69.73445 34.19571 65.32466
#
# Poissons Ratio (x) = -0.21210 0.13802
# Poissons Ratio (y) = -0.43253 0.45116
# Poissons Ratio (z) = 0.14734 0.23617
#
# Static dielectric constant tensor:
#      x y z
#    x 1.834890 0.008000 0.042130 
#    y 0.008000 1.907340 -0.013920 
#    z 0.042130 -0.013920 1.832050 
# 
# From -- ./inp_files/466462.got.cif
#   From: 2010.05.17/outbox.cif.g08.bks.cpg/sg2_234_cif.got.tgz:466462.got - 2010.06.03 11:33:40.
