data_PCOD9076803
_publ_section_title
;
Structure prediction by ZEFSAII (Michael W. Deem and Ramdas Pophale) SiO2 
 PCOD9076803
Probable space group: P -1
;
_chemical_formula_sum "Si O2"
_cell_formula_units_Z 16
_cell_length_a 15.909271
_cell_length_b 14.538915
_cell_length_c 17.915132
_cell_angle_alpha 31.231285
_cell_angle_beta 23.434089
_cell_angle_gamma 40.516887
_cell_volume 848.493465
_symmetry_space_group_name_H-M "P -1"
_symmetry_group_IT_number 2
_symmetry_cell_setting 'triclinic'
loop_
_space_group_symop_operation_xyz
x,y,z
-x,-y,-z
loop_
_atom_site_type_symbol
_atom_site_label
_atom_site_fract_x
_atom_site_fract_y
_atom_site_fract_z
Si Si1 0.644690 0.992797 0.815297
Si Si2 0.469362 0.922008 0.432143
Si Si3 0.235433 0.646730 0.907640
Si Si4 0.178040 0.995943 0.795353
Si Si5 0.853315 0.812005 0.457719
Si Si6 0.665622 0.627387 0.868079
Si Si7 0.648600 0.102890 0.020497
Si Si8 0.049552 0.271036 0.301920
O O1 0.491809 0.971687 0.883134
O O2 0.783067 0.824808 0.817118
O O3 0.820021 0.165472 0.550804
O O4 0.500000 0.000000 0.000000
O O5 0.388791 0.722947 0.662832
O O6 0.605486 0.002834 0.335676
O O7 0.266676 0.032267 0.513899
O O8 0.611722 0.959171 0.217292
O O9 0.139477 0.816507 0.902166
O O10 0.349858 0.557875 0.945603
O O11 0.071507 0.483323 0.125007
O O12 0.184883 0.161406 0.617740
O O13 0.000000 0.000000 0.000000
O O14 0.744208 0.637582 0.711564
O O15 0.106899 0.844932 0.236108
O O16 0.456644 0.724503 0.983451
O O17 0.858502 0.740629 0.680121
#
# Coordination Sequence:
#
# PCOD9076803 Si02
#       8
#     2   2   2   2   2   2   2   2
#     4  10  18  33  60  86 114 148 188 227 289 346
#     4  10  21  39  59  77 114 158 193 227 281 343
#     4   9  19  39  59  83 118 154 185 239 283 328
#     4  11  21  39  60  83 109 159 201 225 276 351
#     4  10  18  34  58  80 114 148 190 232 278 331
#     4   8  18  35  55  82 113 146 182 233 285 324
#     4  10  19  34  57  87 112 150 191 230 282 342
#     4   8  18  36  55  85 116 148 182 231 286 334
#
# _framework density 18.856950000000001
#
# number of rings (size 3 to 8) (size 9 to 14) (size 15 to 20)
#    0.750    1.750    1.250    2.250    0.000    1.000 
#    4.500    6.875    0.000    3.750    0.000    0.000 
#    0.000    0.000    0.000    0.000    0.000    0.000 
#
# Total GULP energy -89068.624335 kJ/mol
# GULP energy per Si atom -5566.789021 kJ/mol
# Density = 1.881403 g / cm^3
# Si number density = 18.856950 Si / 1000 Ang^3
#
#
#
# Elastic Constant Matrix: (Units=GPa)
#
#
# Indices 1 2 3 4 5 6 
#
# 1 50.9686 10.6321 16.2026 6.8670 9.5812 -1.4303
# 2 10.6321 38.1946 36.0440 1.9893 -1.0822 0.4636
# 3 16.2026 36.0440 83.9568 14.1266 3.1963 -2.9838
# 4 6.8670 1.9893 14.1266 31.4197 -3.1046 -0.5995
# 5 9.5812 -1.0822 3.1963 -3.1046 44.3817 -1.8376
# 6 -1.4303 0.4636 -2.9838 -0.5995 -1.8376 29.2874
#
#
#
# Elastic Compliance Matrix: (Units=1/GPa)
#
#
# Indices 1 2 3 4 5 6 
#
# 1 0.022686 -0.005111 -0.001187 -0.004606 -0.005232 0.000645
# 2 -0.005111 0.046901 -0.020720 0.007825 0.004176 -0.002681
# 3 -0.001187 -0.020720 0.022692 -0.008826 -0.002408 0.002250
# 4 -0.004606 0.007825 -0.008826 0.036735 0.004381 -0.000221
# 5 -0.005232 0.004176 -0.002408 0.004381 0.024286 0.001047
# 6 0.000645 -0.002681 0.002250 -0.000221 0.001047 0.034509
#
#
# Mechanical properties :
#
#
# Convention : Reuss Voigt Hill
#
# Bulk Modulus (GPa) = 26.14852 33.20859 29.67856
# Shear Modulus (GPa) = 19.63930 28.36719 24.00325
#
# Velocity S-wave (km/s) = 3.23071 3.88278 3.57166
# Velocity P-wave (km/s) = 5.27386 6.14413 5.72555
#
# Compressibility (1/GPa) = 0.03824308
#
# Stress axis : x y z
#
# Youngs Moduli (GPa) = 44.08100 21.32157 44.06858
#
# Poissons Ratio (x) = 0.10898 0.05229
# Poissons Ratio (y) = 0.22531 0.91309
# Poissons Ratio (z) = 0.05231 0.44178
#
# Static dielectric constant tensor:
#      x y z
#    x 1.683730 -0.017670 0.009590 
#    y -0.017670 1.662550 -0.011780 
#    z 0.009590 -0.011780 1.685900 
# 
# From -- ./inp_files/600406.got.cif
#   From: 2010.05.17/outbox.cif.g08.bks.cpg/sg2_301_cif.got.tgz:600406.got - 2010.06.03 11:33:40.
