data_PCOD9076223
_publ_section_title
;
Structure prediction by ZEFSAII (Michael W. Deem and Ramdas Pophale) SiO2 
 PCOD9076223
Probable space group: P -1
;
_chemical_formula_sum "Si O2"
_cell_formula_units_Z 14
_cell_length_a 16.402436
_cell_length_b 9.231050
_cell_length_c 13.327321
_cell_angle_alpha 56.279044
_cell_angle_beta 65.421648
_cell_angle_gamma 27.567057
_cell_volume 761.375269
_symmetry_space_group_name_H-M "P -1"
_symmetry_group_IT_number 2
_symmetry_cell_setting 'triclinic'
loop_
_space_group_symop_operation_xyz
x,y,z
-x,-y,-z
loop_
_atom_site_type_symbol
_atom_site_label
_atom_site_fract_x
_atom_site_fract_y
_atom_site_fract_z
Si Si1 0.973826 0.211805 0.005169
Si Si2 0.482261 0.821137 0.891683
Si Si3 0.299624 0.442267 0.825754
Si Si4 0.990979 0.907381 0.641612
Si Si5 0.397586 0.612028 0.822448
Si Si6 0.289164 0.657143 0.219889
Si Si7 0.119510 0.303350 0.799778
O O1 0.796134 0.479578 0.057793
O O2 0.128523 0.963250 0.106430
O O3 0.990820 0.365412 0.879466
O O4 0.000000 0.000000 0.000000
O O5 0.574808 0.682043 0.789266
O O6 0.459995 0.046015 0.865020
O O7 0.281965 0.079063 0.880237
O O8 0.588883 0.511883 0.029446
O O9 0.155044 0.683814 0.717103
O O10 0.358786 0.534663 0.789150
O O11 0.016671 0.657816 0.701596
O O12 0.000000 0.000000 0.500000
O O13 0.808698 0.246608 0.667880
O O14 0.587776 0.385588 0.799090
O O15 0.764327 0.976725 0.242573
#
# Coordination Sequence:
#
# PCOD9076223 Si02
#       7
#     2   2   2   2   2   2   2
#     4  11  18  32  54  90 118 145 174 220 278 346
#     4  10  18  33  52  88 121 144 168 216 286 352
#     4  10  22  32  58  83 119 144 182 221 278 334
#     4  10  24  43  57  74 105 152 204 234 260 312
#     4  11  18  35  53  92 120 140 167 224 287 348
#     4  10  20  35  58  79 113 146 179 224 283 328
#     4  10  19  34  57  80 118 146 180 220 280 324
#
# _framework density 18.387779999999999
#
# number of rings (size 3 to 8) (size 9 to 14) (size 15 to 20)
#    0.000    1.714    4.286    1.286    2.000    1.714 
#    0.000    7.857    0.000    0.000    0.000    0.000 
#    0.000    0.000    0.000    0.000    0.000    0.000 
#
# Total GULP energy -78063.353311 kJ/mol
# GULP energy per Si atom -5575.953808 kJ/mol
# Density = 1.834593 g / cm^3
# Si number density = 18.387780 Si / 1000 Ang^3
#
#
#
# Elastic Constant Matrix: (Units=GPa)
#
#
# Indices 1 2 3 4 5 6 
#
# 1 138.0023 42.1089 43.1379 7.0404 -10.8478 14.1668
# 2 42.1089 80.5534 46.4032 19.3790 -1.2537 12.1615
# 3 43.1379 46.4032 109.1385 22.0295 -3.7313 7.1538
# 4 7.0404 19.3790 22.0295 22.1826 1.5722 -2.3983
# 5 -10.8478 -1.2537 -3.7313 1.5722 11.8017 -0.5329
# 6 14.1668 12.1615 7.1538 -2.3983 -0.5329 33.3295
#
#
#
# Elastic Compliance Matrix: (Units=1/GPa)
#
#
# Indices 1 2 3 4 5 6 
#
# 1 0.009830 -0.003844 -0.002187 0.001647 0.007623 -0.002066
# 2 -0.003844 0.021075 -0.004370 -0.013429 -0.001163 -0.006103
# 3 -0.002187 -0.004370 0.014046 -0.009789 0.003218 -0.001143
# 4 0.001647 -0.013429 -0.009789 0.068021 -0.011571 0.011010
# 5 0.007623 -0.001163 0.003218 -0.011571 0.094047 -0.002835
# 6 -0.002066 -0.006103 -0.001143 0.011010 -0.002835 0.034101
#
#
# Mechanical properties :
#
#
# Convention : Reuss Voigt Hill
#
# Bulk Modulus (GPa) = 41.41247 65.66602 53.53925
# Shear Modulus (GPa) = 18.52028 26.53236 22.52632
#
# Velocity S-wave (km/s) = 3.17709 3.80272 3.50390
# Velocity P-wave (km/s) = 6.00243 7.42093 6.74905
#
# Compressibility (1/GPa) = 0.02414731
#
# Stress axis : x y z
#
# Youngs Moduli (GPa) = 101.72608 47.44912 71.19327
#
# Poissons Ratio (x) = 0.18242 0.15573
# Poissons Ratio (y) = 0.39108 0.31114
# Poissons Ratio (z) = 0.22252 0.20737
#
# Static dielectric constant tensor:
#      x y z
#    x 1.660550 0.003380 0.000510 
#    y 0.003380 1.693330 0.016990 
#    z 0.000510 0.016990 1.602710 
# 
# From -- ./inp_files/528275.got.cif
#   From: 2010.05.17/outbox.cif.g08.bks.cpg/sg2_265_cif.got.tgz:528275.got - 2010.06.03 11:33:40.
