data_PCOD9076793
_publ_section_title
;
Structure prediction by ZEFSAII (Michael W. Deem and Ramdas Pophale) SiO2 
 PCOD9076793
Probable space group: P -1
;
_chemical_formula_sum "Si O2"
_cell_formula_units_Z 14
_cell_length_a 8.255434
_cell_length_b 18.489370
_cell_length_c 8.024148
_cell_angle_alpha 50.276076
_cell_angle_beta 123.734392
_cell_angle_gamma 142.487714
_cell_volume 570.556786
_symmetry_space_group_name_H-M "P -1"
_symmetry_group_IT_number 2
_symmetry_cell_setting 'triclinic'
loop_
_space_group_symop_operation_xyz
x,y,z
-x,-y,-z
loop_
_atom_site_type_symbol
_atom_site_label
_atom_site_fract_x
_atom_site_fract_y
_atom_site_fract_z
Si Si1 0.030613 0.786362 0.516449
Si Si2 0.475149 0.287734 0.097252
Si Si3 0.603309 0.877579 0.284914
Si Si4 0.112202 0.637106 0.542593
Si Si5 0.008336 0.149342 0.266269
Si Si6 0.289649 0.054272 0.130420
Si Si7 0.442612 0.588493 0.377610
O O1 0.058157 0.698709 0.562879
O O2 0.061165 0.794469 0.720873
O O3 0.723036 0.717946 0.415532
O O4 0.231710 0.930131 0.343667
O O5 0.694217 0.371390 0.241665
O O6 0.198516 0.237202 0.088656
O O7 0.406964 0.157808 0.193484
O O8 0.592034 0.372240 0.875020
O O9 0.306094 0.751505 0.355558
O O10 0.813089 0.869544 0.498668
O O11 0.580060 0.887232 0.060637
O O12 0.737734 0.014282 0.241382
O O13 0.825280 0.498754 0.537447
O O14 0.000000 0.000000 0.000000
O O15 0.500000 0.500000 0.500000
#
# Coordination Sequence:
#
# PCOD9076793 Si02
#       7
#     2   2   2   2   2   2   2
#     4  11  21  38  61  87 116 154 193 236 286 340
#     4  11  21  39  63  86 113 151 194 240 288 338
#     4  10  19  34  55  89 115 152 188 236 288 340
#     4  10  24  38  56  86 123 150 190 241 284 335
#     4  10  18  33  60  84 115 148 193 234 288 346
#     4  12  19  35  64  87 113 150 194 234 286 343
#     4  10  21  41  61  80 114 158 196 233 281 345
#
# _framework density 24.537434000000001
#
# number of rings (size 3 to 8) (size 9 to 14) (size 15 to 20)
#    0.000    1.429    4.286    2.143    0.000    2.857 
#    0.000   13.571    0.000    0.000    0.000    0.000 
#    0.000    0.000    0.000    0.000    0.000    0.000 
#
# Total GULP energy -78238.701254 kJ/mol
# GULP energy per Si atom -5588.478661 kJ/mol
# Density = 2.448159 g / cm^3
# Si number density = 24.537434 Si / 1000 Ang^3
#
#
#
# Elastic Constant Matrix: (Units=GPa)
#
#
# Indices 1 2 3 4 5 6 
#
# 1 57.5561 26.1675 27.1205 -11.1083 -34.8467 3.9569
# 2 26.1675 93.7951 40.8506 -9.8995 -24.7027 41.3885
# 3 27.1205 40.8506 42.0697 -15.9605 -31.0307 26.4940
# 4 -11.1083 -9.8995 -15.9605 37.1997 4.0393 -5.8526
# 5 -34.8467 -24.7027 -31.0307 4.0393 49.4977 -8.8725
# 6 3.9569 41.3885 26.4940 -5.8526 -8.8725 38.8501
#
#
#
# Elastic Compliance Matrix: (Units=1/GPa)
#
#
# Indices 1 2 3 4 5 6 
#
# 1 0.036933 -0.007266 -0.015729 0.003613 0.015591 0.018811
# 2 -0.007266 0.024824 -0.008285 -0.002221 -0.001454 -0.020722
# 3 -0.015729 -0.008285 0.140749 0.036676 0.058067 -0.066769
# 4 0.003613 -0.002221 0.036676 0.039034 0.018947 -0.012806
# 5 0.015591 -0.001454 0.058067 0.018947 0.061223 -0.022802
# 6 0.018811 -0.020722 -0.066769 -0.012806 -0.022802 0.084297
#
#
# Mechanical properties :
#
#
# Convention : Reuss Voigt Hill
#
# Bulk Modulus (GPa) = 7.14571 42.41088 24.77830
# Shear Modulus (GPa) = 10.07519 31.72832 20.90176
#
# Velocity S-wave (km/s) = 2.02854 3.59981 2.92178
# Velocity P-wave (km/s) = 2.89916 5.88217 4.63708
#
# Compressibility (1/GPa) = 0.13994413
#
# Stress axis : x y z
#
# Youngs Moduli (GPa) = 27.07607 40.28389 7.10487
#
# Poissons Ratio (x) = 0.29272 0.11175
# Poissons Ratio (y) = 0.19675 0.05886
# Poissons Ratio (z) = 0.42588 0.33376
#
# Static dielectric constant tensor:
#      x y z
#    x 2.036620 0.043150 0.001210 
#    y 0.043150 2.011370 -0.115070 
#    z 0.001210 -0.115070 2.377440 
# 
# From -- ./inp_files/201943.got.cif
#   From: 2010.05.17/outbox.cif.g08.bks.cpg/sg2_101_cif.got.tgz:201943.got - 2010.06.03 11:33:40.
