data_PCOD9076611
_publ_section_title
;
Structure prediction by ZEFSAII (Michael W. Deem and Ramdas Pophale) SiO2 
 PCOD9076611
Probable space group: P -1
;
_chemical_formula_sum "Si O2"
_cell_formula_units_Z 14
_cell_length_a 7.112792
_cell_length_b 11.946237
_cell_length_c 8.085882
_cell_angle_alpha 99.716927
_cell_angle_beta 61.556836
_cell_angle_gamma 114.624679
_cell_volume 548.810310
_symmetry_space_group_name_H-M "P -1"
_symmetry_group_IT_number 2
_symmetry_cell_setting 'triclinic'
loop_
_space_group_symop_operation_xyz
x,y,z
-x,-y,-z
loop_
_atom_site_type_symbol
_atom_site_label
_atom_site_fract_x
_atom_site_fract_y
_atom_site_fract_z
Si Si1 0.683882 0.402762 0.785296
Si Si2 0.166040 0.767388 0.498869
Si Si3 0.416184 0.984123 0.219481
Si Si4 0.912879 0.099793 0.146102
Si Si5 0.812860 0.719778 0.175505
Si Si6 0.581518 0.446956 0.192477
Si Si7 0.407257 0.210677 0.433891
O O1 0.869337 0.365006 0.600972
O O2 0.639638 0.522692 0.769731
O O3 0.625514 0.219472 0.457741
O O4 0.421169 0.299544 0.838561
O O5 0.016484 0.823043 0.691709
O O6 0.248171 0.854496 0.326300
O O7 0.296215 0.585392 0.024101
O O8 0.642854 0.016727 0.247218
O O9 0.330834 0.092247 0.322074
O O10 0.500000 0.000000 0.000000
O O11 0.971234 0.207708 0.010822
O O12 0.000000 0.000000 0.000000
O O13 0.760059 0.579763 0.213762
O O14 0.794948 0.795172 0.359437
O O15 0.495484 0.337943 0.329502
#
# Coordination Sequence:
#
# PCOD9076611 Si02
#       7
#     2   2   2   2   2   2   2
#     4   8  17  33  57  80 115 145 193 214 278 329
#     4  10  20  36  57  81 107 150 188 227 274 342
#     4  11  23  39  59  81 110 148 189 232 282 337
#     4  11  21  37  58  83 114 146 186 235 283 322
#     4   9  18  32  53  83 109 145 184 229 269 320
#     4   9  17  32  59  83 112 149 190 223 268 335
#     4  10  18  33  58  80 110 149 194 219 272 342
#
# _framework density 25.509725
#
# number of rings (size 3 to 8) (size 9 to 14) (size 15 to 20)
#    0.857    1.429    0.000    5.571    0.000    0.000 
#    0.000    7.857    0.000    0.000    0.000    0.000 
#    0.000    0.000    0.000    0.000    0.000    0.000 
#
# Total GULP energy -78117.810335 kJ/mol
# GULP energy per Si atom -5579.843595 kJ/mol
# Density = 2.545166 g / cm^3
# Si number density = 25.509725 Si / 1000 Ang^3
#
#
#
# Elastic Constant Matrix: (Units=GPa)
#
#
# Indices 1 2 3 4 5 6 
#
# 1 53.1918 -0.9671 12.9664 -2.3754 -9.3862 -7.6792
# 2 -0.9671 106.8626 55.7372 0.6497 4.1518 -29.5238
# 3 12.9664 55.7372 189.9760 38.3805 12.4781 -28.0849
# 4 -2.3754 0.6497 38.3805 58.7072 -5.8241 9.5560
# 5 -9.3862 4.1518 12.4781 -5.8241 24.8379 -5.5454
# 6 -7.6792 -29.5238 -28.0849 9.5560 -5.5454 21.8117
#
#
#
# Elastic Compliance Matrix: (Units=1/GPa)
#
#
# Indices 1 2 3 4 5 6 
#
# 1 0.023898 0.005012 -0.001741 0.000732 0.012786 0.015887
# 2 0.005012 0.016951 -0.001288 -0.002822 0.004737 0.025491
# 3 -0.001741 -0.001288 0.009834 -0.009075 -0.004582 0.013117
# 4 0.000732 -0.002822 -0.009075 0.027845 0.006053 -0.025908
# 5 0.012786 0.004737 -0.004582 0.006053 0.051471 0.015448
# 6 0.015887 0.025491 0.013117 -0.025908 0.015448 0.118113
#
#
# Mechanical properties :
#
#
# Convention : Reuss Voigt Hill
#
# Bulk Modulus (GPa) = 18.29833 53.94480 36.12157
# Shear Modulus (GPa) = 19.05772 39.89094 29.47433
#
# Velocity S-wave (km/s) = 2.73624 3.95872 3.40283
# Velocity P-wave (km/s) = 4.14383 6.48753 5.44331
#
# Compressibility (1/GPa) = 0.05464980
#
# Stress axis : x y z
#
# Youngs Moduli (GPa) = 41.84481 58.99480 101.68776
#
# Poissons Ratio (x) = -0.29569 0.17701
# Poissons Ratio (y) = -0.20973 0.13094
# Poissons Ratio (z) = 0.07284 0.07597
#
# Static dielectric constant tensor:
#      x y z
#    x 2.108800 -0.011310 -0.040210 
#    y -0.011310 2.029790 0.047450 
#    z -0.040210 0.047450 2.033690 
# 
# From -- ./inp_files/259801.got.cif
#   From: 2010.05.17/outbox.cif.g08.bks.cpg/sg2_130_cif.got.tgz:259801.got - 2010.06.03 11:33:40.
