data_PCOD9076933
_publ_section_title
;
Structure prediction by ZEFSAII (Michael W. Deem and Ramdas Pophale) SiO2 
 PCOD9076933
Probable space group: P -1
;
_chemical_formula_sum "Si O2"
_cell_formula_units_Z 12
_cell_length_a 9.508748
_cell_length_b 7.890358
_cell_length_c 10.474140
_cell_angle_alpha 130.478913
_cell_angle_beta 129.685992
_cell_angle_gamma 71.437607
_cell_volume 453.747084
_symmetry_space_group_name_H-M "P -1"
_symmetry_group_IT_number 2
_symmetry_cell_setting 'triclinic'
loop_
_space_group_symop_operation_xyz
x,y,z
-x,-y,-z
loop_
_atom_site_type_symbol
_atom_site_label
_atom_site_fract_x
_atom_site_fract_y
_atom_site_fract_z
Si Si1 0.549981 0.767911 0.978200
Si Si2 0.222682 0.951937 0.461086
Si Si3 0.111168 0.212468 0.968461
Si Si4 0.416217 0.591317 0.371302
Si Si5 0.984581 0.310734 0.550294
Si Si6 0.196785 0.762578 0.872013
O O1 0.497166 0.532888 0.754601
O O2 0.412637 0.744588 0.006491
O O3 0.771459 0.803856 0.105251
O O4 0.500000 0.000000 0.000000
O O5 0.413364 0.856658 0.503411
O O6 0.099852 0.857604 0.221261
O O7 0.140995 0.825527 0.481274
O O8 0.167332 0.198264 0.567849
O O9 0.168085 0.019327 0.998324
O O10 0.203502 0.459018 0.182966
O O11 0.500000 0.500000 0.500000
O O12 0.060436 0.565203 0.764507
O O13 0.865907 0.293915 0.341334
#
# Coordination Sequence:
#
# PCOD9076933 Si02
#       6
#     2   2   2   2   2   2
#     4   8  16  30  52  73  98 131 168 205 251 299
#     4  10  18  34  49  80 104 133 173 207 260 301
#     4   8  18  31  55  73 100 136 167 212 252 300
#     4  10  19  31  55  78 101 136 173 212 250 308
#     4   9  19  29  55  74 108 136 168 213 250 306
#     4   9  15  34  51  79  99 139 173 204 254 306
#
# _framework density 26.446451
#
# number of rings (size 3 to 8) (size 9 to 14) (size 15 to 20)
#    1.000    2.000    0.000    1.500    0.000    1.333 
#    0.000    2.500    0.000    0.000    0.000    0.000 
#    0.000    0.000    0.000    0.000    0.000    0.000 
#
# Total GULP energy -66830.274113 kJ/mol
# GULP energy per Si atom -5569.189509 kJ/mol
# Density = 2.638626 g / cm^3
# Si number density = 26.446451 Si / 1000 Ang^3
#
#
#
# Elastic Constant Matrix: (Units=GPa)
#
#
# Indices 1 2 3 4 5 6 
#
# 1 63.0285 23.0234 2.4297 13.5359 -2.8504 -6.0965
# 2 23.0234 86.1397 3.1814 15.0457 -14.5855 -31.3840
# 3 2.4297 3.1814 56.8535 17.2274 -17.4527 -0.5004
# 4 13.5359 15.0457 17.2274 40.8795 -2.0103 -3.6624
# 5 -2.8504 -14.5855 -17.4527 -2.0103 26.7758 17.8058
# 6 -6.0965 -31.3840 -0.5004 -3.6624 17.8058 41.5674
#
#
#
# Elastic Compliance Matrix: (Units=1/GPa)
#
#
# Indices 1 2 3 4 5 6 
#
# 1 0.018442 -0.004478 0.001307 -0.005098 0.001023 -0.001547
# 2 -0.004478 0.018223 0.001326 -0.004622 0.002118 0.011804
# 3 0.001307 0.001326 0.029337 -0.012965 0.026207 -0.010822
# 4 -0.005098 -0.004622 -0.012965 0.033061 -0.011249 0.003338
# 5 0.001023 0.002118 0.026207 -0.011249 0.075696 -0.031352
# 6 -0.001547 0.011804 -0.010822 0.003338 -0.031352 0.046336
#
#
# Mechanical properties :
#
#
# Convention : Reuss Voigt Hill
#
# Bulk Modulus (GPa) = 16.04754 29.25451 22.65102
# Shear Modulus (GPa) = 20.36195 33.67034 27.01615
#
# Velocity S-wave (km/s) = 2.77777 3.57200 3.19962
# Velocity P-wave (km/s) = 4.04588 5.30076 4.71525
#
# Compressibility (1/GPa) = 0.06231484
#
# Stress axis : x y z
#
# Youngs Moduli (GPa) = 54.22261 54.87488 34.08617
#
# Poissons Ratio (x) = 0.24572 -0.04457
# Poissons Ratio (y) = 0.24280 -0.04520
# Poissons Ratio (z) = -0.07089 -0.07277
#
# Static dielectric constant tensor:
#      x y z
#    x 2.152460 -0.047170 0.060810 
#    y -0.047170 2.162400 -0.044570 
#    z 0.060810 -0.044570 2.118700 
# 
# From -- ./inp_files/231248.got.cif
#   From: 2010.05.17/outbox.cif.g08.bks.cpg/sg2_116_cif.got.tgz:231248.got - 2010.06.03 11:33:40.
