data_PCOD9076935
_publ_section_title
;
Structure prediction by ZEFSAII (Michael W. Deem and Ramdas Pophale) SiO2 
 PCOD9076935
Probable space group: P -1
;
_chemical_formula_sum "Si O2"
_cell_formula_units_Z 16
_cell_length_a 5.513656
_cell_length_b 18.270313
_cell_length_c 10.543152
_cell_angle_alpha 138.244606
_cell_angle_beta 105.431407
_cell_angle_gamma 73.164476
_cell_volume 674.889757
_symmetry_space_group_name_H-M "P -1"
_symmetry_group_IT_number 2
_symmetry_cell_setting 'triclinic'
loop_
_space_group_symop_operation_xyz
x,y,z
-x,-y,-z
loop_
_atom_site_type_symbol
_atom_site_label
_atom_site_fract_x
_atom_site_fract_y
_atom_site_fract_z
Si Si1 0.600930 0.764269 0.550788
Si Si2 0.806997 0.053312 0.230397
Si Si3 0.059801 0.500982 0.658217
Si Si4 0.985431 0.169673 0.150781
Si Si5 0.437167 0.501638 0.342164
Si Si6 0.007857 0.256231 0.914511
Si Si7 0.560748 0.242462 0.991612
Si Si8 0.029065 0.759351 0.399537
O O1 0.486536 0.898782 0.720212
O O2 0.321357 0.725746 0.447019
O O3 0.801308 0.754312 0.683525
O O4 0.786267 0.738982 0.422921
O O5 0.890783 0.114624 0.193441
O O6 0.971165 0.106281 0.428227
O O7 0.881848 0.925547 0.046849
O O8 0.853830 0.447607 0.639538
O O9 0.000000 0.500000 0.500000
O O10 0.350229 0.448746 0.643084
O O11 0.024131 0.629506 0.860946
O O12 0.731978 0.228140 0.123212
O O13 0.500000 0.500000 0.500000
O O14 0.468390 0.374508 0.136809
O O15 0.294503 0.194697 0.896644
O O16 0.762024 0.202950 0.857500
O O17 0.987368 0.284633 0.800553
#
# Coordination Sequence:
#
# PCOD9076935 Si02
#       8
#     2   2   2   2   2   2   2   2
#     4   9  18  32  52  67  86 122 172 211 229 279
#     4   8  19  33  53  68  87 129 166 214 232 283
#     4   8  14  25  44  64  90 121 150 183 219 276
#     4  10  18  34  50  74  94 120 165 208 256 267
#     4   8  14  27  42  63  94 123 146 175 224 289
#     4  10  19  33  45  70 105 129 151 194 237 294
#     4  10  21  29  48  73 102 127 148 199 244 292
#     4   9  18  32  50  66  91 130 169 191 233 283
#
# _framework density 23.707574999999999
#
# number of rings (size 3 to 8) (size 9 to 14) (size 15 to 20)
#    0.750    2.250    0.000    1.125    1.750    0.000 
#    0.000    1.250    0.000    0.000    0.000    0.000 
#    0.000  224.000    0.000    0.000    0.000    0.000 
#
# Total GULP energy -89070.453953 kJ/mol
# GULP energy per Si atom -5566.903372 kJ/mol
# Density = 2.365362 g / cm^3
# Si number density = 23.707575 Si / 1000 Ang^3
#
#
#
# Elastic Constant Matrix: (Units=GPa)
#
#
# Indices 1 2 3 4 5 6 
#
# 1 245.3237 41.6490 19.8013 -2.9964 -32.7902 -31.6660
# 2 41.6490 52.4418 20.2219 0.6650 -4.2861 -22.8204
# 3 19.8013 20.2219 72.1504 -8.9199 -15.9064 -6.6574
# 4 -2.9964 0.6650 -8.9199 11.8355 -0.3703 0.8482
# 5 -32.7902 -4.2861 -15.9064 -0.3703 34.0935 3.1801
# 6 -31.6660 -22.8204 -6.6574 0.8482 3.1801 36.4419
#
#
#
# Elastic Compliance Matrix: (Units=1/GPa)
#
#
# Indices 1 2 3 4 5 6 
#
# 1 0.005619 -0.003441 0.001115 0.002449 0.005294 0.002413
# 2 -0.003441 0.031994 -0.008992 -0.010759 -0.005101 0.016097
# 3 0.001115 -0.008992 0.020020 0.016337 0.009667 -0.002229
# 4 0.002449 -0.010759 0.016337 0.098691 0.010145 -0.004807
# 5 0.005294 -0.005101 0.009667 0.010145 0.038441 -0.000419
# 6 0.002413 0.016097 -0.002229 -0.004807 -0.000419 0.039359
#
#
# Mechanical properties :
#
#
# Convention : Reuss Voigt Hill
#
# Bulk Modulus (GPa) = 28.57503 59.25115 43.91309
# Shear Modulus (GPa) = 18.62718 35.69043 27.15881
#
# Velocity S-wave (km/s) = 2.80609 3.88421 3.38831
# Velocity P-wave (km/s) = 4.75164 6.72034 5.81984
#
# Compressibility (1/GPa) = 0.03499558
#
# Stress axis : x y z
#
# Youngs Moduli (GPa) = 177.95588 31.25634 49.95100
#
# Poissons Ratio (x) = 0.10756 -0.05568
# Poissons Ratio (y) = 0.61238 0.44915
# Poissons Ratio (z) = -0.19836 0.28105
#
# Static dielectric constant tensor:
#      x y z
#    x 1.973580 -0.058640 -0.031040 
#    y -0.058640 1.795320 -0.100870 
#    z -0.031040 -0.100870 1.809590 
# 
# From -- ./inp_files/370873.got.cif
#   From: 2010.05.17/outbox.cif.g08.bks.cpg/sg2_186_cif.got.tgz:370873.got - 2010.06.03 11:33:40.
