data_PCOD9076135
_publ_section_title
;
Structure prediction by ZEFSAII (Michael W. Deem and Ramdas Pophale) SiO2 
 PCOD9076135
Probable space group: P -1
;
_chemical_formula_sum "Si O2"
_cell_formula_units_Z 16
_cell_length_a 16.554542
_cell_length_b 13.577957
_cell_length_c 7.127962
_cell_angle_alpha 132.592943
_cell_angle_beta 37.717965
_cell_angle_gamma 124.303124
_cell_volume 720.177068
_symmetry_space_group_name_H-M "P -1"
_symmetry_group_IT_number 2
_symmetry_cell_setting 'triclinic'
loop_
_space_group_symop_operation_xyz
x,y,z
-x,-y,-z
loop_
_atom_site_type_symbol
_atom_site_label
_atom_site_fract_x
_atom_site_fract_y
_atom_site_fract_z
Si Si1 0.109201 0.087843 0.734038
Si Si2 0.882812 0.637426 0.705379
Si Si3 0.163804 0.586307 0.183718
Si Si4 0.374841 0.193248 0.198646
Si Si5 0.621596 0.683998 0.037586
Si Si6 0.461555 0.613805 0.576841
Si Si7 0.834918 0.117909 0.320523
Si Si8 0.448287 0.016228 0.332310
O O1 0.224450 0.147895 0.466933
O O2 0.146644 0.954240 0.602175
O O3 0.101457 0.208144 0.056227
O O4 0.959161 0.069311 0.911670
O O5 0.838050 0.542994 0.844067
O O6 0.026114 0.586127 0.321167
O O7 0.765845 0.638632 0.772173
O O8 0.155869 0.721832 0.494681
O O9 0.303104 0.611920 0.857267
O O10 0.460018 0.259779 0.300091
O O11 0.385555 0.300134 0.150332
O O12 0.438718 0.054425 0.853658
O O13 0.519420 0.597954 0.243916
O O14 0.587970 0.833976 0.361554
O O15 0.500000 0.500000 0.500000
O O16 0.686969 0.069433 0.483616
O O17 0.500000 0.000000 0.000000
#
# Coordination Sequence:
#
# PCOD9076135 Si02
#       8
#     2   2   2   2   2   2   2   2
#     4  10  19  36  59  87 115 161 201 248 303 361
#     4  10  19  39  61  87 119 160 204 242 310 370
#     4  10  20  34  65  89 115 160 203 252 300 362
#     4  12  24  39  61  91 126 160 202 257 307 366
#     4  12  24  39  62  91 123 164 203 251 314 366
#     4  12  22  41  64  90 121 162 206 251 305 365
#     4  10  18  32  64  86 114 157 206 248 302 356
#     4  12  19  39  62  87 123 162 202 253 310 363
#
# _framework density 22.216757999999999
#
# number of rings (size 3 to 8) (size 9 to 14) (size 15 to 20)
#    0.000    1.000    7.500    0.375    0.000    0.500 
#    0.000    1.875    0.000    4.500    0.000    0.000 
#    0.000    0.000    0.000    0.000    0.000    0.000 
#
# Total GULP energy -89214.348776 kJ/mol
# GULP energy per Si atom -5575.896798 kJ/mol
# Density = 2.216619 g / cm^3
# Si number density = 22.216758 Si / 1000 Ang^3
#
#
#
# Elastic Constant Matrix: (Units=GPa)
#
#
# Indices 1 2 3 4 5 6 
#
# 1 73.8528 20.1838 64.7825 -15.8995 -14.3054 -21.3962
# 2 20.1838 116.7892 21.4937 -7.5037 1.7494 -15.1625
# 3 64.7825 21.4937 131.7655 -36.4369 -40.0097 -5.2310
# 4 -15.8995 -7.5037 -36.4369 50.0566 7.2458 -5.4509
# 5 -14.3054 1.7494 -40.0097 7.2458 35.9768 4.3791
# 6 -21.3962 -15.1625 -5.2310 -5.4509 4.3791 32.6039
#
#
#
# Elastic Compliance Matrix: (Units=1/GPa)
#
#
# Indices 1 2 3 4 5 6 
#
# 1 0.034553 0.000539 -0.019085 0.000989 -0.010317 0.021415
# 2 0.000539 0.009732 -0.002615 0.000860 -0.003965 0.005137
# 3 -0.019085 -0.002615 0.025344 0.007816 0.020503 -0.011121
# 4 0.000989 0.000860 0.007816 0.026368 0.002964 0.006313
# 5 -0.010317 -0.003965 0.020503 0.002964 0.047455 -0.011203
# 6 0.021415 0.005137 -0.011121 0.006313 -0.011203 0.047889
#
#
# Mechanical properties :
#
#
# Convention : Reuss Voigt Hill
#
# Bulk Modulus (GPa) = 36.61933 59.48084 48.05009
# Shear Modulus (GPa) = 20.59606 38.12394 29.36000
#
# Velocity S-wave (km/s) = 3.04805 4.14696 3.63922
# Velocity P-wave (km/s) = 5.37643 7.05413 6.27163
#
# Compressibility (1/GPa) = 0.02730798
#
# Stress axis : x y z
#
# Youngs Moduli (GPa) = 28.94125 102.75367 39.45652
#
# Poissons Ratio (x) = -0.05541 0.75302
# Poissons Ratio (y) = -0.01561 0.10317
# Poissons Ratio (z) = 0.55234 0.26869
#
# Static dielectric constant tensor:
#      x y z
#    x 1.806910 -0.005650 -0.046130 
#    y -0.005650 1.809300 -0.022170 
#    z -0.046130 -0.022170 1.863270 
# 
# From -- ./inp_files/345478.got.cif
#   From: 2010.05.17/outbox.cif.g08.bks.cpg/sg2_173_cif.got.tgz:345478.got - 2010.06.03 11:33:40.
