data_PCOD9076350
_publ_section_title
;
Structure prediction by ZEFSAII (Michael W. Deem and Ramdas Pophale) SiO2 
 PCOD9076350
Probable space group: P -1
;
_chemical_formula_sum "Si O2"
_cell_formula_units_Z 16
_cell_length_a 11.421193
_cell_length_b 11.701430
_cell_length_c 11.253168
_cell_angle_alpha 46.261249
_cell_angle_beta 134.085737
_cell_angle_gamma 135.407562
_cell_volume 698.830302
_symmetry_space_group_name_H-M "P -1"
_symmetry_group_IT_number 2
_symmetry_cell_setting 'triclinic'
loop_
_space_group_symop_operation_xyz
x,y,z
-x,-y,-z
loop_
_atom_site_type_symbol
_atom_site_label
_atom_site_fract_x
_atom_site_fract_y
_atom_site_fract_z
Si Si1 0.840097 0.283924 0.417333
Si Si2 0.963065 0.131691 0.189418
Si Si3 0.225763 0.458011 0.673445
Si Si4 0.286035 0.802896 0.867257
Si Si5 0.373551 0.256686 0.768741
Si Si6 0.386669 0.098098 0.395399
Si Si7 0.331635 0.181093 0.539144
Si Si8 0.871380 0.811185 0.988262
O O1 0.729022 0.350126 0.381319
O O2 0.789986 0.298988 0.235963
O O3 0.793505 0.081021 0.559027
O O4 0.051507 0.402513 0.505359
O O5 0.861086 0.233474 0.107301
O O6 0.130657 0.150719 0.378219
O O7 0.040704 0.205566 0.061646
O O8 0.814048 0.926110 0.218395
O O9 0.362618 0.402526 0.741939
O O10 0.158874 0.336015 0.831125
O O11 0.336850 0.004855 0.721475
O O12 0.458760 0.780620 0.048576
O O13 0.388752 0.305048 0.605412
O O14 0.500000 0.000000 0.500000
O O15 0.444471 0.214325 0.472571
O O16 0.317924 0.186952 0.182761
O O17 0.000000 0.000000 0.000000
#
# Coordination Sequence:
#
# PCOD9076350 Si02
#       8
#     2   2   2   2   2   2   2   2
#     4  10  22  40  56  82 112 154 190 226 280 335
#     4  10  18  33  55  79 112 143 190 231 273 330
#     4  11  22  38  59  82 114 150 193 227 276 340
#     4  10  20  32  52  82 111 145 184 233 283 326
#     4  11  19  31  54  83 112 143 184 237 277 328
#     4  10  21  36  58  86 117 144 180 233 286 333
#     4   9  18  32  53  81 108 146 188 226 276 324
#     4  11  20  34  57  87 110 144 189 233 277 323
#
# _framework density 22.895399999999999
#
# number of rings (size 3 to 8) (size 9 to 14) (size 15 to 20)
#    0.000    1.750    2.500    5.250    3.500    1.500 
#    0.000    0.625    0.000    0.750    0.000    0.000 
#    0.000    0.000    0.000    0.000    0.000    0.000 
#
# Total GULP energy -89420.381525 kJ/mol
# GULP energy per Si atom -5588.773845 kJ/mol
# Density = 2.284329 g / cm^3
# Si number density = 22.895400 Si / 1000 Ang^3
#
#
#
# Elastic Constant Matrix: (Units=GPa)
#
#
# Indices 1 2 3 4 5 6 
#
# 1 121.2696 32.3803 68.0452 8.7282 15.6095 -37.0019
# 2 32.3803 69.4526 41.6570 -5.8145 -15.3433 -16.8356
# 3 68.0452 41.6570 142.6779 26.0026 7.8421 -13.0703
# 4 8.7282 -5.8145 26.0026 30.4368 -6.8652 -2.7608
# 5 15.6095 -15.3433 7.8421 -6.8652 43.0968 -1.0210
# 6 -37.0019 -16.8356 -13.0703 -2.7608 -1.0210 32.5773
#
#
#
# Elastic Compliance Matrix: (Units=1/GPa)
#
#
# Indices 1 2 3 4 5 6 
#
# 1 0.018168 -0.001845 -0.006266 0.000049 -0.005687 0.016994
# 2 -0.001845 0.030985 -0.012050 0.021761 0.017631 0.011479
# 3 -0.006266 -0.012050 0.016257 -0.016942 -0.007879 -0.008504
# 4 0.000049 0.021761 -0.016942 0.056912 0.020114 0.009958
# 5 -0.005687 0.017631 -0.007879 0.020114 0.036233 0.002331
# 6 0.016994 0.011479 -0.008504 0.009958 0.002331 0.053436
#
#
# Mechanical properties :
#
#
# Convention : Reuss Voigt Hill
#
# Bulk Modulus (GPa) = 39.85797 68.61832 54.23814
# Shear Modulus (GPa) = 19.18085 33.97669 26.57877
#
# Velocity S-wave (km/s) = 2.89755 3.85645 3.41086
# Velocity P-wave (km/s) = 5.35172 7.06151 6.26522
#
# Compressibility (1/GPa) = 0.02508909
#
# Stress axis : x y z
#
# Youngs Moduli (GPa) = 55.04136 32.27320 61.51258
#
# Poissons Ratio (x) = 0.05955 0.38541
# Poissons Ratio (y) = 0.10155 0.74123
# Poissons Ratio (z) = 0.34486 0.38889
#
# Static dielectric constant tensor:
#      x y z
#    x 1.945380 0.018800 0.004180 
#    y 0.018800 1.904880 0.006230 
#    z 0.004180 0.006230 1.775640 
# 
# From -- ./inp_files/252371.got.cif
#   From: 2010.05.17/outbox.cif.g08.bks.cpg/sg2_127_cif.got.tgz:252371.got - 2010.06.03 11:33:40.
