data_PCOD9076355
_publ_section_title
;
Structure prediction by ZEFSAII (Michael W. Deem and Ramdas Pophale) SiO2 
 PCOD9076355
Probable space group: P -1
;
_chemical_formula_sum "Si O2"
_cell_formula_units_Z 16
_cell_length_a 7.552242
_cell_length_b 19.953812
_cell_length_c 13.206297
_cell_angle_alpha 154.633095
_cell_angle_beta 119.393224
_cell_angle_gamma 67.169951
_cell_volume 734.595682
_symmetry_space_group_name_H-M "P -1"
_symmetry_group_IT_number 2
_symmetry_cell_setting 'triclinic'
loop_
_space_group_symop_operation_xyz
x,y,z
-x,-y,-z
loop_
_atom_site_type_symbol
_atom_site_label
_atom_site_fract_x
_atom_site_fract_y
_atom_site_fract_z
Si Si1 0.495303 0.884749 0.245722
Si Si2 0.916555 0.919088 0.159682
Si Si3 0.399628 0.347726 0.372341
Si Si4 0.743938 0.119648 0.508447
Si Si5 0.572501 0.888880 0.778107
Si Si6 0.159792 0.569074 0.492803
Si Si7 0.144047 0.919985 0.032756
Si Si8 0.794042 0.314548 0.985005
O O1 0.410365 0.714931 0.040874
O O2 0.500000 0.000000 0.500000
O O3 0.697631 0.954080 0.334403
O O4 0.332899 0.923845 0.170199
O O5 0.070945 0.812027 0.103757
O O6 0.939428 0.081974 0.449794
O O7 0.697667 0.801267 0.930111
O O8 0.969265 0.958195 0.111354
O O9 0.402713 0.274946 0.384781
O O10 0.243158 0.473022 0.479275
O O11 0.633706 0.410060 0.490410
O O12 0.591625 0.134806 0.392205
O O13 0.748262 0.258734 0.780495
O O14 0.500000 0.000000 0.000000
O O15 0.776209 0.967921 0.884144
O O16 0.111425 0.739639 0.741802
O O17 0.953783 0.473660 0.257307
#
# Coordination Sequence:
#
# PCOD9076355 Si02
#       8
#     2   2   2   2   2   2   2   2
#     4   8  16  31  52  80 108 140 181 229 275 313
#     4  10  19  32  53  84 110 139 186 229 276 316
#     4  10  20  35  54  80 108 145 183 228 273 328
#     4  10  18  33  55  80 113 144 183 228 276 328
#     4  11  19  36  59  80 108 146 189 230 273 322
#     4  10  20  36  56  82 115 141 185 225 283 330
#     4  10  20  33  56  84 112 142 180 234 274 327
#     4   9  19  32  52  81 112 145 180 230 279 324
#
# _framework density 21.78069
#
# number of rings (size 3 to 8) (size 9 to 14) (size 15 to 20)
#    0.000    2.250    2.500    1.125    0.000    5.000 
#    0.000    0.625    0.000    0.000    0.000   22.750 
#    0.000    0.000    0.000    3.250    0.000    0.000 
#
# Total GULP energy -89104.881091 kJ/mol
# GULP energy per Si atom -5569.055068 kJ/mol
# Density = 2.173112 g / cm^3
# Si number density = 21.780690 Si / 1000 Ang^3
#
#
#
# Elastic Constant Matrix: (Units=GPa)
#
#
# Indices 1 2 3 4 5 6 
#
# 1 54.7218 18.3405 26.7090 5.6809 8.9831 19.4972
# 2 18.3405 133.8370 51.8874 -9.5133 -0.3373 22.0563
# 3 26.7090 51.8874 89.0338 -13.8130 15.9916 20.3534
# 4 5.6809 -9.5133 -13.8130 37.3402 -0.1175 1.9013
# 5 8.9831 -0.3373 15.9916 -0.1175 28.8853 -1.3249
# 6 19.4972 22.0563 20.3534 1.9013 -1.3249 28.5847
#
#
#
# Elastic Compliance Matrix: (Units=1/GPa)
#
#
# Indices 1 2 3 4 5 6 
#
# 1 0.027636 0.000103 -0.004221 -0.004951 -0.007007 -0.015920
# 2 0.000103 0.010333 -0.005553 0.000776 0.002982 -0.004003
# 3 -0.004221 -0.005553 0.020728 0.007298 -0.010591 -0.008572
# 4 -0.004951 0.000776 0.007298 0.030656 -0.002577 -0.004577
# 5 -0.007007 0.002982 -0.010591 -0.002577 0.043246 0.012195
# 6 -0.015920 -0.004003 -0.008572 -0.004577 0.012195 0.055904
#
#
# Mechanical properties :
#
#
# Convention : Reuss Voigt Hill
#
# Bulk Modulus (GPa) = 25.40910 52.38518 38.89714
# Shear Modulus (GPa) = 22.62807 31.00576 26.81691
#
# Velocity S-wave (km/s) = 3.22670 3.77708 3.51269
# Velocity P-wave (km/s) = 5.05701 6.56698 5.86083
#
# Compressibility (1/GPa) = 0.03935597
#
# Stress axis : x y z
#
# Youngs Moduli (GPa) = 36.18431 96.77917 48.24300
#
# Poissons Ratio (x) = -0.00999 0.20363
# Poissons Ratio (y) = -0.00374 0.26790
# Poissons Ratio (z) = 0.15273 0.53742
#
# Static dielectric constant tensor:
#      x y z
#    x 2.001030 -0.000600 0.056090 
#    y -0.000600 1.820800 -0.001290 
#    z 0.056090 -0.001290 1.839900 
# 
# From -- ./inp_files/403581.got.cif
#   From: 2010.05.17/outbox.cif.g08.bks.cpg/sg2_202_cif.got.tgz:403581.got - 2010.06.03 11:33:40.
