data_PCOD9076732
_publ_section_title
;
Structure prediction by ZEFSAII (Michael W. Deem and Ramdas Pophale) SiO2 
 PCOD9076732
Probable space group: P -1
;
_chemical_formula_sum "Si O2"
_cell_formula_units_Z 16
_cell_length_a 10.226378
_cell_length_b 4.991055
_cell_length_c 18.137694
_cell_angle_alpha 84.646942
_cell_angle_beta 88.490387
_cell_angle_gamma 40.152691
_cell_volume 592.889170
_symmetry_space_group_name_H-M "P -1"
_symmetry_group_IT_number 2
_symmetry_cell_setting 'triclinic'
loop_
_space_group_symop_operation_xyz
x,y,z
-x,-y,-z
loop_
_atom_site_type_symbol
_atom_site_label
_atom_site_fract_x
_atom_site_fract_y
_atom_site_fract_z
Si Si1 0.033182 0.178558 0.055587
Si Si2 0.900450 0.692700 0.695164
Si Si3 0.513274 0.406795 0.916835
Si Si4 0.842056 0.040789 0.537761
Si Si5 0.602447 0.091338 0.420083
Si Si6 0.929090 0.143141 0.793672
Si Si7 0.571994 0.669118 0.325572
Si Si8 0.468961 0.993490 0.830880
O O1 0.251225 0.911613 0.092823
O O2 0.944617 0.181576 0.131527
O O3 0.000000 0.500000 0.000000
O O4 0.000000 0.000000 0.000000
O O5 0.951958 0.718655 0.612757
O O6 0.012179 0.271684 0.745130
O O7 0.671699 0.946829 0.680717
O O8 0.892999 0.961771 0.741189
O O9 0.395675 0.813111 0.859698
O O10 0.468047 0.178907 0.898934
O O11 0.500000 0.500000 0.000000
O O12 0.251171 0.036324 0.514012
O O13 0.000000 0.000000 0.500000
O O14 0.634364 0.510983 0.559648
O O15 0.632465 0.755071 0.391928
O O16 0.627894 0.274469 0.350582
O O17 0.709570 0.591394 0.816557
O O18 0.633286 0.708164 0.246305
#
# Coordination Sequence:
#
# PCOD9076732 Si02
#       8
#     2   2   2   2   2   2   2   2
#     4  11  21  36  61  89 120 160 203 254 312 367
#     4  10  19  34  59  87 120 161 208 263 315 368
#     4  11  22  36  57  90 121 154 207 247 302 383
#     4  10  22  40  63  92 128 169 214 263 324 379
#     4  10  22  38  61  93 123 161 214 265 313 377
#     4  10  19  35  58  90 121 157 217 260 305 386
#     4  10  18  36  61  89 118 153 209 262 306 362
#     4  10  18  33  59  86 112 160 202 249 304 365
#
# _framework density 26.986494
#
# number of rings (size 3 to 8) (size 9 to 14) (size 15 to 20)
#    0.000    1.750    0.000    9.375    0.000    5.500 
#    0.000   10.000   11.000    0.000    3.250    0.000 
#    0.000    0.000    0.000    0.000    0.000    0.000 
#
# Total GULP energy -89585.076067 kJ/mol
# GULP energy per Si atom -5599.067254 kJ/mol
# Density = 2.692507 g / cm^3
# Si number density = 26.986494 Si / 1000 Ang^3
#
#
#
# Elastic Constant Matrix: (Units=GPa)
#
#
# Indices 1 2 3 4 5 6 
#
# 1 129.0564 63.4769 50.5000 0.7128 4.1765 14.0541
# 2 63.4769 81.3690 45.3426 -20.7362 -6.4854 11.0093
# 3 50.5000 45.3426 207.0610 -29.1592 -22.1808 14.5936
# 4 0.7128 -20.7362 -29.1592 52.9045 14.4327 -9.1896
# 5 4.1765 -6.4854 -22.1808 14.4327 57.9864 -5.4407
# 6 14.0541 11.0093 14.5936 -9.1896 -5.4407 53.5345
#
#
#
# Elastic Compliance Matrix: (Units=1/GPa)
#
#
# Indices 1 2 3 4 5 6 
#
# 1 0.014465 -0.011553 -0.001837 -0.005593 -0.001839 -0.002068
# 2 -0.011553 0.024262 -0.001159 0.008769 0.000916 -0.000042
# 3 -0.001837 -0.001159 0.006075 0.002395 0.001697 -0.000352
# 4 -0.005593 0.008769 0.002395 0.025262 -0.003709 0.002972
# 5 -0.001839 0.000916 0.001697 -0.003709 0.019160 0.001142
# 6 -0.002068 -0.000042 -0.000352 0.002972 0.001142 0.019953
#
#
# Mechanical properties :
#
#
# Convention : Reuss Voigt Hill
#
# Bulk Modulus (GPa) = 63.67871 81.79171 72.73521
# Shear Modulus (GPa) = 34.84045 50.09621 42.46833
#
# Velocity S-wave (km/s) = 3.59699 4.31320 3.97128
# Velocity P-wave (km/s) = 6.39522 7.42827 6.93102
#
# Compressibility (1/GPa) = 0.01570384
#
# Stress axis : x y z
#
# Youngs Moduli (GPa) = 69.13049 41.21691 164.60325
#
# Poissons Ratio (x) = 0.47619 0.30236
# Poissons Ratio (y) = 0.79868 0.19082
# Poissons Ratio (z) = 0.12699 0.04778
#
# Static dielectric constant tensor:
#      x y z
#    x 2.028430 -0.022650 -0.139000 
#    y -0.022650 2.144870 -0.057310 
#    z -0.139000 -0.057310 2.202950 
# 
# From -- ./inp_files/564117.got.cif
#   From: 2010.05.17/outbox.cif.g08.bks.cpg/sg2_283_cif.got.tgz:564117.got - 2010.06.03 11:33:40.
