data_PCOD9076915
_publ_section_title
;
Structure prediction by ZEFSAII (Michael W. Deem and Ramdas Pophale) SiO2 
 PCOD9076915
Probable space group: P -1
;
_chemical_formula_sum "Si O2"
_cell_formula_units_Z 16
_cell_length_a 8.586844
_cell_length_b 8.892384
_cell_length_c 16.379728
_cell_angle_alpha 137.607328
_cell_angle_beta 129.059865
_cell_angle_gamma 50.309060
_cell_volume 617.865632
_symmetry_space_group_name_H-M "P -1"
_symmetry_group_IT_number 2
_symmetry_cell_setting 'triclinic'
loop_
_space_group_symop_operation_xyz
x,y,z
-x,-y,-z
loop_
_atom_site_type_symbol
_atom_site_label
_atom_site_fract_x
_atom_site_fract_y
_atom_site_fract_z
Si Si1 0.174660 0.582069 0.824363
Si Si2 0.316189 0.247930 0.055408
Si Si3 0.166023 0.609820 0.644941
Si Si4 0.599372 0.944520 0.321981
Si Si5 0.416128 0.750282 0.421803
Si Si6 0.161542 0.556976 0.986579
Si Si7 0.689687 0.647705 0.715384
Si Si8 0.928745 0.916108 0.294560
O O1 0.150285 0.683668 0.765163
O O2 0.209563 0.672245 0.963806
O O3 0.939455 0.562449 0.748098
O O4 0.358171 0.330456 0.780081
O O5 0.347703 0.306537 0.182480
O O6 0.064584 0.270667 0.984822
O O7 0.317703 0.450757 0.071775
O O8 0.500000 0.000000 0.000000
O O9 0.386152 0.398888 0.624296
O O10 0.000000 0.500000 0.500000
O O11 0.161994 0.842196 0.687835
O O12 0.545586 0.037400 0.432226
O O13 0.420389 0.113605 0.273323
O O14 0.819617 0.966421 0.367804
O O15 0.397378 0.567318 0.413352
O O16 0.181690 0.842918 0.344762
O O17 0.134873 0.305030 0.848697
#
# Coordination Sequence:
#
# PCOD9076915 Si02
#       8
#     2   2   2   2   2   2   2   2
#     4  10  22  40  57  87 125 151 203 242 301 347
#     4  10  18  33  64  96 116 135 202 261 302 337
#     4  12  27  39  56  88 128 167 199 245 298 349
#     4  11  21  35  63  87 119 161 202 245 289 348
#     4  12  23  37  61  89 120 159 210 238 288 362
#     4   9  20  38  62  92 113 155 196 252 297 356
#     4  11  21  37  63  95 111 156 202 247 292 364
#     4  11  22  39  61  87 124 164 200 244 297 349
#
# _framework density 25.895598
#
# number of rings (size 3 to 8) (size 9 to 14) (size 15 to 20)
#    0.000    1.250    5.000    3.750    1.750    3.000 
#    0.000    0.000    0.000    7.500    0.000    0.000 
#    0.000    0.000    0.000    0.000    0.000    0.000 
#
# Total GULP energy -89389.793257 kJ/mol
# GULP energy per Si atom -5586.862079 kJ/mol
# Density = 2.583666 g / cm^3
# Si number density = 25.895598 Si / 1000 Ang^3
#
#
#
# Elastic Constant Matrix: (Units=GPa)
#
#
# Indices 1 2 3 4 5 6 
#
# 1 100.8503 48.2192 34.8642 4.7715 -27.1256 -3.8021
# 2 48.2192 173.4173 25.7673 -5.0426 -2.5698 -14.1679
# 3 34.8642 25.7673 55.4149 -6.9946 -17.9272 -1.9276
# 4 4.7715 -5.0426 -6.9946 37.4921 -2.6649 -13.9096
# 5 -27.1256 -2.5698 -17.9272 -2.6649 42.7862 1.3903
# 6 -3.8021 -14.1679 -1.9276 -13.9096 1.3903 42.6209
#
#
#
# Elastic Compliance Matrix: (Units=1/GPa)
#
#
# Indices 1 2 3 4 5 6 
#
# 1 0.015896 -0.003567 -0.006650 -0.003826 0.006889 -0.001542
# 2 -0.003567 0.007236 -0.001568 0.001978 -0.002450 0.002742
# 3 -0.006650 -0.001568 0.026150 0.006772 0.007002 0.002050
# 4 -0.003826 0.001978 0.006772 0.033052 0.002221 0.011337
# 5 0.006889 -0.002450 0.007002 0.002221 0.030669 -0.000159
# 6 -0.001542 0.002742 0.002050 0.011337 -0.000159 0.028034
#
#
# Mechanical properties :
#
#
# Convention : Reuss Voigt Hill
#
# Bulk Modulus (GPa) = 38.89292 60.82046 49.85669
# Shear Modulus (GPa) = 28.87174 39.30196 34.08685
#
# Velocity S-wave (km/s) = 3.34268 3.90000 3.63205
# Velocity P-wave (km/s) = 5.47263 6.61950 6.07320
#
# Compressibility (1/GPa) = 0.02571162
#
# Stress axis : x y z
#
# Youngs Moduli (GPa) = 62.90943 138.18944 38.24085
#
# Poissons Ratio (x) = 0.49291 0.25431
# Poissons Ratio (y) = 0.22439 0.05997
# Poissons Ratio (z) = 0.41836 0.21672
#
# Static dielectric constant tensor:
#      x y z
#    x 2.117620 0.074700 0.065390 
#    y 0.074700 2.055340 -0.017480 
#    z 0.065390 -0.017480 2.155220 
# 
# From -- ./inp_files/556595.got.cif
#   From: 2010.05.17/outbox.cif.g08.bks.cpg/sg2_279_cif.got.tgz:556595.got - 2010.06.03 11:33:40.
