data_PCOD9076093
_publ_section_title
;
Structure prediction by ZEFSAII (Michael W. Deem and Ramdas Pophale) SiO2 
 PCOD9076093
Probable space group: P -1
;
_chemical_formula_sum "Si O2"
_cell_formula_units_Z 14
_cell_length_a 8.129007
_cell_length_b 5.932651
_cell_length_c 23.825410
_cell_angle_alpha 62.329807
_cell_angle_beta 34.691873
_cell_angle_gamma 57.382345
_cell_volume 550.299184
_symmetry_space_group_name_H-M "P -1"
_symmetry_group_IT_number 2
_symmetry_cell_setting 'triclinic'
loop_
_space_group_symop_operation_xyz
x,y,z
-x,-y,-z
loop_
_atom_site_type_symbol
_atom_site_label
_atom_site_fract_x
_atom_site_fract_y
_atom_site_fract_z
Si Si1 0.561727 0.238408 0.349228
Si Si2 0.988972 0.282658 0.723876
Si Si3 0.716227 0.004618 0.151378
Si Si4 0.269105 0.709732 0.580177
Si Si5 0.179203 0.771355 0.351221
Si Si6 0.907300 0.871751 0.864212
Si Si7 0.812667 0.437683 0.006619
O O1 0.569752 0.258083 0.411260
O O2 0.855859 0.296548 0.230163
O O3 0.273714 0.468944 0.381232
O O4 0.667452 0.925462 0.338600
O O5 0.016224 0.573895 0.685869
O O6 0.781766 0.159136 0.835213
O O7 0.904460 0.239064 0.689216
O O8 0.460618 0.887838 0.259737
O O9 0.892115 0.080490 0.145737
O O10 0.945991 0.776634 0.075667
O O11 0.611668 0.267626 0.109922
O O12 0.500000 0.500000 0.500000
O O13 0.096633 0.999612 0.569422
O O14 0.707283 0.699220 0.965415
O O15 0.000000 0.500000 0.000000
#
# Coordination Sequence:
#
# PCOD9076093 Si02
#       7
#     2   2   2   2   2   2   2
#     4   9  21  39  61  90 119 161 206 245 301 365
#     4   9  22  38  61  85 120 157 197 256 302 358
#     4  10  18  32  60  91 121 162 204 244 296 352
#     4  11  25  43  62  91 123 155 202 260 313 363
#     4  11  22  38  65  92 119 163 210 242 304 370
#     4   9  18  36  59  85 123 161 201 241 296 354
#     4   9  18  31  57  92 125 158 200 250 291 348
#
# _framework density 25.440707
#
# number of rings (size 3 to 8) (size 9 to 14) (size 15 to 20)
#    0.857    1.429    1.429    0.857    2.000    2.857 
#    0.000    2.143    0.000    8.571    0.000    0.000 
#    0.000    0.000    0.000    0.000    0.000    0.000 
#
# Total GULP energy -78161.292743 kJ/mol
# GULP energy per Si atom -5582.949482 kJ/mol
# Density = 2.538280 g / cm^3
# Si number density = 25.440707 Si / 1000 Ang^3
#
#
#
# Elastic Constant Matrix: (Units=GPa)
#
#
# Indices 1 2 3 4 5 6 
#
# 1 34.4017 20.2914 12.3854 9.8648 8.8688 -4.6029
# 2 20.2914 130.0860 9.9379 -9.7962 -1.6585 -22.5632
# 3 12.3854 9.9379 101.0926 18.7297 0.9328 10.4455
# 4 9.8648 -9.7962 18.7297 40.0299 6.8453 0.0000
# 5 8.8688 -1.6585 0.9328 6.8453 27.3827 -7.1445
# 6 -4.6029 -22.5632 10.4455 0.0000 -7.1445 38.6686
#
#
#
# Elastic Compliance Matrix: (Units=1/GPa)
#
#
# Indices 1 2 3 4 5 6 
#
# 1 0.039088 -0.006802 -0.002412 -0.008269 -0.011110 -0.000717
# 2 -0.006802 0.010349 -0.001686 0.004410 0.003433 0.006319
# 3 -0.002412 -0.001686 0.011805 -0.005426 0.000493 -0.004368
# 4 -0.008269 0.004410 -0.005426 0.031339 -0.004105 0.002297
# 5 -0.011110 0.003433 0.000493 -0.004105 0.043579 0.008599
# 6 -0.000717 0.006319 -0.004368 0.002297 0.008599 0.032231
#
#
# Mechanical properties :
#
#
# Convention : Reuss Voigt Hill
#
# Bulk Modulus (GPa) = 25.35238 38.97883 32.16561
# Shear Modulus (GPa) = 24.58976 36.08061 30.33519
#
# Velocity S-wave (km/s) = 3.11231 3.77002 3.45684
# Velocity P-wave (km/s) = 4.78563 5.85708 5.34825
#
# Compressibility (1/GPa) = 0.03944402
#
# Stress axis : x y z
#
# Youngs Moduli (GPa) = 25.58346 96.62959 84.70813
#
# Poissons Ratio (x) = 0.65724 0.20428
# Poissons Ratio (y) = 0.17401 0.14279
# Poissons Ratio (z) = 0.06170 0.16289
#
# Static dielectric constant tensor:
#      x y z
#    x 1.955210 -0.059550 -0.051280 
#    y -0.059550 2.070950 -0.008280 
#    z -0.051280 -0.008280 2.073070 
# 
# From -- ./inp_files/350921.got.cif
#   From: 2010.05.17/outbox.cif.g08.bks.cpg/sg2_176_cif.got.tgz:350921.got - 2010.06.03 11:33:40.
