data_PCOD9076172
_publ_section_title
;
Structure prediction by ZEFSAII (Michael W. Deem and Ramdas Pophale) SiO2 
 PCOD9076172
Probable space group: P -1
;
_chemical_formula_sum "Si O2"
_cell_formula_units_Z 14
_cell_length_a 5.040328
_cell_length_b 8.435507
_cell_length_c 25.340702
_cell_angle_alpha 33.152858
_cell_angle_beta 105.142926
_cell_angle_gamma 112.916039
_cell_volume 538.210125
_symmetry_space_group_name_H-M "P -1"
_symmetry_group_IT_number 2
_symmetry_cell_setting 'triclinic'
loop_
_space_group_symop_operation_xyz
x,y,z
-x,-y,-z
loop_
_atom_site_type_symbol
_atom_site_label
_atom_site_fract_x
_atom_site_fract_y
_atom_site_fract_z
Si Si1 0.607144 0.597271 0.602087
Si Si2 0.883640 0.015501 0.410077
Si Si3 0.714020 0.397223 0.089243
Si Si4 0.735143 0.103677 0.073966
Si Si5 0.996174 0.212190 0.248980
Si Si6 0.905565 0.628067 0.287882
Si Si7 0.595644 0.562653 0.143717
O O1 0.801012 0.874320 0.574004
O O2 0.285858 0.466405 0.643138
O O3 0.766729 0.343933 0.689045
O O4 0.671955 0.731911 0.509607
O O5 0.911244 0.987626 0.356747
O O6 0.790949 0.314403 0.334965
O O7 0.818585 0.171906 0.196578
O O8 0.563528 0.221154 0.078235
O O9 0.559823 0.550380 0.081790
O O10 0.006271 0.640045 0.013545
O O11 0.875636 0.901081 0.175506
O O12 0.578623 0.857992 0.090439
O O13 0.329568 0.289622 0.229601
O O14 0.907893 0.511016 0.180347
#
# Coordination Sequence:
#
# PCOD9076172 Si02
#       7
#     2   2   2   2   2   2   2
#     4   9  19  30  52  88 118 140 209 233 298 351
#     4   9  18  30  58  83 116 155 187 249 291 359
#     4   9  24  42  58  97 117 166 199 259 286 374
#     4  11  20  42  66  85 127 162 206 240 315 345
#     4  10  21  39  60  88 125 151 206 241 310 340
#     4  10  18  33  50  87 111 155 190 249 279 363
#     4  10  21  41  58  90 120 159 197 254 287 367
#
# _framework density 26.012143999999999
#
# number of rings (size 3 to 8) (size 9 to 14) (size 15 to 20)
#    1.714    0.571    1.429    1.714    0.000    0.571 
#    7.714    1.429    0.000    1.714    0.000    0.000 
#    0.000    0.000    0.000    0.000    0.000    0.000 
#
# Total GULP energy -78124.986438 kJ/mol
# GULP energy per Si atom -5580.356174 kJ/mol
# Density = 2.595294 g / cm^3
# Si number density = 26.012144 Si / 1000 Ang^3
#
#
#
# Elastic Constant Matrix: (Units=GPa)
#
#
# Indices 1 2 3 4 5 6 
#
# 1 110.9341 29.7976 11.9416 10.9047 -22.1779 -25.0861
# 2 29.7976 156.7682 61.7021 37.1957 -16.2521 -34.9162
# 3 11.9416 61.7021 115.1486 44.2988 -25.9347 -9.9997
# 4 10.9047 37.1957 44.2988 58.2384 -15.8920 -5.1275
# 5 -22.1779 -16.2521 -25.9347 -15.8920 34.4537 7.3279
# 6 -25.0861 -34.9162 -9.9997 -5.1275 7.3279 31.1496
#
#
#
# Elastic Compliance Matrix: (Units=1/GPa)
#
#
# Indices 1 2 3 4 5 6 
#
# 1 0.012214 -0.000094 0.001261 -0.000618 0.006683 0.008463
# 2 -0.000094 0.011045 -0.004020 -0.003516 -0.001808 0.010861
# 3 0.001261 -0.004020 0.014973 -0.007236 0.007182 -0.001564
# 4 -0.000618 -0.003516 -0.007236 0.026171 0.005359 -0.003714
# 5 0.006683 -0.001808 0.007182 0.005359 0.041011 -0.003105
# 6 0.008463 0.010861 -0.001564 -0.003714 -0.003105 0.050709
#
#
# Mechanical properties :
#
#
# Convention : Reuss Voigt Hill
#
# Bulk Modulus (GPa) = 30.74383 65.52592 48.13487
# Shear Modulus (GPa) = 28.95681 43.39565 36.17623
#
# Velocity S-wave (km/s) = 3.34009 4.08889 3.73331
# Velocity P-wave (km/s) = 5.16910 6.89473 6.09331
#
# Compressibility (1/GPa) = 0.03252685
#
# Stress axis : x y z
#
# Youngs Moduli (GPa) = 81.87190 90.54221 66.78628
#
# Poissons Ratio (x) = 0.00850 -0.08424
# Poissons Ratio (y) = 0.00768 0.26848
# Poissons Ratio (z) = -0.10327 0.36398
#
# Static dielectric constant tensor:
#      x y z
#    x 1.995600 -0.027290 0.117870 
#    y -0.027290 2.141440 -0.056090 
#    z 0.117870 -0.056090 2.096770 
# 
# From -- ./inp_files/615211.got.cif
#   From: 2010.05.17/outbox.cif.g08.bks.cpg/sg2_308_cif.got.tgz:615211.got - 2010.06.03 11:33:40.
