data_PCOD9076044
_publ_section_title
;
Structure prediction by ZEFSAII (Michael W. Deem and Ramdas Pophale) SiO2 
 PCOD9076044
Probable space group: P -1
;
_chemical_formula_sum "Si O2"
_cell_formula_units_Z 14
_cell_length_a 13.443135
_cell_length_b 10.691690
_cell_length_c 14.283472
_cell_angle_alpha 35.622039
_cell_angle_beta 28.354208
_cell_angle_gamma 34.086067
_cell_volume 518.470459
_symmetry_space_group_name_H-M "P -1"
_symmetry_group_IT_number 2
_symmetry_cell_setting 'triclinic'
loop_
_space_group_symop_operation_xyz
x,y,z
-x,-y,-z
loop_
_atom_site_type_symbol
_atom_site_label
_atom_site_fract_x
_atom_site_fract_y
_atom_site_fract_z
Si Si1 0.295769 0.641767 0.981278
Si Si2 0.990481 0.730630 0.008027
Si Si3 0.555519 0.968821 0.596375
Si Si4 0.141406 0.117754 0.437035
Si Si5 0.504818 0.515173 0.703767
Si Si6 0.919875 0.243518 0.723938
Si Si7 0.123948 0.677003 0.635250
O O1 0.479734 0.457378 0.869490
O O2 0.389292 0.843968 0.789090
O O3 0.065026 0.725400 0.059266
O O4 0.239154 0.589525 0.165233
O O5 0.847769 0.577085 0.199894
O O6 0.242778 0.595066 0.836865
O O7 0.887917 0.000395 0.900116
O O8 0.463343 0.239579 0.478083
O O9 0.810740 0.837460 0.419920
O O10 0.623753 0.946122 0.663675
O O11 0.103685 0.231404 0.297523
O O12 0.948915 0.294397 0.560082
O O13 0.105794 0.878419 0.599065
O O14 0.676901 0.344474 0.590572
#
# Coordination Sequence:
#
# PCOD9076044 Si02
#       7
#     2   2   2   2   2   2   2
#     4  10  18  32  59  86 111 142 176 226 278 324
#     4   9  21  33  60  88 107 144 183 227 272 319
#     4   9  19  37  55  88 110 145 182 221 274 327
#     4   9  23  41  58  72 114 157 176 225 283 318
#     4   9  21  33  60  88 107 144 183 227 272 319
#     4   9  19  37  55  88 110 145 182 221 274 327
#     4  11  21  43  54  78 114 147 188 225 271 328
#
# _framework density 27.002504999999999
#
# number of rings (size 3 to 8) (size 9 to 14) (size 15 to 20)
#    1.714    0.857    0.000    1.714    2.000    1.143 
#    5.143    5.714    0.000    0.000    0.000    0.000 
#    0.000    0.000    0.000    0.000    0.000    0.000 
#
# Total GULP energy -78179.411160 kJ/mol
# GULP energy per Si atom -5584.243654 kJ/mol
# Density = 2.694105 g / cm^3
# Si number density = 27.002505 Si / 1000 Ang^3
#
#
#
# Elastic Constant Matrix: (Units=GPa)
#
#
# Indices 1 2 3 4 5 6 
#
# 1 94.9756 27.2622 15.8618 -4.7592 13.2491 19.6573
# 2 27.2622 102.3112 56.6393 0.9504 -6.0306 23.0040
# 3 15.8618 56.6393 105.1891 -1.6836 -10.6196 27.9442
# 4 -4.7592 0.9504 -1.6836 53.0812 4.5250 3.3560
# 5 13.2491 -6.0306 -10.6196 4.5250 33.0807 -2.3209
# 6 19.6573 23.0040 27.9442 3.3560 -2.3209 23.0422
#
#
#
# Elastic Compliance Matrix: (Units=1/GPa)
#
#
# Indices 1 2 3 4 5 6 
#
# 1 0.014915 -0.002445 0.002112 0.002940 -0.007125 -0.013990
# 2 -0.002445 0.015161 -0.006267 -0.000480 0.001430 -0.005235
# 3 0.002112 -0.006267 0.017159 0.001700 0.002138 -0.016386
# 4 0.002940 -0.000480 0.001700 0.019971 -0.003970 -0.007398
# 5 -0.007125 0.001430 0.002138 -0.003970 0.035005 0.006162
# 6 -0.013990 -0.005235 -0.016386 -0.007398 0.006162 0.082130
#
#
# Mechanical properties :
#
#
# Convention : Reuss Voigt Hill
#
# Bulk Modulus (GPa) = 29.38282 55.77806 42.58044
# Shear Modulus (GPa) = 23.93626 35.35500 29.64563
#
# Velocity S-wave (km/s) = 2.98055 3.62238 3.31703
# Velocity P-wave (km/s) = 4.76970 6.18037 5.52028
#
# Compressibility (1/GPa) = 0.03403350
#
# Stress axis : x y z
#
# Youngs Moduli (GPa) = 67.04702 65.95821 58.27818
#
# Poissons Ratio (x) = 0.16127 -0.12306
# Poissons Ratio (y) = 0.16394 0.36525
# Poissons Ratio (z) = -0.14158 0.41338
#
# Static dielectric constant tensor:
#      x y z
#    x 2.192890 -0.066710 0.042150 
#    y -0.066710 2.085230 0.056140 
#    z 0.042150 0.056140 2.131590 
# 
# From -- ./inp_files/530399.got.cif
#   From: 2010.05.17/outbox.cif.g08.bks.cpg/sg2_266_cif.got.tgz:530399.got - 2010.06.03 11:33:40.
