data_PCOD9076528
_publ_section_title
;
Structure prediction by ZEFSAII (Michael W. Deem and Ramdas Pophale) SiO2 
 PCOD9076528
Probable space group: P -1
;
_chemical_formula_sum "Si O2"
_cell_formula_units_Z 14
_cell_length_a 8.878458
_cell_length_b 8.493346
_cell_length_c 20.025134
_cell_angle_alpha 131.898634
_cell_angle_beta 134.296719
_cell_angle_gamma 82.724593
_cell_volume 619.644229
_symmetry_space_group_name_H-M "P -1"
_symmetry_group_IT_number 2
_symmetry_cell_setting 'triclinic'
loop_
_space_group_symop_operation_xyz
x,y,z
-x,-y,-z
loop_
_atom_site_type_symbol
_atom_site_label
_atom_site_fract_x
_atom_site_fract_y
_atom_site_fract_z
Si Si1 0.887497 0.835790 0.315497
Si Si2 0.289652 0.487955 0.273333
Si Si3 0.786017 0.553900 0.436798
Si Si4 0.618298 0.346941 0.505285
Si Si5 0.413843 0.127602 0.652667
Si Si6 0.718333 0.293489 0.066799
Si Si7 0.771247 0.287978 0.239054
O O1 0.650943 0.786989 0.275076
O O2 0.794635 0.589505 0.167100
O O3 0.046652 0.125138 0.408921
O O4 0.122954 0.911198 0.462208
O O5 0.472939 0.394231 0.317318
O O6 0.363057 0.672789 0.414278
O O7 0.391604 0.645196 0.278796
O O8 0.960892 0.292358 0.117708
O O9 0.735951 0.482980 0.322395
O O10 0.000000 0.500000 0.500000
O O11 0.500000 0.500000 0.500000
O O12 0.912385 0.563077 0.622944
O O13 0.490476 0.050759 0.352868
O O14 0.701982 0.274363 0.136698
O O15 0.429157 0.013642 0.875626
#
# Coordination Sequence:
#
# PCOD9076528 Si02
#       7
#     2   2   2   2   2   2   2
#     4  10  18  35  57  79 109 151 191 227 280 335
#     4  10  21  32  56  86 112 142 192 242 272 328
#     4  11  22  36  57  85 116 149 189 235 284 335
#     4  11  20  34  56  86 114 144 185 239 283 330
#     4  10  18  33  57  82 109 144 197 233 274 322
#     4  10  20  36  59  84 110 148 188 232 281 334
#     4  10  20  38  56  83 114 149 185 225 290 339
#
# _framework density 22.593610000000002
#
# number of rings (size 3 to 8) (size 9 to 14) (size 15 to 20)
#    0.000    1.714    4.286    3.000    2.000    0.571 
#    0.000    2.143    0.000    0.857    0.000    0.000 
#    0.000    0.000    0.000    0.000    0.000    0.000 
#
# Total GULP energy -77946.089751 kJ/mol
# GULP energy per Si atom -5567.577839 kJ/mol
# Density = 2.254219 g / cm^3
# Si number density = 22.593610 Si / 1000 Ang^3
#
#
#
# Elastic Constant Matrix: (Units=GPa)
#
#
# Indices 1 2 3 4 5 6 
#
# 1 107.6850 20.3024 5.9101 -13.2468 13.3482 -13.2895
# 2 20.3024 69.8056 14.5516 18.3902 2.7659 -24.2827
# 3 5.9101 14.5516 60.6891 13.5276 14.4702 -9.8972
# 4 -13.2468 18.3902 13.5276 20.0848 -0.9897 -2.6280
# 5 13.3482 2.7659 14.4702 -0.9897 7.1038 6.9685
# 6 -13.2895 -24.2827 -9.8972 -2.6280 6.9685 40.4080
#
#
#
# Elastic Compliance Matrix: (Units=1/GPa)
#
#
# Indices 1 2 3 4 5 6 
#
# 1 0.009117 -0.015182 -0.018885 0.032801 0.048472 -0.016977
# 2 -0.015182 0.016808 -0.023570 -0.007425 0.084357 -0.015696
# 3 -0.018885 -0.023570 -0.036527 0.035027 0.181113 -0.058277
# 4 0.032801 -0.007425 0.035027 0.052501 -0.169406 0.047533
# 5 0.048472 0.084357 0.181113 -0.169406 -0.570220 0.198314
# 6 -0.016977 -0.015696 -0.058277 0.047533 0.198314 -0.035650
#
#
# Mechanical properties :
#
#
# Convention : Reuss Voigt Hill
#
# Bulk Modulus (GPa) = -7.94437 35.52309 13.78936
# Shear Modulus (GPa) = -10.19043 26.68035 8.24496
#
# Velocity S-wave (km/s) = -2.12605 3.44012 1.91237
# Velocity P-wave (km/s) = 3.09041 5.61569 3.31552
#
# Compressibility (1/GPa) = -0.12587529
#
# Stress axis : x y z
#
# Youngs Moduli (GPa) = 109.68970 59.49491 -27.37725
#
# Poissons Ratio (x) = 0.90327 -0.51701
# Poissons Ratio (y) = 1.66535 -0.64527
# Poissons Ratio (z) = 2.07147 1.40227
#
# Static dielectric constant tensor:
#      x y z
#    x 1.891610 0.023780 -0.027690 
#    y 0.023780 2.059800 0.023480 
#    z -0.027690 0.023480 1.921610 
# 
# From -- ./inp_files/185031.got.cif
#   From: 2010.05.17/outbox.cif.g08.bks.cpg/sg2_93_cif.got.tgz:185031.got - 2010.06.03 11:33:40.
