data_PCOD9076986
_publ_section_title
;
Structure prediction by ZEFSAII (Michael W. Deem and Ramdas Pophale) SiO2 
 PCOD9076986
Probable space group: P -1
;
_chemical_formula_sum "Si O2"
_cell_formula_units_Z 10
_cell_length_a 7.794267
_cell_length_b 10.830246
_cell_length_c 9.038696
_cell_angle_alpha 137.182032
_cell_angle_beta 54.460364
_cell_angle_gamma 106.523717
_cell_volume 407.840910
_symmetry_space_group_name_H-M "P -1"
_symmetry_group_IT_number 2
_symmetry_cell_setting 'triclinic'
loop_
_space_group_symop_operation_xyz
x,y,z
-x,-y,-z
loop_
_atom_site_type_symbol
_atom_site_label
_atom_site_fract_x
_atom_site_fract_y
_atom_site_fract_z
Si Si1 0.781961 0.488670 0.681145
Si Si2 0.360540 0.667755 0.906435
Si Si3 0.220367 0.910995 0.723769
Si Si4 0.062758 0.798235 0.416490
Si Si5 0.589902 0.760789 0.583960
O O1 0.565280 0.647264 0.899428
O O2 0.736122 0.311042 0.465244
O O3 0.000000 0.500000 0.500000
O O4 0.830774 0.414945 0.757921
O O5 0.437273 0.750094 0.792045
O O6 0.327774 0.458800 0.705077
O O7 0.149877 0.793503 0.203698
O O8 0.450164 0.921964 0.684444
O O9 0.160429 0.925333 0.593441
O O10 0.000000 0.000000 0.000000
O O11 0.806961 0.819711 0.575532
#
# Coordination Sequence:
#
# PCOD9076986 Si02
#       5
#     2   2   2   2   2
#     4   9  17  33  57  79 107 140 174 221 270 309
#     4  10  18  34  53  85 111 133 177 231 268 312
#     4   9  21  37  54  78 111 146 179 217 268 323
#     4  10  20  34  55  81 109 141 176 222 271 317
#     4  10  20  33  55  81 109 139 177 224 271 314
#
# _framework density 24.519363999999999
#
# number of rings (size 3 to 8) (size 9 to 14) (size 15 to 20)
#    1.200    1.200    2.000    1.200    0.000    0.800 
#    0.000    1.000    0.000    6.000    0.000    0.000 
#    0.000    0.000    0.000    0.000    0.000    0.000 
#
# Total GULP energy -55715.635926 kJ/mol
# GULP energy per Si atom -5571.563593 kJ/mol
# Density = 2.446356 g / cm^3
# Si number density = 24.519364 Si / 1000 Ang^3
#
#
#
# Elastic Constant Matrix: (Units=GPa)
#
#
# Indices 1 2 3 4 5 6 
#
# 1 113.2625 38.3204 23.1175 -1.7484 -16.9731 -43.5878
# 2 38.3204 69.2776 19.7560 -7.7110 4.6827 -7.7491
# 3 23.1175 19.7560 118.2066 -21.3816 12.4173 -13.5293
# 4 -1.7484 -7.7110 -21.3816 39.0469 -3.3711 2.1925
# 5 -16.9731 4.6827 12.4173 -3.3711 27.7721 2.5513
# 6 -43.5878 -7.7491 -13.5293 2.1925 2.5513 31.3363
#
#
#
# Elastic Compliance Matrix: (Units=1/GPa)
#
#
# Indices 1 2 3 4 5 6 
#
# 1 0.031355 -0.014134 -0.001906 -0.002963 0.018548 0.037993
# 2 -0.014134 0.021979 -0.000861 0.003132 -0.010295 -0.013978
# 3 -0.001906 -0.000861 0.010653 0.005015 -0.005341 0.001820
# 4 -0.002963 0.003132 0.005015 0.028951 -0.000778 -0.003144
# 5 0.018548 -0.010295 -0.005341 -0.000778 0.049816 0.016947
# 6 0.037993 -0.013978 0.001820 -0.003144 0.016947 0.080928
#
#
# Mechanical properties :
#
#
# Convention : Reuss Voigt Hill
#
# Bulk Modulus (GPa) = 33.12844 51.45937 42.29390
# Shear Modulus (GPa) = 18.68835 34.26792 26.47813
#
# Velocity S-wave (km/s) = 2.76377 3.74249 3.28973
# Velocity P-wave (km/s) = 4.87083 6.30141 5.63173
#
# Compressibility (1/GPa) = 0.03018555
#
# Stress axis : x y z
#
# Youngs Moduli (GPa) = 31.89275 45.49705 93.87261
#
# Poissons Ratio (x) = 0.64306 0.17889
# Poissons Ratio (y) = 0.45078 0.08083
# Poissons Ratio (z) = 0.06078 0.03918
#
# Static dielectric constant tensor:
#      x y z
#    x 5.044370 -0.882440 -0.528760 
#    y -0.882440 2.234350 0.178730 
#    z -0.528760 0.178730 2.035000 
# 
# From -- ./inp_files/22749.got.cif
#   From: 2010.05.17/outbox.cif.g08.bks.cpg/sg2_12_cif.got.tgz:22749.got - 2010.06.03 11:33:40.
