data_PCOD9076325
_publ_section_title
;
Structure prediction by ZEFSAII (Michael W. Deem and Ramdas Pophale) SiO2 
 PCOD9076325
Probable space group: P -1
;
_chemical_formula_sum "Si O2"
_cell_formula_units_Z 16
_cell_length_a 15.773296
_cell_length_b 11.445585
_cell_length_c 8.433355
_cell_angle_alpha 71.270883
_cell_angle_beta 118.496066
_cell_angle_gamma 57.636340
_cell_volume 712.061568
_symmetry_space_group_name_H-M "P -1"
_symmetry_group_IT_number 2
_symmetry_cell_setting 'triclinic'
loop_
_space_group_symop_operation_xyz
x,y,z
-x,-y,-z
loop_
_atom_site_type_symbol
_atom_site_label
_atom_site_fract_x
_atom_site_fract_y
_atom_site_fract_z
Si Si1 0.673929 0.864794 0.793942
Si Si2 0.695621 0.443234 0.794185
Si Si3 0.198712 0.796140 0.304817
Si Si4 0.690369 0.557088 0.237919
Si Si5 0.831750 0.755818 0.686752
Si Si6 0.921224 0.366200 0.245089
Si Si7 0.449589 0.665814 0.766343
Si Si8 0.421581 0.191447 0.669461
O O1 0.752964 0.879099 0.734148
O O2 0.500000 0.000000 0.500000
O O3 0.614281 0.968199 0.870473
O O4 0.800406 0.615268 0.015732
O O5 0.722282 0.304430 0.755889
O O6 0.558852 0.546268 0.755763
O O7 0.639222 0.625308 0.567981
O O8 0.856220 0.323727 0.093103
O O9 0.263439 0.608126 0.540122
O O10 0.259346 0.841974 0.453958
O O11 0.000000 0.000000 0.000000
O O12 0.865153 0.391597 0.363598
O O13 0.618657 0.734759 0.216909
O O14 0.530638 0.696529 0.917074
O O15 0.696801 0.800673 0.478309
O O16 0.896114 0.783746 0.598328
O O17 0.000000 0.500000 0.000000
O O18 0.500000 0.500000 0.000000
#
# Coordination Sequence:
#
# PCOD9076325 Si02
#       8
#     2   2   2   2   2   2   2   2
#     4   9  16  30  53  80 114 150 197 234 264 329
#     4  10  18  34  61  80 111 154 198 228 280 363
#     4  10  21  40  62  87 110 145 194 249 293 347
#     4   9  21  36  60  85 122 152 193 232 298 356
#     4   9  16  30  53  78 118 155 191 229 282 327
#     4  10  18  34  54  84 117 162 181 235 291 328
#     4   9  19  39  61  82 111 149 184 239 313 347
#     4  10  18  33  54  86 113 158 197 229 269 341
#
# _framework density 22.469968000000001
#
# number of rings (size 3 to 8) (size 9 to 14) (size 15 to 20)
#    0.000    2.500    3.750    0.375    0.000    1.000 
#    2.250    5.625    0.000   12.000    0.000    0.000 
#    0.000    0.000    0.000    0.000    0.000    0.000 
#
# Total GULP energy -89114.148596 kJ/mol
# GULP energy per Si atom -5569.634287 kJ/mol
# Density = 2.241882 g / cm^3
# Si number density = 22.469968 Si / 1000 Ang^3
#
#
#
# Elastic Constant Matrix: (Units=GPa)
#
#
# Indices 1 2 3 4 5 6 
#
# 1 107.9825 48.4715 14.2230 14.3449 14.9634 -33.8485
# 2 48.4715 123.5190 36.6014 24.8382 7.9278 -31.4674
# 3 14.2230 36.6014 70.6408 14.3846 16.5183 -5.3307
# 4 14.3449 24.8382 14.3846 22.9874 -4.0313 -7.0137
# 5 14.9634 7.9278 16.5183 -4.0313 30.6424 -2.8368
# 6 -33.8485 -31.4674 -5.3307 -7.0137 -2.8368 44.7487
#
#
#
# Elastic Compliance Matrix: (Units=1/GPa)
#
#
# Indices 1 2 3 4 5 6 
#
# 1 0.014552 -0.002466 0.002119 -0.006663 -0.007747 0.007990
# 2 -0.002466 0.013598 -0.004120 -0.008949 -0.000737 0.005757
# 3 0.002119 -0.004120 0.021599 -0.013261 -0.013510 -0.001656
# 4 -0.006663 -0.008949 -0.013261 0.069236 0.021763 -0.000681
# 5 -0.007747 -0.000737 -0.013510 0.021763 0.046604 -0.001623
# 6 0.007990 0.005757 -0.001656 -0.000681 -0.001623 0.032032
#
#
# Mechanical properties :
#
#
# Convention : Reuss Voigt Hill
#
# Bulk Modulus (GPa) = 24.50075 55.63711 40.06893
# Shear Modulus (GPa) = 22.71089 33.19878 27.95484
#
# Velocity S-wave (km/s) = 3.18263 3.84796 3.53100
# Velocity P-wave (km/s) = 4.94297 6.67509 5.87324
#
# Compressibility (1/GPa) = 0.04081508
#
# Stress axis : x y z
#
# Youngs Moduli (GPa) = 68.71982 73.54193 46.29942
#
# Poissons Ratio (x) = 0.18133 -0.09811
# Poissons Ratio (y) = 0.16944 0.19075
# Poissons Ratio (z) = -0.14562 0.30299
#
# Static dielectric constant tensor:
#      x y z
#    x 1.918940 -0.016890 -0.006780 
#    y -0.016890 1.916050 -0.010050 
#    z -0.006780 -0.010050 1.875960 
# 
# From -- ./inp_files/307148.got.cif
#   From: 2010.05.17/outbox.cif.g08.bks.cpg/sg2_154_cif.got.tgz:307148.got - 2010.06.03 11:33:40.
