data_PCOD9076243
_publ_section_title
;
Structure prediction by ZEFSAII (Michael W. Deem and Ramdas Pophale) SiO2 
 PCOD9076243
Probable space group: P -1
;
_chemical_formula_sum "Si O2"
_cell_formula_units_Z 16
_cell_length_a 9.421900
_cell_length_b 17.046652
_cell_length_c 19.213847
_cell_angle_alpha 21.370445
_cell_angle_beta 143.786484
_cell_angle_gamma 134.022508
_cell_volume 641.151202
_symmetry_space_group_name_H-M "P -1"
_symmetry_group_IT_number 2
_symmetry_cell_setting 'triclinic'
loop_
_space_group_symop_operation_xyz
x,y,z
-x,-y,-z
loop_
_atom_site_type_symbol
_atom_site_label
_atom_site_fract_x
_atom_site_fract_y
_atom_site_fract_z
Si Si1 0.896125 0.273659 0.501047
Si Si2 0.591058 0.759126 0.206483
Si Si3 0.732518 0.488950 0.651442
Si Si4 0.873020 0.363636 0.115420
Si Si5 0.489581 0.758209 0.724523
Si Si6 0.363438 0.199570 0.521427
Si Si7 0.759970 0.867224 0.868976
Si Si8 0.486795 0.390979 0.838666
O O1 0.785742 0.254180 0.396717
O O2 0.857323 0.058099 0.707171
O O3 0.711585 0.487242 0.284892
O O4 0.162730 0.316966 0.585914
O O5 0.349056 0.667109 0.193650
O O6 0.640749 0.732830 0.166027
O O7 0.500000 0.000000 0.000000
O O8 0.500000 0.500000 0.500000
O O9 0.689472 0.720452 0.485569
O O10 0.998526 0.339168 0.855574
O O11 0.096881 0.205016 0.377676
O O12 0.692266 0.553914 0.935848
O O13 0.716962 0.255395 0.088377
O O14 0.000000 0.500000 0.000000
O O15 0.500000 0.000000 0.500000
O O16 0.568909 0.774637 0.821758
O O17 0.597742 0.992378 0.766190
O O18 0.442257 0.399656 0.344469
#
# Coordination Sequence:
#
# PCOD9076243 Si02
#       8
#     2   2   2   2   2   2   2   2
#     4   9  17  30  49  78 108 136 169 210 269 311
#     4  11  20  32  51  75 108 139 172 216 260 312
#     4  11  23  38  54  76 108 143 178 216 258 314
#     4   9  14  25  43  73 107 133 168 209 269 309
#     4   9  16  25  47  78 107 134 165 222 262 306
#     4   9  18  31  51  75 103 139 171 219 264 306
#     4  10  18  33  53  79 107 132 178 224 256 305
#     4   8  17  27  46  76 107 136 164 214 263 313
#
# _framework density 24.955112
#
# number of rings (size 3 to 8) (size 9 to 14) (size 15 to 20)
#    0.000    2.500    2.500    2.625    0.000    1.500 
#    0.000    0.000    0.000    0.750    0.000    1.750 
#    0.000    0.000    0.000    0.000    0.000    0.000 
#
# Total GULP energy -89206.179492 kJ/mol
# GULP energy per Si atom -5575.386218 kJ/mol
# Density = 2.489831 g / cm^3
# Si number density = 24.955112 Si / 1000 Ang^3
#
#
#
# Elastic Constant Matrix: (Units=GPa)
#
#
# Indices 1 2 3 4 5 6 
#
# 1 67.4918 23.1524 36.7599 -8.7600 13.1420 13.6682
# 2 23.1524 164.4457 90.6087 9.9991 23.9188 -15.1525
# 3 36.7599 90.6087 177.0579 18.7187 32.2310 -22.7767
# 4 -8.7600 9.9991 18.7187 38.5623 2.7200 3.2754
# 5 13.1420 23.9188 32.2310 2.7200 35.7422 -3.4768
# 6 13.6682 -15.1525 -22.7767 3.2754 -3.4768 38.8204
#
#
#
# Elastic Compliance Matrix: (Units=1/GPa)
#
#
# Indices 1 2 3 4 5 6 
#
# 1 0.023636 -0.001042 -0.006443 0.010239 -0.004300 -0.013758
# 2 -0.001042 0.008680 -0.003590 -0.000735 -0.001983 0.001533
# 3 -0.006443 -0.003590 0.011224 -0.006337 -0.004126 0.007618
# 4 0.010239 -0.000735 -0.006337 0.032486 -0.001046 -0.010445
# 5 -0.004300 -0.001983 -0.004126 -0.001046 0.034836 0.001527
# 6 -0.013758 0.001533 0.007618 -0.010445 0.001527 0.036690
#
#
# Mechanical properties :
#
#
# Convention : Reuss Voigt Hill
#
# Bulk Modulus (GPa) = 46.75194 78.89305 62.82250
# Shear Modulus (GPa) = 28.27540 39.85662 34.06601
#
# Velocity S-wave (km/s) = 3.36973 4.00075 3.69872
# Velocity P-wave (km/s) = 5.82368 7.28175 6.59315
#
# Compressibility (1/GPa) = 0.02138949
#
# Stress axis : x y z
#
# Youngs Moduli (GPa) = 42.30781 115.20597 89.09760
#
# Poissons Ratio (x) = 0.12008 0.57409
# Poissons Ratio (y) = 0.04410 0.31982
# Poissons Ratio (z) = 0.27261 0.41354
#
# Static dielectric constant tensor:
#      x y z
#    x 2.132430 -0.171150 -0.213740 
#    y -0.171150 2.296980 0.140380 
#    z -0.213740 0.140380 1.998150 
# 
# From -- ./inp_files/252217.got.cif
#   From: 2010.05.17/outbox.cif.g08.bks.cpg/sg2_127_cif.got.tgz:252217.got - 2010.06.03 11:33:40.
