data_PCOD9076818
_publ_section_title
;
Structure prediction by ZEFSAII (Michael W. Deem and Ramdas Pophale) SiO2 
 PCOD9076818
Probable space group: P -1
;
_chemical_formula_sum "Si O2"
_cell_formula_units_Z 16
_cell_length_a 9.040818
_cell_length_b 13.769938
_cell_length_c 18.302808
_cell_angle_alpha 25.717797
_cell_angle_beta 40.918739
_cell_angle_gamma 41.671762
_cell_volume 629.819158
_symmetry_space_group_name_H-M "P -1"
_symmetry_group_IT_number 2
_symmetry_cell_setting 'triclinic'
loop_
_space_group_symop_operation_xyz
x,y,z
-x,-y,-z
loop_
_atom_site_type_symbol
_atom_site_label
_atom_site_fract_x
_atom_site_fract_y
_atom_site_fract_z
Si Si1 0.025832 0.746994 0.974877
Si Si2 0.119693 0.913415 0.333879
Si Si3 0.018121 0.472009 0.597532
Si Si4 0.209025 0.986851 0.873154
Si Si5 0.442860 0.487481 0.916579
Si Si6 0.647907 0.924249 0.570829
Si Si7 0.516709 0.578816 0.676446
Si Si8 0.548209 0.767610 0.188651
O O1 0.123266 0.925873 0.866688
O O2 0.221479 0.531875 0.022501
O O3 0.940090 0.875030 0.843936
O O4 0.826080 0.690159 0.139239
O O5 0.402053 0.831456 0.274662
O O6 0.057262 0.697376 0.464734
O O7 0.921034 0.936099 0.455578
O O8 0.749260 0.473194 0.709449
O O9 0.000000 0.500000 0.500000
O O10 0.213761 0.251607 0.693077
O O11 0.425604 0.778951 0.948486
O O12 0.000000 0.000000 0.000000
O O13 0.588487 0.672017 0.769672
O O14 0.348305 0.552243 0.824878
O O15 0.500000 0.000000 0.500000
O O16 0.530820 0.150715 0.508797
O O17 0.517982 0.422398 0.711416
O O18 0.500000 0.000000 0.000000
#
# Coordination Sequence:
#
# PCOD9076818 Si02
#       8
#     2   2   2   2   2   2   2   2
#     4  11  22  40  54  83 127 160 195 243 302 361
#     4  11  18  35  59  89 113 149 199 254 296 330
#     4  12  19  33  63  93 116 145 206 259 291 346
#     4  12  24  37  61  91 122 157 197 253 311 356
#     4  11  22  37  59  91 125 154 192 253 316 353
#     4  10  18  33  60  89 122 145 192 260 298 341
#     4  11  19  35  61  93 117 152 204 248 301 348
#     4  10  23  35  56  88 122 163 198 251 288 359
#
# _framework density 25.404119000000001
#
# number of rings (size 3 to 8) (size 9 to 14) (size 15 to 20)
#    0.000    1.000    8.750    1.125    0.000    0.500 
#    0.000    0.000    0.000    6.000    0.000    0.000 
#    0.000    0.000    0.000    0.000    0.000    0.000 
#
# Total GULP energy -89123.945868 kJ/mol
# GULP energy per Si atom -5570.246617 kJ/mol
# Density = 2.534630 g / cm^3
# Si number density = 25.404119 Si / 1000 Ang^3
#
#
#
# Elastic Constant Matrix: (Units=GPa)
#
#
# Indices 1 2 3 4 5 6 
#
# 1 32.4783 19.4143 12.4705 -8.7983 -2.9355 -0.0018
# 2 19.4143 199.3037 43.1770 -12.2664 -4.2792 -11.0933
# 3 12.4705 43.1770 63.0768 -19.8987 -11.6699 -10.6478
# 4 -8.7983 -12.2664 -19.8987 62.3003 0.2673 -10.0855
# 5 -2.9355 -4.2792 -11.6699 0.2673 23.4207 -1.0295
# 6 -0.0018 -11.0933 -10.6478 -10.0855 -1.0295 26.6830
#
#
#
# Elastic Compliance Matrix: (Units=1/GPa)
#
#
# Indices 1 2 3 4 5 6 
#
# 1 0.034759 -0.002321 -0.004362 0.002795 0.001658 -0.001583
# 2 -0.002321 0.006084 -0.003808 -0.000197 -0.001035 0.000895
# 3 -0.004362 -0.003808 0.026774 0.009250 0.012568 0.013082
# 4 0.002795 -0.000197 0.009250 0.021257 0.005201 0.011845
# 5 0.001658 -0.001035 0.012568 0.005201 0.049290 0.008453
# 6 -0.001583 0.000895 0.013082 0.011845 0.008453 0.047872
#
#
# Mechanical properties :
#
#
# Convention : Reuss Voigt Hill
#
# Bulk Modulus (GPa) = 21.44314 49.44249 35.44281
# Shear Modulus (GPa) = 22.46537 37.13394 29.79965
#
# Velocity S-wave (km/s) = 2.97698 3.82740 3.42866
# Velocity P-wave (km/s) = 4.50285 6.24793 5.44575
#
# Compressibility (1/GPa) = 0.04663497
#
# Stress axis : x y z
#
# Youngs Moduli (GPa) = 28.76936 164.36290 37.34931
#
# Poissons Ratio (x) = 0.38157 0.16290
# Poissons Ratio (y) = 0.06679 0.14223
# Poissons Ratio (z) = 0.12548 0.62593
#
# Static dielectric constant tensor:
#      x y z
#    x 2.014040 -0.134440 -0.072650 
#    y -0.134440 2.619970 0.405600 
#    z -0.072650 0.405600 2.263230 
# 
# From -- ./inp_files/281776.got.cif
#   From: 2010.05.17/outbox.cif.g08.bks.cpg/sg2_141_cif.got.tgz:281776.got - 2010.06.03 11:33:40.
