data_PCOD9076261
_publ_section_title
;
Structure prediction by ZEFSAII (Michael W. Deem and Ramdas Pophale) SiO2 
 PCOD9076261
Probable space group: P -1
;
_chemical_formula_sum "Si O2"
_cell_formula_units_Z 12
_cell_length_a 5.406583
_cell_length_b 7.305995
_cell_length_c 13.273176
_cell_angle_alpha 87.819227
_cell_angle_beta 60.384668
_cell_angle_gamma 88.683309
_cell_volume 455.468602
_symmetry_space_group_name_H-M "P -1"
_symmetry_group_IT_number 2
_symmetry_cell_setting 'triclinic'
loop_
_space_group_symop_operation_xyz
x,y,z
-x,-y,-z
loop_
_atom_site_type_symbol
_atom_site_label
_atom_site_fract_x
_atom_site_fract_y
_atom_site_fract_z
Si Si1 0.160150 0.033957 0.072991
Si Si2 0.675831 0.201268 0.459614
Si Si3 0.433973 0.331164 0.125645
Si Si4 0.091976 0.653022 0.136386
Si Si5 0.443905 0.460988 0.656302
Si Si6 0.700083 0.811438 0.642101
O O1 0.061430 0.866815 0.166448
O O2 0.179257 0.235187 0.112508
O O3 0.500000 0.000000 0.000000
O O4 0.000000 0.000000 0.000000
O O5 0.536644 0.275063 0.588484
O O6 0.722682 0.400586 0.388776
O O7 0.468892 0.107995 0.420714
O O8 0.987067 0.116495 0.406961
O O9 0.299858 0.531529 0.166252
O O10 0.466758 0.198982 0.218310
O O11 0.726543 0.350306 0.004181
O O12 0.776217 0.575354 0.208750
O O13 0.709051 0.593338 0.620366
#
# Coordination Sequence:
#
# PCOD9076261 Si02
#       6
#     2   2   2   2   2   2
#     4  10  24  42  57  83 122 157 189 237 291 346
#     4   9  19  32  53  84 117 146 197 235 283 337
#     4  10  21  37  63  86 123 150 194 242 293 345
#     4  10  21  38  60  92 114 156 196 236 291 353
#     4   9  19  31  56  83 116 148 197 235 281 343
#     4  10  18  33  53  84 111 153 187 235 290 336
#
# _framework density 26.346489999999999
#
# number of rings (size 3 to 8) (size 9 to 14) (size 15 to 20)
#    1.000    1.333    1.667    0.500    0.000   10.667 
#    0.000    0.000    0.000    2.000    0.000    0.000 
#    0.000    0.000    0.000    0.000    0.000    0.000 
#
# Total GULP energy -66896.231172 kJ/mol
# GULP energy per Si atom -5574.685931 kJ/mol
# Density = 2.628652 g / cm^3
# Si number density = 26.346490 Si / 1000 Ang^3
#
#
#
# Elastic Constant Matrix: (Units=GPa)
#
#
# Indices 1 2 3 4 5 6 
#
# 1 158.1551 0.5724 40.5476 0.9296 0.8761 22.3964
# 2 0.5724 80.9098 -9.5369 1.2489 -3.3403 5.8941
# 3 40.5476 -9.5369 116.3466 0.4920 -9.0952 13.2605
# 4 0.9296 1.2489 0.4920 25.9282 10.6631 -2.6865
# 5 0.8761 -3.3403 -9.0952 10.6631 38.2823 -6.1386
# 6 22.3964 5.8941 13.2605 -2.6865 -6.1386 33.2804
#
#
#
# Elastic Compliance Matrix: (Units=1/GPa)
#
#
# Indices 1 2 3 4 5 6 
#
# 1 0.007532 -0.000049 -0.002231 -0.000115 -0.001386 -0.004436
# 2 -0.000049 0.012816 0.001495 -0.001526 0.001469 -0.002685
# 3 -0.002231 0.001495 0.009975 -0.001491 0.002585 -0.002381
# 4 -0.000115 -0.001526 -0.001491 0.043996 -0.012385 0.002209
# 5 -0.001386 0.001469 0.002585 -0.012385 0.031046 0.004369
# 6 -0.004436 -0.002685 -0.002381 0.002209 0.004369 0.035441
#
#
# Mechanical properties :
#
#
# Convention : Reuss Voigt Hill
#
# Bulk Modulus (GPa) = 34.77971 46.50864 40.64417
# Shear Modulus (GPa) = 32.90335 41.08673 36.99504
#
# Velocity S-wave (km/s) = 3.53777 3.95330 3.75130
# Velocity P-wave (km/s) = 5.46967 6.20719 5.85006
#
# Compressibility (1/GPa) = 0.02875240
#
# Stress axis : x y z
#
# Youngs Moduli (GPa) = 132.77398 78.02886 100.25200
#
# Poissons Ratio (x) = 0.00379 0.22367
# Poissons Ratio (y) = 0.00645 -0.14985
# Poissons Ratio (z) = 0.29623 -0.11663
#
# Static dielectric constant tensor:
#      x y z
#    x 2.141730 0.031370 0.097660 
#    y 0.031370 2.240690 0.018360 
#    z 0.097660 0.018360 2.150460 
# 
# From -- ./inp_files/478530.got.cif
#   From: 2010.05.17/outbox.cif.g08.bks.cpg/sg2_240_cif.got.tgz:478530.got - 2010.06.03 11:33:40.
