data_PCOD9076998
_publ_section_title
;
Structure prediction by ZEFSAII (Michael W. Deem and Ramdas Pophale) SiO2 
 PCOD9076998
Probable space group: P -1
;
_chemical_formula_sum "Si O2"
_cell_formula_units_Z 16
_cell_length_a 10.597455
_cell_length_b 8.964127
_cell_length_c 13.281094
_cell_angle_alpha 104.709701
_cell_angle_beta 96.247789
_cell_angle_gamma 140.438500
_cell_volume 675.574666
_symmetry_space_group_name_H-M "P -1"
_symmetry_group_IT_number 2
_symmetry_cell_setting 'triclinic'
loop_
_space_group_symop_operation_xyz
x,y,z
-x,-y,-z
loop_
_atom_site_type_symbol
_atom_site_label
_atom_site_fract_x
_atom_site_fract_y
_atom_site_fract_z
Si Si1 0.181544 0.241840 0.141267
Si Si2 0.948763 0.598708 0.737972
Si Si3 0.069975 0.851369 0.180278
Si Si4 0.655172 0.196628 0.274857
Si Si5 0.825536 0.706332 0.310318
Si Si6 0.388090 0.003221 0.401100
Si Si7 0.339052 0.258400 0.528828
Si Si8 0.213692 0.568035 0.091831
O O1 0.098407 0.267410 0.232126
O O2 0.230600 0.128681 0.178849
O O3 0.317859 0.508442 0.133165
O O4 0.000000 0.000000 0.000000
O O5 0.166549 0.758086 0.725814
O O6 0.955980 0.566457 0.852844
O O7 0.745095 0.283857 0.628327
O O8 0.223801 0.922207 0.289165
O O9 0.870322 0.746172 0.202129
O O10 0.934458 0.608362 0.049261
O O11 0.746595 0.452176 0.285847
O O12 0.606426 0.178107 0.384793
O O13 0.415205 0.894346 0.156902
O O14 0.669145 0.669448 0.350715
O O15 0.079041 0.998078 0.423626
O O16 0.409442 0.151509 0.514532
O O17 0.500000 0.500000 0.500000
#
# Coordination Sequence:
#
# PCOD9076998 Si02
#       8
#     2   2   2   2   2   2   2   2
#     4   8  17  37  56  68 106 157 179 211 259 310
#     4   9  18  35  53  75 108 143 182 211 259 319
#     4  10  18  38  52  79 115 139 181 223 264 306
#     4  11  18  34  51  87 107 135 188 211 269 322
#     4  10  21  31  53  85 108 133 175 231 267 316
#     4  10  20  33  56  80 108 139 174 229 269 312
#     4  10  18  34  54  78 108 139 170 219 282 323
#     4   8  20  34  54  72 108 155 174 211 255 315
#
# _framework density 23.683543
#
# number of rings (size 3 to 8) (size 9 to 14) (size 15 to 20)
#    0.750    1.750    3.750    0.000    0.000    2.500 
#    2.250    3.750    0.000    0.750    0.000   12.250 
#    0.000    0.000    0.000    0.000    0.000    0.000 
#
# Total GULP energy -89114.791264 kJ/mol
# GULP energy per Si atom -5569.674454 kJ/mol
# Density = 2.362964 g / cm^3
# Si number density = 23.683543 Si / 1000 Ang^3
#
#
#
# Elastic Constant Matrix: (Units=GPa)
#
#
# Indices 1 2 3 4 5 6 
#
# 1 53.8493 21.0418 33.2037 5.0908 -11.8385 -1.7799
# 2 21.0418 105.2784 44.6625 26.2814 3.3813 1.8357
# 3 33.2037 44.6625 87.6193 5.0208 -28.1239 -1.1830
# 4 5.0908 26.2814 5.0208 36.7100 -11.0507 -4.6974
# 5 -11.8385 3.3813 -28.1239 -11.0507 38.0461 -5.8455
# 6 -1.7799 1.8357 -1.1830 -4.6974 -5.8455 43.9800
#
#
#
# Elastic Compliance Matrix: (Units=1/GPa)
#
#
# Indices 1 2 3 4 5 6 
#
# 1 0.024516 -0.001550 -0.007812 -0.000479 0.002016 0.001064
# 2 -0.001550 0.023867 -0.017910 -0.022375 -0.023424 -0.007044
# 3 -0.007812 -0.017910 0.031972 0.019356 0.029536 0.007285
# 4 -0.000479 -0.022375 0.019356 0.052076 0.033023 0.011386
# 5 0.002016 -0.023424 0.029536 0.033023 0.062522 0.013691
# 6 0.001064 -0.007044 0.007285 0.011386 0.013691 0.026306
#
#
# Mechanical properties :
#
#
# Convention : Reuss Voigt Hill
#
# Bulk Modulus (GPa) = 38.74036 49.39588 44.06812
# Shear Modulus (GPa) = 17.58042 33.60317 25.59180
#
# Velocity S-wave (km/s) = 2.72748 3.77084 3.29077
# Velocity P-wave (km/s) = 5.12951 6.31354 5.75208
#
# Compressibility (1/GPa) = 0.02581287
#
# Stress axis : x y z
#
# Youngs Moduli (GPa) = 40.78919 41.89857 31.27705
#
# Poissons Ratio (x) = 0.06494 0.24432
# Poissons Ratio (y) = 0.06322 0.56017
# Poissons Ratio (z) = 0.31862 0.75040
#
# Static dielectric constant tensor:
#      x y z
#    x 2.087430 -0.002220 0.018850 
#    y -0.002220 1.912320 0.014470 
#    z 0.018850 0.014470 1.928050 
# 
# From -- ./inp_files/515935.got.cif
#   From: 2010.05.17/outbox.cif.g08.bks.cpg/sg2_258_cif.got.tgz:515935.got - 2010.06.03 11:33:40.
