data_PCOD9076288
_publ_section_title
;
Structure prediction by ZEFSAII (Michael W. Deem and Ramdas Pophale) SiO2 
 PCOD9076288
Probable space group: P -1
;
_chemical_formula_sum "Si O2"
_cell_formula_units_Z 16
_cell_length_a 13.631667
_cell_length_b 10.628673
_cell_length_c 15.592800
_cell_angle_alpha 131.110340
_cell_angle_beta 151.036351
_cell_angle_gamma 40.813671
_cell_volume 714.976078
_symmetry_space_group_name_H-M "P -1"
_symmetry_group_IT_number 2
_symmetry_cell_setting 'triclinic'
loop_
_space_group_symop_operation_xyz
x,y,z
-x,-y,-z
loop_
_atom_site_type_symbol
_atom_site_label
_atom_site_fract_x
_atom_site_fract_y
_atom_site_fract_z
Si Si1 0.698586 0.289776 0.366740
Si Si2 0.512164 0.182424 0.860342
Si Si3 0.808552 0.977950 0.651206
Si Si4 0.082000 0.477513 0.306174
Si Si5 0.307521 0.030334 0.255727
Si Si6 0.596469 0.784689 0.013454
Si Si7 0.135276 0.553225 0.697044
Si Si8 0.182032 0.989642 0.510612
O O1 0.722424 0.471646 0.492653
O O2 0.924205 0.142347 0.416185
O O3 0.709407 0.177474 0.411160
O O4 0.479803 0.329365 0.160385
O O5 0.525531 0.193083 0.977404
O O6 0.403029 0.392631 0.827664
O O7 0.327650 0.102644 0.675840
O O8 0.711801 0.048785 0.886754
O O9 0.788533 0.025689 0.758336
O O10 0.802978 0.090030 0.610346
O O11 0.045296 0.776839 0.725662
O O12 0.582597 0.948433 0.451760
O O13 0.192801 0.260790 0.260552
O O14 0.878072 0.659885 0.181136
O O15 0.948941 0.475894 0.288767
O O16 0.500000 0.000000 0.000000
O O17 0.000000 0.500000 0.500000
#
# Coordination Sequence:
#
# PCOD9076288 Si02
#       8
#     2   2   2   2   2   2   2   2
#     4  11  19  33  58  84 112 146 184 234 281 320
#     4  10  18  33  54  89 109 141 189 232 271 335
#     4   9  17  30  54  90 105 148 189 226 276 340
#     4  10  21  35  53  87 111 146 187 229 272 344
#     4   9  18  32  57  82 115 149 184 221 290 336
#     4  11  20  35  60  79 112 150 190 236 273 316
#     4  10  14  27  55  83 106 132 189 233 264 316
#     4  10  17  31  55  84 110 135 191 236 265 331
#
# _framework density 22.37837
#
# number of rings (size 3 to 8) (size 9 to 14) (size 15 to 20)
#    0.000    2.000    6.250    0.750    0.000    0.000 
#    0.000    3.125    5.500   19.500    0.000    0.000 
#    0.000    0.000    0.000    0.000    0.000    0.000 
#
# Total GULP energy -89234.891759 kJ/mol
# GULP energy per Si atom -5577.180735 kJ/mol
# Density = 2.232744 g / cm^3
# Si number density = 22.378370 Si / 1000 Ang^3
#
#
#
# Elastic Constant Matrix: (Units=GPa)
#
#
# Indices 1 2 3 4 5 6 
#
# 1 112.4128 29.8664 27.6938 -0.1910 -33.3652 -7.9827
# 2 29.8664 85.4099 38.5901 -3.0683 -16.4983 -20.5385
# 3 27.6938 38.5901 75.2502 3.3702 -7.1524 3.1508
# 4 -0.1910 -3.0683 3.3702 20.2105 1.8911 -7.1283
# 5 -33.3652 -16.4983 -7.1524 1.8911 40.7458 1.4250
# 6 -7.9827 -20.5385 3.1508 -7.1283 1.4250 21.2197
#
#
#
# Elastic Compliance Matrix: (Units=1/GPa)
#
#
# Indices 1 2 3 4 5 6 
#
# 1 0.013350 0.001645 -0.005239 0.003009 0.010269 0.007714
# 2 0.001645 0.031977 -0.018886 0.021716 0.008535 0.041096
# 3 -0.005239 -0.018886 0.026394 -0.017245 -0.005468 -0.029596
# 4 0.003009 0.021716 -0.017245 0.072633 0.003149 0.048899
# 5 0.010269 0.008535 -0.005468 0.003149 0.034894 0.011650
# 6 0.007714 0.041096 -0.029596 0.048899 0.011650 0.109844
#
#
# Mechanical properties :
#
#
# Convention : Reuss Voigt Hill
#
# Bulk Modulus (GPa) = 37.36612 51.70816 44.53714
# Shear Modulus (GPa) = 14.57848 28.23002 21.40425
#
# Velocity S-wave (km/s) = 2.55513 3.55559 3.09604
# Velocity P-wave (km/s) = 5.04367 6.32557 5.72064
#
# Compressibility (1/GPa) = 0.02676221
#
# Stress axis : x y z
#
# Youngs Moduli (GPa) = 74.90595 31.27225 37.88732
#
# Poissons Ratio (x) = -0.05145 0.19848
# Poissons Ratio (y) = -0.12324 0.71555
# Poissons Ratio (z) = 0.39240 0.59062
#
# Static dielectric constant tensor:
#      x y z
#    x 1.844310 -0.007160 -0.013710 
#    y -0.007160 1.895790 -0.022670 
#    z -0.013710 -0.022670 1.910640 
# 
# From -- ./inp_files/531973.got.cif
#   From: 2010.05.17/outbox.cif.g08.bks.cpg/sg2_266_cif.got.tgz:531973.got - 2010.06.03 11:33:40.
