data_PCOD9076924
_publ_section_title
;
Structure prediction by ZEFSAII (Michael W. Deem and Ramdas Pophale) SiO2 
 PCOD9076924
Probable space group: P -1
;
_chemical_formula_sum "Si O2"
_cell_formula_units_Z 16
_cell_length_a 8.599285
_cell_length_b 6.486055
_cell_length_c 14.016060
_cell_angle_alpha 119.904587
_cell_angle_beta 67.246787
_cell_angle_gamma 103.579241
_cell_volume 624.068655
_symmetry_space_group_name_H-M "P -1"
_symmetry_group_IT_number 2
_symmetry_cell_setting 'triclinic'
loop_
_space_group_symop_operation_xyz
x,y,z
-x,-y,-z
loop_
_atom_site_type_symbol
_atom_site_label
_atom_site_fract_x
_atom_site_fract_y
_atom_site_fract_z
Si Si1 0.782589 0.390590 0.563265
Si Si2 0.086584 0.572874 0.095343
Si Si3 0.884114 0.682078 0.777883
Si Si4 0.152877 0.017892 0.697205
Si Si5 0.580058 0.530667 0.381987
Si Si6 0.517438 0.997380 0.276673
Si Si7 0.381421 0.926324 0.096865
Si Si8 0.174114 0.166294 0.489637
O O1 0.859759 0.450538 0.662576
O O2 0.579051 0.380520 0.616761
O O3 0.840638 0.620750 0.536443
O O4 0.818327 0.154070 0.440184
O O5 0.119892 0.379548 0.124053
O O6 0.975175 0.769886 0.219192
O O7 0.261658 0.699248 0.051283
O O8 0.000000 0.500000 0.000000
O O9 0.739346 0.851031 0.813801
O O10 0.057823 0.825829 0.746388
O O11 0.252579 0.304202 0.597539
O O12 0.334603 0.097577 0.715966
O O13 0.500000 0.500000 0.500000
O O14 0.594691 0.259756 0.285967
O O15 0.475113 0.868532 0.158850
O O16 0.337228 0.031145 0.379658
O O17 0.500000 0.000000 0.000000
O O18 0.000000 0.000000 0.500000
#
# Coordination Sequence:
#
# PCOD9076924 Si02
#       8
#     2   2   2   2   2   2   2   2
#     4  10  18  42  73 110 156 213 246 300 399 465
#     4  11  30  53  73 114 150 199 276 327 391 461
#     4  11  25  47  77 114 158 199 256 331 386 464
#     4  11  23  44  81 112 157 211 251 311 394 473
#     4   8  14  33  64 104 149 198 239 292 372 454
#     4  10  19  42  71 114 148 199 261 302 388 476
#     4  11  26  48  84 110 146 201 255 330 402 453
#     4  10  18  33  70 118 165 202 249 314 376 468
#
# _framework density 25.638202
#
# number of rings (size 3 to 8) (size 9 to 14) (size 15 to 20)
#    0.000    2.000    6.250    0.375    3.500    3.000 
#    0.000    0.000    2.750    1.500    0.000    0.000 
#    0.000    0.000    0.000    0.000    0.000    0.000 
#
# Total GULP energy -89519.929863 kJ/mol
# GULP energy per Si atom -5594.995616 kJ/mol
# Density = 2.557985 g / cm^3
# Si number density = 25.638202 Si / 1000 Ang^3
#
#
#
# Elastic Constant Matrix: (Units=GPa)
#
#
# Indices 1 2 3 4 5 6 
#
# 1 186.3010 34.1699 46.0262 -22.6091 15.8511 33.5770
# 2 34.1699 79.3527 -10.9916 -10.1544 1.4539 23.7536
# 3 46.0262 -10.9916 86.4482 -22.3296 11.2295 24.0827
# 4 -22.6091 -10.1544 -22.3296 30.4186 1.6695 -4.3831
# 5 15.8511 1.4539 11.2295 1.6695 61.1138 -5.8889
# 6 33.5770 23.7536 24.0827 -4.3831 -5.8889 67.0377
#
#
#
# Elastic Compliance Matrix: (Units=1/GPa)
#
#
# Indices 1 2 3 4 5 6 
#
# 1 0.007303 -0.002819 -0.003090 0.002077 -0.001464 -0.001542
# 2 -0.002819 0.018734 0.008927 0.009689 -0.002392 -0.008010
# 3 -0.003090 0.008927 0.021321 0.015336 -0.004583 -0.008675
# 4 0.002077 0.009689 0.015336 0.048163 -0.005609 -0.007326
# 5 -0.001464 -0.002392 -0.004583 -0.005609 0.018225 0.004462
# 6 -0.001542 -0.008010 -0.008675 -0.007326 0.004462 0.021556
#
#
# Mechanical properties :
#
#
# Convention : Reuss Voigt Hill
#
# Bulk Modulus (GPa) = 18.72855 54.50122 36.61488
# Shear Modulus (GPa) = 33.99905 50.57384 42.28644
#
# Velocity S-wave (km/s) = 3.64553 4.44621 4.06563
# Velocity P-wave (km/s) = 5.00406 6.90379 6.02922
#
# Compressibility (1/GPa) = 0.05339442
#
# Stress axis : x y z
#
# Youngs Moduli (GPa) = 136.93893 53.38005 46.90128
#
# Poissons Ratio (x) = 0.15045 0.14494
# Poissons Ratio (y) = 0.38597 -0.41870
# Poissons Ratio (z) = 0.42318 -0.47654
#
# Static dielectric constant tensor:
#      x y z
#    x 2.064420 -0.085020 -0.073210 
#    y -0.085020 2.164950 -0.044240 
#    z -0.073210 -0.044240 1.986670 
# 
# From -- ./inp_files/488395.got.cif
#   From: 2010.05.17/outbox.cif.g08.bks.cpg/sg2_245_cif.got.tgz:488395.got - 2010.06.03 11:33:40.
