data_PCOD9076602
_publ_section_title
;
Structure prediction by ZEFSAII (Michael W. Deem and Ramdas Pophale) SiO2 
 PCOD9076602
Probable space group: P -1
;
_chemical_formula_sum "Si O2"
_cell_formula_units_Z 14
_cell_length_a 12.288673
_cell_length_b 9.608598
_cell_length_c 9.518155
_cell_angle_alpha 125.341241
_cell_angle_beta 130.107718
_cell_angle_gamma 90.206177
_cell_volume 559.322161
_symmetry_space_group_name_H-M "P -1"
_symmetry_group_IT_number 2
_symmetry_cell_setting 'triclinic'
loop_
_space_group_symop_operation_xyz
x,y,z
-x,-y,-z
loop_
_atom_site_type_symbol
_atom_site_label
_atom_site_fract_x
_atom_site_fract_y
_atom_site_fract_z
Si Si1 0.690547 0.907760 0.480291
Si Si2 0.009970 0.351815 0.738675
Si Si3 0.118737 0.470436 0.453921
Si Si4 0.711047 0.278298 0.662008
Si Si5 0.452107 0.915660 0.070882
Si Si6 0.203804 0.203418 0.237601
Si Si7 0.022510 0.923918 0.687367
O O1 0.551979 0.834288 0.193827
O O2 0.664306 0.776743 0.522401
O O3 0.869458 0.957078 0.591056
O O4 0.706882 0.113713 0.668612
O O5 0.022527 0.516355 0.735102
O O6 0.850984 0.301437 0.677478
O O7 0.962146 0.148648 0.494684
O O8 0.196222 0.491661 0.059219
O O9 0.210685 0.412141 0.380427
O O10 0.048544 0.285888 0.400416
O O11 0.254590 0.703004 0.769310
O O12 0.519918 0.127498 0.341018
O O13 0.500000 0.000000 0.000000
O O14 0.195352 0.125643 0.027388
O O15 0.000000 0.000000 0.000000
#
# Coordination Sequence:
#
# PCOD9076602 Si02
#       7
#     2   2   2   2   2   2   2
#     4   8  17  34  52  75 107 134 175 213 258 308
#     4  11  19  33  55  81 104 139 178 221 263 306
#     4  10  18  33  58  77 105 143 174 210 266 313
#     4   9  20  34  55  73 103 143 185 212 254 311
#     4  10  19  36  57  76 102 145 187 209 249 326
#     4   8  16  31  52  79 107 133 169 216 260 311
#     4  10  20  31  54  85 112 128 174 225 269 303
#
# _framework density 25.030297999999998
#
# number of rings (size 3 to 8) (size 9 to 14) (size 15 to 20)
#    0.857    2.000    1.429    3.000    0.000    2.857 
#    0.000    0.714    3.143    1.714    0.000    0.000 
#    0.000    0.000    0.000    0.000    0.000    0.000 
#
# Total GULP energy -77952.539147 kJ/mol
# GULP energy per Si atom -5568.038511 kJ/mol
# Density = 2.497333 g / cm^3
# Si number density = 25.030298 Si / 1000 Ang^3
#
#
#
# Elastic Constant Matrix: (Units=GPa)
#
#
# Indices 1 2 3 4 5 6 
#
# 1 56.3060 17.4312 45.1341 -2.2473 -22.1209 -5.0578
# 2 17.4312 97.4083 35.2584 -15.4007 -5.5466 3.0396
# 3 45.1341 35.2584 183.8739 -14.3124 -28.5375 -13.8386
# 4 -2.2473 -15.4007 -14.3124 29.5903 0.7724 6.5901
# 5 -22.1209 -5.5466 -28.5375 0.7724 35.7493 -2.7123
# 6 -5.0578 3.0396 -13.8386 6.5901 -2.7123 21.1011
#
#
#
# Elastic Compliance Matrix: (Units=1/GPa)
#
#
# Indices 1 2 3 4 5 6 
#
# 1 0.028116 -0.003726 -0.003608 -0.003700 0.014622 0.007945
# 2 -0.003726 0.012767 -0.001856 0.006962 -0.002445 -0.006437
# 3 -0.003608 -0.001856 0.007749 0.001388 0.003982 0.004563
# 4 -0.003700 0.006962 0.001388 0.040990 -0.002052 -0.014045
# 5 0.014622 -0.002445 0.003982 -0.002052 0.040802 0.012354
# 6 0.007945 -0.006437 0.004563 -0.014045 0.012354 0.059189
#
#
# Mechanical properties :
#
#
# Convention : Reuss Voigt Hill
#
# Bulk Modulus (GPa) = 33.05316 59.24838 46.15077
# Shear Modulus (GPa) = 22.92776 33.27244 28.10010
#
# Velocity S-wave (km/s) = 3.02983 3.64989 3.35422
# Velocity P-wave (km/s) = 5.04716 6.44083 5.78611
#
# Compressibility (1/GPa) = 0.03025429
#
# Stress axis : x y z
#
# Youngs Moduli (GPa) = 35.56684 78.32816 129.04303
#
# Poissons Ratio (x) = 0.29184 0.46554
# Poissons Ratio (y) = 0.13252 0.23945
# Poissons Ratio (z) = 0.12831 0.14534
#
# Static dielectric constant tensor:
#      x y z
#    x 2.128210 0.045890 -0.045830 
#    y 0.045890 1.987410 -0.024460 
#    z -0.045830 -0.024460 2.001120 
# 
# From -- ./inp_files/463258.got.cif
#   From: 2010.05.17/outbox.cif.g08.bks.cpg/sg2_232_cif.got.tgz:463258.got - 2010.06.03 11:33:40.
