data_PCOD9076502
_publ_section_title
;
Structure prediction by ZEFSAII (Michael W. Deem and Ramdas Pophale) SiO2 
 PCOD9076502
Probable space group: P -1
;
_chemical_formula_sum "Si O2"
_cell_formula_units_Z 15
_cell_length_a 12.130180
_cell_length_b 14.619784
_cell_length_c 11.578623
_cell_angle_alpha 50.186521
_cell_angle_beta 107.506524
_cell_angle_gamma 149.949771
_cell_volume 594.189075
_symmetry_space_group_name_H-M "P -1"
_symmetry_group_IT_number 2
_symmetry_cell_setting 'triclinic'
loop_
_space_group_symop_operation_xyz
x,y,z
-x,-y,-z
loop_
_atom_site_type_symbol
_atom_site_label
_atom_site_fract_x
_atom_site_fract_y
_atom_site_fract_z
Si Si1 0.140519 0.785946 0.851265
Si Si2 0.203343 0.160722 0.327024
Si Si3 0.139222 0.792265 0.260519
Si Si4 0.296034 0.203477 0.934520
Si Si5 0.586701 0.129299 0.288486
Si Si6 0.500000 0.000000 0.000000
Si Si7 0.374748 0.650260 0.683687
Si Si8 0.099878 0.968177 0.832088
O O1 0.263151 0.852838 0.715010
O O2 0.181822 0.962588 0.753805
O O3 0.314725 0.880838 0.929519
O O4 0.803238 0.425335 0.044688
O O5 0.471854 0.504028 0.156894
O O6 0.332587 0.150673 0.379711
O O7 0.040274 0.045075 0.252546
O O8 0.000000 0.000000 0.500000
O O9 0.283691 0.867498 0.132817
O O10 0.794106 0.483765 0.380701
O O11 0.260423 0.836118 0.372911
O O12 0.253619 0.034980 0.111841
O O13 0.353141 0.234099 0.790357
O O14 0.000000 0.000000 0.000000
O O15 0.610694 0.212439 0.353185
O O16 0.139572 0.340338 0.926913
#
# Coordination Sequence:
#
# PCOD9076502 Si02
#       8
#     2   2   2   2   2   1   2   2
#     4   9  16  29  47  84 117 137 180 231 289 332
#     4  12  26  39  56  84 118 155 197 241 284 337
#     4  10  18  29  53  84 117 138 184 233 283 330
#     4  11  20  35  59  85 112 151 194 233 287 333
#     4   9  17  27  50  81 114 144 172 233 287 331
#     4  10  14  28  48  86 120 132 168 242 284 324
#     4  10  19  36  54  83 111 150 188 233 281 336
#     4  10  20  37  59  82 115 149 190 239 280 340
#
# _framework density 25.244489999999999
#
# number of rings (size 3 to 8) (size 9 to 14) (size 15 to 20)
#    0.000    1.867    6.667    2.000    1.867    0.533 
#    0.000    0.000    0.000    0.800    0.000    2.800 
#    0.000    0.000    0.000    0.000    0.000    0.000 
#
# Total GULP energy -83663.957349 kJ/mol
# GULP energy per Si atom -5577.597157 kJ/mol
# Density = 2.518703 g / cm^3
# Si number density = 25.244490 Si / 1000 Ang^3
#
#
#
# Elastic Constant Matrix: (Units=GPa)
#
#
# Indices 1 2 3 4 5 6 
#
# 1 153.9700 24.2344 2.4603 -0.3971 6.1784 7.9514
# 2 24.2344 88.7906 -5.9912 19.7535 12.2749 19.1871
# 3 2.4603 -5.9912 34.8980 5.3997 -7.9163 2.6525
# 4 -0.3971 19.7535 5.3997 27.5208 0.4143 -5.7163
# 5 6.1784 12.2749 -7.9163 0.4143 42.5221 6.3427
# 6 7.9514 19.1871 2.6525 -5.7163 6.3427 56.8736
#
#
#
# Elastic Compliance Matrix: (Units=1/GPa)
#
#
# Indices 1 2 3 4 5 6 
#
# 1 0.006918 -0.002421 -0.001393 0.002162 -0.000617 0.000201
# 2 -0.002421 0.017533 0.005496 -0.015130 -0.002483 -0.007077
# 3 -0.001393 0.005496 0.033151 -0.011593 0.005646 -0.005001
# 4 0.002162 -0.015130 -0.011593 0.051698 -0.000184 0.010559
# 5 -0.000617 -0.002483 0.005646 -0.000184 0.025708 -0.002225
# 6 0.000201 -0.007077 -0.005001 0.010559 -0.002225 0.021485
#
#
# Mechanical properties :
#
#
# Convention : Reuss Voigt Hill
#
# Bulk Modulus (GPa) = 16.40256 35.45172 25.92714
# Shear Modulus (GPa) = 28.82645 42.51364 35.67004
#
# Velocity S-wave (km/s) = 3.38285 4.10820 3.76305
# Velocity P-wave (km/s) = 4.66582 6.04789 5.40124
#
# Compressibility (1/GPa) = 0.06096611
#
# Stress axis : x y z
#
# Youngs Moduli (GPa) = 144.54843 57.03614 30.16459
#
# Poissons Ratio (x) = 0.13810 0.04202
# Poissons Ratio (y) = 0.35000 -0.16579
# Poissons Ratio (z) = 0.20137 -0.31349
#
# Static dielectric constant tensor:
#      x y z
#    x 2.022390 -0.027840 0.021030 
#    y -0.027840 1.970520 0.023050 
#    z 0.021030 0.023050 2.192880 
# 
# From -- ./inp_files/433843.got.cif
#   From: 2010.05.17/outbox.cif.g08.bks.cpg/sg2_217_cif.got.tgz:433843.got - 2010.06.03 11:33:40.
