data_PCOD9076740
_publ_section_title
;
Structure prediction by ZEFSAII (Michael W. Deem and Ramdas Pophale) SiO2 
 PCOD9076740
Probable space group: P -1
;
_chemical_formula_sum "Si O2"
_cell_formula_units_Z 14
_cell_length_a 9.146322
_cell_length_b 8.134527
_cell_length_c 14.961052
_cell_angle_alpha 47.994708
_cell_angle_beta 39.450847
_cell_angle_gamma 52.959348
_cell_volume 516.858498
_symmetry_space_group_name_H-M "P -1"
_symmetry_group_IT_number 2
_symmetry_cell_setting 'triclinic'
loop_
_space_group_symop_operation_xyz
x,y,z
-x,-y,-z
loop_
_atom_site_type_symbol
_atom_site_label
_atom_site_fract_x
_atom_site_fract_y
_atom_site_fract_z
Si Si1 0.947939 0.550461 0.368982
Si Si2 0.789103 0.398899 0.215132
Si Si3 0.833687 0.202807 0.443281
Si Si4 0.362037 0.040386 0.186763
Si Si5 0.239968 0.060904 0.566799
Si Si6 0.429348 0.642193 0.158218
Si Si7 0.160690 0.188548 0.861013
O O1 0.865084 0.700276 0.265490
O O2 0.829454 0.332758 0.489605
O O3 0.225286 0.532696 0.251237
O O4 0.857292 0.692075 0.446484
O O5 0.889693 0.131024 0.255459
O O6 0.607534 0.472853 0.196329
O O7 0.915629 0.611367 0.100317
O O8 0.695980 0.369218 0.371688
O O9 0.112785 0.144327 0.310467
O O10 0.757271 0.978539 0.526002
O O11 0.337728 0.849182 0.194147
O O12 0.576138 0.926619 0.191602
O O13 0.443220 0.244411 0.021238
O O14 0.500000 0.000000 0.500000
O O15 0.000000 0.000000 0.000000
#
# Coordination Sequence:
#
# PCOD9076740 Si02
#       7
#     2   2   2   2   2   2   2
#     4  11  21  38  61  87 120 155 199 241 291 355
#     4   8  20  37  54  85 123 147 203 243 284 351
#     4   9  21  39  55  90 115 153 196 248 286 356
#     4  10  19  33  58  84 129 159 189 230 289 362
#     4  10  22  43  64  81 112 157 202 259 303 330
#     4  10  18  33  59  87 117 165 189 228 297 354
#     4  10  19  36  57  91 127 159 189 230 291 355
#
# _framework density 27.086717
#
# number of rings (size 3 to 8) (size 9 to 14) (size 15 to 20)
#    0.857    1.429    2.857    0.000    0.000    2.857 
#    5.143    0.714    0.000    1.714    0.000    0.000 
#    0.000    0.000    0.000    0.000    0.000    0.000 
#
# Total GULP energy -78190.604968 kJ/mol
# GULP energy per Si atom -5585.043212 kJ/mol
# Density = 2.702507 g / cm^3
# Si number density = 27.086717 Si / 1000 Ang^3
#
#
#
# Elastic Constant Matrix: (Units=GPa)
#
#
# Indices 1 2 3 4 5 6 
#
# 1 199.9962 63.8728 56.6240 -23.8399 -25.8794 -19.1023
# 2 63.8728 129.9861 46.0253 -14.6930 -22.7597 9.4180
# 3 56.6240 46.0253 79.4741 -9.4295 -12.4475 8.8823
# 4 -23.8399 -14.6930 -9.4295 37.9851 -0.4578 -9.4206
# 5 -25.8794 -22.7597 -12.4475 -0.4578 52.4043 -23.1613
# 6 -19.1023 9.4180 8.8823 -9.4206 -23.1613 70.6594
#
#
#
# Elastic Compliance Matrix: (Units=1/GPa)
#
#
# Indices 1 2 3 4 5 6 
#
# 1 0.008470 -0.001592 -0.004354 0.004993 0.004844 0.005303
# 2 -0.001592 0.010770 -0.004403 0.002080 0.002814 -0.000113
# 3 -0.004354 -0.004403 0.018336 -0.000740 -0.001213 -0.003391
# 4 0.004993 0.002080 -0.000740 0.032072 0.006874 0.007695
# 5 0.004844 0.002814 -0.001213 0.006874 0.027311 0.010956
# 6 0.005303 -0.000113 -0.003391 0.007695 0.010956 0.020644
#
#
# Mechanical properties :
#
#
# Convention : Reuss Voigt Hill
#
# Bulk Modulus (GPa) = 59.24827 82.50006 70.87417
# Shear Modulus (GPa) = 34.73958 48.40538 41.57248
#
# Velocity S-wave (km/s) = 3.58513 4.23194 3.92189
# Velocity P-wave (km/s) = 6.24969 7.37584 6.83599
#
# Compressibility (1/GPa) = 0.01687813
#
# Stress axis : x y z
#
# Youngs Moduli (GPa) = 118.06716 92.84743 54.53650
#
# Poissons Ratio (x) = 0.14779 0.23747
# Poissons Ratio (y) = 0.18793 0.24013
# Poissons Ratio (z) = 0.51410 0.40882
#
# Static dielectric constant tensor:
#      x y z
#    x 2.092690 0.014360 0.056890 
#    y 0.014360 2.217160 -0.011800 
#    z 0.056890 -0.011800 2.214210 
# 
# From -- ./inp_files/587201.got.cif
#   From: 2010.05.17/outbox.cif.g08.bks.cpg/sg2_294_cif.got.tgz:587201.got - 2010.06.03 11:33:40.
