data_PCOD9076545
_publ_section_title
;
Structure prediction by ZEFSAII (Michael W. Deem and Ramdas Pophale) SiO2 
 PCOD9076545
Probable space group: P -1
;
_chemical_formula_sum "Si O2"
_cell_formula_units_Z 12
_cell_length_a 11.475829
_cell_length_b 10.327356
_cell_length_c 8.827540
_cell_angle_alpha 59.034960
_cell_angle_beta 137.186113
_cell_angle_gamma 130.935255
_cell_volume 535.965590
_symmetry_space_group_name_H-M "P -1"
_symmetry_group_IT_number 2
_symmetry_cell_setting 'triclinic'
loop_
_space_group_symop_operation_xyz
x,y,z
-x,-y,-z
loop_
_atom_site_type_symbol
_atom_site_label
_atom_site_fract_x
_atom_site_fract_y
_atom_site_fract_z
Si Si1 0.184243 0.942392 0.799080
Si Si2 0.830727 0.814025 0.147083
Si Si3 0.995099 0.352629 0.976996
Si Si4 0.806274 0.483428 0.237260
Si Si5 0.759508 0.056878 0.719271
Si Si6 0.397846 0.914935 0.744820
O O1 0.013484 0.786818 0.824057
O O2 0.392551 0.974444 0.047379
O O3 0.225229 0.914748 0.682950
O O4 0.166798 0.108781 0.731453
O O5 0.744681 0.610479 0.186777
O O6 0.040812 0.885267 0.223132
O O7 0.731583 0.898492 0.892776
O O8 0.815705 0.226781 0.771973
O O9 0.154357 0.448949 0.940444
O O10 0.000000 0.500000 0.000000
O O11 0.656951 0.283511 0.205677
O O12 0.000000 0.500000 0.500000
O O13 0.605667 0.015529 0.465795
#
# Coordination Sequence:
#
# PCOD9076545 Si02
#       6
#     2   2   2   2   2   2
#     4  10  23  36  58  88 116 151 186 235 286 332
#     4   9  19  36  56  85 112 148 192 227 286 335
#     4  10  18  33  57  84 109 146 189 227 275 337
#     4  11  20  38  60  86 110 150 195 236 276 336
#     4   9  19  36  58  84 113 152 185 233 282 338
#     4  11  21  38  60  85 120 146 189 236 282 334
#
# _framework density 22.389498
#
# number of rings (size 3 to 8) (size 9 to 14) (size 15 to 20)
#    0.000    2.000    5.000    1.000    0.000    4.000 
#    0.000    0.000    0.000    2.000    0.000    0.000 
#    0.000    0.000    0.000    0.000    0.000    0.000 
#
# Total GULP energy -66864.823300 kJ/mol
# GULP energy per Si atom -5572.068608 kJ/mol
# Density = 2.233854 g / cm^3
# Si number density = 22.389498 Si / 1000 Ang^3
#
#
#
# Elastic Constant Matrix: (Units=GPa)
#
#
# Indices 1 2 3 4 5 6 
#
# 1 112.1549 42.8969 5.7607 -4.0796 -29.5285 -11.9386
# 2 42.8969 123.4933 34.1299 -9.6598 -15.5889 -38.9649
# 3 5.7607 34.1299 75.8341 -2.2654 -8.1015 -1.2953
# 4 -4.0796 -9.6598 -2.2654 18.9941 0.4331 -2.1922
# 5 -29.5285 -15.5889 -8.1015 0.4331 33.5693 6.0408
# 6 -11.9386 -38.9649 -1.2953 -2.1922 6.0408 51.9397
#
#
#
# Elastic Compliance Matrix: (Units=1/GPa)
#
#
# Indices 1 2 3 4 5 6 
#
# 1 0.012949 -0.004083 0.001937 0.000566 0.010170 -0.001197
# 2 -0.004083 0.015089 -0.006088 0.007289 -0.000045 0.010542
# 3 0.001937 -0.006088 0.016044 -0.001330 0.003519 -0.004187
# 4 0.000566 0.007289 -0.001330 0.057187 0.001417 0.007814
# 5 0.010170 -0.000045 0.003519 0.001417 0.039940 -0.002194
# 6 -0.001197 0.010542 -0.004187 0.007814 -0.002194 0.027367
#
#
# Mechanical properties :
#
#
# Convention : Reuss Voigt Hill
#
# Bulk Modulus (GPa) = 36.21300 53.00634 44.60967
# Shear Modulus (GPa) = 25.74009 36.14695 30.94352
#
# Velocity S-wave (km/s) = 3.39433 4.02239 3.72163
# Velocity P-wave (km/s) = 5.61882 6.73045 6.19960
#
# Compressibility (1/GPa) = 0.02761440
#
# Stress axis : x y z
#
# Youngs Moduli (GPa) = 77.22523 66.27244 62.32789
#
# Poissons Ratio (x) = 0.27060 -0.12072
# Poissons Ratio (y) = 0.31532 0.37944
# Poissons Ratio (z) = -0.14958 0.40346
#
# Static dielectric constant tensor:
#      x y z
#    x 1.940950 -0.001100 0.049790 
#    y -0.001100 1.820490 0.027830 
#    z 0.049790 0.027830 1.918560 
# 
# From -- ./inp_files/158521.got.cif
#   From: 2010.05.17/outbox.cif.g08.bks.cpg/sg2_80_cif.got.tgz:158521.got - 2010.06.03 11:33:40.
