data_PCOD9076745
_publ_section_title
;
Structure prediction by ZEFSAII (Michael W. Deem and Ramdas Pophale) SiO2 
 PCOD9076745
Probable space group: P -1
;
_chemical_formula_sum "Si O2"
_cell_formula_units_Z 12
_cell_length_a 11.770521
_cell_length_b 9.367071
_cell_length_c 19.141716
_cell_angle_alpha 136.603958
_cell_angle_beta 22.128028
_cell_angle_gamma 141.032558
_cell_volume 499.757126
_symmetry_space_group_name_H-M "P -1"
_symmetry_group_IT_number 2
_symmetry_cell_setting 'triclinic'
loop_
_space_group_symop_operation_xyz
x,y,z
-x,-y,-z
loop_
_atom_site_type_symbol
_atom_site_label
_atom_site_fract_x
_atom_site_fract_y
_atom_site_fract_z
Si Si1 0.646893 0.521084 0.700383
Si Si2 0.538465 0.805685 0.572378
Si Si3 0.290238 0.426967 0.163101
Si Si4 0.955441 0.676703 0.372333
Si Si5 0.283198 0.040700 0.698729
Si Si6 0.745977 0.014664 0.803041
O O1 0.532767 0.527561 0.847690
O O2 0.373195 0.305951 0.742365
O O3 0.000000 0.500000 0.500000
O O4 0.695928 0.759261 0.723522
O O5 0.701818 0.802208 0.553769
O O6 0.250243 0.561740 0.635298
O O7 0.861636 0.855236 0.356773
O O8 0.401387 0.986109 0.688111
O O9 0.072883 0.581881 0.338461
O O10 0.500000 0.500000 0.000000
O O11 0.064182 0.160422 0.190271
O O12 0.259905 0.841582 0.210712
O O13 0.500000 0.000000 0.500000
O O14 0.500000 0.000000 0.000000
#
# Coordination Sequence:
#
# PCOD9076745 Si02
#       6
#     2   2   2   2   2   2
#     4  12  22  39  66  98 121 168 219 249 313 391
#     4   8  16  33  57  83 115 164 205 240 310 367
#     4  11  23  39  65  94 129 162 209 266 322 358
#     4   8  17  34  56  83 117 162 197 246 304 373
#     4  11  21  39  66  92 124 166 214 263 304 377
#     4  10  18  33  59  88 125 158 199 260 312 359
#
# _framework density 24.011662999999999
#
# number of rings (size 3 to 8) (size 9 to 14) (size 15 to 20)
#    1.000    1.000    3.333    1.000    0.000    0.667 
#    0.000    3.333    3.667    7.000    0.000    0.000 
#    0.000    0.000    0.000    0.000    0.000    0.000 
#
# Total GULP energy -66871.784939 kJ/mol
# GULP energy per Si atom -5572.648745 kJ/mol
# Density = 2.395701 g / cm^3
# Si number density = 24.011663 Si / 1000 Ang^3
#
#
#
# Elastic Constant Matrix: (Units=GPa)
#
#
# Indices 1 2 3 4 5 6 
#
# 1 88.5360 30.9840 -3.1951 9.4782 6.0695 -11.9729
# 2 30.9840 209.5831 57.7766 -6.5230 20.2655 -18.2878
# 3 -3.1951 57.7766 71.4811 -8.3645 12.4208 10.3753
# 4 9.4782 -6.5230 -8.3645 28.6922 -9.3428 -2.0384
# 5 6.0695 20.2655 12.4208 -9.3428 28.4648 10.1291
# 6 -11.9729 -18.2878 10.3753 -2.0384 10.1291 35.0579
#
#
#
# Elastic Compliance Matrix: (Units=1/GPa)
#
#
# Indices 1 2 3 4 5 6 
#
# 1 0.013637 -0.001641 0.001600 -0.006066 -0.006116 0.004742
# 2 -0.001641 0.007949 -0.006716 -0.000781 -0.005130 0.007010
# 3 0.001600 -0.006716 0.021270 0.003322 -0.000588 -0.008888
# 4 -0.006066 -0.000781 0.003322 0.042586 0.016416 -0.005729
# 5 -0.006116 -0.005130 -0.000588 0.016416 0.052415 -0.018780
# 6 0.004742 0.007010 -0.008888 -0.005729 -0.018780 0.041524
#
#
# Mechanical properties :
#
#
# Convention : Reuss Voigt Hill
#
# Bulk Modulus (GPa) = 34.07854 60.08124 47.07989
# Shear Modulus (GPa) = 24.67015 37.37862 31.02439
#
# Velocity S-wave (km/s) = 3.20882 3.94977 3.59842
# Velocity P-wave (km/s) = 5.28697 6.77325 6.07573
#
# Compressibility (1/GPa) = 0.02934398
#
# Stress axis : x y z
#
# Youngs Moduli (GPa) = 73.33095 125.80754 47.01356
#
# Poissons Ratio (x) = 0.20642 -0.07524
# Poissons Ratio (y) = 0.12032 0.31572
# Poissons Ratio (z) = -0.11736 0.84487
#
# Static dielectric constant tensor:
#      x y z
#    x 1.988830 -0.057140 -0.053210 
#    y -0.057140 1.899490 0.014000 
#    z -0.053210 0.014000 2.058460 
# 
# From -- ./inp_files/416641.got.cif
#   From: 2010.05.17/outbox.cif.g08.bks.cpg/sg2_209_cif.got.tgz:416641.got - 2010.06.03 11:33:40.
