data_PCOD9076452
_publ_section_title
;
Structure prediction by ZEFSAII (Michael W. Deem and Ramdas Pophale) SiO2 
 PCOD9076452
Probable space group: P -1
;
_chemical_formula_sum "Si O2"
_cell_formula_units_Z 16
_cell_length_a 11.592261
_cell_length_b 29.872343
_cell_length_c 14.804583
_cell_angle_alpha 161.760927
_cell_angle_beta 32.106484
_cell_angle_gamma 151.821583
_cell_volume 756.009328
_symmetry_space_group_name_H-M "P -1"
_symmetry_group_IT_number 2
_symmetry_cell_setting 'triclinic'
loop_
_space_group_symop_operation_xyz
x,y,z
-x,-y,-z
loop_
_atom_site_type_symbol
_atom_site_label
_atom_site_fract_x
_atom_site_fract_y
_atom_site_fract_z
Si Si1 0.499346 0.985868 0.580280
Si Si2 0.756585 0.825563 0.820689
Si Si3 0.639644 0.892842 0.846992
Si Si4 0.229820 0.570824 0.252233
Si Si5 0.900616 0.276647 0.195153
Si Si6 0.195139 0.322015 0.926883
Si Si7 0.001777 0.988393 0.628244
Si Si8 0.873467 0.236052 0.455669
O O1 0.286913 0.827720 0.468203
O O2 0.500000 0.000000 0.500000
O O3 0.748457 0.989546 0.452527
O O4 0.457716 0.136633 0.930010
O O5 0.696865 0.789368 0.685773
O O6 0.848639 0.721577 0.619759
O O7 0.000000 0.000000 0.000000
O O8 0.354995 0.819985 0.874121
O O9 0.780947 0.900832 0.677562
O O10 0.750745 0.075113 0.163953
O O11 0.161343 0.652881 0.539176
O O12 0.520146 0.630422 0.165835
O O13 0.143231 0.622260 0.317183
O O14 0.132717 0.389665 0.006309
O O15 0.103664 0.384422 0.193222
O O16 0.001332 0.154746 0.927187
O O17 0.053348 0.130364 0.646704
#
# Coordination Sequence:
#
# PCOD9076452 Si02
#       8
#     2   2   2   2   2   2   2   2
#     4  10  19  31  55  89 115 141 185 246 286 329
#     4   8  17  31  50  76 112 143 180 226 286 329
#     4  10  18  33  56  82 110 145 185 236 286 327
#     4  11  23  40  57  81 122 155 189 229 286 348
#     4  12  22  37  60  85 114 152 192 238 285 337
#     4  11  24  38  55  87 116 155 190 233 286 340
#     4  12  20  34  58  86 117 141 193 245 280 332
#     4  10  18  35  55  81 113 152 187 230 289 341
#
# _framework density 21.16376
#
# number of rings (size 3 to 8) (size 9 to 14) (size 15 to 20)
#    0.000    1.750    2.500    6.375    0.000    0.000 
#    0.000    0.000    0.000    6.000    0.000    0.000 
#    0.000    0.000    0.000    0.000    0.000    0.000 
#
# Total GULP energy -89233.780398 kJ/mol
# GULP energy per Si atom -5577.111275 kJ/mol
# Density = 2.111559 g / cm^3
# Si number density = 21.163760 Si / 1000 Ang^3
#
#
#
# Elastic Constant Matrix: (Units=GPa)
#
#
# Indices 1 2 3 4 5 6 
#
# 1 98.5665 38.6759 21.3277 -5.8417 -43.6710 -21.8092
# 2 38.6759 65.8330 32.8628 -24.3150 -18.8119 -20.3220
# 3 21.3277 32.8628 62.9764 -15.5575 -24.3995 -11.1471
# 4 -5.8417 -24.3150 -15.5575 33.6195 -4.9550 -2.1518
# 5 -43.6710 -18.8119 -24.3995 -4.9550 49.8779 -6.0957
# 6 -21.8092 -20.3220 -11.1471 -2.1518 -6.0957 41.8313
#
#
#
# Elastic Compliance Matrix: (Units=1/GPa)
#
#
# Indices 1 2 3 4 5 6 
#
# 1 0.033143 0.004110 0.015276 0.024310 0.044251 0.031046
# 2 0.004110 0.044011 0.001940 0.039622 0.028783 0.030273
# 3 0.015276 0.001940 0.035366 0.027520 0.037217 0.025170
# 4 0.024310 0.039622 0.027520 0.088346 0.064978 0.053270
# 5 0.044251 0.028783 0.037217 0.064978 0.102281 0.065218
# 6 0.031046 0.030273 0.025170 0.053270 0.065218 0.073750
#
#
# Mechanical properties :
#
#
# Convention : Reuss Voigt Hill
#
# Bulk Modulus (GPa) = 6.44439 45.90097 26.17268
# Shear Modulus (GPa) = 12.95443 34.03303 23.49373
#
# Velocity S-wave (km/s) = 2.47676 4.01444 3.33542
# Velocity P-wave (km/s) = 3.35123 6.57443 5.21795
#
# Compressibility (1/GPa) = 0.15517362
#
# Stress axis : x y z
#
# Youngs Moduli (GPa) = 30.17210 22.72169 28.27559
#
# Poissons Ratio (x) = -0.09339 -0.43194
# Poissons Ratio (y) = -0.12402 -0.05486
# Poissons Ratio (z) = -0.46091 -0.04409
#
# Static dielectric constant tensor:
#      x y z
#    x 1.794820 -0.038720 0.002100 
#    y -0.038720 1.794940 -0.006800 
#    z 0.002100 -0.006800 1.811790 
# 
# From -- ./inp_files/432075.got.cif
#   From: 2010.05.17/outbox.cif.g08.bks.cpg/sg2_217_cif.got.tgz:432075.got - 2010.06.03 11:33:40.
