data_PCOD9076020
_publ_section_title
;
Structure prediction by ZEFSAII (Michael W. Deem and Ramdas Pophale) SiO2 
 PCOD9076020
Probable space group: P -1
;
_chemical_formula_sum "Si O2"
_cell_formula_units_Z 15
_cell_length_a 9.091066
_cell_length_b 9.923760
_cell_length_c 15.047152
_cell_angle_alpha 113.650040
_cell_angle_beta 130.331382
_cell_angle_gamma 100.500463
_cell_volume 734.012317
_symmetry_space_group_name_H-M "P -1"
_symmetry_group_IT_number 2
_symmetry_cell_setting 'triclinic'
loop_
_space_group_symop_operation_xyz
x,y,z
-x,-y,-z
loop_
_atom_site_type_symbol
_atom_site_label
_atom_site_fract_x
_atom_site_fract_y
_atom_site_fract_z
Si Si1 0.645104 0.173425 0.727781
Si Si2 0.118011 0.906622 0.346764
Si Si3 0.929902 0.791344 0.419596
Si Si4 0.408009 0.913282 0.733996
Si Si5 0.278322 0.084887 0.872661
Si Si6 0.366552 0.512161 0.146245
Si Si7 0.759985 0.860245 0.929690
Si Si8 0.500000 0.500000 0.000000
O O1 0.825023 0.162303 0.735017
O O2 0.729621 0.381063 0.824887
O O3 0.375842 0.042715 0.537297
O O4 0.591850 0.079446 0.778554
O O5 0.917122 0.741994 0.295687
O O6 0.993185 0.998567 0.294234
O O7 0.662598 0.646416 0.318634
O O8 0.139887 0.797354 0.550481
O O9 0.000000 0.000000 0.500000
O O10 0.517907 0.806784 0.769881
O O11 0.378400 0.995922 0.833016
O O12 0.241389 0.052043 0.954406
O O13 0.447034 0.309030 0.976721
O O14 0.247584 0.312889 0.090846
O O15 0.371830 0.516194 0.042905
O O16 0.000000 0.000000 0.000000
#
# Coordination Sequence:
#
# PCOD9076020 Si02
#       8
#     2   2   2   2   2   2   2   1
#     4  10  19  34  62  94 119 154 197 255 306 362
#     4  10  18  32  60  97 120 145 192 257 319 340
#     4  11  17  36  68  94 117 143 204 268 303 352
#     4  11  20  39  64  88 117 161 206 245 310 358
#     4  11  19  37  61  83 118 157 202 251 297 355
#     4  11  20  39  62  90 122 161 204 254 296 361
#     4  11  27  42  53  84 132 174 200 241 297 369
#     4  10  18  32  58  90 116 144 204 256 284 344
#
# _framework density 20.435625000000002
#
# number of rings (size 3 to 8) (size 9 to 14) (size 15 to 20)
#    0.000    1.333    6.667    1.200    0.000    0.533 
#    2.400    3.333    0.000   15.200    0.000    0.000 
#    0.000    0.000    0.000    0.000    0.000    0.000 
#
# Total GULP energy -83547.992743 kJ/mol
# GULP energy per Si atom -5569.866183 kJ/mol
# Density = 2.038911 g / cm^3
# Si number density = 20.435625 Si / 1000 Ang^3
#
#
#
# Elastic Constant Matrix: (Units=GPa)
#
#
# Indices 1 2 3 4 5 6 
#
# 1 140.5748 47.3331 21.8130 6.5863 -16.5276 13.9910
# 2 47.3331 74.6475 21.0951 -8.9696 -7.7014 16.7601
# 3 21.8130 21.0951 44.5034 -16.4377 6.8259 6.9144
# 4 6.5863 -8.9696 -16.4377 31.7683 -2.5440 2.3026
# 5 -16.5276 -7.7014 6.8259 -2.5440 41.3324 0.8340
# 6 13.9910 16.7601 6.9144 2.3026 0.8340 34.6587
#
#
#
# Elastic Compliance Matrix: (Units=1/GPa)
#
#
# Indices 1 2 3 4 5 6 
#
# 1 0.010545 -0.005476 -0.005406 -0.006217 0.003710 -0.000206
# 2 -0.005476 0.020726 -0.004420 0.005465 0.002887 -0.007362
# 3 -0.005406 -0.004420 0.035618 0.017962 -0.007685 -0.003794
# 4 -0.006217 0.005465 0.017962 0.043954 -0.001596 -0.006598
# 5 0.003710 0.002887 -0.007685 -0.001596 0.027425 -0.001914
# 6 -0.000206 -0.007362 -0.003794 -0.006598 -0.001914 0.033738
#
#
# Mechanical properties :
#
#
# Convention : Reuss Voigt Hill
#
# Bulk Modulus (GPa) = 27.56170 48.91202 38.23686
# Shear Modulus (GPa) = 23.28784 32.85083 28.06934
#
# Velocity S-wave (km/s) = 3.37942 4.01375 3.71016
# Velocity P-wave (km/s) = 5.36131 6.74291 6.09141
#
# Compressibility (1/GPa) = 0.03628223
#
# Stress axis : x y z
#
# Youngs Moduli (GPa) = 94.83600 48.24969 28.07590
#
# Poissons Ratio (x) = 0.26424 0.15178
# Poissons Ratio (y) = 0.51937 0.12411
# Poissons Ratio (z) = 0.51268 0.21328
#
# Static dielectric constant tensor:
#      x y z
#    x 1.743550 0.008050 -0.015470 
#    y 0.008050 1.681110 -0.051930 
#    z -0.015470 -0.051930 1.551010 
# 
# From -- ./inp_files/170393.got.cif
#   From: 2010.05.17/outbox.cif.g08.bks.cpg/sg2_86_cif.got.tgz:170393.got - 2010.06.03 11:33:40.
