data_PCOD9076630
_publ_section_title
;
Structure prediction by ZEFSAII (Michael W. Deem and Ramdas Pophale) SiO2 
 PCOD9076630
Probable space group: P -1
;
_chemical_formula_sum "Si O2"
_cell_formula_units_Z 16
_cell_length_a 17.029645
_cell_length_b 7.655781
_cell_length_c 21.215166
_cell_angle_alpha 144.763164
_cell_angle_beta 154.649441
_cell_angle_gamma 47.759586
_cell_volume 658.515135
_symmetry_space_group_name_H-M "P -1"
_symmetry_group_IT_number 2
_symmetry_cell_setting 'triclinic'
loop_
_space_group_symop_operation_xyz
x,y,z
-x,-y,-z
loop_
_atom_site_type_symbol
_atom_site_label
_atom_site_fract_x
_atom_site_fract_y
_atom_site_fract_z
Si Si1 0.756868 0.090705 0.329592
Si Si2 0.037874 0.932940 0.403987
Si Si3 0.685411 0.170252 0.723711
Si Si4 0.361541 0.248568 0.071696
Si Si5 0.918866 0.879681 0.974945
Si Si6 0.389361 0.853771 0.195272
Si Si7 0.223480 0.750605 0.378656
Si Si8 0.037369 0.246042 0.375842
O O1 0.806678 0.013892 0.413199
O O2 0.547415 0.127332 0.179628
O O3 0.900485 0.430176 0.518611
O O4 0.835330 0.875206 0.274240
O O5 0.059118 0.675656 0.291572
O O6 0.078535 0.239091 0.478662
O O7 0.684111 0.533533 0.840723
O O8 0.643887 0.035329 0.724875
O O9 0.500000 0.000000 0.500000
O O10 0.897631 0.133642 0.854624
O O11 0.394525 0.497378 0.109892
O O12 0.178471 0.957096 0.846285
O O13 0.792089 0.528394 0.762828
O O14 0.774434 0.082716 0.948983
O O15 0.000000 0.000000 0.000000
O O16 0.590839 0.098824 0.401287
O O17 0.175825 0.036458 0.390557
#
# Coordination Sequence:
#
# PCOD9076630 Si02
#       8
#     2   2   2   2   2   2   2   2
#     4  11  21  42  64  93 126 157 206 265 310 367
#     4   9  23  39  65  91 122 162 206 256 315 371
#     4   9  18  34  54  82 123 160 200 256 308 349
#     4  10  20  37  61  88 126 161 206 256 308 374
#     4  10  18  33  58  83 122 160 215 253 295 377
#     4   9  19  34  58  88 118 167 206 253 303 368
#     4  10  18  38  61  84 122 164 213 245 311 374
#     4  10  19  39  65  87 124 165 199 253 313 367
#
# _framework density 24.297089
#
# number of rings (size 3 to 8) (size 9 to 14) (size 15 to 20)
#    1.500    0.750    2.500    0.750    0.000    2.500 
#    0.000    5.625    5.500    0.000    0.000    0.000 
#    0.000    0.000    0.000    0.000    0.000    0.000 
#
# Total GULP energy -89167.301221 kJ/mol
# GULP energy per Si atom -5572.956326 kJ/mol
# Density = 2.424179 g / cm^3
# Si number density = 24.297089 Si / 1000 Ang^3
#
#
#
# Elastic Constant Matrix: (Units=GPa)
#
#
# Indices 1 2 3 4 5 6 
#
# 1 60.0727 26.9475 17.7789 -8.3604 -12.0581 4.5552
# 2 26.9475 117.5719 60.3520 -42.6742 2.0560 -6.6276
# 3 17.7789 60.3520 142.6069 -27.0413 11.7965 -0.0581
# 4 -8.3604 -42.6742 -27.0413 48.6930 -4.1333 11.7458
# 5 -12.0581 2.0560 11.7965 -4.1333 24.6446 -5.3950
# 6 4.5552 -6.6276 -0.0581 11.7458 -5.3950 25.4740
#
#
#
# Elastic Compliance Matrix: (Units=1/GPa)
#
#
# Indices 1 2 3 4 5 6 
#
# 1 0.021599 -0.004146 -0.001720 0.000778 0.011228 -0.002926
# 2 -0.004146 0.015326 -0.004000 0.010546 0.000361 -0.000066
# 3 -0.001720 -0.004000 0.009705 0.001774 -0.005443 -0.002681
# 4 0.000778 0.010546 0.001774 0.034116 0.001574 -0.012789
# 5 0.011228 0.000361 -0.005443 0.001574 0.050679 0.008081
# 6 -0.002926 -0.000066 -0.002681 -0.012789 0.008081 0.047364
#
#
# Mechanical properties :
#
#
# Convention : Reuss Voigt Hill
#
# Bulk Modulus (GPa) = 37.17722 58.93423 48.05573
# Shear Modulus (GPa) = 24.09783 34.10720 29.10251
#
# Velocity S-wave (km/s) = 3.15270 3.75074 3.46465
# Velocity P-wave (km/s) = 5.34668 6.56245 5.98551
#
# Compressibility (1/GPa) = 0.02689819
#
# Stress axis : x y z
#
# Youngs Moduli (GPa) = 46.29751 65.24705 103.04072
#
# Poissons Ratio (x) = 0.27053 0.17728
# Poissons Ratio (y) = 0.19196 0.41212
# Poissons Ratio (z) = 0.07965 0.26096
#
# Static dielectric constant tensor:
#      x y z
#    x 2.022670 -0.082090 0.022840 
#    y -0.082090 2.051050 -0.012070 
#    z 0.022840 -0.012070 1.957740 
# 
# From -- ./inp_files/620678.got.cif
#   From: 2010.05.17/outbox.cif.g08.bks.cpg/sg2_311_cif.got.tgz:620678.got - 2010.06.03 11:33:40.
