data_PCOD9076590
_publ_section_title
;
Structure prediction by ZEFSAII (Michael W. Deem and Ramdas Pophale) SiO2 
 PCOD9076590
Probable space group: P -1
;
_chemical_formula_sum "Si O2"
_cell_formula_units_Z 16
_cell_length_a 9.267568
_cell_length_b 11.028042
_cell_length_c 13.007301
_cell_angle_alpha 40.554550
_cell_angle_beta 64.659165
_cell_angle_gamma 45.220883
_cell_volume 596.752738
_symmetry_space_group_name_H-M "P -1"
_symmetry_group_IT_number 2
_symmetry_cell_setting 'triclinic'
loop_
_space_group_symop_operation_xyz
x,y,z
-x,-y,-z
loop_
_atom_site_type_symbol
_atom_site_label
_atom_site_fract_x
_atom_site_fract_y
_atom_site_fract_z
Si Si1 0.732973 0.382466 0.283150
Si Si2 0.425617 0.789660 0.411128
Si Si3 0.317994 0.889933 0.992388
Si Si4 0.777603 0.000671 0.370632
Si Si5 0.885325 0.269077 0.944356
Si Si6 0.675559 0.781557 0.719667
Si Si7 0.634807 0.764572 0.183089
Si Si8 0.119640 0.601731 0.377318
O O1 0.726075 0.246285 0.469576
O O2 0.519406 0.640155 0.139636
O O3 0.788492 0.196008 0.295938
O O4 0.811479 0.516412 0.228051
O O5 0.489512 0.730866 0.311332
O O6 0.640428 0.600225 0.531454
O O7 0.337393 0.061789 0.285122
O O8 0.257223 0.805861 0.969433
O O9 0.308356 0.118911 0.825728
O O10 0.123581 0.031212 0.040117
O O11 0.552975 0.126056 0.303875
O O12 0.767388 0.841396 0.561371
O O13 0.982684 0.831299 0.347527
O O14 0.805256 0.498693 0.887477
O O15 0.874521 0.350447 0.775870
O O16 0.500000 0.000000 0.000000
O O17 0.000000 0.500000 0.500000
#
# Coordination Sequence:
#
# PCOD9076590 Si02
#       8
#     2   2   2   2   2   2   2   2
#     4  10  20  42  63  83 121 160 205 240 284 351
#     4  11  21  37  64  93 111 154 203 250 295 348
#     4  10  21  37  59  86 120 164 193 233 301 348
#     4  10  19  32  56  94 122 153 187 248 299 344
#     4  11  20  36  59  90 130 158 181 247 304 357
#     4  10  18  33  57  90 127 147 190 245 303 352
#     4  10  23  41  63  83 116 161 207 241 287 355
#     4  12  19  31  58  94 125 146 192 240 302 355
#
# _framework density 26.811775999999998
#
# number of rings (size 3 to 8) (size 9 to 14) (size 15 to 20)
#    0.000    1.500    5.000    1.875    0.000    0.000 
#    0.000    6.875    2.750    2.250    0.000    0.000 
#    0.000    0.000    0.000    0.000    0.000    0.000 
#
# Total GULP energy -89352.569532 kJ/mol
# GULP energy per Si atom -5584.535596 kJ/mol
# Density = 2.675075 g / cm^3
# Si number density = 26.811776 Si / 1000 Ang^3
#
#
#
# Elastic Constant Matrix: (Units=GPa)
#
#
# Indices 1 2 3 4 5 6 
#
# 1 49.4141 10.2435 30.2785 -21.6430 -13.8403 7.5295
# 2 10.2435 125.5522 35.0909 -46.3879 -26.9474 38.4479
# 3 30.2785 35.0909 71.8296 -16.4314 -15.5976 12.7627
# 4 -21.6430 -46.3879 -16.4314 67.3782 12.5266 -22.9673
# 5 -13.8403 -26.9474 -15.5976 12.5266 51.4473 -22.7440
# 6 7.5295 38.4479 12.7627 -22.9673 -22.7440 44.6902
#
#
#
# Elastic Compliance Matrix: (Units=1/GPa)
#
#
# Indices 1 2 3 4 5 6 
#
# 1 0.033544 0.005816 -0.013471 0.011028 0.006189 0.002009
# 2 0.005816 0.014601 -0.006094 0.007734 0.002609 -0.006499
# 3 -0.013471 -0.006094 0.021973 -0.003334 0.000577 -0.000182
# 4 0.011028 0.007734 -0.003334 0.024590 0.002922 0.006565
# 5 0.006189 0.002609 0.000577 0.002922 0.027187 0.011886
# 6 0.002009 -0.006499 -0.000182 0.006565 0.011886 0.037103
#
#
# Mechanical properties :
#
#
# Convention : Reuss Voigt Hill
#
# Bulk Modulus (GPa) = 23.46425 44.22462 33.84444
# Shear Modulus (GPa) = 24.91242 44.11535 34.51388
#
# Velocity S-wave (km/s) = 3.05152 4.06072 3.59174
# Velocity P-wave (km/s) = 4.60284 6.20614 5.46362
#
# Compressibility (1/GPa) = 0.04261802
#
# Stress axis : x y z
#
# Youngs Moduli (GPa) = 29.81201 68.48742 45.51116
#
# Poissons Ratio (x) = -0.39832 0.61310
# Poissons Ratio (y) = -0.17339 0.27736
# Poissons Ratio (z) = 0.40161 0.41738
#
# Static dielectric constant tensor:
#      x y z
#    x 2.379710 0.059460 -0.075750 
#    y 0.059460 2.146520 -0.004500 
#    z -0.075750 -0.004500 2.099920 
# 
# From -- ./inp_files/319833.got.cif
#   From: 2010.05.17/outbox.cif.g08.bks.cpg/sg2_160_cif.got.tgz:319833.got - 2010.06.03 11:33:40.
