data_PCOD9076681
_publ_section_title
;
Structure prediction by ZEFSAII (Michael W. Deem and Ramdas Pophale) SiO2 
 PCOD9076681
Probable space group: P -1
;
_chemical_formula_sum "Si O2"
_cell_formula_units_Z 16
_cell_length_a 12.241026
_cell_length_b 14.922168
_cell_length_c 9.011512
_cell_angle_alpha 66.869393
_cell_angle_beta 118.955388
_cell_angle_gamma 60.244579
_cell_volume 690.998160
_symmetry_space_group_name_H-M "P -1"
_symmetry_group_IT_number 2
_symmetry_cell_setting 'triclinic'
loop_
_space_group_symop_operation_xyz
x,y,z
-x,-y,-z
loop_
_atom_site_type_symbol
_atom_site_label
_atom_site_fract_x
_atom_site_fract_y
_atom_site_fract_z
Si Si1 0.203584 0.042724 0.836719
Si Si2 0.713752 0.671716 0.682642
Si Si3 0.556991 0.678267 0.122155
Si Si4 0.258014 0.159750 0.568809
Si Si5 0.647663 0.781482 0.893225
Si Si6 0.991365 0.279161 0.813631
Si Si7 0.715151 0.311109 0.171897
Si Si8 0.808660 0.396959 0.934504
O O1 0.256180 0.116987 0.759126
O O2 0.131098 0.107632 0.917098
O O3 0.964711 0.164411 0.514176
O O4 0.413568 0.833553 0.051567
O O5 0.660624 0.784757 0.444702
O O6 0.604161 0.778257 0.697827
O O7 0.659003 0.594743 0.669829
O O8 0.000000 0.500000 0.000000
O O9 0.748424 0.475011 0.445071
O O10 0.693356 0.659152 0.109789
O O11 0.351672 0.756717 0.848099
O O12 0.420909 0.984012 0.685984
O O13 0.994183 0.317603 0.228086
O O14 0.855598 0.723341 0.067326
O O15 0.932084 0.283862 0.936636
O O16 0.500000 0.500000 0.000000
O O17 0.706021 0.372663 0.967397
#
# Coordination Sequence:
#
# PCOD9076681 Si02
#       8
#     2   2   2   2   2   2   2   2
#     4  10  24  43  66  96 124 166 215 260 317 371
#     4  10  18  33  58  90 123 159 211 251 306 370
#     4  11  25  42  65  95 127 171 213 254 315 379
#     4   9  20  38  62  88 128 165 214 257 300 382
#     4  11  22  38  63  96 127 168 210 257 315 376
#     4  12  24  40  62  95 140 161 199 265 327 372
#     4  11  21  46  75  86 121 170 221 264 299 375
#     4  10  23  39  63  97 123 168 212 259 315 371
#
# _framework density 23.154907000000001
#
# number of rings (size 3 to 8) (size 9 to 14) (size 15 to 20)
#    0.000    1.500    3.750    1.875    3.500    4.500 
#    0.000    0.625    0.000    0.000    0.000    0.000 
#    0.000    0.000    0.000    0.000    0.000    0.000 
#
# Total GULP energy -89475.437049 kJ/mol
# GULP energy per Si atom -5592.214816 kJ/mol
# Density = 2.310221 g / cm^3
# Si number density = 23.154907 Si / 1000 Ang^3
#
#
#
# Elastic Constant Matrix: (Units=GPa)
#
#
# Indices 1 2 3 4 5 6 
#
# 1 76.4290 18.0111 -3.1917 11.1589 1.0714 -23.6120
# 2 18.0111 121.8392 -7.9737 15.1017 -1.3869 -16.3226
# 3 -3.1917 -7.9737 40.1720 5.7713 1.8357 -0.5452
# 4 11.1589 15.1017 5.7713 28.3083 -0.0741 1.2512
# 5 1.0714 -1.3869 1.8357 -0.0741 26.0426 5.5896
# 6 -23.6120 -16.3226 -0.5452 1.2512 5.5896 32.0395
#
#
#
# Elastic Compliance Matrix: (Units=1/GPa)
#
#
# Indices 1 2 3 4 5 6 
#
# 1 0.019395 0.000581 0.003418 -0.009361 -0.004422 0.015785
# 2 0.000581 0.009901 0.003058 -0.006400 -0.001007 0.005950
# 3 0.003418 0.003058 0.027248 -0.008781 -0.003087 0.005421
# 4 -0.009361 -0.006400 -0.008781 0.044789 0.003510 -0.012670
# 5 -0.004422 -0.001007 -0.003087 0.003510 0.041146 -0.011140
# 6 0.015785 0.005950 0.005421 -0.012670 -0.011140 0.048406
#
#
# Mechanical properties :
#
#
# Convention : Reuss Voigt Hill
#
# Bulk Modulus (GPa) = 14.15307 28.01460 21.08384
# Shear Modulus (GPa) = 24.95962 32.71771 28.83867
#
# Velocity S-wave (km/s) = 3.28676 3.76306 3.53295
# Velocity P-wave (km/s) = 4.53093 5.56829 5.07618
#
# Compressibility (1/GPa) = 0.07065603
#
# Stress axis : x y z
#
# Youngs Moduli (GPa) = 51.55906 101.00404 36.70055
#
# Poissons Ratio (x) = -0.05871 -0.12543
# Poissons Ratio (y) = -0.02997 -0.11221
# Poissons Ratio (z) = -0.17621 -0.30882
#
# Static dielectric constant tensor:
#      x y z
#    x 1.878310 0.011840 -0.034310 
#    y 0.011840 1.850640 -0.006860 
#    z -0.034310 -0.006860 1.961350 
# 
# From -- ./inp_files/272685.got.cif
#   From: 2010.05.17/outbox.cif.g08.bks.cpg/sg2_137_cif.got.tgz:272685.got - 2010.06.03 11:33:40.
