data_PCOD9076451
_publ_section_title
;
Structure prediction by ZEFSAII (Michael W. Deem and Ramdas Pophale) SiO2 
 PCOD9076451
Probable space group: P -1
;
_chemical_formula_sum "Si O2"
_cell_formula_units_Z 16
_cell_length_a 15.621701
_cell_length_b 8.041011
_cell_length_c 10.412087
_cell_angle_alpha 104.729360
_cell_angle_beta 60.467657
_cell_angle_gamma 143.592656
_cell_volume 649.210258
_symmetry_space_group_name_H-M "P -1"
_symmetry_group_IT_number 2
_symmetry_cell_setting 'triclinic'
loop_
_space_group_symop_operation_xyz
x,y,z
-x,-y,-z
loop_
_atom_site_type_symbol
_atom_site_label
_atom_site_fract_x
_atom_site_fract_y
_atom_site_fract_z
Si Si1 0.430835 0.242827 0.582008
Si Si2 0.391453 0.702168 0.863079
Si Si3 0.852368 0.505831 0.801191
Si Si4 0.207272 0.359273 0.518612
Si Si5 0.388389 0.327435 0.898981
Si Si6 0.896856 0.891543 0.185665
Si Si7 0.262605 0.771830 0.409734
Si Si8 0.253127 0.285619 0.213346
O O1 0.500000 0.500000 0.500000
O O2 0.597894 0.378237 0.530355
O O3 0.344439 0.184985 0.765906
O O4 0.310150 0.979970 0.520030
O O5 0.442570 0.603581 0.887225
O O6 0.274868 0.441869 0.794956
O O7 0.552908 0.011805 0.741453
O O8 0.281430 0.683433 0.020986
O O9 0.840257 0.344004 0.669158
O O10 0.790411 0.591347 0.789512
O O11 0.033549 0.817975 0.778682
O O12 0.092889 0.173307 0.690551
O O13 0.184491 0.508685 0.497605
O O14 0.180531 0.178694 0.390486
O O15 0.548468 0.451875 0.854117
O O16 0.241051 0.132376 0.074620
O O17 0.000000 0.000000 0.000000
#
# Coordination Sequence:
#
# PCOD9076451 Si02
#       8
#     2   2   2   2   2   2   2   2
#     4  11  19  31  53  81 113 146 180 224 275 333
#     4  10  18  33  56  82 110 144 179 224 274 328
#     4   9  20  34  52  83 112 144 182 227 270 324
#     4  10  20  34  55  83 111 140 183 229 279 321
#     4   9  16  31  50  79 109 140 183 215 269 328
#     4  10  20  35  55  79 112 149 181 217 273 341
#     4  11  20  32  53  86 115 135 178 240 279 310
#     4   8  17  30  51  77 107 137 175 229 266 313
#
# _framework density 24.645329
#
# number of rings (size 3 to 8) (size 9 to 14) (size 15 to 20)
#    0.000    2.250    2.500    0.750    0.000    2.000 
#    0.000    0.000    0.000    3.000    6.500    7.875 
#    0.000    0.000    0.000    0.000    0.000    0.000 
#
# Total GULP energy -89101.841896 kJ/mol
# GULP energy per Si atom -5568.865118 kJ/mol
# Density = 2.458923 g / cm^3
# Si number density = 24.645329 Si / 1000 Ang^3
#
#
#
# Elastic Constant Matrix: (Units=GPa)
#
#
# Indices 1 2 3 4 5 6 
#
# 1 40.9487 1.7154 26.3509 3.3336 0.3133 6.5147
# 2 1.7154 125.3156 65.5033 21.0626 4.1235 22.7808
# 3 26.3509 65.5033 216.3041 25.2072 18.9241 14.5001
# 4 3.3336 21.0626 25.2072 52.7993 6.3417 9.0476
# 5 0.3133 4.1235 18.9241 6.3417 32.4999 5.4292
# 6 6.5147 22.7808 14.5001 9.0476 5.4292 19.8591
#
#
#
# Elastic Compliance Matrix: (Units=1/GPa)
#
#
# Indices 1 2 3 4 5 6 
#
# 1 0.028807 0.003796 -0.004213 0.000273 0.003619 -0.011842
# 2 0.003796 0.012192 -0.003351 -0.001649 0.002829 -0.012806
# 3 -0.004213 -0.003351 0.006475 -0.001439 -0.003370 0.002076
# 4 0.000273 -0.001649 -0.001439 0.021620 -0.002101 -0.006423
# 5 0.003619 0.002829 -0.003370 -0.002101 0.034493 -0.010444
# 6 -0.011842 -0.012806 0.002076 -0.006423 -0.010444 0.073195
#
#
# Mechanical properties :
#
#
# Convention : Reuss Voigt Hill
#
# Bulk Modulus (GPa) = 25.04050 63.30084 44.17067
# Shear Modulus (GPa) = 25.29969 40.29825 32.79897
#
# Velocity S-wave (km/s) = 3.20746 4.04806 3.65202
# Velocity P-wave (km/s) = 4.88871 6.89851 5.97867
#
# Compressibility (1/GPa) = 0.03993531
#
# Stress axis : x y z
#
# Youngs Moduli (GPa) = 34.71357 82.02399 154.44730
#
# Poissons Ratio (x) = -0.31134 0.65076
# Poissons Ratio (y) = -0.13176 0.51760
# Poissons Ratio (z) = 0.14627 0.27489
#
# Static dielectric constant tensor:
#      x y z
#    x 2.115240 0.087100 -0.002850 
#    y 0.087100 2.000520 0.061670 
#    z -0.002850 0.061670 2.077810 
# 
# From -- ./inp_files/469481.got.cif
#   From: 2010.05.17/outbox.cif.g08.bks.cpg/sg2_235_cif.got.tgz:469481.got - 2010.06.03 11:33:40.
