data_PCOD9076614
_publ_section_title
;
Structure prediction by ZEFSAII (Michael W. Deem and Ramdas Pophale) SiO2 
 PCOD9076614
Probable space group: P -1
;
_chemical_formula_sum "Si O2"
_cell_formula_units_Z 14
_cell_length_a 13.011403
_cell_length_b 13.563222
_cell_length_c 6.441257
_cell_angle_alpha 87.807829
_cell_angle_beta 125.261158
_cell_angle_gamma 129.045722
_cell_volume 618.712976
_symmetry_space_group_name_H-M "P -1"
_symmetry_group_IT_number 2
_symmetry_cell_setting 'triclinic'
loop_
_space_group_symop_operation_xyz
x,y,z
-x,-y,-z
loop_
_atom_site_type_symbol
_atom_site_label
_atom_site_fract_x
_atom_site_fract_y
_atom_site_fract_z
Si Si1 0.218132 0.963494 0.830217
Si Si2 0.751241 0.137414 0.734488
Si Si3 0.529858 0.844924 0.272226
Si Si4 0.896174 0.730218 0.145260
Si Si5 0.140901 0.607098 0.341209
Si Si6 0.193600 0.521775 0.774222
Si Si7 0.210195 0.130380 0.146709
O O1 0.031433 0.847497 0.480091
O O2 0.391739 0.078057 0.867090
O O3 0.227823 0.873279 0.996990
O O4 0.220664 0.059354 0.975494
O O5 0.725079 0.232274 0.610767
O O6 0.950473 0.216163 0.854786
O O7 0.587548 0.972117 0.467683
O O8 0.650538 0.826695 0.516521
O O9 0.322847 0.679752 0.021382
O O10 0.770344 0.566964 0.096686
O O11 0.771176 0.746735 0.914501
O O12 0.216883 0.555523 0.552936
O O13 0.020333 0.588271 0.385604
O O14 0.000000 0.500000 0.000000
O O15 0.000000 0.000000 0.000000
#
# Coordination Sequence:
#
# PCOD9076614 Si02
#       7
#     2   2   2   2   2   2   2
#     4  10  18  33  58  81 110 144 186 224 264 322
#     4   9  19  35  57  84 106 143 188 228 267 321
#     4  10  22  36  54  84 118 142 178 230 274 320
#     4  10  19  34  57  80 110 148 186 221 269 321
#     4  10  21  40  63  79 105 146 189 225 278 332
#     4  10  23  40  55  82 115 142 179 233 279 324
#     4  11  19  34  57  86 109 146 189 222 262 322
#
# _framework density 22.627616
#
# number of rings (size 3 to 8) (size 9 to 14) (size 15 to 20)
#    0.000    2.000    4.286    1.286    0.000    4.571 
#    0.000    2.143    0.000    0.000    0.000    0.000 
#    0.000    0.000    0.000    0.000    0.000    0.000 
#
# Total GULP energy -78231.072383 kJ/mol
# GULP energy per Si atom -5587.933742 kJ/mol
# Density = 2.257611 g / cm^3
# Si number density = 22.627616 Si / 1000 Ang^3
#
#
#
# Elastic Constant Matrix: (Units=GPa)
#
#
# Indices 1 2 3 4 5 6 
#
# 1 40.5020 33.5726 14.0214 -14.0715 -5.7724 5.3467
# 2 33.5726 215.2213 59.4467 -29.1675 4.0370 -18.1752
# 3 14.0214 59.4467 95.8556 -24.6071 5.0432 2.1494
# 4 -14.0715 -29.1675 -24.6071 50.9992 -0.3365 5.9075
# 5 -5.7724 4.0370 5.0432 -0.3365 25.3788 -7.8136
# 6 5.3467 -18.1752 2.1494 5.9075 -7.8136 34.5077
#
#
#
# Elastic Compliance Matrix: (Units=1/GPa)
#
#
# Indices 1 2 3 4 5 6 
#
# 1 0.033185 -0.004927 -0.000100 0.007209 0.006113 -0.007580
# 2 -0.004927 0.006810 -0.003515 0.000319 -0.000119 0.004488
# 3 -0.000100 -0.003515 0.014290 0.005349 -0.003605 -0.004458
# 4 0.007209 0.000319 0.005349 0.025023 -0.000920 -0.005774
# 5 0.006113 -0.000119 -0.003605 -0.000920 0.044420 0.009430
# 6 -0.007580 0.004488 -0.004458 -0.005774 0.009430 0.035919
#
#
# Mechanical properties :
#
#
# Convention : Reuss Voigt Hill
#
# Bulk Modulus (GPa) = 26.88072 62.85116 44.86594
# Shear Modulus (GPa) = 26.43653 38.47968 32.45810
#
# Velocity S-wave (km/s) = 3.42179 4.12826 3.79152
# Velocity P-wave (km/s) = 5.24566 7.11056 6.24808
#
# Compressibility (1/GPa) = 0.03720138
#
# Stress axis : x y z
#
# Youngs Moduli (GPa) = 30.13391 146.83527 69.97902
#
# Poissons Ratio (x) = 0.72344 0.00698
# Poissons Ratio (y) = 0.14847 0.24600
# Poissons Ratio (z) = 0.00301 0.51618
#
# Static dielectric constant tensor:
#      x y z
#    x 1.906700 -0.019790 -0.004330 
#    y -0.019790 1.877790 -0.050990 
#    z -0.004330 -0.050990 1.865470 
# 
# From -- ./inp_files/27020.got.cif
#   From: 2010.05.17/outbox.cif.g08.bks.cpg/sg2_14_cif.got.tgz:27020.got - 2010.06.03 11:33:40.
