data_PCOD9076328
_publ_section_title
;
Structure prediction by ZEFSAII (Michael W. Deem and Ramdas Pophale) SiO2 
 PCOD9076328
Probable space group: P -1
;
_chemical_formula_sum "Si O2"
_cell_formula_units_Z 14
_cell_length_a 16.988828
_cell_length_b 5.599204
_cell_length_c 9.731441
_cell_angle_alpha 121.448983
_cell_angle_beta 66.055381
_cell_angle_gamma 139.800849
_cell_volume 509.672140
_symmetry_space_group_name_H-M "P -1"
_symmetry_group_IT_number 2
_symmetry_cell_setting 'triclinic'
loop_
_space_group_symop_operation_xyz
x,y,z
-x,-y,-z
loop_
_atom_site_type_symbol
_atom_site_label
_atom_site_fract_x
_atom_site_fract_y
_atom_site_fract_z
Si Si1 0.017834 0.761021 0.328914
Si Si2 0.754692 0.243302 0.395538
Si Si3 0.168543 0.008765 0.529153
Si Si4 0.144123 0.915665 0.034244
Si Si5 0.496399 0.941815 0.722591
Si Si6 0.767076 0.505055 0.107672
Si Si7 0.478139 0.546980 0.332964
O O1 0.875540 0.398644 0.279329
O O2 0.068127 0.678171 0.389705
O O3 0.121034 0.033662 0.226632
O O4 0.000000 0.000000 0.500000
O O5 0.759032 0.587343 0.487299
O O6 0.767164 0.116634 0.493774
O O7 0.626163 0.862286 0.308472
O O8 0.153571 0.165353 0.725691
O O9 0.211062 0.777724 0.985121
O O10 0.195569 0.251693 0.986089
O O11 0.000000 0.500000 0.000000
O O12 0.372135 0.746635 0.826895
O O13 0.467117 0.697300 0.528869
O O14 0.564743 0.870260 0.745552
O O15 0.561700 0.366760 0.744574
#
# Coordination Sequence:
#
# PCOD9076328 Si02
#       7
#     2   2   2   2   2   2   2
#     4  10  24  41  58  85 118 158 203 238 280 352
#     4  11  19  34  56  81 116 147 188 248 284 331
#     4  11  21  36  59  82 115 157 190 238 283 342
#     4  12  26  38  58  86 118 163 195 235 297 354
#     4  10  20  32  57  83 122 147 187 244 302 344
#     4  12  22  40  59  87 123 152 190 247 300 343
#     4  10  18  33  54  87 116 148 192 238 304 340
#
# _framework density 27.468640000000001
#
# number of rings (size 3 to 8) (size 9 to 14) (size 15 to 20)
#    0.000    1.143    2.857    5.143    0.000    4.571 
#    0.000    0.000    0.000    0.000    0.000   14.000 
#    0.000    0.000    0.000    0.000    0.000    0.000 
#
# Total GULP energy -78083.800681 kJ/mol
# GULP energy per Si atom -5577.414334 kJ/mol
# Density = 2.740612 g / cm^3
# Si number density = 27.468640 Si / 1000 Ang^3
#
#
#
# Elastic Constant Matrix: (Units=GPa)
#
#
# Indices 1 2 3 4 5 6 
#
# 1 138.3430 94.3786 59.5936 -32.8213 -16.5064 -60.1585
# 2 94.3786 111.2548 57.1205 -32.2706 6.2043 -51.1826
# 3 59.5936 57.1205 127.7485 -51.5391 -16.0135 -11.1050
# 4 -32.8213 -32.2706 -51.5391 56.5935 -1.3463 6.5438
# 5 -16.5064 6.2043 -16.0135 -1.3463 47.1648 -14.1949
# 6 -60.1585 -51.1826 -11.1050 6.5438 -14.1949 68.5268
#
#
#
# Elastic Compliance Matrix: (Units=1/GPa)
#
#
# Indices 1 2 3 4 5 6 
#
# 1 0.028824 -0.016078 -0.000392 0.005722 0.017118 0.016231
# 2 -0.016078 0.028067 -0.005631 0.000877 -0.010072 0.003766
# 3 -0.000392 -0.005631 0.015525 0.011056 0.005610 -0.001928
# 4 0.005722 0.000877 0.011056 0.031035 0.008407 0.006248
# 5 0.017118 -0.010072 0.005610 0.008407 0.035144 0.014891
# 6 0.016231 0.003766 -0.001928 0.006248 0.014891 0.033830
#
#
# Mechanical properties :
#
#
# Convention : Reuss Voigt Hill
#
# Bulk Modulus (GPa) = 35.44343 88.83686 62.14014
# Shear Modulus (GPa) = 22.12072 45.54059 33.83066
#
# Velocity S-wave (km/s) = 2.84087 4.07616 3.51324
# Velocity P-wave (km/s) = 4.86744 7.38680 6.25527
#
# Compressibility (1/GPa) = 0.02821398
#
# Stress axis : x y z
#
# Youngs Moduli (GPa) = 34.69330 35.62857 64.41317
#
# Poissons Ratio (x) = 0.57285 0.02524
# Poissons Ratio (y) = 0.55781 0.36271
# Poissons Ratio (z) = 0.01359 0.20062
#
# Static dielectric constant tensor:
#      x y z
#    x 2.403310 0.188020 0.221780 
#    y 0.188020 2.362740 0.132740 
#    z 0.221780 0.132740 2.543960 
# 
# From -- ./inp_files/323973.got.cif
#   From: 2010.05.17/outbox.cif.g08.bks.cpg/sg2_162_cif.got.tgz:323973.got - 2010.06.03 11:33:40.
