data_PCOD9076382
_publ_section_title
;
Structure prediction by ZEFSAII (Michael W. Deem and Ramdas Pophale) SiO2 
 PCOD9076382
Probable space group: P -1
;
_chemical_formula_sum "Si O2"
_cell_formula_units_Z 16
_cell_length_a 13.996641
_cell_length_b 14.395480
_cell_length_c 11.357965
_cell_angle_alpha 80.340953
_cell_angle_beta 61.982973
_cell_angle_gamma 30.927741
_cell_volume 888.001825
_symmetry_space_group_name_H-M "P -1"
_symmetry_group_IT_number 2
_symmetry_cell_setting 'triclinic'
loop_
_space_group_symop_operation_xyz
x,y,z
-x,-y,-z
loop_
_atom_site_type_symbol
_atom_site_label
_atom_site_fract_x
_atom_site_fract_y
_atom_site_fract_z
Si Si1 0.215250 0.066826 0.901113
Si Si2 0.474239 0.911827 0.003466
Si Si3 0.875318 0.506764 0.009009
Si Si4 0.002738 0.819957 0.758286
Si Si5 0.235326 0.859144 0.825821
Si Si6 0.440442 0.401382 0.712046
Si Si7 0.080865 0.963676 0.627213
Si Si8 0.434619 0.549110 0.167349
O O1 0.260090 0.952551 0.804546
O O2 0.441627 0.922022 0.880542
O O3 0.069065 0.275161 0.909459
O O4 0.062630 0.126979 0.075587
O O5 0.702026 0.677489 0.969744
O O6 0.218117 0.075837 0.174138
O O7 0.500000 0.000000 0.000000
O O8 0.697061 0.588424 0.181960
O O9 0.000000 0.500000 0.000000
O O10 0.280322 0.570945 0.661771
O O11 0.983188 0.933027 0.679732
O O12 0.199905 0.868254 0.707551
O O13 0.461543 0.628080 0.801006
O O14 0.000000 0.000000 0.000000
O O15 0.711425 0.178849 0.556225
O O16 0.449757 0.458649 0.813761
O O17 0.853192 0.211005 0.705802
O O18 0.500000 0.500000 0.000000
#
# Coordination Sequence:
#
# PCOD9076382 Si02
#       8
#     2   2   2   2   2   2   2   2
#     4   9  20  32  54  86 112 143 198 238 286 333
#     4  10  18  33  55  85 110 143 193 249 287 330
#     4  11  20  37  61  86 113 148 196 250 293 343
#     4   9  18  34  55  78 116 154 185 236 291 336
#     4  12  20  37  56  82 120 160 198 237 288 352
#     4  11  23  39  57  90 121 154 196 246 301 343
#     4  12  23  38  57  85 128 157 192 246 293 356
#     4  12  24  35  59  86 121 161 203 231 287 357
#
# _framework density 18.017980999999999
#
# number of rings (size 3 to 8) (size 9 to 14) (size 15 to 20)
#    0.750    0.500    5.000    2.250    1.750    0.000 
#    0.000    0.000    0.000    0.750    0.000    2.625 
#    0.000    0.000    0.000    0.000    0.000    0.000 
#
# Total GULP energy -89087.352179 kJ/mol
# GULP energy per Si atom -5567.959511 kJ/mol
# Density = 1.797697 g / cm^3
# Si number density = 18.017981 Si / 1000 Ang^3
#
#
#
# Elastic Constant Matrix: (Units=GPa)
#
#
# Indices 1 2 3 4 5 6 
#
# 1 134.0240 51.6313 43.1951 2.5002 -3.8400 9.5491
# 2 51.6313 167.8655 30.6448 15.5938 2.2919 -4.4341
# 3 43.1951 30.6448 58.1722 11.1081 2.6471 1.1490
# 4 2.5002 15.5938 11.1081 20.2468 -5.2698 0.0818
# 5 -3.8400 2.2919 2.6471 -5.2698 15.3763 -4.3003
# 6 9.5491 -4.4341 1.1490 0.0818 -4.3003 34.3019
#
#
#
# Elastic Compliance Matrix: (Units=1/GPa)
#
#
# Indices 1 2 3 4 5 6 
#
# 1 0.011600 -0.002796 -0.008781 0.007273 0.006624 -0.002484
# 2 -0.002796 0.007576 -0.000635 -0.006033 -0.003404 0.001367
# 3 -0.008781 -0.000635 0.027885 -0.017051 -0.012780 -0.000133
# 4 0.007273 -0.006033 -0.017051 0.070333 0.030141 0.001377
# 5 0.006624 -0.003404 -0.012780 0.030141 0.082065 0.008360
# 6 -0.002484 0.001367 -0.000133 0.001377 0.008360 0.031070
#
#
# Mechanical properties :
#
#
# Convention : Reuss Voigt Hill
#
# Bulk Modulus (GPa) = 44.17669 67.88934 56.03301
# Shear Modulus (GPa) = 19.04762 29.62437 24.33600
#
# Velocity S-wave (km/s) = 3.25490 4.05922 3.67911
# Velocity P-wave (km/s) = 6.22071 7.72853 7.01525
#
# Compressibility (1/GPa) = 0.02263637
#
# Stress axis : x y z
#
# Youngs Moduli (GPa) = 86.20799 131.99355 35.86105
#
# Poissons Ratio (x) = 0.36911 0.31491
# Poissons Ratio (y) = 0.24107 0.02276
# Poissons Ratio (z) = 0.75702 0.08378
#
# Static dielectric constant tensor:
#      x y z
#    x 1.664210 -0.018590 0.018770 
#    y -0.018590 1.676860 0.031380 
#    z 0.018770 0.031380 1.640510 
# 
# From -- ./inp_files/453782.got.cif
#   From: 2010.05.17/outbox.cif.g08.bks.cpg/sg2_227_cif.got.tgz:453782.got - 2010.06.03 11:33:40.
