data_PCOD9076233
_publ_section_title
;
Structure prediction by ZEFSAII (Michael W. Deem and Ramdas Pophale) SiO2 
 PCOD9076233
Probable space group: P -1
;
_chemical_formula_sum "Si O2"
_cell_formula_units_Z 16
_cell_length_a 27.089559
_cell_length_b 6.853363
_cell_length_c 11.129877
_cell_angle_alpha 91.884554
_cell_angle_beta 22.691346
_cell_angle_gamma 78.283960
_cell_volume 634.121212
_symmetry_space_group_name_H-M "P -1"
_symmetry_group_IT_number 2
_symmetry_cell_setting 'triclinic'
loop_
_space_group_symop_operation_xyz
x,y,z
-x,-y,-z
loop_
_atom_site_type_symbol
_atom_site_label
_atom_site_fract_x
_atom_site_fract_y
_atom_site_fract_z
Si Si1 0.790747 0.812434 0.724364
Si Si2 0.720366 0.430004 0.637121
Si Si3 0.561597 0.706291 0.244891
Si Si4 0.054967 0.626452 0.293115
Si Si5 0.705536 0.742275 0.457752
Si Si6 0.986379 0.671190 0.927237
Si Si7 0.322655 0.627519 0.793942
Si Si8 0.429715 0.806493 0.960726
O O1 0.900589 0.834528 0.566709
O O2 0.908947 0.525647 0.417314
O O3 0.629923 0.853965 0.131500
O O4 0.728514 0.981864 0.751199
O O5 0.719011 0.560378 0.523853
O O6 0.904251 0.252589 0.270428
O O7 0.624447 0.618919 0.966584
O O8 0.628421 0.312843 0.825629
O O9 0.378014 0.801414 0.659611
O O10 0.643469 0.480563 0.150146
O O11 0.000000 0.500000 0.500000
O O12 0.186948 0.419668 0.900447
O O13 0.147631 0.715854 0.152190
O O14 0.523858 0.892596 0.819424
O O15 0.802542 0.837593 0.297294
O O16 0.000000 0.500000 0.000000
O O17 0.448759 0.397756 0.416286
#
# Coordination Sequence:
#
# PCOD9076233 Si02
#       8
#     2   2   2   2   2   2   2   2
#     4  10  19  32  53  80 105 129 169 220 261 292
#     4   9  17  33  55  73 103 139 175 206 248 313
#     4   9  17  32  53  75 100 137 177 202 249 312
#     4  10  18  33  53  77 100 135 173 209 250 316
#     4   9  18  33  53  76 100 139 176 205 249 316
#     4   8  16  33  52  70  97 140 174 194 240 316
#     4   9  18  33  54  75  99 139 177 205 249 315
#     4  10  20  32  51  83 106 128 167 224 266 286
#
# _framework density 25.231769
#
# number of rings (size 3 to 8) (size 9 to 14) (size 15 to 20)
#    0.000    2.750    1.250    0.375    0.000    0.500 
#    0.000   12.500    0.000    6.750    0.000    0.000 
#    0.000    0.000    0.000    0.000    0.000    0.000 
#
# Total GULP energy -89319.897849 kJ/mol
# GULP energy per Si atom -5582.493616 kJ/mol
# Density = 2.517434 g / cm^3
# Si number density = 25.231769 Si / 1000 Ang^3
#
#
#
# Elastic Constant Matrix: (Units=GPa)
#
#
# Indices 1 2 3 4 5 6 
#
# 1 123.0777 29.8292 70.0063 -3.3512 -31.7221 -9.7592
# 2 29.8292 48.0299 45.4747 -14.6469 -3.8710 -9.1309
# 3 70.0063 45.4747 148.0819 -25.4382 -33.3852 -0.3929
# 4 -3.3512 -14.6469 -25.4382 42.2135 -4.4932 6.5498
# 5 -31.7221 -3.8710 -33.3852 -4.4932 71.9560 -1.0650
# 6 -9.7592 -9.1309 -0.3929 6.5498 -1.0650 31.0367
#
#
#
# Elastic Compliance Matrix: (Units=1/GPa)
#
#
# Indices 1 2 3 4 5 6 
#
# 1 0.012676 -0.003341 -0.004853 -0.003339 0.003004 0.003749
# 2 -0.003341 0.033754 -0.008708 0.004658 -0.003293 0.007674
# 3 -0.004853 -0.008708 0.013653 0.006033 0.004028 -0.005050
# 4 -0.003339 0.004658 0.006033 0.029934 0.003361 -0.005805
# 5 0.003004 -0.003293 0.004028 0.003361 0.017122 -0.000095
# 6 0.003749 0.007674 -0.005050 -0.005805 -0.000095 0.036814
#
#
# Mechanical properties :
#
#
# Convention : Reuss Voigt Hill
#
# Bulk Modulus (GPa) = 38.05431 67.75668 52.90549
# Shear Modulus (GPa) = 26.80748 40.63320 33.72034
#
# Velocity S-wave (km/s) = 3.26306 4.01733 3.65968
# Velocity P-wave (km/s) = 5.41400 6.95921 6.23466
#
# Compressibility (1/GPa) = 0.02627823
#
# Stress axis : x y z
#
# Youngs Moduli (GPa) = 78.89209 29.62631 73.24630
#
# Poissons Ratio (x) = 0.09898 0.35546
# Poissons Ratio (y) = 0.26357 0.63782
# Poissons Ratio (z) = 0.38286 0.25798
#
# Static dielectric constant tensor:
#      x y z
#    x 2.061930 0.045970 -0.000450 
#    y 0.045970 1.966710 0.033500 
#    z -0.000450 0.033500 2.083700 
# 
# From -- ./inp_files/203760.got.cif
#   From: 2010.05.17/outbox.cif.g08.bks.cpg/sg2_102_cif.got.tgz:203760.got - 2010.06.03 11:33:40.
