data_PCOD9076671
_publ_section_title
;
Structure prediction by ZEFSAII (Michael W. Deem and Ramdas Pophale) SiO2 
 PCOD9076671
Probable space group: P -1
;
_chemical_formula_sum "Si O2"
_cell_formula_units_Z 16
_cell_length_a 7.368963
_cell_length_b 16.956904
_cell_length_c 9.588905
_cell_angle_alpha 79.253662
_cell_angle_beta 123.493377
_cell_angle_gamma 134.857586
_cell_volume 665.335889
_symmetry_space_group_name_H-M "P -1"
_symmetry_group_IT_number 2
_symmetry_cell_setting 'triclinic'
loop_
_space_group_symop_operation_xyz
x,y,z
-x,-y,-z
loop_
_atom_site_type_symbol
_atom_site_label
_atom_site_fract_x
_atom_site_fract_y
_atom_site_fract_z
Si Si1 0.405208 0.927782 0.122530
Si Si2 0.253043 0.880632 0.605863
Si Si3 0.360344 0.663265 0.447589
Si Si4 0.721759 0.851847 0.316829
Si Si5 0.886693 0.560769 0.696199
Si Si6 0.898111 0.651914 0.378396
Si Si7 0.645686 0.375859 0.946775
Si Si8 0.880809 0.720828 0.787509
O O1 0.675916 0.932910 0.251592
O O2 0.418749 0.992949 0.236232
O O3 0.076791 0.794478 0.985425
O O4 0.500000 0.000000 0.000000
O O5 0.067117 0.904639 0.448273
O O6 0.191514 0.791672 0.501589
O O7 0.071552 0.802416 0.699275
O O8 0.571139 0.787473 0.422426
O O9 0.327959 0.577520 0.361490
O O10 0.549288 0.679190 0.653533
O O11 0.025788 0.613881 0.352373
O O12 0.502324 0.742812 0.151120
O O13 0.824917 0.589934 0.515897
O O14 0.837723 0.614663 0.776938
O O15 0.246546 0.625039 0.854006
O O16 0.621328 0.628179 0.192849
O O17 0.000000 0.500000 0.000000
#
# Coordination Sequence:
#
# PCOD9076671 Si02
#       8
#     2   2   2   2   2   2   2   2
#     4  10  18  33  58  89 107 137 197 254 284 332
#     4   8  18  35  57  78 108 149 189 240 291 325
#     4  11  22  38  55  84 122 161 183 231 298 347
#     4  10  19  35  57  85 113 145 193 246 287 342
#     4  11  21  38  61  84 118 159 192 235 288 337
#     4  10  24  40  55  85 127 154 195 232 283 358
#     4  11  22  38  61  90 112 155 199 241 286 337
#     4   9  19  33  59  85 111 144 197 241 281 337
#
# _framework density 24.048003999999999
#
# number of rings (size 3 to 8) (size 9 to 14) (size 15 to 20)
#    0.000    2.000    2.500    1.875    1.750    0.500 
#    2.250    1.250    0.000    0.000    0.000    0.000 
#    0.000    0.000    0.000    0.000    0.000    0.000 
#
# Total GULP energy -89241.884411 kJ/mol
# GULP energy per Si atom -5577.617776 kJ/mol
# Density = 2.399327 g / cm^3
# Si number density = 24.048004 Si / 1000 Ang^3
#
#
#
# Elastic Constant Matrix: (Units=GPa)
#
#
# Indices 1 2 3 4 5 6 
#
# 1 55.3998 19.0804 24.7107 -5.9731 13.0620 -20.2735
# 2 19.0804 114.3517 40.3773 -5.4642 1.0664 -30.0789
# 3 24.7107 40.3773 141.9820 12.1794 17.0152 -19.7802
# 4 -5.9731 -5.4642 12.1794 47.7145 -8.3181 4.6943
# 5 13.0620 1.0664 17.0152 -8.3181 17.5836 -9.8888
# 6 -20.2735 -30.0789 -19.7802 4.6943 -9.8888 18.8883
#
#
#
# Elastic Compliance Matrix: (Units=1/GPa)
#
#
# Indices 1 2 3 4 5 6 
#
# 1 0.032671 0.007698 -0.001975 0.001613 0.004484 0.047204
# 2 0.007698 0.023947 -0.004354 0.004667 0.031360 0.057095
# 3 -0.001975 -0.004354 0.010033 -0.005119 -0.012566 -0.003853
# 4 0.001613 0.004667 -0.005119 0.025725 0.020104 0.007935
# 5 0.004484 0.031360 -0.012566 0.020104 0.133070 0.106264
# 6 0.047204 0.057095 -0.003853 0.007935 0.106264 0.244156
#
#
# Mechanical properties :
#
#
# Convention : Reuss Voigt Hill
#
# Bulk Modulus (GPa) = 14.41160 53.34113 33.87636
# Shear Modulus (GPa) = 10.20421 32.00828 21.10624
#
# Velocity S-wave (km/s) = 2.06215 3.65227 2.96577
# Velocity P-wave (km/s) = 3.41699 6.32571 5.08382
#
# Compressibility (1/GPa) = 0.06938856
#
# Stress axis : x y z
#
# Youngs Moduli (GPa) = 30.60803 41.75944 99.66802
#
# Poissons Ratio (x) = -0.32144 0.19681
# Poissons Ratio (y) = -0.23561 0.43397
# Poissons Ratio (z) = 0.06044 0.18183
#
# Static dielectric constant tensor:
#      x y z
#    x 1.925750 0.051280 0.014110 
#    y 0.051280 1.978140 0.013950 
#    z 0.014110 0.013950 1.995170 
# 
# From -- ./inp_files/227380.got.cif
#   From: 2010.05.17/outbox.cif.g08.bks.cpg/sg2_114_cif.got.tgz:227380.got - 2010.06.03 11:33:40.
