data_PCOD9076517
_publ_section_title
;
Structure prediction by ZEFSAII (Michael W. Deem and Ramdas Pophale) SiO2 
 PCOD9076517
Probable space group: P -1
;
_chemical_formula_sum "Si O2"
_cell_formula_units_Z 14
_cell_length_a 12.699887
_cell_length_b 29.611040
_cell_length_c 11.740132
_cell_angle_alpha 152.337919
_cell_angle_beta 135.682153
_cell_angle_gamma 23.294161
_cell_volume 685.326532
_symmetry_space_group_name_H-M "P -1"
_symmetry_group_IT_number 2
_symmetry_cell_setting 'triclinic'
loop_
_space_group_symop_operation_xyz
x,y,z
-x,-y,-z
loop_
_atom_site_type_symbol
_atom_site_label
_atom_site_fract_x
_atom_site_fract_y
_atom_site_fract_z
Si Si1 0.252186 0.879490 0.749869
Si Si2 0.650782 0.824358 0.957298
Si Si3 0.419242 0.694805 0.800406
Si Si4 0.656739 0.199970 0.619905
Si Si5 0.396690 0.608838 0.835142
Si Si6 0.805806 0.574208 0.663243
Si Si7 0.672342 0.977583 0.166706
O O1 0.317026 0.960354 0.980897
O O2 0.304921 0.812664 0.513810
O O3 0.522662 0.692342 0.627183
O O4 0.897975 0.064436 0.927335
O O5 0.778308 0.705021 0.906919
O O6 0.880992 0.645011 0.640099
O O7 0.657622 0.933637 0.180270
O O8 0.413447 0.666121 0.863266
O O9 0.423410 0.591679 0.502985
O O10 0.717036 0.587963 0.749341
O O11 0.521170 0.170064 0.475002
O O12 0.491893 0.386270 0.964242
O O13 0.000000 0.000000 0.500000
O O14 0.035011 0.783184 0.972628
O O15 0.500000 0.000000 0.000000
#
# Coordination Sequence:
#
# PCOD9076517 Si02
#       7
#     2   2   2   2   2   2   2
#     4  10  18  33  57  80 104 140 187 214 265 320
#     4   9  18  32  53  84 101 139 184 222 256 317
#     4  11  18  34  54  80 113 138 176 220 275 321
#     4  10  19  34  52  84 109 136 181 229 261 317
#     4  10  22  32  54  85 110 139 173 229 278 310
#     4   9  19  32  53  82 107 138 184 224 257 318
#     4  11  16  32  58  79 101 138 185 224 257 318
#
# _framework density 20.428218999999999
#
# number of rings (size 3 to 8) (size 9 to 14) (size 15 to 20)
#    0.857    1.143    5.714    0.429    0.000    0.000 
#    0.000    0.714    0.000   14.571    0.000    0.000 
#    0.000    0.000    0.000    0.000    0.000    0.000 
#
# Total GULP energy -77943.387883 kJ/mol
# GULP energy per Si atom -5567.384849 kJ/mol
# Density = 2.038172 g / cm^3
# Si number density = 20.428219 Si / 1000 Ang^3
#
#
#
# Elastic Constant Matrix: (Units=GPa)
#
#
# Indices 1 2 3 4 5 6 
#
# 1 107.3540 0.1486 6.8754 -8.3212 -2.2156 -9.6103
# 2 0.1486 35.0271 5.5743 -2.2854 0.5498 -4.2841
# 3 6.8754 5.5743 72.7662 -14.6208 -1.3121 -4.8584
# 4 -8.3212 -2.2854 -14.6208 21.2074 -4.7747 -2.0051
# 5 -2.2156 0.5498 -1.3121 -4.7747 21.1782 3.6172
# 6 -9.6103 -4.2841 -4.8584 -2.0051 3.6172 27.5615
#
#
#
# Elastic Compliance Matrix: (Units=1/GPa)
#
#
# Indices 1 2 3 4 5 6 
#
# 1 0.010049 0.000678 0.000264 0.004897 0.001503 0.003815
# 2 0.000678 0.029572 -0.001486 0.002660 -0.001026 0.004899
# 3 0.000264 -0.001486 0.016613 0.012458 0.003348 0.003256
# 4 0.004897 0.002660 0.012458 0.061750 0.013945 0.006979
# 5 0.001503 -0.001026 0.003348 0.013945 0.051573 -0.004799
# 6 0.003815 0.004899 0.003256 0.006979 -0.004799 0.040086
#
#
# Mechanical properties :
#
#
# Convention : Reuss Voigt Hill
#
# Bulk Modulus (GPa) = 18.13382 26.70490 22.41936
# Shear Modulus (GPa) = 21.82327 27.49267 24.65797
#
# Velocity S-wave (km/s) = 3.27202 3.67252 3.47804
# Velocity P-wave (km/s) = 4.81362 5.57531 5.20841
#
# Compressibility (1/GPa) = 0.05514557
#
# Stress axis : x y z
#
# Youngs Moduli (GPa) = 99.50999 33.81593 60.19545
#
# Poissons Ratio (x) = -0.02292 -0.01592
# Poissons Ratio (y) = -0.06745 0.08947
# Poissons Ratio (z) = -0.02631 0.05026
#
# Static dielectric constant tensor:
#      x y z
#    x 1.824430 0.023240 0.040040 
#    y 0.023240 1.761180 0.015850 
#    z 0.040040 0.015850 1.722400 
# 
# From -- ./inp_files/237647.got.cif
#   From: 2010.05.17/outbox.cif.g08.bks.cpg/sg2_119_cif.got.tgz:237647.got - 2010.06.03 11:33:40.
