data_PCOD9076204
_publ_section_title
;
Structure prediction by ZEFSAII (Michael W. Deem and Ramdas Pophale) SiO2 
 PCOD9076204
Probable space group: P -1
;
_chemical_formula_sum "Si O2"
_cell_formula_units_Z 16
_cell_length_a 11.815147
_cell_length_b 11.887015
_cell_length_c 8.728809
_cell_angle_alpha 85.757002
_cell_angle_beta 132.011931
_cell_angle_gamma 60.040579
_cell_volume 610.188411
_symmetry_space_group_name_H-M "P -1"
_symmetry_group_IT_number 2
_symmetry_cell_setting 'triclinic'
loop_
_space_group_symop_operation_xyz
x,y,z
-x,-y,-z
loop_
_atom_site_type_symbol
_atom_site_label
_atom_site_fract_x
_atom_site_fract_y
_atom_site_fract_z
Si Si1 0.820876 0.856523 0.871784
Si Si2 0.329742 0.500648 0.414213
Si Si3 0.306329 0.376997 0.121868
Si Si4 0.819109 0.706427 0.592730
Si Si5 0.618454 0.385123 0.298392
Si Si6 0.611443 0.026648 0.980991
Si Si7 0.220995 0.924263 0.401106
Si Si8 0.992050 0.177555 0.419293
O O1 0.740193 0.816106 0.665899
O O2 0.715269 0.907934 0.938134
O O3 0.802612 0.995528 0.784772
O O4 0.078957 0.677816 0.132212
O O5 0.500000 0.500000 0.500000
O O6 0.349458 0.377893 0.342263
O O7 0.368349 0.498459 0.628979
O O8 0.378656 0.454383 0.094834
O O9 0.523978 0.182390 0.293459
O O10 0.040028 0.504538 0.839835
O O11 0.597217 0.785311 0.294340
O O12 0.922394 0.748692 0.573456
O O13 0.765895 0.217059 0.557427
O O14 0.747077 0.309424 0.262720
O O15 0.500000 0.000000 0.000000
O O16 0.821294 0.963099 0.270794
O O17 0.024732 0.078860 0.314856
#
# Coordination Sequence:
#
# PCOD9076204 Si02
#       8
#     2   2   2   2   2   2   2   2
#     4  10  18  34  56  79 103 138 181 214 262 311
#     4   9  16  31  51  79 106 136 168 220 248 310
#     4   8  18  33  51  75 111 135 176 213 263 305
#     4   9  19  34  55  76 101 135 185 220 256 304
#     4   9  17  31  54  73 113 136 174 210 267 304
#     4  10  20  34  56  78 103 134 183 229 253 301
#     4   9  20  32  53  77 110 142 169 211 262 327
#     4  10  18  33  52  80 104 139 175 217 263 310
#
# _framework density 26.221409000000001
#
# number of rings (size 3 to 8) (size 9 to 14) (size 15 to 20)
#    0.750    2.000    1.250    0.750    0.000    1.000 
#    0.000    1.250    2.750    0.000    0.000    0.000 
#    0.000    0.000    0.000    0.000    0.000    0.000 
#
# Total GULP energy -89271.095482 kJ/mol
# GULP energy per Si atom -5579.443468 kJ/mol
# Density = 2.616173 g / cm^3
# Si number density = 26.221409 Si / 1000 Ang^3
#
#
#
# Elastic Constant Matrix: (Units=GPa)
#
#
# Indices 1 2 3 4 5 6 
#
# 1 111.8501 45.4819 15.9095 0.4083 -16.6175 -12.8029
# 2 45.4819 83.6467 10.6044 -13.5099 -5.5413 -35.2861
# 3 15.9095 10.6044 81.5723 -5.9333 1.0453 -17.9032
# 4 0.4083 -13.5099 -5.9333 30.3459 -9.0871 1.6470
# 5 -16.6175 -5.5413 1.0453 -9.0871 25.8473 -1.6885
# 6 -12.8029 -35.2861 -17.9032 1.6470 -1.6885 50.3911
#
#
#
# Elastic Compliance Matrix: (Units=1/GPa)
#
#
# Indices 1 2 3 4 5 6 
#
# 1 0.013075 -0.008005 -0.002380 -0.002318 0.005784 -0.002859
# 2 -0.008005 0.025343 0.002733 0.012748 0.005733 0.016459
# 3 -0.002380 0.002733 0.013988 0.003708 0.000197 0.006164
# 4 -0.002318 0.012748 0.003708 0.044044 0.017152 0.008791
# 5 0.005784 0.005733 0.000197 0.017152 0.050095 0.006672
# 6 -0.002859 0.016459 0.006164 0.008791 0.006672 0.032770
#
#
# Mechanical properties :
#
#
# Convention : Reuss Voigt Hill
#
# Bulk Modulus (GPa) = 26.95248 46.78452 36.86850
# Shear Modulus (GPa) = 24.15633 34.98843 29.57238
#
# Velocity S-wave (km/s) = 3.03849 3.65683 3.36191
# Velocity P-wave (km/s) = 4.75511 5.97585 5.40008
#
# Compressibility (1/GPa) = 0.03710234
#
# Stress axis : x y z
#
# Youngs Moduli (GPa) = 76.48447 39.45847 71.48997
#
# Poissons Ratio (x) = 0.31586 0.17012
# Poissons Ratio (y) = 0.61224 -0.19537
# Poissons Ratio (z) = 0.18201 -0.10783
#
# Static dielectric constant tensor:
#      x y z
#    x 2.103880 0.019030 -0.022890 
#    y 0.019030 2.074250 0.028410 
#    z -0.022890 0.028410 2.088710 
# 
# From -- ./inp_files/317707.got.cif
#   From: 2010.05.17/outbox.cif.g08.bks.cpg/sg2_159_cif.got.tgz:317707.got - 2010.06.03 11:33:40.
