data_PCOD9076159
_publ_section_title
;
Structure prediction by ZEFSAII (Michael W. Deem and Ramdas Pophale) SiO2 
 PCOD9076159
Probable space group: P -1
;
_chemical_formula_sum "Si O2"
_cell_formula_units_Z 16
_cell_length_a 12.484321
_cell_length_b 11.187847
_cell_length_c 18.701991
_cell_angle_alpha 88.733962
_cell_angle_beta 21.827399
_cell_angle_gamma 73.539145
_cell_volume 686.588354
_symmetry_space_group_name_H-M "P -1"
_symmetry_group_IT_number 2
_symmetry_cell_setting 'triclinic'
loop_
_space_group_symop_operation_xyz
x,y,z
-x,-y,-z
loop_
_atom_site_type_symbol
_atom_site_label
_atom_site_fract_x
_atom_site_fract_y
_atom_site_fract_z
Si Si1 0.656373 0.581199 0.376322
Si Si2 0.322852 0.807155 0.447664
Si Si3 0.529770 0.745452 0.594870
Si Si4 0.536154 0.393836 0.869645
Si Si5 0.385729 0.381075 0.119266
Si Si6 0.862481 0.326141 0.067774
Si Si7 0.021878 0.706105 0.543668
Si Si8 0.534032 0.966967 0.395468
O O1 0.500000 0.500000 0.500000
O O2 0.438391 0.675571 0.436981
O O3 0.519892 0.717769 0.517893
O O4 0.145141 0.448592 0.073346
O O5 0.004940 0.839770 0.591252
O O6 0.241863 0.952074 0.540833
O O7 0.754577 0.708120 0.143037
O O8 0.193085 0.765658 0.842126
O O9 0.941328 0.566263 0.373196
O O10 0.505903 0.892734 0.618519
O O11 0.416550 0.565079 0.963271
O O12 0.912403 0.293715 0.582144
O O13 0.580117 0.314733 0.920331
O O14 0.313173 0.286847 0.215711
O O15 0.453553 0.518022 0.302097
O O16 0.030960 0.217502 0.892172
O O17 0.500000 0.000000 0.500000
#
# Coordination Sequence:
#
# PCOD9076159 Si02
#       8
#     2   2   2   2   2   2   2   2
#     4  11  20  30  52  80 108 133 162 216 271 317
#     4  10  20  31  48  78 105 134 164 209 271 314
#     4  10  18  33  49  72 105 133 177 217 250 307
#     4  10  19  34  52  75 109 138 171 211 267 306
#     4   9  21  34  52  78 101 140 180 213 254 313
#     4   9  19  29  49  73 107 131 168 208 265 312
#     4  11  19  34  53  80 108 134 171 219 267 310
#     4  10  19  32  47  72 106 142 172 205 261 318
#
# _framework density 23.303629000000001
#
# number of rings (size 3 to 8) (size 9 to 14) (size 15 to 20)
#    0.750    1.250    2.500    3.375    3.500    0.000 
#    0.000    0.000    0.000    0.750    0.000   17.500 
#    0.000    0.000    0.000    0.000    0.000    0.000 
#
# Total GULP energy -89277.261606 kJ/mol
# GULP energy per Si atom -5579.828850 kJ/mol
# Density = 2.325059 g / cm^3
# Si number density = 23.303629 Si / 1000 Ang^3
#
#
#
# Elastic Constant Matrix: (Units=GPa)
#
#
# Indices 1 2 3 4 5 6 
#
# 1 90.7273 28.9834 38.6621 -8.7791 34.0568 17.5056
# 2 28.9834 115.1812 40.3803 -33.2820 9.5421 14.7291
# 3 38.6621 40.3803 76.5577 -38.2217 25.9490 -0.0866
# 4 -8.7791 -33.2820 -38.2217 51.1034 -3.0809 3.2690
# 5 34.0568 9.5421 25.9490 -3.0809 35.7128 -0.6781
# 6 17.5056 14.7291 -0.0866 3.2690 -0.6781 32.3503
#
#
#
# Elastic Compliance Matrix: (Units=1/GPa)
#
#
# Indices 1 2 3 4 5 6 
#
# 1 0.022432 -0.001129 -0.005453 -0.001254 -0.017461 -0.011878
# 2 -0.001129 0.012496 -0.003246 0.005910 0.000499 -0.005674
# 3 -0.005453 -0.003246 0.033561 0.020926 -0.016474 0.002059
# 4 -0.001254 0.005910 0.020926 0.038497 -0.012383 -0.006106
# 5 -0.017461 0.000499 -0.016474 -0.012383 0.055641 0.011595
# 6 -0.011878 -0.005674 0.002059 -0.006106 0.011595 0.040788
#
#
# Mechanical properties :
#
#
# Convention : Reuss Voigt Hill
#
# Bulk Modulus (GPa) = 20.47826 55.39087 37.93457
# Shear Modulus (GPa) = 20.88998 35.46264 28.17631
#
# Velocity S-wave (km/s) = 2.99729 3.90521 3.48098
# Velocity P-wave (km/s) = 4.55905 6.64493 5.69825
#
# Compressibility (1/GPa) = 0.04883228
#
# Stress axis : x y z
#
# Youngs Moduli (GPa) = 44.57966 80.02656 29.79615
#
# Poissons Ratio (x) = 0.09039 0.16249
# Poissons Ratio (y) = 0.05035 0.09670
# Poissons Ratio (z) = 0.24311 0.25973
#
# Static dielectric constant tensor:
#      x y z
#    x 1.900990 0.027240 0.015460 
#    y 0.027240 1.872710 -0.013800 
#    z 0.015460 -0.013800 1.939440 
# 
# From -- ./inp_files/597714.got.cif
#   From: 2010.05.17/outbox.cif.g08.bks.cpg/sg2_299_cif.got.tgz:597714.got - 2010.06.03 11:33:40.
