data_PCOD9076057
_publ_section_title
;
Structure prediction by ZEFSAII (Michael W. Deem and Ramdas Pophale) SiO2 
 PCOD9076057
Probable space group: P -1
;
_chemical_formula_sum "Si O2"
_cell_formula_units_Z 16
_cell_length_a 20.216485
_cell_length_b 22.972423
_cell_length_c 7.271216
_cell_angle_alpha 34.457411
_cell_angle_beta 134.483349
_cell_angle_gamma 154.279749
_cell_volume 816.862780
_symmetry_space_group_name_H-M "P -1"
_symmetry_group_IT_number 2
_symmetry_cell_setting 'triclinic'
loop_
_space_group_symop_operation_xyz
x,y,z
-x,-y,-z
loop_
_atom_site_type_symbol
_atom_site_label
_atom_site_fract_x
_atom_site_fract_y
_atom_site_fract_z
Si Si1 0.263798 0.504438 0.187272
Si Si2 0.905890 0.200130 0.316093
Si Si3 0.651879 0.203694 0.272200
Si Si4 0.943200 0.332485 0.648846
Si Si5 0.849138 0.351431 0.963416
Si Si6 0.668042 0.608922 0.097081
Si Si7 0.132153 0.311479 0.049222
Si Si8 0.902594 0.984759 0.715106
O O1 0.337847 0.479139 0.518085
O O2 0.233948 0.447347 0.064628
O O3 0.088454 0.360201 0.301695
O O4 0.348103 0.688760 0.898899
O O5 0.848871 0.034633 0.602798
O O6 0.904099 0.250320 0.981824
O O7 0.819556 0.204275 0.265033
O O8 0.790381 0.253943 0.486117
O O9 0.500000 0.000000 0.500000
O O10 0.706525 0.277601 0.977310
O O11 0.087117 0.540068 0.380443
O O12 0.020089 0.302021 0.775864
O O13 0.000000 0.500000 0.000000
O O14 0.500000 0.500000 0.000000
O O15 0.760016 0.639670 0.024670
O O16 0.766582 0.795333 0.865198
O O17 0.016173 0.128378 0.402037
O O18 0.000000 0.000000 0.000000
#
# Coordination Sequence:
#
# PCOD9076057 Si02
#       8
#     2   2   2   2   2   2   2   2
#     4  10  21  41  62  91 128 161 211 256 307 375
#     4  10  19  35  63  89 115 155 215 254 292 358
#     4  11  23  37  56  91 134 162 193 255 317 369
#     4   9  19  35  64  86 116 156 208 244 295 375
#     4  10  18  32  59  89 112 160 202 238 295 365
#     4  12  25  43  66  93 128 163 211 271 323 369
#     4  10  23  39  70  93 118 167 217 254 313 377
#     4  10  20  41  64  89 124 160 213 267 300 369
#
# _framework density 19.587133000000001
#
# number of rings (size 3 to 8) (size 9 to 14) (size 15 to 20)
#    0.000    2.000    5.000    1.500    3.500    2.500 
#    2.250    0.625    0.000    0.000    0.000    0.000 
#    0.000    0.000    0.000    0.000    0.000    0.000 
#
# Total GULP energy -89151.776218 kJ/mol
# GULP energy per Si atom -5571.986014 kJ/mol
# Density = 1.954255 g / cm^3
# Si number density = 19.587133 Si / 1000 Ang^3
#
#
#
# Elastic Constant Matrix: (Units=GPa)
#
#
# Indices 1 2 3 4 5 6 
#
# 1 66.8653 25.9693 32.7874 -18.4919 26.8446 -17.8325
# 2 25.9693 107.1561 60.0335 -14.9264 17.2423 -2.7052
# 3 32.7874 60.0335 118.1659 -7.3899 29.8024 -7.4738
# 4 -18.4919 -14.9264 -7.3899 40.6585 -5.2502 8.7828
# 5 26.8446 17.2423 29.8024 -5.2502 31.9835 -4.5092
# 6 -17.8325 -2.7052 -7.4738 8.7828 -4.5092 24.6111
#
#
#
# Elastic Compliance Matrix: (Units=1/GPa)
#
#
# Indices 1 2 3 4 5 6 
#
# 1 0.030338 -0.002347 -0.000722 0.006878 -0.020233 0.015343
# 2 -0.002347 0.013890 -0.006574 0.003653 0.000736 -0.003339
# 3 -0.000722 -0.006574 0.014347 -0.001768 -0.009220 0.002053
# 4 0.006878 0.003653 -0.001768 0.029808 -0.002072 -0.006169
# 5 -0.020233 0.000736 -0.009220 -0.002072 0.055182 -0.006530
# 6 0.015343 -0.003339 0.002053 -0.006169 -0.006530 0.053011
#
#
# Mechanical properties :
#
#
# Convention : Reuss Voigt Hill
#
# Bulk Modulus (GPa) = 25.45170 58.86310 42.15740
# Shear Modulus (GPa) = 21.83796 31.01043 26.42419
#
# Velocity S-wave (km/s) = 3.34265 3.98327 3.67694
# Velocity P-wave (km/s) = 5.28395 7.16047 6.29255
#
# Compressibility (1/GPa) = 0.03929011
#
# Stress axis : x y z
#
# Youngs Moduli (GPa) = 32.96173 71.99360 69.69856
#
# Poissons Ratio (x) = 0.16895 0.05033
# Poissons Ratio (y) = 0.07735 0.45820
# Poissons Ratio (z) = 0.02380 0.47329
#
# Static dielectric constant tensor:
#      x y z
#    x 1.731500 -0.010100 -0.038350 
#    y -0.010100 1.635480 0.068970 
#    z -0.038350 0.068970 1.738710 
# 
# From -- ./inp_files/355623.got.cif
#   From: 2010.05.17/outbox.cif.g08.bks.cpg/sg2_178_cif.got.tgz:355623.got - 2010.06.03 11:33:40.
