data_PCOD9076825
_publ_section_title
;
Structure prediction by ZEFSAII (Michael W. Deem and Ramdas Pophale) SiO2 
 PCOD9076825
Probable space group: P -1
;
_chemical_formula_sum "Si O2"
_cell_formula_units_Z 14
_cell_length_a 14.707354
_cell_length_b 16.808362
_cell_length_c 24.149780
_cell_angle_alpha 156.836530
_cell_angle_beta 163.214406
_cell_angle_gamma 27.577437
_cell_volume 677.174145
_symmetry_space_group_name_H-M "P -1"
_symmetry_group_IT_number 2
_symmetry_cell_setting 'triclinic'
loop_
_space_group_symop_operation_xyz
x,y,z
-x,-y,-z
loop_
_atom_site_type_symbol
_atom_site_label
_atom_site_fract_x
_atom_site_fract_y
_atom_site_fract_z
Si Si1 0.208898 0.472479 0.475973
Si Si2 0.179928 0.459407 0.944081
Si Si3 0.513196 0.652730 0.554774
Si Si4 0.045911 0.898723 0.624074
Si Si5 0.702781 0.987629 0.277196
Si Si6 0.793614 0.323853 0.790826
Si Si7 0.548422 0.589192 0.145232
O O1 0.247706 0.399800 0.388496
O O2 0.256394 0.716543 0.659540
O O3 0.457284 0.348844 0.579559
O O4 0.838279 0.468287 0.269070
O O5 0.249694 0.619786 0.134296
O O6 0.246979 0.562278 0.990251
O O7 0.375507 0.243932 0.924731
O O8 0.826047 0.383633 0.694946
O O9 0.500000 0.500000 0.500000
O O10 0.544943 0.867680 0.740885
O O11 0.699691 0.804454 0.360900
O O12 0.190372 0.927595 0.665677
O O13 0.983616 0.111860 0.754213
O O14 0.000000 0.000000 0.500000
O O15 0.000000 0.500000 0.000000
O O16 0.500000 0.500000 0.000000
#
# Coordination Sequence:
#
# PCOD9076825 Si02
#       7
#     2   2   2   2   2   2   2
#     4  10  23  40  64  92 127 167 208 259 316 373
#     4  11  23  38  64  91 125 168 204 267 310 365
#     4  11  18  35  60  92 120 157 216 262 306 370
#     4  10  22  41  63  92 129 167 206 263 316 367
#     4  10  18  33  60  90 119 158 210 261 312 359
#     4  12  22  42  65  92 130 164 219 259 305 372
#     4  10  22  44  64  91 134 163 201 266 325 372
#
# _framework density 20.674150000000001
#
# number of rings (size 3 to 8) (size 9 to 14) (size 15 to 20)
#    0.857    0.571    4.286    3.429    0.000    1.714 
#    2.571    4.286    0.000    0.000    0.000    0.000 
#    0.000    0.000    0.000    0.000    0.000    0.000 
#
# Total GULP energy -77975.054327 kJ/mol
# GULP energy per Si atom -5569.646738 kJ/mol
# Density = 2.062709 g / cm^3
# Si number density = 20.674150 Si / 1000 Ang^3
#
#
#
# Elastic Constant Matrix: (Units=GPa)
#
#
# Indices 1 2 3 4 5 6 
#
# 1 90.4051 9.6628 25.6090 18.1122 -14.3803 -5.3962
# 2 9.6628 73.5372 8.0001 21.7477 -19.3791 -18.1907
# 3 25.6090 8.0001 46.6189 17.8369 -1.5232 -18.2019
# 4 18.1122 21.7477 17.8369 42.5444 -6.5722 -11.5918
# 5 -14.3803 -19.3791 -1.5232 -6.5722 39.8420 5.8839
# 6 -5.3962 -18.1907 -18.2019 -11.5918 5.8839 22.8375
#
#
#
# Elastic Compliance Matrix: (Units=1/GPa)
#
#
# Indices 1 2 3 4 5 6 
#
# 1 0.014898 -0.000358 -0.009593 -0.003348 0.005391 -0.007499
# 2 -0.000358 0.020913 0.005875 -0.007713 0.006689 0.015618
# 3 -0.009593 0.005875 0.041403 -0.008200 -0.005187 0.032586
# 4 -0.003348 -0.007713 -0.008200 0.033207 -0.000307 0.003464
# 5 0.005391 0.006689 -0.005187 -0.000307 0.030883 -0.005645
# 6 -0.007499 0.015618 0.032586 0.003464 -0.005645 0.083641
#
#
# Mechanical properties :
#
#
# Convention : Reuss Voigt Hill
#
# Bulk Modulus (GPa) = 14.47974 33.01166 23.74570
# Shear Modulus (GPa) = 19.52224 32.19741 25.85982
#
# Velocity S-wave (km/s) = 3.07625 3.95064 3.54054
# Velocity P-wave (km/s) = 4.43134 6.06732 5.31268
#
# Compressibility (1/GPa) = 0.06906199
#
# Stress axis : x y z
#
# Youngs Moduli (GPa) = 67.12431 47.81603 24.15272
#
# Poissons Ratio (x) = 0.01713 0.23171
# Poissons Ratio (y) = 0.02405 -0.14191
# Poissons Ratio (z) = 0.64395 -0.28094
#
# Static dielectric constant tensor:
#      x y z
#    x 1.711650 -0.003000 -0.003540 
#    y -0.003000 1.813420 0.012220 
#    z -0.003540 0.012220 1.739350 
# 
# From -- ./inp_files/319608.got.cif
#   From: 2010.05.17/outbox.cif.g08.bks.cpg/sg2_160_cif.got.tgz:319608.got - 2010.06.03 11:33:40.
