data_PCOD9076297
_publ_section_title
;
Structure prediction by ZEFSAII (Michael W. Deem and Ramdas Pophale) SiO2 
 PCOD9076297
Probable space group: P -1
;
_chemical_formula_sum "Si O2"
_cell_formula_units_Z 16
_cell_length_a 12.745549
_cell_length_b 7.766240
_cell_length_c 12.460348
_cell_angle_alpha 44.848875
_cell_angle_beta 66.752145
_cell_angle_gamma 47.882308
_cell_volume 637.479053
_symmetry_space_group_name_H-M "P -1"
_symmetry_group_IT_number 2
_symmetry_cell_setting 'triclinic'
loop_
_space_group_symop_operation_xyz
x,y,z
-x,-y,-z
loop_
_atom_site_type_symbol
_atom_site_label
_atom_site_fract_x
_atom_site_fract_y
_atom_site_fract_z
Si Si1 0.812475 0.855675 0.030560
Si Si2 0.179871 0.177135 0.699795
Si Si3 0.922963 0.186543 0.057972
Si Si4 0.695810 0.490629 0.266846
Si Si5 0.436422 0.157367 0.605275
Si Si6 0.727677 0.797574 0.763819
Si Si7 0.939627 0.842351 0.531081
Si Si8 0.406755 0.660683 0.249140
O O1 0.812197 0.854851 0.159743
O O2 0.776849 0.618070 0.127705
O O3 0.960406 0.773629 0.962304
O O4 0.687522 0.184711 0.886735
O O5 0.339517 0.050865 0.659367
O O6 0.072957 0.537824 0.555042
O O7 0.110094 0.008997 0.773163
O O8 0.776617 0.500711 0.941619
O O9 0.000000 0.000000 0.000000
O O10 0.634870 0.643450 0.342984
O O11 0.560748 0.587846 0.208356
O O12 0.799999 0.130861 0.403747
O O13 0.423098 0.374834 0.421533
O O14 0.600815 0.905032 0.684029
O O15 0.871331 0.718568 0.687060
O O16 0.673635 0.074601 0.744369
O O17 0.000000 0.000000 0.500000
#
# Coordination Sequence:
#
# PCOD9076297 Si02
#       8
#     2   2   2   2   2   2   2   2
#     4  10  20  33  53  81 111 142 175 218 277 319
#     4  10  21  37  59  77 104 147 190 217 253 320
#     4  10  20  37  54  76 105 147 188 220 252 321
#     4  10  18  33  54  81 111 142 179 215 266 328
#     4  10  19  34  55  81 108 141 178 223 266 316
#     4  11  19  33  55  82 107 140 179 222 268 314
#     4  12  16  31  59  81 103 133 188 219 254 311
#     4  11  20  32  53  85 118 134 165 233 285 312
#
# _framework density 25.098863000000001
#
# number of rings (size 3 to 8) (size 9 to 14) (size 15 to 20)
#    0.000    1.500    7.500    1.125    0.000    1.000 
#    0.000    0.625    0.000    6.750    0.000    0.000 
#    0.000    0.000    0.000    0.000    0.000    0.000 
#
# Total GULP energy -89569.412969 kJ/mol
# GULP energy per Si atom -5598.088311 kJ/mol
# Density = 2.504174 g / cm^3
# Si number density = 25.098863 Si / 1000 Ang^3
#
#
#
# Elastic Constant Matrix: (Units=GPa)
#
#
# Indices 1 2 3 4 5 6 
#
# 1 137.1741 33.4547 64.8622 -5.2258 -21.0619 -36.9734
# 2 33.4547 54.4137 20.1809 6.6301 2.6258 -8.2106
# 3 64.8622 20.1809 130.7075 -28.1336 -0.9470 -14.1326
# 4 -5.2258 6.6301 -28.1336 31.2411 -5.7001 4.0764
# 5 -21.0619 2.6258 -0.9470 -5.7001 57.4016 -0.7020
# 6 -36.9734 -8.2106 -14.1326 4.0764 -0.7020 36.7917
#
#
#
# Elastic Compliance Matrix: (Units=1/GPa)
#
#
# Indices 1 2 3 4 5 6 
#
# 1 0.015674 -0.005537 -0.005989 -0.002170 0.005844 0.012567
# 2 -0.005537 0.024260 -0.003136 -0.009608 -0.004152 -0.000370
# 3 -0.005989 -0.003136 0.013358 0.011950 -0.000683 -0.002925
# 4 -0.002170 -0.009608 0.011950 0.045855 0.004336 -0.004733
# 5 0.005844 -0.004152 -0.000683 0.004336 0.020231 0.004590
# 6 0.012567 -0.000370 -0.002925 -0.004733 0.004590 0.039216
#
#
# Mechanical properties :
#
#
# Convention : Reuss Voigt Hill
#
# Bulk Modulus (GPa) = 41.72249 62.14342 51.93296
# Shear Modulus (GPa) = 25.52212 38.67339 32.09775
#
# Velocity S-wave (km/s) = 3.19229 3.92961 3.57998
# Velocity P-wave (km/s) = 5.49972 6.73813 6.15018
#
# Compressibility (1/GPa) = 0.02396789
#
# Stress axis : x y z
#
# Youngs Moduli (GPa) = 63.79835 41.21937 74.86165
#
# Poissons Ratio (x) = 0.22823 0.44837
# Poissons Ratio (y) = 0.35325 0.23479
# Poissons Ratio (z) = 0.38211 0.12927
#
# Static dielectric constant tensor:
#      x y z
#    x 2.057730 0.049060 -0.005010 
#    y 0.049060 2.035830 0.009550 
#    z -0.005010 0.009550 1.903060 
# 
# From -- ./inp_files/514901.got.cif
#   From: 2010.05.17/outbox.cif.g08.bks.cpg/sg2_258_cif.got.tgz:514901.got - 2010.06.03 11:33:40.
