data_PCOD9076976
_publ_section_title
;
Structure prediction by ZEFSAII (Michael W. Deem and Ramdas Pophale) SiO2 
 PCOD9076976
Probable space group: P -1
;
_chemical_formula_sum "Si O2"
_cell_formula_units_Z 16
_cell_length_a 8.131287
_cell_length_b 11.799057
_cell_length_c 7.904945
_cell_angle_alpha 71.825933
_cell_angle_beta 102.007895
_cell_angle_gamma 90.301800
_cell_volume 703.358676
_symmetry_space_group_name_H-M "P -1"
_symmetry_group_IT_number 2
_symmetry_cell_setting 'triclinic'
loop_
_space_group_symop_operation_xyz
x,y,z
-x,-y,-z
loop_
_atom_site_type_symbol
_atom_site_label
_atom_site_fract_x
_atom_site_fract_y
_atom_site_fract_z
Si Si1 0.579776 0.833595 0.182880
Si Si2 0.259854 0.542529 0.535026
Si Si3 0.963784 0.580751 0.216358
Si Si4 0.624239 0.086235 0.189745
Si Si5 0.888433 0.124249 0.454855
Si Si6 0.578731 0.654329 0.574336
Si Si7 0.079549 0.322663 0.198000
Si Si8 0.921631 0.934911 0.167198
O O1 0.563272 0.740159 0.369590
O O2 0.773528 0.843466 0.161911
O O3 0.529703 0.964036 0.199665
O O4 0.469223 0.819683 0.998297
O O5 0.205179 0.447913 0.706683
O O6 0.392427 0.627083 0.605430
O O7 0.343886 0.471095 0.427643
O O8 0.094866 0.605728 0.382371
O O9 0.021310 0.451558 0.205237
O O10 0.952192 0.669812 0.013504
O O11 0.689727 0.119133 0.372558
O O12 0.807410 0.045803 0.172587
O O13 0.975343 0.227274 0.321182
O O14 0.931703 0.129176 0.659596
O O15 0.000000 0.000000 0.500000
O O16 0.720331 0.699168 0.709618
O O17 0.000000 0.000000 0.000000
#
# Coordination Sequence:
#
# PCOD9076976 Si02
#       8
#     2   2   2   2   2   2   2   2
#     4   9  17  34  52  75 102 142 173 208 264 322
#     4   9  20  36  54  81 103 134 180 231 258 319
#     4   9  20  38  53  81 107 134 187 219 268 314
#     4   8  18  33  53  72 106 136 178 207 252 324
#     4  10  18  34  53  81 104 140 178 210 261 324
#     4  10  18  34  56  75 106 142 172 219 274 312
#     4  10  19  35  57  76 109 146 170 223 266 316
#     4   9  17  33  52  75 105 135 172 217 257 307
#
# _framework density 22.747996000000001
#
# number of rings (size 3 to 8) (size 9 to 14) (size 15 to 20)
#    0.750    2.000    1.250    0.000    1.750    0.500 
#    6.750    0.625    0.000    0.000    0.000    0.000 
#    0.000    0.000    0.000    0.000    0.000    0.000 
#
# Total GULP energy -89099.147781 kJ/mol
# GULP energy per Si atom -5568.696736 kJ/mol
# Density = 2.269622 g / cm^3
# Si number density = 22.747996 Si / 1000 Ang^3
#
#
#
# Elastic Constant Matrix: (Units=GPa)
#
#
# Indices 1 2 3 4 5 6 
#
# 1 48.5175 1.7464 38.3267 0.4095 3.0603 32.3665
# 2 1.7464 52.7679 15.6925 -13.5135 2.2504 7.4275
# 3 38.3267 15.6925 162.0970 -12.2825 18.3314 35.5733
# 4 0.4095 -13.5135 -12.2825 24.3135 10.7386 -4.9132
# 5 3.0603 2.2504 18.3314 10.7386 38.9621 6.7705
# 6 32.3665 7.4275 35.5733 -4.9132 6.7705 33.0623
#
#
#
# Elastic Compliance Matrix: (Units=1/GPa)
#
#
# Indices 1 2 3 4 5 6 
#
# 1 0.072007 0.002498 -0.004945 -0.023916 0.015717 -0.072504
# 2 0.002498 0.023311 -0.000344 0.013820 -0.004434 -0.004351
# 3 -0.004945 -0.000344 0.009030 0.006093 -0.005022 -0.002863
# 4 -0.023916 0.013820 0.006093 0.069796 -0.026146 0.029479
# 5 0.015717 -0.004434 -0.005022 -0.026146 0.037840 -0.020622
# 6 -0.072504 -0.004351 -0.002863 0.029479 -0.020622 0.113886
#
#
# Mechanical properties :
#
#
# Convention : Reuss Voigt Hill
#
# Bulk Modulus (GPa) = 10.12509 41.65706 25.89107
# Shear Modulus (GPa) = 13.72218 33.10869 23.41544
#
# Velocity S-wave (km/s) = 2.45873 3.81918 3.21181
# Velocity P-wave (km/s) = 3.53852 6.14820 5.01605
#
# Compressibility (1/GPa) = 0.09876457
#
# Stress axis : x y z
#
# Youngs Moduli (GPa) = 13.88762 42.89794 110.74593
#
# Poissons Ratio (x) = -0.10716 0.54768
# Poissons Ratio (y) = -0.03469 0.03810
# Poissons Ratio (z) = 0.06868 0.01476
#
# Static dielectric constant tensor:
#      x y z
#    x 1.882190 -0.086520 0.005800 
#    y -0.086520 2.173640 0.240860 
#    z 0.005800 0.240860 1.990340 
# 
# From -- ./inp_files/195849.got.cif
#   From: 2010.05.17/outbox.cif.g08.bks.cpg/sg2_98_cif.got.tgz:195849.got - 2010.06.03 11:33:40.
