data_PCOD9076144
_publ_section_title
;
Structure prediction by ZEFSAII (Michael W. Deem and Ramdas Pophale) SiO2 
 PCOD9076144
Probable space group: P -1
;
_chemical_formula_sum "Si O2"
_cell_formula_units_Z 14
_cell_length_a 13.573070
_cell_length_b 7.007336
_cell_length_c 7.956672
_cell_angle_alpha 123.394399
_cell_angle_beta 55.271379
_cell_angle_gamma 104.713065
_cell_volume 517.311533
_symmetry_space_group_name_H-M "P -1"
_symmetry_group_IT_number 2
_symmetry_cell_setting 'triclinic'
loop_
_space_group_symop_operation_xyz
x,y,z
-x,-y,-z
loop_
_atom_site_type_symbol
_atom_site_label
_atom_site_fract_x
_atom_site_fract_y
_atom_site_fract_z
Si Si1 0.504642 0.013125 0.770369
Si Si2 0.503219 0.351751 0.644774
Si Si3 0.773675 0.634927 0.963720
Si Si4 0.709474 0.972092 0.809799
Si Si5 0.129535 0.879295 0.023418
Si Si6 0.852206 0.836406 0.305728
Si Si7 0.757828 0.338101 0.507981
O O1 0.499374 0.748366 0.591278
O O2 0.598260 0.065068 0.846144
O O3 0.538952 0.139891 0.633534
O O4 0.371773 0.107904 0.997687
O O5 0.627859 0.459532 0.621877
O O6 0.366007 0.409273 0.866678
O O7 0.797735 0.472774 0.699005
O O8 0.831459 0.872630 0.959394
O O9 0.834298 0.638274 0.092751
O O10 0.795863 0.807920 0.530982
O O11 0.790792 0.151862 0.900865
O O12 0.990243 0.884432 0.202024
O O13 0.162834 0.699900 0.756141
O O14 0.777143 0.071273 0.427503
#
# Coordination Sequence:
#
# PCOD9076144 Si02
#       7
#     2   2   2   2   2   2   2
#     4  10  18  32  68  84 116 158 188 244 302 342
#     4  11  17  38  58  91 117 146 201 245 290 349
#     4  11  22  39  62  90 116 151 204 249 286 342
#     4  11  19  36  60  92 117 155 192 240 300 359
#     4  11  23  39  61  86 118 162 199 237 290 345
#     4  11  23  39  61  86 118 162 199 237 290 345
#     4  11  22  39  62  90 116 151 204 249 286 342
#
# _framework density 27.062995000000001
#
# number of rings (size 3 to 8) (size 9 to 14) (size 15 to 20)
#    0.000    1.143    5.714    4.286    0.000    2.286 
#    0.000    1.429    0.000    6.857    0.000    0.000 
#    0.000    0.000    0.000    0.000    0.000    0.000 
#
# Total GULP energy -78006.172634 kJ/mol
# GULP energy per Si atom -5571.869474 kJ/mol
# Density = 2.700140 g / cm^3
# Si number density = 27.062995 Si / 1000 Ang^3
#
#
#
# Elastic Constant Matrix: (Units=GPa)
#
#
# Indices 1 2 3 4 5 6 
#
# 1 138.1161 27.1629 68.0167 -19.9824 -1.8408 52.4242
# 2 27.1629 78.3088 52.9318 -8.1761 -2.0457 27.5884
# 3 68.0167 52.9318 160.9740 -53.9212 48.4848 43.2033
# 4 -19.9824 -8.1761 -53.9212 5.4693 37.1552 -17.5562
# 5 -1.8408 -2.0457 48.4848 37.1552 40.7714 -6.5851
# 6 52.4242 27.5884 43.2033 -17.5562 -6.5851 39.8582
#
#
#
# Elastic Compliance Matrix: (Units=1/GPa)
#
#
# Indices 1 2 3 4 5 6 
#
# 1 0.015123 0.002655 -0.000688 0.000622 -0.002340 -0.021095
# 2 0.002655 0.017622 -0.001128 0.003706 -0.003190 -0.013362
# 3 -0.000688 -0.001128 0.004057 -0.010570 0.003627 -0.006769
# 4 0.000622 0.003706 -0.010570 -0.003729 0.017693 0.009354
# 5 -0.002340 -0.003190 0.003627 0.017693 0.005447 0.010047
# 6 -0.021095 -0.013362 -0.006769 0.009354 0.010047 0.075200
#
#
# Mechanical properties :
#
#
# Convention : Reuss Voigt Hill
#
# Bulk Modulus (GPa) = 25.98722 74.84686 50.41704
# Shear Modulus (GPa) = 40.04220 32.50561 36.27390
#
# Velocity S-wave (km/s) = 3.85072 3.46946 3.66505
# Velocity P-wave (km/s) = 5.42163 6.61560 6.04815
#
# Compressibility (1/GPa) = 0.03848046
#
# Stress axis : x y z
#
# Youngs Moduli (GPa) = 66.12579 56.74596 246.48239
#
# Poissons Ratio (x) = -0.15066 0.16956
# Poissons Ratio (y) = -0.17557 0.27803
# Poissons Ratio (z) = 0.04549 0.06401
#
# Static dielectric constant tensor:
#      x y z
#    x 2.194740 -0.017610 0.116440 
#    y -0.017610 2.583360 0.102660 
#    z 0.116440 0.102660 2.142460 
# 
# From -- ./inp_files/304262.got.cif
#   From: 2010.05.17/outbox.cif.g08.bks.cpg/sg2_153_cif.got.tgz:304262.got - 2010.06.03 11:33:40.
