data_PCOD9076945
_publ_section_title
;
Structure prediction by ZEFSAII (Michael W. Deem and Ramdas Pophale) SiO2 
 PCOD9076945
Probable space group: P -1
;
_chemical_formula_sum "Si O2"
_cell_formula_units_Z 16
_cell_length_a 11.258069
_cell_length_b 22.733734
_cell_length_c 16.983182
_cell_angle_alpha 22.510586
_cell_angle_beta 140.833190
_cell_angle_gamma 155.621882
_cell_volume 623.838074
_symmetry_space_group_name_H-M "P -1"
_symmetry_group_IT_number 2
_symmetry_cell_setting 'triclinic'
loop_
_space_group_symop_operation_xyz
x,y,z
-x,-y,-z
loop_
_atom_site_type_symbol
_atom_site_label
_atom_site_fract_x
_atom_site_fract_y
_atom_site_fract_z
Si Si1 0.121829 0.050561 0.715458
Si Si2 0.579155 0.159401 0.243071
Si Si3 0.632093 0.214131 0.522082
Si Si4 0.938064 0.645949 0.645263
Si Si5 0.284637 0.606788 0.308707
Si Si6 0.730566 0.721302 0.777085
Si Si7 0.438502 0.388850 0.904795
Si Si8 0.034114 0.203616 0.786960
O O1 0.036536 0.954646 0.700066
O O2 0.415200 0.157059 0.776075
O O3 0.169700 0.266404 0.479442
O O4 0.829218 0.821783 0.906153
O O5 0.903281 0.371877 0.194072
O O6 0.582851 0.021437 0.357214
O O7 0.260038 0.909780 0.437611
O O8 0.513217 0.284345 0.023786
O O9 0.436322 0.240899 0.396888
O O10 0.966477 0.489081 0.313602
O O11 0.756955 0.154597 0.715369
O O12 0.693896 0.403308 0.760838
O O13 0.191970 0.374943 0.577419
O O14 0.738665 0.620401 0.828894
O O15 0.500000 0.500000 0.000000
O O16 0.259370 0.375896 0.765443
O O17 0.000000 0.000000 0.000000
#
# Coordination Sequence:
#
# PCOD9076945 Si02
#       8
#     2   2   2   2   2   2   2   2
#     4  10  18  34  51  82 107 136 171 234 267 302
#     4   9  15  28  52  79  99 132 177 221 252 307
#     4   9  18  34  55  78 106 142 177 212 269 318
#     4   9  15  25  52  75 102 126 175 212 263 302
#     4   9  20  30  54  81 109 137 171 221 281 305
#     4  10  21  34  54  81 106 140 184 223 255 312
#     4  10  20  32  55  79 106 140 184 214 257 319
#     4  10  18  34  55  81 105 143 177 216 258 329
#
# _framework density 25.647684000000002
#
# number of rings (size 3 to 8) (size 9 to 14) (size 15 to 20)
#    0.750    1.750    2.500    1.125    5.250    0.500 
#    0.000    3.125    0.000    4.500    0.000    0.000 
#    0.000    0.000    0.000    0.000    0.000    0.000 
#
# Total GULP energy -89090.525714 kJ/mol
# GULP energy per Si atom -5568.157857 kJ/mol
# Density = 2.558931 g / cm^3
# Si number density = 25.647684 Si / 1000 Ang^3
#
#
#
# Elastic Constant Matrix: (Units=GPa)
#
#
# Indices 1 2 3 4 5 6 
#
# 1 44.5697 31.2424 18.2066 -5.8013 -1.0939 0.5009
# 2 31.2424 196.1098 14.0303 10.2335 11.7822 -23.7580
# 3 18.2066 14.0303 49.2619 12.6117 -7.0383 4.7730
# 4 -5.8013 10.2335 12.6117 32.9531 -0.6925 -3.0285
# 5 -1.0939 11.7822 -7.0383 -0.6925 25.4919 -1.2401
# 6 0.5009 -23.7580 4.7730 -3.0285 -1.2401 32.2647
#
#
#
# Elastic Compliance Matrix: (Units=1/GPa)
#
#
# Indices 1 2 3 4 5 6 
#
# 1 0.033442 -0.005125 -0.014038 0.012763 0.000226 -0.001010
# 2 -0.005125 0.006855 -0.000353 -0.002523 -0.003320 0.004815
# 3 -0.014038 -0.000353 0.030931 -0.014567 0.007428 -0.005700
# 4 0.012763 -0.002523 -0.014567 0.039274 -0.001059 0.003745
# 5 0.000226 -0.003320 0.007428 -0.001059 0.042697 -0.002006
# 6 -0.001010 0.004815 -0.005700 0.003745 -0.002006 0.035673
#
#
# Mechanical properties :
#
#
# Convention : Reuss Voigt Hill
#
# Bulk Modulus (GPa) = 31.05906 46.32221 38.69063
# Shear Modulus (GPa) = 20.95237 33.23942 27.09589
#
# Velocity S-wave (km/s) = 2.86130 3.60391 3.25386
# Velocity P-wave (km/s) = 4.80127 5.95128 5.40694
#
# Compressibility (1/GPa) = 0.03219672
#
# Stress axis : x y z
#
# Youngs Moduli (GPa) = 29.90250 145.86838 32.32972
#
# Poissons Ratio (x) = 0.74762 0.45383
# Poissons Ratio (y) = 0.15326 0.01142
# Poissons Ratio (z) = 0.41976 0.05152
#
# Static dielectric constant tensor:
#      x y z
#    x 2.044880 0.035990 -0.086350 
#    y 0.035990 2.094390 -0.039240 
#    z -0.086350 -0.039240 2.050890 
# 
# From -- ./inp_files/598588.got.cif
#   From: 2010.05.17/outbox.cif.g08.bks.cpg/sg2_300_cif.got.tgz:598588.got - 2010.06.03 11:33:40.
