data_PCOD9076411
_publ_section_title
;
Structure prediction by ZEFSAII (Michael W. Deem and Ramdas Pophale) SiO2 
 PCOD9076411
Probable space group: P -1
;
_chemical_formula_sum "Si O2"
_cell_formula_units_Z 12
_cell_length_a 7.198414
_cell_length_b 9.748642
_cell_length_c 23.086363
_cell_angle_alpha 25.541431
_cell_angle_beta 135.993729
_cell_angle_gamma 129.355865
_cell_volume 484.691762
_symmetry_space_group_name_H-M "P -1"
_symmetry_group_IT_number 2
_symmetry_cell_setting 'triclinic'
loop_
_space_group_symop_operation_xyz
x,y,z
-x,-y,-z
loop_
_atom_site_type_symbol
_atom_site_label
_atom_site_fract_x
_atom_site_fract_y
_atom_site_fract_z
Si Si1 0.521205 0.306934 0.319696
Si Si2 0.985429 0.360641 0.700926
Si Si3 0.108098 0.654160 0.181180
Si Si4 0.137443 0.798094 0.389791
Si Si5 0.205480 0.601400 0.878423
Si Si6 0.173704 0.684289 0.014833
O O1 0.836971 0.335511 0.385728
O O2 0.368750 0.504627 0.262206
O O3 0.432916 0.488648 0.170603
O O4 0.387943 0.965765 0.412266
O O5 0.807491 0.286261 0.633237
O O6 0.856895 0.361600 0.735513
O O7 0.197695 0.050645 0.866325
O O8 0.874049 0.420159 0.197983
O O9 0.026321 0.341625 0.966745
O O10 0.000000 0.000000 0.000000
O O11 0.000000 0.500000 0.500000
O O12 0.902375 0.072903 0.241199
O O13 0.500000 0.500000 0.000000
O O14 0.000000 0.500000 0.000000
#
# Coordination Sequence:
#
# PCOD9076411 Si02
#       6
#     2   2   2   2   2   2
#     4  10  23  38  59  93 130 159 212 261 320 377
#     4  12  21  36  68  87 125 175 203 263 323 374
#     4  10  21  34  55 100 131 149 203 267 315 377
#     4  10  24  45  63  88 128 174 218 257 308 387
#     4  10  22  36  62  93 128 156 205 268 316 369
#     4  10  18  33  55  93 123 155 202 255 313 374
#
# _framework density 24.758004
#
# number of rings (size 3 to 8) (size 9 to 14) (size 15 to 20)
#    0.000    2.000    6.667    0.500    4.667    0.667 
#    0.000    3.333    0.000   12.000    0.000    0.000 
#    0.000    0.000    0.000    0.000    0.000    0.000 
#
# Total GULP energy -66900.745535 kJ/mol
# GULP energy per Si atom -5575.062128 kJ/mol
# Density = 2.470165 g / cm^3
# Si number density = 24.758004 Si / 1000 Ang^3
#
#
#
# Elastic Constant Matrix: (Units=GPa)
#
#
# Indices 1 2 3 4 5 6 
#
# 1 101.7921 56.9934 20.4831 -14.0992 -12.4213 -25.1318
# 2 56.9934 153.1370 28.1401 -25.7109 -12.0976 -35.3720
# 3 20.4831 28.1401 62.0775 -13.2114 -13.6156 -3.9237
# 4 -14.0992 -25.7109 -13.2114 18.8988 9.6522 -12.8902
# 5 -12.4213 -12.0976 -13.6156 9.6522 27.2585 3.5603
# 6 -25.1318 -35.3720 -3.9237 -12.8902 3.5603 59.8347
#
#
#
# Elastic Compliance Matrix: (Units=1/GPa)
#
#
# Indices 1 2 3 4 5 6 
#
# 1 0.014844 -0.000228 -0.000668 0.017716 -0.001243 0.009947
# 2 -0.000228 0.017628 0.000299 0.042855 -0.009940 0.020169
# 3 -0.000668 0.000299 0.020588 0.015020 0.004241 0.004230
# 4 0.017716 0.042855 0.015020 0.220369 -0.054472 0.084476
# 5 -0.001243 -0.009940 0.004241 -0.054472 0.055881 -0.021180
# 6 0.009947 0.020169 0.004230 0.084476 -0.021180 0.052550
#
#
# Mechanical properties :
#
#
# Convention : Reuss Voigt Hill
#
# Bulk Modulus (GPa) = 19.28030 58.69330 38.98680
# Shear Modulus (GPa) = 12.48930 35.29107 23.89018
#
# Velocity S-wave (km/s) = 2.24844 3.77960 3.10973
# Velocity P-wave (km/s) = 3.81380 6.54258 5.35493
#
# Compressibility (1/GPa) = 0.05186640
#
# Stress axis : x y z
#
# Youngs Moduli (GPa) = 67.36723 56.72670 48.57257
#
# Poissons Ratio (x) = 0.01293 0.03245
# Poissons Ratio (y) = 0.01536 -0.01453
# Poissons Ratio (z) = 0.04501 -0.01697
#
# Static dielectric constant tensor:
#      x y z
#    x 2.006210 -0.148350 -0.190030 
#    y -0.148350 2.238250 0.066220 
#    z -0.190030 0.066220 2.015890 
# 
# From -- ./inp_files/605961.got.cif
#   From: 2010.05.17/outbox.cif.g08.bks.cpg/sg2_303_cif.got.tgz:605961.got - 2010.06.03 11:33:40.
