data_PCOD9076313
_publ_section_title
;
Structure prediction by ZEFSAII (Michael W. Deem and Ramdas Pophale) SiO2 
 PCOD9076313
Probable space group: P -1
;
_chemical_formula_sum "Si O2"
_cell_formula_units_Z 16
_cell_length_a 14.953866
_cell_length_b 9.339533
_cell_length_c 12.026899
_cell_angle_alpha 68.116560
_cell_angle_beta 53.449888
_cell_angle_gamma 110.179383
_cell_volume 813.041723
_symmetry_space_group_name_H-M "P -1"
_symmetry_group_IT_number 2
_symmetry_cell_setting 'triclinic'
loop_
_space_group_symop_operation_xyz
x,y,z
-x,-y,-z
loop_
_atom_site_type_symbol
_atom_site_label
_atom_site_fract_x
_atom_site_fract_y
_atom_site_fract_z
Si Si1 0.740498 0.621198 0.602047
Si Si2 0.626629 0.933777 0.429113
Si Si3 0.237799 0.136372 0.841460
Si Si4 0.133551 0.272709 0.286877
Si Si5 0.830753 0.427970 0.160406
Si Si6 0.161449 0.369138 0.700587
Si Si7 0.601518 0.551754 0.149494
Si Si8 0.056767 0.856826 0.727019
O O1 0.774207 0.584058 0.708559
O O2 0.762421 0.533204 0.506547
O O3 0.561794 0.525059 0.754578
O O4 0.887365 0.906360 0.387943
O O5 0.661112 0.881027 0.303219
O O6 0.466205 0.678719 0.677284
O O7 0.673105 0.162024 0.308795
O O8 0.776534 0.048803 0.374516
O O9 0.233407 0.286646 0.725534
O O10 0.318159 0.262507 0.863981
O O11 0.044187 0.870436 0.076515
O O12 0.016864 0.267732 0.302874
O O13 0.270215 0.350286 0.074770
O O14 0.000000 0.000000 0.500000
O O15 0.794133 0.441376 0.308331
O O16 0.000000 0.500000 0.000000
O O17 0.900858 0.656980 0.983312
#
# Coordination Sequence:
#
# PCOD9076313 Si02
#       8
#     2   2   2   2   2   2   2   2
#     4  10  20  33  52  84 106 143 181 230 266 301
#     4  10  20  34  52  85 118 140 169 215 280 327
#     4  11  19  32  55  82 112 141 174 220 273 320
#     4  10  20  35  55  79 104 140 189 227 267 308
#     4  10  18  33  54  83 112 145 174 213 269 327
#     4  11  18  32  56  79 111 141 182 222 257 319
#     4  11  21  33  54  82 115 138 173 228 274 319
#     4   9  16  34  54  79 106 141 179 219 255 319
#
# _framework density 19.679186999999999
#
# number of rings (size 3 to 8) (size 9 to 14) (size 15 to 20)
#    0.000    1.750    5.000    3.750    0.000    0.000 
#    0.000    2.500    0.000    3.750    3.250    0.000 
#    0.000    0.000    0.000    0.000    0.000    0.000 
#
# Total GULP energy -89191.414860 kJ/mol
# GULP energy per Si atom -5574.463429 kJ/mol
# Density = 1.963440 g / cm^3
# Si number density = 19.679187 Si / 1000 Ang^3
#
#
#
# Elastic Constant Matrix: (Units=GPa)
#
#
# Indices 1 2 3 4 5 6 
#
# 1 43.0316 16.8192 4.1829 10.0560 2.7128 20.9998
# 2 16.8192 120.3753 43.0590 15.9602 8.1495 7.4812
# 3 4.1829 43.0590 114.5204 11.2208 -8.5412 5.2118
# 4 10.0560 15.9602 11.2208 35.4640 10.5374 8.7698
# 5 2.7128 8.1495 -8.5412 10.5374 22.0691 5.2309
# 6 20.9998 7.4812 5.2118 8.7698 5.2309 23.0608
#
#
#
# Elastic Compliance Matrix: (Units=1/GPa)
#
#
# Indices 1 2 3 4 5 6 
#
# 1 0.045136 -0.004973 0.003172 -0.004232 0.009178 -0.040678
# 2 -0.004973 0.010867 -0.004322 -0.001475 -0.005255 0.003733
# 3 0.003172 -0.004322 0.011488 -0.004045 0.008652 -0.004506
# 4 -0.004232 -0.001475 -0.004045 0.037766 -0.017303 -0.005191
# 5 0.009178 -0.005255 0.008652 -0.017303 0.061523 -0.015983
# 6 -0.040678 0.003733 -0.004506 -0.005191 -0.015983 0.085813
#
#
# Mechanical properties :
#
#
# Convention : Reuss Voigt Hill
#
# Bulk Modulus (GPa) = 18.10137 45.11661 31.60899
# Shear Modulus (GPa) = 17.65199 30.37653 24.01426
#
# Velocity S-wave (km/s) = 2.99822 3.93311 3.49705
# Velocity P-wave (km/s) = 4.60478 6.60315 5.69235
#
# Compressibility (1/GPa) = 0.05524443
#
# Stress axis : x y z
#
# Youngs Moduli (GPa) = 22.15544 92.01795 87.04813
#
# Poissons Ratio (x) = 0.45762 -0.27609
# Poissons Ratio (y) = 0.11018 0.37620
# Poissons Ratio (z) = -0.07027 0.39768
#
# Static dielectric constant tensor:
#      x y z
#    x 1.802850 0.011550 -0.021390 
#    y 0.011550 1.733700 -0.008490 
#    z -0.021390 -0.008490 1.710280 
# 
# From -- ./inp_files/311365.got.cif
#   From: 2010.05.17/outbox.cif.g08.bks.cpg/sg2_156_cif.got.tgz:311365.got - 2010.06.03 11:33:40.
