data_PCOD9076206
_publ_section_title
;
Structure prediction by ZEFSAII (Michael W. Deem and Ramdas Pophale) SiO2 
 PCOD9076206
Probable space group: P -1
;
_chemical_formula_sum "Si O2"
_cell_formula_units_Z 16
_cell_length_a 7.889188
_cell_length_b 16.691579
_cell_length_c 11.353349
_cell_angle_alpha 43.229023
_cell_angle_beta 97.928855
_cell_angle_gamma 129.892692
_cell_volume 612.187737
_symmetry_space_group_name_H-M "P -1"
_symmetry_group_IT_number 2
_symmetry_cell_setting 'triclinic'
loop_
_space_group_symop_operation_xyz
x,y,z
-x,-y,-z
loop_
_atom_site_type_symbol
_atom_site_label
_atom_site_fract_x
_atom_site_fract_y
_atom_site_fract_z
Si Si1 0.233130 0.726559 0.268887
Si Si2 0.269582 0.451632 0.101455
Si Si3 0.264009 0.269366 0.699734
Si Si4 0.729439 0.116762 0.264616
Si Si5 0.669305 0.027286 0.813671
Si Si6 0.659299 0.842101 0.638941
Si Si7 0.057517 0.221706 0.960356
Si Si8 0.398523 0.336307 0.400433
O O1 0.000000 0.500000 0.500000
O O2 0.087369 0.755957 0.155033
O O3 0.336670 0.843190 0.273522
O O4 0.496310 0.847010 0.078822
O O5 0.180852 0.313699 0.345012
O O6 0.991057 0.322760 0.134183
O O7 0.500000 0.500000 0.000000
O O8 0.464326 0.672729 0.900777
O O9 0.500000 0.500000 0.500000
O O10 0.143937 0.172573 0.922025
O O11 0.385902 0.265495 0.602978
O O12 0.994637 0.172441 0.705728
O O13 0.498188 0.062881 0.227402
O O14 0.608192 0.951647 0.515347
O O15 0.878682 0.116503 0.174986
O O16 0.550416 0.729687 0.625141
O O17 0.000000 0.000000 0.500000
O O18 0.345174 0.434899 0.804288
#
# Coordination Sequence:
#
# PCOD9076206 Si02
#       8
#     2   2   2   2   2   2   2   2
#     4   9  18  32  54  78 109 139 182 232 270 317
#     4  10  18  33  52  80 107 138 180 229 279 309
#     4   9  19  37  59  73 112 156 183 213 269 341
#     4  11  19  32  55  84 110 132 180 238 273 317
#     4   9  20  34  53  81 107 145 184 225 276 320
#     4  11  19  31  56  84 105 136 182 232 276 317
#     4   9  17  33  53  79 106 143 175 218 274 316
#     4  10  18  33  55  77 108 145 180 217 273 320
#
# _framework density 26.135771999999999
#
# number of rings (size 3 to 8) (size 9 to 14) (size 15 to 20)
#    0.000    2.250    5.000    0.750    1.750    0.000 
#    0.000    1.250   16.500    0.750    0.000    0.000 
#    0.000    0.000    0.000    0.000    0.000    0.000 
#
# Total GULP energy -89164.241423 kJ/mol
# GULP energy per Si atom -5572.765089 kJ/mol
# Density = 2.607629 g / cm^3
# Si number density = 26.135772 Si / 1000 Ang^3
#
#
#
# Elastic Constant Matrix: (Units=GPa)
#
#
# Indices 1 2 3 4 5 6 
#
# 1 48.3428 19.6366 4.4925 -9.5944 4.7009 -1.7574
# 2 19.6366 155.3176 33.4065 -13.1248 -8.1268 17.3366
# 3 4.4925 33.4065 139.8066 -12.9827 14.6905 -9.5321
# 4 -9.5944 -13.1248 -12.9827 40.7745 -5.9943 -16.8834
# 5 4.7009 -8.1268 14.6905 -5.9943 33.2033 1.9634
# 6 -1.7574 17.3366 -9.5321 -16.8834 1.9634 45.9318
#
#
#
# Elastic Compliance Matrix: (Units=1/GPa)
#
#
# Indices 1 2 3 4 5 6 
#
# 1 0.023856 -0.003565 0.001456 0.006450 -0.004031 0.005104
# 2 -0.003565 0.008046 -0.002479 -0.000089 0.003784 -0.003882
# 3 0.001456 -0.002479 0.008765 0.003469 -0.004317 0.004270
# 4 0.006450 -0.000089 0.003469 0.032888 0.002700 0.012974
# 5 -0.004031 0.003784 -0.004317 0.002700 0.034186 -0.002947
# 6 0.005104 -0.003882 0.004270 0.012974 -0.002947 0.029213
#
#
# Mechanical properties :
#
#
# Convention : Reuss Voigt Hill
#
# Bulk Modulus (GPa) = 31.75427 50.94869 41.35148
# Shear Modulus (GPa) = 31.92311 43.04399 37.48355
#
# Velocity S-wave (km/s) = 3.49869 4.06265 3.79117
# Velocity P-wave (km/s) = 5.33828 6.44539 5.91778
#
# Compressibility (1/GPa) = 0.03149183
#
# Stress axis : x y z
#
# Youngs Moduli (GPa) = 41.91822 124.28509 114.08878
#
# Poissons Ratio (x) = 0.44304 -0.16609
# Poissons Ratio (y) = 0.14943 0.28279
# Poissons Ratio (z) = -0.06102 0.30806
#
# Static dielectric constant tensor:
#      x y z
#    x 2.299320 -0.000350 -0.088180 
#    y -0.000350 2.087730 0.055820 
#    z -0.088180 0.055820 2.212770 
# 
# From -- ./inp_files/439121.got.cif
#   From: 2010.05.17/outbox.cif.g08.bks.cpg/sg2_220_cif.got.tgz:439121.got - 2010.06.03 11:33:40.
