data_PCOD9076918
_publ_section_title
;
Structure prediction by ZEFSAII (Michael W. Deem and Ramdas Pophale) SiO2 
 PCOD9076918
Probable space group: P -1
;
_chemical_formula_sum "Si O2"
_cell_formula_units_Z 13
_cell_length_a 13.318201
_cell_length_b 9.808598
_cell_length_c 7.589166
_cell_angle_alpha 97.665844
_cell_angle_beta 32.142141
_cell_angle_gamma 98.851534
_cell_volume 521.152501
_symmetry_space_group_name_H-M "P -1"
_symmetry_group_IT_number 2
_symmetry_cell_setting 'triclinic'
loop_
_space_group_symop_operation_xyz
x,y,z
-x,-y,-z
loop_
_atom_site_type_symbol
_atom_site_label
_atom_site_fract_x
_atom_site_fract_y
_atom_site_fract_z
Si Si1 0.012479 0.289282 0.644471
Si Si2 0.334552 0.347975 0.408213
Si Si3 0.439545 0.419191 0.761688
Si Si4 0.303273 0.037544 0.381282
Si Si5 0.917976 0.587723 0.887761
Si Si6 0.226661 0.762577 0.654789
Si Si7 0.000000 0.000000 0.500000
O O1 0.935863 0.437873 0.753758
O O2 0.233144 0.327462 0.368723
O O3 0.963981 0.163623 0.566206
O O4 0.903526 0.242913 0.979977
O O5 0.523930 0.446920 0.144193
O O6 0.341753 0.190775 0.433767
O O7 0.186187 0.420933 0.766949
O O8 0.500000 0.500000 0.500000
O O9 0.580997 0.306141 0.591192
O O10 0.234320 0.350029 0.002983
O O11 0.251726 0.919801 0.580584
O O12 0.145417 0.037517 0.461890
O O13 0.500000 0.000000 0.000000
O O14 0.112694 0.673875 0.657123
#
# Coordination Sequence:
#
# PCOD9076918 Si02
#       7
#     2   2   2   2   2   2   1
#     4  10  18  39  68  94 132 168 207 265 323 383
#     4   9  18  37  62  93 124 170 208 256 321 373
#     4  10  18  33  65 102 124 157 216 265 316 379
#     4  11  27  45  64  88 139 174 214 271 320 374
#     4  10  19  34  70  97 126 159 211 273 311 378
#     4  11  21  41  68 100 122 172 222 262 316 383
#     4  10  26  42  64  92 138 174 204 254 342 384
#
# _framework density 24.944713
#
# number of rings (size 3 to 8) (size 9 to 14) (size 15 to 20)
#    0.000    1.846    4.615    0.923    2.154    6.769 
#    0.000    6.923    0.000    0.000    0.000    0.000 
#    0.000    0.000    0.000    0.000    0.000    0.000 
#
# Total GULP energy -72400.960101 kJ/mol
# GULP energy per Si atom -5569.304623 kJ/mol
# Density = 2.488794 g / cm^3
# Si number density = 24.944713 Si / 1000 Ang^3
#
#
#
# Elastic Constant Matrix: (Units=GPa)
#
#
# Indices 1 2 3 4 5 6 
#
# 1 125.5256 38.1256 27.4114 -1.3051 -22.0401 -4.5346
# 2 38.1256 171.8721 43.4951 13.8613 -2.0065 19.5892
# 3 27.4114 43.4951 65.9214 1.9136 -13.6993 -0.4718
# 4 -1.3051 13.8613 1.9136 37.1002 -11.2105 8.5382
# 5 -22.0401 -2.0065 -13.6993 -11.2105 43.3355 -0.6955
# 6 -4.5346 19.5892 -0.4718 8.5382 -0.6955 56.3544
#
#
#
# Elastic Compliance Matrix: (Units=1/GPa)
#
#
# Indices 1 2 3 4 5 6 
#
# 1 0.009926 -0.002015 -0.001815 0.002446 0.005033 0.001176
# 2 -0.002015 0.008054 -0.005049 -0.003169 -0.003109 -0.002562
# 3 -0.001815 -0.005049 0.020427 0.002200 0.005894 0.001519
# 4 0.002446 -0.003169 0.002200 0.031912 0.009994 -0.003395
# 5 0.005033 -0.003109 0.005894 0.009994 0.029947 0.000391
# 6 0.001176 -0.002562 0.001519 -0.003395 0.000391 0.019262
#
#
# Mechanical properties :
#
#
# Convention : Reuss Voigt Hill
#
# Bulk Modulus (GPa) = 48.42393 64.59813 56.51103
# Shear Modulus (GPa) = 34.68149 44.31049 39.49599
#
# Velocity S-wave (km/s) = 3.73276 4.21925 3.98344
# Velocity P-wave (km/s) = 6.16706 7.04903 6.62274
#
# Compressibility (1/GPa) = 0.02065095
#
# Stress axis : x y z
#
# Youngs Moduli (GPa) = 100.74058 124.15664 48.95427
#
# Poissons Ratio (x) = 0.25020 0.08883
# Poissons Ratio (y) = 0.20302 0.24716
# Poissons Ratio (z) = 0.18280 0.62683
#
# Static dielectric constant tensor:
#      x y z
#    x 2.059800 -0.014500 0.011350 
#    y -0.014500 1.982430 -0.047020 
#    z 0.011350 -0.047020 2.073240 
# 
# From -- ./inp_files/295694.got.cif
#   From: 2010.05.17/outbox.cif.g08.bks.cpg/sg2_148_cif.got.tgz:295694.got - 2010.06.03 11:33:40.
