data_PCOD9076967
_publ_section_title
;
Structure prediction by ZEFSAII (Michael W. Deem and Ramdas Pophale) SiO2 
 PCOD9076967
Probable space group: P -1
;
_chemical_formula_sum "Si O2"
_cell_formula_units_Z 15
_cell_length_a 8.620789
_cell_length_b 16.284444
_cell_length_c 7.736142
_cell_angle_alpha 69.330152
_cell_angle_beta 96.193783
_cell_angle_gamma 145.698201
_cell_volume 536.763758
_symmetry_space_group_name_H-M "P -1"
_symmetry_group_IT_number 2
_symmetry_cell_setting 'triclinic'
loop_
_space_group_symop_operation_xyz
x,y,z
-x,-y,-z
loop_
_atom_site_type_symbol
_atom_site_label
_atom_site_fract_x
_atom_site_fract_y
_atom_site_fract_z
Si Si1 0.677120 0.507062 0.614834
Si Si2 0.367861 0.366073 0.260711
Si Si3 0.684911 0.285263 0.286389
Si Si4 0.217771 0.128029 0.590732
Si Si5 0.500000 0.000000 0.500000
Si Si6 0.341656 0.671341 0.110664
Si Si7 0.884244 0.101851 0.140881
Si Si8 0.037579 0.692240 0.201939
O O1 0.500000 0.500000 0.500000
O O2 0.713923 0.573055 0.751016
O O3 0.519162 0.337884 0.745470
O O4 0.965637 0.640009 0.432489
O O5 0.211747 0.230747 0.491011
O O6 0.719431 0.523553 0.197269
O O7 0.208325 0.266837 0.139295
O O8 0.536376 0.255292 0.458607
O O9 0.629931 0.156982 0.351874
O O10 0.023247 0.473340 0.193686
O O11 0.537475 0.256859 0.118325
O O12 0.156242 0.022050 0.802269
O O13 0.000000 0.000000 0.500000
O O14 0.666405 0.033264 0.317006
O O15 0.269033 0.731319 0.136307
O O16 0.870762 0.164355 0.935043
#
# Coordination Sequence:
#
# PCOD9076967 Si02
#       8
#     2   2   2   2   1   2   2   2
#     4  10  24  38  57  85 122 160 195 242 295 347
#     4  10  20  38  59  85 118 157 195 246 289 343
#     4  10  20  33  61  93 114 147 191 247 295 344
#     4   9  19  34  55  89 121 150 189 243 298 345
#     4  10  18  34  52  90 124 144 182 240 300 348
#     4  11  21  37  61  88 119 149 199 244 297 345
#     4  10  20  34  61  88 117 151 193 246 292 347
#     4  11  21  38  59  89 116 154 198 241 296 345
#
# _framework density 27.945257000000002
#
# number of rings (size 3 to 8) (size 9 to 14) (size 15 to 20)
#    0.000    1.867    2.667    1.600    1.867    4.267 
#    0.000    0.667    0.000   13.600    0.000    0.000 
#    0.000    0.000    0.000    0.000    0.000    0.000 
#
# Total GULP energy -83668.138569 kJ/mol
# GULP energy per Si atom -5577.875905 kJ/mol
# Density = 2.788165 g / cm^3
# Si number density = 27.945257 Si / 1000 Ang^3
#
#
#
# Elastic Constant Matrix: (Units=GPa)
#
#
# Indices 1 2 3 4 5 6 
#
# 1 101.0900 24.3385 19.3210 -9.6220 24.0077 -29.0291
# 2 24.3385 48.4775 22.8068 -19.3153 16.1507 -2.5568
# 3 19.3210 22.8068 136.7580 -16.2335 41.5017 -14.9275
# 4 -9.6220 -19.3153 -16.2335 36.2865 -12.5613 17.7113
# 5 24.0077 16.1507 41.5017 -12.5613 60.5875 -14.9106
# 6 -29.0291 -2.5568 -14.9275 17.7113 -14.9106 58.8211
#
#
#
# Elastic Compliance Matrix: (Units=1/GPa)
#
#
# Indices 1 2 3 4 5 6 
#
# 1 0.014073 -0.007849 0.000455 -0.004907 -0.002982 0.007441
# 2 -0.007849 0.033348 -0.002529 0.018134 -0.002545 -0.009171
# 3 0.000455 -0.002529 0.009578 0.000641 -0.005711 0.000905
# 4 -0.004907 0.018134 0.000641 0.043873 0.002298 -0.014099
# 5 -0.002982 -0.002545 -0.005711 0.002298 0.023290 0.002180
# 6 0.007441 -0.009171 0.000905 -0.014099 0.002180 0.025302
#
#
# Mechanical properties :
#
#
# Convention : Reuss Voigt Hill
#
# Bulk Modulus (GPa) = 26.91495 46.58423 36.74959
# Shear Modulus (GPa) = 27.51915 45.79632 36.65774
#
# Velocity S-wave (km/s) = 3.14148 4.05259 3.62577
# Velocity P-wave (km/s) = 4.77606 6.21321 5.54142
#
# Compressibility (1/GPa) = 0.03715407
#
# Stress axis : x y z
#
# Youngs Moduli (GPa) = 71.05960 29.98725 104.41033
#
# Poissons Ratio (x) = 0.23536 -0.04756
# Poissons Ratio (y) = 0.55772 0.26403
# Poissons Ratio (z) = -0.03237 0.07583
#
# Static dielectric constant tensor:
#      x y z
#    x 2.315680 0.103460 0.095840 
#    y 0.103460 2.206620 0.032790 
#    z 0.095840 0.032790 2.208170 
# 
# From -- ./inp_files/217116.got.cif
#   From: 2010.05.17/outbox.cif.g08.bks.cpg/sg2_109_cif.got.tgz:217116.got - 2010.06.03 11:33:40.
