data_PCOD9076953
_publ_section_title
;
Structure prediction by ZEFSAII (Michael W. Deem and Ramdas Pophale) SiO2 
 PCOD9076953
Probable space group: P -1
;
_chemical_formula_sum "Si O2"
_cell_formula_units_Z 13
_cell_length_a 12.460779
_cell_length_b 11.404341
_cell_length_c 10.939244
_cell_angle_alpha 144.051376
_cell_angle_beta 143.852709
_cell_angle_gamma 42.335292
_cell_volume 521.645053
_symmetry_space_group_name_H-M "P -1"
_symmetry_group_IT_number 2
_symmetry_cell_setting 'triclinic'
loop_
_space_group_symop_operation_xyz
x,y,z
-x,-y,-z
loop_
_atom_site_type_symbol
_atom_site_label
_atom_site_fract_x
_atom_site_fract_y
_atom_site_fract_z
Si Si1 0.999052 0.078522 0.755407
Si Si2 0.712076 0.661068 0.160392
Si Si3 0.240401 0.406208 0.458116
Si Si4 0.963943 0.315805 0.694803
Si Si5 0.656399 0.204398 0.709470
Si Si6 0.000000 0.500000 0.500000
Si Si7 0.294078 0.834830 0.993281
O O1 0.800883 0.081173 0.638976
O O2 0.968694 0.282082 0.815443
O O3 0.079220 0.888421 0.577297
O O4 0.154348 0.021652 0.954877
O O5 0.832096 0.697683 0.185854
O O6 0.833341 0.652318 0.387480
O O7 0.677477 0.436786 0.919122
O O8 0.503346 0.800241 0.104660
O O9 0.435397 0.243617 0.511782
O O10 0.229864 0.615626 0.717113
O O11 0.186475 0.499637 0.353985
O O12 0.065482 0.351011 0.314991
O O13 0.699543 0.140607 0.835267
#
# Coordination Sequence:
#
# PCOD9076953 Si02
#       7
#     2   2   2   2   2   1   2
#     4  10  22  37  54  72 119 141 178 207 272 317
#     4  10  19  33  60  78 104 134 190 213 263 309
#     4   9  17  31  58  76 105 135 181 211 264 307
#     4   9  21  39  53  78 101 157 173 212 263 324
#     4  11  19  34  56  87 102 138 174 234 255 310
#     4  10  14  30  52  80 102 130 164 224 248 316
#     4  10  18  35  53  82 106 146 164 217 272 331
#
# _framework density 24.921161999999999
#
# number of rings (size 3 to 8) (size 9 to 14) (size 15 to 20)
#    0.000    2.154    3.077    1.385    0.000    1.846 
#    0.000    3.846    0.000    0.000    0.000    0.000 
#    0.000    0.000    0.000    0.000    0.000    0.000 
#
# Total GULP energy -72500.006781 kJ/mol
# GULP energy per Si atom -5576.923599 kJ/mol
# Density = 2.486444 g / cm^3
# Si number density = 24.921162 Si / 1000 Ang^3
#
#
#
# Elastic Constant Matrix: (Units=GPa)
#
#
# Indices 1 2 3 4 5 6 
#
# 1 132.9543 61.6761 23.5708 -33.1486 -14.0587 14.3933
# 2 61.6761 121.4344 37.7565 -28.2072 -24.9447 -5.8235
# 3 23.5708 37.7565 68.1242 -15.2974 -14.7107 -10.5818
# 4 -33.1486 -28.2072 -15.2974 45.6136 1.1730 13.1358
# 5 -14.0587 -24.9447 -14.7107 1.1730 36.7032 -11.3073
# 6 14.3933 -5.8235 -10.5818 13.1358 -11.3073 31.6745
#
#
#
# Elastic Compliance Matrix: (Units=1/GPa)
#
#
# Indices 1 2 3 4 5 6 
#
# 1 0.014147 -0.005517 -0.002589 0.010113 -0.003980 -0.013923
# 2 -0.005517 0.014398 -0.002817 0.001871 0.008474 0.006462
# 3 -0.002589 -0.002817 0.020662 0.000019 0.008653 0.010642
# 4 0.010113 0.001871 0.000019 0.036272 -0.002189 -0.020069
# 5 -0.003980 0.008474 0.008653 -0.002189 0.041826 0.022096
# 6 -0.013923 0.006462 0.010642 -0.020069 0.022096 0.058852
#
#
# Mechanical properties :
#
#
# Convention : Reuss Voigt Hill
#
# Bulk Modulus (GPa) = 36.54689 63.16885 49.85787
# Shear Modulus (GPa) = 23.02843 36.09889 29.56366
#
# Velocity S-wave (km/s) = 3.04312 3.81008 3.44799
# Velocity P-wave (km/s) = 5.20041 6.69015 5.99176
#
# Compressibility (1/GPa) = 0.02736211
#
# Stress axis : x y z
#
# Youngs Moduli (GPa) = 70.68485 69.45464 48.39811
#
# Poissons Ratio (x) = 0.38316 0.12528
# Poissons Ratio (y) = 0.38994 0.13635
# Poissons Ratio (z) = 0.18297 0.19567
#
# Static dielectric constant tensor:
#      x y z
#    x 1.643780 -0.024530 -0.188120 
#    y -0.024530 2.042230 0.070890 
#    z -0.188120 0.070890 1.980590 
# 
# From -- ./inp_files/146497.got.cif
#   From: 2010.05.17/outbox.cif.g08.bks.cpg/sg2_74_cif.got.tgz:146497.got - 2010.06.03 11:33:40.
