data_PCOD9076974
_publ_section_title
;
Structure prediction by ZEFSAII (Michael W. Deem and Ramdas Pophale) SiO2 
 PCOD9076974
Probable space group: P -1
;
_chemical_formula_sum "Si O2"
_cell_formula_units_Z 14
_cell_length_a 9.474348
_cell_length_b 17.743986
_cell_length_c 7.144686
_cell_angle_alpha 75.006933
_cell_angle_beta 49.347098
_cell_angle_gamma 45.917583
_cell_volume 611.467493
_symmetry_space_group_name_H-M "P -1"
_symmetry_group_IT_number 2
_symmetry_cell_setting 'triclinic'
loop_
_space_group_symop_operation_xyz
x,y,z
-x,-y,-z
loop_
_atom_site_type_symbol
_atom_site_label
_atom_site_fract_x
_atom_site_fract_y
_atom_site_fract_z
Si Si1 0.333213 0.628075 0.277034
Si Si2 0.174945 0.999953 0.109317
Si Si3 0.655497 0.792594 0.347866
Si Si4 0.246816 0.195507 0.340944
Si Si5 0.312508 0.760280 0.490712
Si Si6 0.727026 0.370387 0.116080
Si Si7 0.174904 0.043179 0.644144
O O1 0.380831 0.698860 0.276169
O O2 0.554959 0.498832 0.227558
O O3 0.037236 0.690666 0.565000
O O4 0.323994 0.631704 0.057940
O O5 0.989412 0.113833 0.315999
O O6 0.157293 0.037889 0.887335
O O7 0.036813 0.956214 0.251960
O O8 0.488377 0.896508 0.952152
O O9 0.664935 0.777916 0.575630
O O10 0.507857 0.769202 0.381029
O O11 0.466191 0.924735 0.406201
O O12 0.958103 0.711048 0.079078
O O13 0.164764 0.135783 0.536260
O O14 0.344895 0.681339 0.663122
#
# Coordination Sequence:
#
# PCOD9076974 Si02
#       7
#     2   2   2   2   2   2   2
#     4  10  23  38  58  86 111 145 195 225 273 345
#     4   9  17  29  53  83 110 142 183 222 274 330
#     4   9  19  34  59  87 108 145 197 223 271 342
#     4  10  18  34  53  79 116 148 178 224 274 330
#     4  11  21  38  60  85 112 144 187 237 276 324
#     4  10  21  43  60  76 115 152 179 237 284 316
#     4   9  16  30  54  82 109 146 182 220 273 330
#
# _framework density 22.895737
#
# number of rings (size 3 to 8) (size 9 to 14) (size 15 to 20)
#    0.000    2.286    0.000    5.571    0.000    1.143 
#    0.000   15.000    0.000    0.000    0.000    0.000 
#    0.000    0.000    0.000    0.000    0.000    0.000 
#
# Total GULP energy -78347.096672 kJ/mol
# GULP energy per Si atom -5596.221191 kJ/mol
# Density = 2.284363 g / cm^3
# Si number density = 22.895737 Si / 1000 Ang^3
#
#
#
# Elastic Constant Matrix: (Units=GPa)
#
#
# Indices 1 2 3 4 5 6 
#
# 1 80.8131 33.7863 40.1919 11.1631 9.8613 24.5147
# 2 33.7863 92.8531 65.7469 26.6237 -4.9296 11.4621
# 3 40.1919 65.7469 85.7346 19.5779 1.1785 -3.6040
# 4 11.1631 26.6237 19.5779 37.8980 -0.4039 7.2430
# 5 9.8613 -4.9296 1.1785 -0.4039 38.7309 8.0913
# 6 24.5147 11.4621 -3.6040 7.2430 8.0913 32.7144
#
#
#
# Elastic Compliance Matrix: (Units=1/GPa)
#
#
# Indices 1 2 3 4 5 6 
#
# 1 0.025867 0.005452 -0.017816 0.002273 -0.000382 -0.023665
# 2 0.005452 0.032338 -0.026662 -0.006908 0.007362 -0.018644
# 3 -0.017816 -0.026662 0.042682 -0.003842 -0.006429 0.029835
# 4 0.002273 -0.006908 -0.003842 0.033968 0.000551 -0.007363
# 5 -0.000382 0.007362 -0.006429 0.000551 0.029217 -0.010350
# 6 -0.023665 -0.018644 0.029835 -0.007363 -0.010350 0.062310
#
#
# Mechanical properties :
#
#
# Convention : Reuss Voigt Hill
#
# Bulk Modulus (GPa) = 43.79252 59.87233 51.83242
# Shear Modulus (GPa) = 16.02332 29.84704 22.93518
#
# Velocity S-wave (km/s) = 2.64832 3.61447 3.16843
# Velocity P-wave (km/s) = 5.34040 6.60499 6.00607
#
# Compressibility (1/GPa) = 0.02283495
#
# Stress axis : x y z
#
# Youngs Moduli (GPa) = 38.65936 30.92359 23.42912
#
# Poissons Ratio (x) = -0.16860 0.41741
# Poissons Ratio (y) = -0.21078 0.62467
# Poissons Ratio (z) = 0.68875 0.82449
#
# Static dielectric constant tensor:
#      x y z
#    x 1.912230 -0.037510 0.032860 
#    y -0.037510 1.807490 0.011080 
#    z 0.032860 0.011080 1.873860 
# 
# From -- ./inp_files/201739.got.cif
#   From: 2010.05.17/outbox.cif.g08.bks.cpg/sg2_101_cif.got.tgz:201739.got - 2010.06.03 11:33:40.
