data_PCOD9076266
_publ_section_title
;
Structure prediction by ZEFSAII (Michael W. Deem and Ramdas Pophale) SiO2 
 PCOD9076266
Probable space group: P -1
;
_chemical_formula_sum "Si O2"
_cell_formula_units_Z 16
_cell_length_a 10.963391
_cell_length_b 10.588413
_cell_length_c 11.398273
_cell_angle_alpha 136.410940
_cell_angle_beta 129.648293
_cell_angle_gamma 48.915720
_cell_volume 653.340414
_symmetry_space_group_name_H-M "P -1"
_symmetry_group_IT_number 2
_symmetry_cell_setting 'triclinic'
loop_
_space_group_symop_operation_xyz
x,y,z
-x,-y,-z
loop_
_atom_site_type_symbol
_atom_site_label
_atom_site_fract_x
_atom_site_fract_y
_atom_site_fract_z
Si Si1 0.703586 0.476559 0.459179
Si Si2 0.645676 0.910661 0.704483
Si Si3 0.169509 0.313023 0.951201
Si Si4 0.310746 0.570620 0.322586
Si Si5 0.713439 0.906075 0.480717
Si Si6 0.701038 0.560172 0.115735
Si Si7 0.307790 0.734196 0.923842
Si Si8 0.021774 0.950366 0.343710
O O1 0.742182 0.676438 0.611075
O O2 0.499726 0.553837 0.403662
O O3 0.759107 0.379246 0.554554
O O4 0.747411 0.333239 0.277861
O O5 0.670985 0.980884 0.636758
O O6 0.439077 0.969939 0.619003
O O7 0.706809 0.041397 0.918890
O O8 0.207721 0.354690 0.868903
O O9 0.137581 0.114438 0.825009
O O10 0.307554 0.356663 0.144876
O O11 0.000000 0.500000 0.000000
O O12 0.183949 0.745209 0.284482
O O13 0.699527 0.692851 0.317345
O O14 0.901479 0.899527 0.564520
O O15 0.771975 0.340631 0.063693
O O16 0.511569 0.610852 0.981994
O O17 0.000000 0.000000 0.500000
#
# Coordination Sequence:
#
# PCOD9076266 Si02
#       8
#     2   2   2   2   2   2   2   2
#     4  11  20  41  59  86 127 151 190 242 298 363
#     4  10  21  34  58  86 120 150 187 255 291 346
#     4  10  21  34  55  81 115 155 191 235 280 345
#     4  10  23  38  58  84 121 160 188 234 301 355
#     4  10  19  33  55  88 117 145 198 245 297 332
#     4  10  18  33  53  86 120 145 196 243 294 337
#     4  10  21  32  58  88 116 154 188 248 296 342
#     4  11  21  36  59  87 115 151 200 241 282 346
#
# _framework density 24.489530999999999
#
# number of rings (size 3 to 8) (size 9 to 14) (size 15 to 20)
#    0.000    1.750    5.000    0.000    5.250    0.000 
#    2.250    1.250    0.000    7.500    0.000    0.000 
#    0.000    0.000    0.000    0.000    0.000    0.000 
#
# Total GULP energy -89235.452425 kJ/mol
# GULP energy per Si atom -5577.215777 kJ/mol
# Density = 2.443379 g / cm^3
# Si number density = 24.489531 Si / 1000 Ang^3
#
#
#
# Elastic Constant Matrix: (Units=GPa)
#
#
# Indices 1 2 3 4 5 6 
#
# 1 83.2625 4.2341 17.4201 -3.8315 0.7072 13.7253
# 2 4.2341 44.1597 38.5748 9.1601 6.3717 5.7506
# 3 17.4201 38.5748 158.4128 28.5439 -4.7877 23.8555
# 4 -3.8315 9.1601 28.5439 22.2452 10.4810 -3.0130
# 5 0.7072 6.3717 -4.7877 10.4810 40.7303 2.3027
# 6 13.7253 5.7506 23.8555 -3.0130 2.3027 17.6588
#
#
#
# Elastic Compliance Matrix: (Units=1/GPa)
#
#
# Indices 1 2 3 4 5 6 
#
# 1 0.013798 -0.000096 -0.000176 0.001248 0.000013 -0.010245
# 2 -0.000096 0.030003 -0.007919 0.000855 -0.005951 0.001924
# 3 -0.000176 -0.007919 0.018629 -0.030788 0.013016 -0.029401
# 4 0.001248 0.000855 -0.030788 0.109730 -0.035612 0.063709
# 5 0.000013 -0.005951 0.013016 -0.035612 0.037683 -0.026646
# 6 -0.010245 0.001924 -0.029401 0.063709 -0.026646 0.118028
#
#
# Mechanical properties :
#
#
# Convention : Reuss Voigt Hill
#
# Bulk Modulus (GPa) = 21.71661 45.14367 33.43014
# Shear Modulus (GPa) = 13.90434 31.16726 22.53580
#
# Velocity S-wave (km/s) = 2.38537 3.57133 3.03681
# Velocity P-wave (km/s) = 4.05877 5.95649 5.09673
#
# Compressibility (1/GPa) = 0.04604771
#
# Stress axis : x y z
#
# Youngs Moduli (GPa) = 72.47479 33.33052 53.68090
#
# Poissons Ratio (x) = 0.00321 0.00942
# Poissons Ratio (y) = 0.00697 0.42509
# Poissons Ratio (z) = 0.01272 0.26394
#
# Static dielectric constant tensor:
#      x y z
#    x 2.014780 0.022770 0.068000 
#    y 0.022770 2.051610 0.020010 
#    z 0.068000 0.020010 2.132940 
# 
# From -- ./inp_files/252556.got.cif
#   From: 2010.05.17/outbox.cif.g08.bks.cpg/sg2_127_cif.got.tgz:252556.got - 2010.06.03 11:33:40.
