data_PCOD9076853
_publ_section_title
;
Structure prediction by ZEFSAII (Michael W. Deem and Ramdas Pophale) SiO2 
 PCOD9076853
Probable space group: P -1
;
_chemical_formula_sum "Si O2"
_cell_formula_units_Z 15
_cell_length_a 6.472646
_cell_length_b 14.514795
_cell_length_c 9.807067
_cell_angle_alpha 92.849091
_cell_angle_beta 115.521918
_cell_angle_gamma 110.982459
_cell_volume 753.230755
_symmetry_space_group_name_H-M "P -1"
_symmetry_group_IT_number 2
_symmetry_cell_setting 'triclinic'
loop_
_space_group_symop_operation_xyz
x,y,z
-x,-y,-z
loop_
_atom_site_type_symbol
_atom_site_label
_atom_site_fract_x
_atom_site_fract_y
_atom_site_fract_z
Si Si1 0.000000 0.500000 0.500000
Si Si2 0.806494 0.706781 0.148331
Si Si3 0.198954 0.394714 0.141755
Si Si4 0.151240 0.888188 0.100247
Si Si5 0.624394 0.597670 0.364106
Si Si6 0.663201 0.243108 0.046064
Si Si7 0.352837 0.121350 0.197154
Si Si8 0.510013 0.308696 0.410519
O O1 0.770916 0.536086 0.466396
O O2 0.799197 0.381527 0.466885
O O3 0.036371 0.814953 0.191506
O O4 0.783531 0.658329 0.284775
O O5 0.817891 0.632397 0.025244
O O6 0.554972 0.724734 0.059012
O O7 0.358187 0.512885 0.225032
O O8 0.352007 0.337165 0.251432
O O9 0.923235 0.344569 0.126528
O O10 0.908525 0.882256 0.942123
O O11 0.311968 0.005533 0.188606
O O12 0.295803 0.835848 0.049528
O O13 0.570880 0.665686 0.465004
O O14 0.574114 0.185227 0.158834
O O15 0.427380 0.189206 0.358406
#
# Coordination Sequence:
#
# PCOD9076853 Si02
#       8
#     1   2   2   2   2   2   2   2
#     4  10  24  40  60  76 118 158 192 230 282 334
#     4  10  21  38  57  85 119 149 190 241 286 336
#     4  10  20  37  57  85 117 146 200 234 283 340
#     4   9  19  36  58  87 116 145 193 241 287 333
#     4  11  25  38  57  85 118 156 190 236 284 345
#     4  10  18  33  61  85 116 147 190 240 291 334
#     4  10  19  34  59  87 116 147 190 246 280 334
#     4  11  22  37  57  88 117 150 197 232 284 343
#
# _framework density 19.914214999999999
#
# number of rings (size 3 to 8) (size 9 to 14) (size 15 to 20)
#    0.000    1.867    4.000    2.400    3.733    2.667 
#    0.000    0.667    0.000    1.600    0.000    0.000 
#    0.000    0.000    0.000    0.000    0.000    0.000 
#
# Total GULP energy -83503.067672 kJ/mol
# GULP energy per Si atom -5566.871178 kJ/mol
# Density = 1.986889 g / cm^3
# Si number density = 19.914215 Si / 1000 Ang^3
#
#
#
# Elastic Constant Matrix: (Units=GPa)
#
#
# Indices 1 2 3 4 5 6 
#
# 1 92.0225 29.5956 22.6166 15.2961 -11.0199 15.9093
# 2 29.5956 111.4578 53.5807 26.8750 -18.6854 8.1938
# 3 22.6166 53.5807 65.7166 11.9900 -25.2131 11.0454
# 4 15.2961 26.8750 11.9900 23.6005 -4.6055 -3.3149
# 5 -11.0199 -18.6854 -25.2131 -4.6055 19.3599 -2.2327
# 6 15.9093 8.1938 11.0454 -3.3149 -2.2327 18.2408
#
#
#
# Elastic Compliance Matrix: (Units=1/GPa)
#
#
# Indices 1 2 3 4 5 6 
#
# 1 0.016206 0.000158 0.002341 -0.012822 0.007410 -0.017047
# 2 0.000158 0.018828 -0.012832 -0.016138 -0.002761 -0.004096
# 3 0.002341 -0.012832 0.046936 -0.004406 0.046745 -0.019778
# 4 -0.012822 -0.016138 -0.004406 0.074694 -0.006943 0.033824
# 5 0.007410 -0.002761 0.046745 -0.006943 0.109973 -0.021329
# 6 -0.017047 -0.004096 -0.019778 0.033824 -0.021329 0.087042
#
#
# Mechanical properties :
#
#
# Convention : Reuss Voigt Hill
#
# Bulk Modulus (GPa) = 16.31184 53.42032 34.86608
# Shear Modulus (GPa) = 12.66529 23.13384 17.89956
#
# Velocity S-wave (km/s) = 2.52462 3.41203 3.00131
# Velocity P-wave (km/s) = 4.08744 6.51199 5.43660
#
# Compressibility (1/GPa) = 0.06130515
#
# Stress axis : x y z
#
# Youngs Moduli (GPa) = 61.70420 53.11168 21.30561
#
# Poissons Ratio (x) = -0.00842 -0.04987
# Poissons Ratio (y) = -0.00978 0.27339
# Poissons Ratio (z) = -0.14444 0.68153
#
# Static dielectric constant tensor:
#      x y z
#    x 1.703840 -0.000430 0.009730 
#    y -0.000430 1.703600 0.002620 
#    z 0.009730 0.002620 1.729820 
# 
# From -- ./inp_files/34434.got.cif
#   From: 2010.05.17/outbox.cif.g08.bks.cpg/sg2_18_cif.got.tgz:34434.got - 2010.06.03 11:33:40.
