data_PCOD9076697
_publ_section_title
;
Structure prediction by ZEFSAII (Michael W. Deem and Ramdas Pophale) SiO2 
 PCOD9076697
Probable space group: P -1
;
_chemical_formula_sum "Si O2"
_cell_formula_units_Z 14
_cell_length_a 14.127625
_cell_length_b 15.280600
_cell_length_c 7.951879
_cell_angle_alpha 134.432460
_cell_angle_beta 112.754005
_cell_angle_gamma 32.358105
_cell_volume 554.148979
_symmetry_space_group_name_H-M "P -1"
_symmetry_group_IT_number 2
_symmetry_cell_setting 'triclinic'
loop_
_space_group_symop_operation_xyz
x,y,z
-x,-y,-z
loop_
_atom_site_type_symbol
_atom_site_label
_atom_site_fract_x
_atom_site_fract_y
_atom_site_fract_z
Si Si1 0.036058 0.655630 0.875776
Si Si2 0.808645 0.920143 0.624469
Si Si3 0.609073 0.905421 0.630390
Si Si4 0.483058 0.553566 0.754204
Si Si5 0.075823 0.783041 0.401925
Si Si6 0.796947 0.761660 0.103695
Si Si7 0.877389 0.191244 0.018628
O O1 0.052003 0.719162 0.142746
O O2 0.863723 0.737672 0.932706
O O3 0.243440 0.362249 0.588363
O O4 0.023935 0.777874 0.898832
O O5 0.764306 0.858977 0.646088
O O6 0.727591 0.947436 0.426405
O O7 0.035518 0.735281 0.471992
O O8 0.667008 0.178649 0.936822
O O9 0.500000 0.000000 0.500000
O O10 0.398450 0.127567 0.894838
O O11 0.500000 0.500000 0.500000
O O12 0.709339 0.372492 0.692642
O O13 0.370634 0.556782 0.775054
O O14 0.921051 0.055971 0.708844
O O15 0.000000 0.500000 0.000000
O O16 0.000000 0.000000 0.000000
#
# Coordination Sequence:
#
# PCOD9076697 Si02
#       7
#     2   2   2   2   2   2   2
#     4  11  22  36  65  98 129 164 205 265 313 372
#     4   9  20  31  59  95 123 158 205 252 311 380
#     4  10  18  34  58  97 133 156 200 253 326 377
#     4  11  22  39  64  83 120 177 213 258 317 366
#     4  10  21  38  63  92 124 161 217 262 315 369
#     4  10  18  33  58  95 134 162 193 257 325 375
#     4  11  24  43  59  90 129 171 218 256 309 377
#
# _framework density 25.263964999999999
#
# number of rings (size 3 to 8) (size 9 to 14) (size 15 to 20)
#    0.000    1.714    4.286    2.143    2.000    1.714 
#    0.000    0.000    0.000    4.286    0.000    0.000 
#    0.000    0.000    0.000    0.000    0.000    0.000 
#
# Total GULP energy -78078.618315 kJ/mol
# GULP energy per Si atom -5577.044165 kJ/mol
# Density = 2.520646 g / cm^3
# Si number density = 25.263965 Si / 1000 Ang^3
#
#
#
# Elastic Constant Matrix: (Units=GPa)
#
#
# Indices 1 2 3 4 5 6 
#
# 1 234.8853 58.4024 39.7862 29.5648 -45.6742 11.0398
# 2 58.4024 58.8206 28.9039 1.1710 -13.8237 25.2356
# 3 39.7862 28.9039 113.7378 6.3867 -15.4336 8.7845
# 4 29.5648 1.1710 6.3867 22.8497 -6.4511 2.1116
# 5 -45.6742 -13.8237 -15.4336 -6.4511 57.4082 5.9512
# 6 11.0398 25.2356 8.7845 2.1116 5.9512 40.7429
#
#
#
# Elastic Compliance Matrix: (Units=1/GPa)
#
#
# Indices 1 2 3 4 5 6 
#
# 1 0.007913 -0.008295 0.000026 -0.009269 0.002948 0.003038
# 2 -0.008295 0.037891 -0.005164 0.013607 0.004897 -0.021528
# 3 0.000026 -0.005164 0.010321 -0.002404 0.001187 0.000918
# 4 -0.009269 0.013607 -0.002404 0.057273 0.002599 -0.008746
# 5 0.002948 0.004897 0.001187 0.002599 0.022331 -0.007484
# 6 0.003038 -0.021528 0.000918 -0.008746 -0.007484 0.038404
#
#
# Mechanical properties :
#
#
# Convention : Reuss Voigt Hill
#
# Bulk Modulus (GPa) = 34.17945 73.51429 53.84687
# Shear Modulus (GPa) = 23.72465 42.89024 33.30745
#
# Velocity S-wave (km/s) = 3.06775 4.12477 3.63489
# Velocity P-wave (km/s) = 5.10945 7.20046 6.24312
#
# Compressibility (1/GPa) = 0.02925734
#
# Stress axis : x y z
#
# Youngs Moduli (GPa) = 126.37945 26.39159 96.89436
#
# Poissons Ratio (x) = 0.21892 -0.00252
# Poissons Ratio (y) = 1.04833 0.50039
# Poissons Ratio (z) = -0.00329 0.13629
#
# Static dielectric constant tensor:
#      x y z
#    x 2.206460 -0.030970 -0.051450 
#    y -0.030970 2.079320 -0.062620 
#    z -0.051450 -0.062620 1.966690 
# 
# From -- ./inp_files/315921.got.cif
#   From: 2010.05.17/outbox.cif.g08.bks.cpg/sg2_158_cif.got.tgz:315921.got - 2010.06.03 11:33:40.
