data_PCOD9076652
_publ_section_title
;
Structure prediction by ZEFSAII (Michael W. Deem and Ramdas Pophale) SiO2 
 PCOD9076652
Probable space group: P -1
;
_chemical_formula_sum "Si O2"
_cell_formula_units_Z 16
_cell_length_a 7.340824
_cell_length_b 13.679510
_cell_length_c 9.635916
_cell_angle_alpha 108.292666
_cell_angle_beta 127.203895
_cell_angle_gamma 90.474889
_cell_volume 706.212449
_symmetry_space_group_name_H-M "P -1"
_symmetry_group_IT_number 2
_symmetry_cell_setting 'triclinic'
loop_
_space_group_symop_operation_xyz
x,y,z
-x,-y,-z
loop_
_atom_site_type_symbol
_atom_site_label
_atom_site_fract_x
_atom_site_fract_y
_atom_site_fract_z
Si Si1 0.277115 0.511764 0.150273
Si Si2 0.686394 0.009469 0.914804
Si Si3 0.857973 0.564739 0.643716
Si Si4 0.373173 0.780313 0.678812
Si Si5 0.655840 0.408615 0.222681
Si Si6 0.412607 0.280380 0.514037
Si Si7 0.831349 0.041747 0.306418
Si Si8 0.256612 0.029032 0.374754
O O1 0.278107 0.473991 0.294743
O O2 0.408920 0.437077 0.091225
O O3 0.439329 0.633426 0.270732
O O4 0.000000 0.500000 0.000000
O O5 0.602480 0.881259 0.838641
O O6 0.194453 0.942856 0.867386
O O7 0.815539 0.025390 0.833885
O O8 0.575439 0.967754 0.201949
O O9 0.762573 0.486645 0.436040
O O10 0.801732 0.674936 0.621802
O O11 0.137492 0.572351 0.787688
O O12 0.366093 0.707814 0.776253
O O13 0.407106 0.717583 0.529549
O O14 0.164670 0.839609 0.587504
O O15 0.321605 0.157692 0.460183
O O16 0.058672 0.994932 0.387451
O O17 0.500000 0.000000 0.500000
#
# Coordination Sequence:
#
# PCOD9076652 Si02
#       8
#     2   2   2   2   2   2   2   2
#     4  11  22  38  55  81 125 144 175 234 287 328
#     4   8  19  35  56  82 107 142 184 233 272 318
#     4  10  19  34  63  80 108 140 191 233 262 330
#     4   9  15  32  60  80 104 138 192 229 260 321
#     4  10  18  33  58  87 101 144 192 221 271 328
#     4  10  19  39  56  83 107 151 196 223 268 332
#     4   9  18  36  58  80 108 141 187 236 274 310
#     4  11  22  36  57  83 117 149 183 226 281 336
#
# _framework density 22.656072000000002
#
# number of rings (size 3 to 8) (size 9 to 14) (size 15 to 20)
#    0.750    1.500    2.500    1.875    0.000    1.000 
#    2.250    2.500    0.000    0.000    0.000    0.000 
#    0.000    0.000    0.000    0.000    0.000    0.000 
#
# Total GULP energy -89142.377135 kJ/mol
# GULP energy per Si atom -5571.398571 kJ/mol
# Density = 2.260451 g / cm^3
# Si number density = 22.656072 Si / 1000 Ang^3
#
#
#
# Elastic Constant Matrix: (Units=GPa)
#
#
# Indices 1 2 3 4 5 6 
#
# 1 144.1849 8.2317 -6.8545 -3.7888 21.6362 -25.6395
# 2 8.2317 89.5239 3.1765 -1.3267 13.8000 -20.9425
# 3 -6.8545 3.1765 31.5746 -8.8364 17.5666 -15.2653
# 4 -3.7888 -1.3267 -8.8364 17.0178 -10.9273 8.3110
# 5 21.6362 13.8000 17.5666 -10.9273 36.0366 -12.7002
# 6 -25.6395 -20.9425 -15.2653 8.3110 -12.7002 37.5199
#
#
#
# Elastic Compliance Matrix: (Units=1/GPa)
#
#
# Indices 1 2 3 4 5 6 
#
# 1 0.010897 0.002781 0.012591 -0.003199 -0.010774 0.011183
# 2 0.002781 0.014601 0.008107 -0.005293 -0.008743 0.011561
# 3 0.012591 0.008107 0.065973 0.003394 -0.031762 0.028468
# 4 -0.003199 -0.005293 0.003394 0.080216 0.021608 -0.014214
# 5 -0.010774 -0.008743 -0.031762 0.021608 0.055689 -0.011101
# 6 0.011183 0.011561 0.028468 -0.014214 -0.011101 0.051721
#
#
# Mechanical properties :
#
#
# Convention : Reuss Voigt Hill
#
# Bulk Modulus (GPa) = 7.22397 30.48789 18.85593
# Shear Modulus (GPa) = 17.96750 35.49683 26.73216
#
# Velocity S-wave (km/s) = 2.81918 3.96254 3.43871
# Velocity P-wave (km/s) = 3.71382 5.86700 4.90989
#
# Compressibility (1/GPa) = 0.13842802
#
# Stress axis : x y z
#
# Youngs Moduli (GPa) = 91.77216 68.48960 15.15778
#
# Poissons Ratio (x) = -0.19045 -0.19085
# Poissons Ratio (y) = -0.25519 -0.12289
# Poissons Ratio (z) = -1.15551 -0.55527
#
# Static dielectric constant tensor:
#      x y z
#    x 1.908750 -0.042640 0.039250 
#    y -0.042640 1.845200 -0.085160 
#    z 0.039250 -0.085160 1.991930 
# 
# From -- ./inp_files/397582.got.cif
#   From: 2010.05.17/outbox.cif.g08.bks.cpg/sg2_199_cif.got.tgz:397582.got - 2010.06.03 11:33:40.
