data_PCOD9076425
_publ_section_title
;
Structure prediction by ZEFSAII (Michael W. Deem and Ramdas Pophale) SiO2 
 PCOD9076425
Probable space group: P -1
;
_chemical_formula_sum "Si O2"
_cell_formula_units_Z 16
_cell_length_a 11.464995
_cell_length_b 11.992054
_cell_length_c 14.689274
_cell_angle_alpha 53.540536
_cell_angle_beta 149.593845
_cell_angle_gamma 139.858856
_cell_volume 645.737706
_symmetry_space_group_name_H-M "P -1"
_symmetry_group_IT_number 2
_symmetry_cell_setting 'triclinic'
loop_
_space_group_symop_operation_xyz
x,y,z
-x,-y,-z
loop_
_atom_site_type_symbol
_atom_site_label
_atom_site_fract_x
_atom_site_fract_y
_atom_site_fract_z
Si Si1 0.654658 0.775469 0.910280
Si Si2 0.303438 0.710886 0.171516
Si Si3 0.617479 0.762400 0.671467
Si Si4 0.143859 0.937118 0.431799
Si Si5 0.882893 0.637382 0.772277
Si Si6 0.985013 0.429644 0.424432
Si Si7 0.246982 0.975342 0.778380
Si Si8 0.178614 0.848708 0.172140
O O1 0.620443 0.748445 0.789679
O O2 0.328198 0.643899 0.794415
O O3 0.766606 0.972409 0.910514
O O4 0.914804 0.762825 0.108478
O O5 0.344097 0.568862 0.297668
O O6 0.599353 0.908251 0.263329
O O7 0.100194 0.713355 0.105268
O O8 0.154931 0.662493 0.995177
O O9 0.775640 0.709945 0.737752
O O10 0.276103 0.603486 0.491230
O O11 0.802803 0.973493 0.675603
O O12 0.034920 0.743437 0.481520
O O13 0.920042 0.959779 0.318034
O O14 0.493162 0.073258 0.620405
O O15 0.012216 0.765506 0.711041
O O16 0.000000 0.500000 0.500000
O O17 0.500000 0.000000 0.000000
#
# Coordination Sequence:
#
# PCOD9076425 Si02
#       8
#     2   2   2   2   2   2   2   2
#     4   9  19  36  56  79 114 150 188 226 276 332
#     4  10  18  33  56  77 111 146 178 228 281 326
#     4  10  18  36  61  81 110 146 188 234 273 322
#     4  10  21  36  58  85 113 146 186 230 281 333
#     4   9  18  32  56  85 102 140 190 226 272 331
#     4   9  19  33  55  84 108 140 190 234 266 317
#     4   9  19  35  54  82 109 139 188 229 267 332
#     4  10  20  35  55  82 115 152 180 225 287 335
#
# _framework density 24.777861999999999
#
# number of rings (size 3 to 8) (size 9 to 14) (size 15 to 20)
#    0.000    2.500    1.250    0.750    0.000    5.000 
#    0.000    5.625    0.000    4.500    0.000    0.000 
#    0.000    0.000    0.000    0.000    0.000    0.000 
#
# Total GULP energy -89071.186982 kJ/mol
# GULP energy per Si atom -5566.949186 kJ/mol
# Density = 2.472147 g / cm^3
# Si number density = 24.777862 Si / 1000 Ang^3
#
#
#
# Elastic Constant Matrix: (Units=GPa)
#
#
# Indices 1 2 3 4 5 6 
#
# 1 43.6650 45.6508 23.1039 -19.4192 13.5448 6.0100
# 2 45.6508 159.4437 24.3642 -15.5089 10.9992 15.5271
# 3 23.1039 24.3642 108.7223 7.5362 30.3133 0.7450
# 4 -19.4192 -15.5089 7.5362 24.7465 -4.3744 4.2076
# 5 13.5448 10.9992 30.3133 -4.3744 20.5046 4.1583
# 6 6.0100 15.5271 0.7450 4.2076 4.1583 30.6883
#
#
#
# Elastic Compliance Matrix: (Units=1/GPa)
#
#
# Indices 1 2 3 4 5 6 
#
# 1 0.068880 -0.010510 -0.015078 0.054036 -0.003042 -0.014802
# 2 -0.010510 0.009337 -0.000685 -0.001101 0.003310 -0.002947
# 3 -0.015078 -0.000685 0.023243 -0.026810 -0.031931 0.010738
# 4 0.054036 -0.001101 -0.026810 0.100528 0.031540 -0.027431
# 5 -0.003042 0.003310 -0.031931 0.031540 0.106812 -0.019101
# 6 -0.014802 -0.002947 0.010738 -0.027431 -0.019101 0.043064
#
#
# Mechanical properties :
#
#
# Convention : Reuss Voigt Hill
#
# Bulk Modulus (GPa) = 20.44405 55.34097 37.89251
# Shear Modulus (GPa) = 11.88450 29.76871 20.82661
#
# Velocity S-wave (km/s) = 2.19245 3.46992 2.90234
# Velocity P-wave (km/s) = 3.83118 6.19977 5.15340
#
# Compressibility (1/GPa) = 0.04891398
#
# Stress axis : x y z
#
# Youngs Moduli (GPa) = 14.51796 107.09804 43.02333
#
# Poissons Ratio (x) = 1.12559 0.64871
# Poissons Ratio (y) = 0.15258 0.02949
# Poissons Ratio (z) = 0.21890 0.07341
#
# Static dielectric constant tensor:
#      x y z
#    x 1.898790 0.036980 -0.030320 
#    y 0.036980 2.010340 0.015370 
#    z -0.030320 0.015370 2.145210 
# 
# From -- ./inp_files/568693.got.cif
#   From: 2010.05.17/outbox.cif.g08.bks.cpg/sg2_285_cif.got.tgz:568693.got - 2010.06.03 11:33:40.
