data_PCOD9076457
_publ_section_title
;
Structure prediction by ZEFSAII (Michael W. Deem and Ramdas Pophale) SiO2 
 PCOD9076457
Probable space group: P -1
;
_chemical_formula_sum "Si O2"
_cell_formula_units_Z 12
_cell_length_a 5.702280
_cell_length_b 11.867554
_cell_length_c 20.216968
_cell_angle_alpha 21.460674
_cell_angle_beta 57.687122
_cell_angle_gamma 57.396263
_cell_volume 419.233427
_symmetry_space_group_name_H-M "P -1"
_symmetry_group_IT_number 2
_symmetry_cell_setting 'triclinic'
loop_
_space_group_symop_operation_xyz
x,y,z
-x,-y,-z
loop_
_atom_site_type_symbol
_atom_site_label
_atom_site_fract_x
_atom_site_fract_y
_atom_site_fract_z
Si Si1 0.761196 0.378042 0.763611
Si Si2 0.822264 0.452350 0.955773
Si Si3 0.722691 0.871723 0.362738
Si Si4 0.604786 0.832264 0.178689
Si Si5 0.249377 0.908506 0.316735
Si Si6 0.248728 0.210045 0.343923
O O1 0.587481 0.372359 0.724441
O O2 0.671745 0.681686 0.655462
O O3 0.097196 0.322646 0.753545
O O4 0.662350 0.102274 0.972941
O O5 0.868571 0.496448 0.847029
O O6 0.905974 0.764572 0.807205
O O7 0.500000 0.500000 0.000000
O O8 0.884115 0.105739 0.163802
O O9 0.517871 0.057713 0.345958
O O10 0.488816 0.754848 0.414910
O O11 0.000908 0.710039 0.445387
O O12 0.428219 0.973447 0.190628
O O13 0.000000 0.000000 0.500000
#
# Coordination Sequence:
#
# PCOD9076457 Si02
#       6
#     2   2   2   2   2   2
#     4  10  21  35  55  86 118 153 191 233 295 342
#     4   8  17  32  55  82 109 146 191 240 280 327
#     4  10  20  34  59  85 111 148 194 245 283 331
#     4  10  20  35  58  84 116 152 193 243 278 341
#     4  10  18  33  56  83 109 141 193 241 287 327
#     4  10  21  39  60  87 123 154 189 240 298 353
#
# _framework density 28.623670000000001
#
# number of rings (size 3 to 8) (size 9 to 14) (size 15 to 20)
#    0.000    2.667    0.000    4.500    0.000    5.333 
#    0.000    9.167    0.000   14.000    0.000    0.000 
#    0.000    0.000    0.000    0.000    0.000    0.000 
#
# Total GULP energy -67179.286504 kJ/mol
# GULP energy per Si atom -5598.273875 kJ/mol
# Density = 2.855852 g / cm^3
# Si number density = 28.623670 Si / 1000 Ang^3
#
#
#
# Elastic Constant Matrix: (Units=GPa)
#
#
# Indices 1 2 3 4 5 6 
#
# 1 260.1511 75.9244 83.9611 12.7710 -32.8491 22.8997
# 2 75.9244 114.5459 13.6253 3.5523 -13.8976 23.9742
# 3 83.9611 13.6253 138.5630 9.2729 -22.0260 7.7564
# 4 12.7710 3.5523 9.2729 42.6559 4.1450 -7.3513
# 5 -32.8491 -13.8976 -22.0260 4.1450 69.8889 -1.2584
# 6 22.8997 23.9742 7.7564 -7.3513 -1.2584 62.6781
#
#
#
# Elastic Compliance Matrix: (Units=1/GPa)
#
#
# Indices 1 2 3 4 5 6 
#
# 1 0.006073 -0.003332 -0.003034 -0.001123 0.001290 -0.000675
# 2 -0.003332 0.011688 0.001317 -0.000980 0.001168 -0.003508
# 3 -0.003034 0.001317 0.009365 -0.001538 0.001866 -0.000697
# 4 -0.001123 -0.000980 -0.001538 0.025118 -0.002628 0.003869
# 5 0.001290 0.001168 0.001866 -0.002628 0.015870 -0.001139
# 6 -0.000675 -0.003508 -0.000697 0.003869 -0.001139 0.018060
#
#
# Mechanical properties :
#
#
# Convention : Reuss Voigt Hill
#
# Bulk Modulus (GPa) = 58.72677 95.58683 77.15680
# Shear Modulus (GPa) = 49.04473 57.69451 53.36962
#
# Velocity S-wave (km/s) = 4.14385 4.49444 4.32270
# Velocity P-wave (km/s) = 6.59217 7.77175 7.20614
#
# Compressibility (1/GPa) = 0.01702801
#
# Stress axis : x y z
#
# Youngs Moduli (GPa) = 164.66321 85.55599 106.78554
#
# Poissons Ratio (x) = 0.28506 0.32402
# Poissons Ratio (y) = 0.54864 -0.14067
# Poissons Ratio (z) = 0.49963 -0.11270
#
# Static dielectric constant tensor:
#      x y z
#    x 2.312110 0.003840 0.116830 
#    y 0.003840 2.255700 -0.156480 
#    z 0.116830 -0.156480 2.407940 
# 
# From -- ./inp_files/582928.got.cif
#   From: 2010.05.17/outbox.cif.g08.bks.cpg/sg2_292_cif.got.tgz:582928.got - 2010.06.03 11:33:40.
