data_PCOD9076412
_publ_section_title
;
Structure prediction by ZEFSAII (Michael W. Deem and Ramdas Pophale) SiO2 
 PCOD9076412
Probable space group: P -1
;
_chemical_formula_sum "Si O2"
_cell_formula_units_Z 16
_cell_length_a 12.520766
_cell_length_b 12.684589
_cell_length_c 5.115406
_cell_angle_alpha 84.500969
_cell_angle_beta 115.082851
_cell_angle_gamma 127.586083
_cell_volume 567.900022
_symmetry_space_group_name_H-M "P -1"
_symmetry_group_IT_number 2
_symmetry_cell_setting 'triclinic'
loop_
_space_group_symop_operation_xyz
x,y,z
-x,-y,-z
loop_
_atom_site_type_symbol
_atom_site_label
_atom_site_fract_x
_atom_site_fract_y
_atom_site_fract_z
Si Si1 0.638150 0.690366 0.568828
Si Si2 0.950911 0.029641 0.238759
Si Si3 0.552307 0.271640 0.910015
Si Si4 0.825484 0.409387 0.759040
Si Si5 0.340745 0.494545 0.653827
Si Si6 0.653694 0.980968 0.911169
Si Si7 0.777875 0.169398 0.486195
Si Si8 0.057574 0.188423 0.869898
O O1 0.603838 0.789377 0.401238
O O2 0.480693 0.585705 0.578300
O O3 0.681572 0.642651 0.374834
O O4 0.765134 0.727907 0.902101
O O5 0.772082 0.950347 0.065125
O O6 0.004832 0.169221 0.124837
O O7 0.973770 0.912220 0.393516
O O8 0.000000 0.000000 0.000000
O O9 0.692790 0.317635 0.862128
O O10 0.605422 0.415159 0.051930
O O11 0.500500 0.162742 0.113144
O O12 0.793333 0.507709 0.588867
O O13 0.798433 0.302860 0.544425
O O14 0.000000 0.500000 0.000000
O O15 0.699637 0.090834 0.155167
O O16 0.680385 0.053935 0.643646
O O17 0.950215 0.220427 0.643493
#
# Coordination Sequence:
#
# PCOD9076412 Si02
#       8
#     2   2   2   2   2   2   2   2
#     4  10  21  40  68 102 140 180 237 294 362 433
#     4  10  18  33  55  93 135 182 220 276 348 419
#     4  11  25  43  72 104 140 189 234 301 367 430
#     4  11  27  50  73  98 138 188 247 304 360 428
#     4  10  23  44  68  99 135 183 240 300 360 426
#     4  11  25  43  72 106 152 188 241 296 357 440
#     4  11  26  46  70 110 146 195 244 292 357 426
#     4  10  20  34  62  95 140 178 227 284 352 417
#
# _framework density 28.173976
#
# number of rings (size 3 to 8) (size 9 to 14) (size 15 to 20)
#    0.000    1.500    1.250    2.625    8.750    1.500 
#    4.500    0.000    0.000    0.000    0.000    0.000 
#    0.000    0.000    0.000    0.000    0.000    0.000 
#
# Total GULP energy -89330.159555 kJ/mol
# GULP energy per Si atom -5583.134972 kJ/mol
# Density = 2.810985 g / cm^3
# Si number density = 28.173976 Si / 1000 Ang^3
#
#
#
# Elastic Constant Matrix: (Units=GPa)
#
#
# Indices 1 2 3 4 5 6 
#
# 1 192.2074 52.1142 59.3487 15.1544 17.6518 -27.2693
# 2 52.1142 69.8488 20.0455 7.2441 -1.4980 -8.2346
# 3 59.3487 20.0455 139.0515 14.5568 4.8980 -0.0121
# 4 15.1544 7.2441 14.5568 38.0190 6.1926 -15.3486
# 5 17.6518 -1.4980 4.8980 6.1926 75.6669 6.8121
# 6 -27.2693 -8.2346 -0.0121 -15.3486 6.8121 50.5024
#
#
#
# Elastic Compliance Matrix: (Units=1/GPa)
#
#
# Indices 1 2 3 4 5 6 
#
# 1 0.008114 -0.004906 -0.002759 0.000787 -0.002247 0.004123
# 2 -0.004906 0.018267 -0.000408 -0.001836 0.001724 -0.000461
# 3 -0.002759 -0.000408 0.008757 -0.003338 0.000580 -0.002647
# 4 0.000787 -0.001836 -0.003338 0.032429 -0.003600 0.010466
# 5 -0.002247 0.001724 0.000580 -0.003600 0.014388 -0.003967
# 6 0.004123 -0.000461 -0.002647 0.010466 -0.003967 0.025667
#
#
# Mechanical properties :
#
#
# Convention : Reuss Voigt Hill
#
# Bulk Modulus (GPa) = 52.65314 73.79161 63.22237
# Shear Modulus (GPa) = 38.43247 50.81093 44.62170
#
# Velocity S-wave (km/s) = 3.69740 4.25134 3.98401
# Velocity P-wave (km/s) = 6.07921 7.09554 6.60695
#
# Compressibility (1/GPa) = 0.01899222
#
# Stress axis : x y z
#
# Youngs Moduli (GPa) = 123.24448 54.74347 114.19789
#
# Poissons Ratio (x) = 0.26856 0.31505
# Poissons Ratio (y) = 0.60462 0.04660
# Poissons Ratio (z) = 0.34001 0.02234
#
# Static dielectric constant tensor:
#      x y z
#    x 2.164530 0.108350 -0.001330 
#    y 0.108350 1.993590 0.145630 
#    z -0.001330 0.145630 2.211200 
# 
# From -- ./inp_files/76217.got.cif
#   From: 2010.05.17/outbox.cif.g08.bks.cpg/sg2_39_cif.got.tgz:76217.got - 2010.06.03 11:33:40.
