data_PCOD9076859
_publ_section_title
;
Structure prediction by ZEFSAII (Michael W. Deem and Ramdas Pophale) SiO2 
 PCOD9076859
Probable space group: P -1
;
_chemical_formula_sum "Si O2"
_cell_formula_units_Z 16
_cell_length_a 14.705846
_cell_length_b 17.428222
_cell_length_c 11.712019
_cell_angle_alpha 158.762452
_cell_angle_beta 48.477937
_cell_angle_gamma 132.380608
_cell_volume 796.444711
_symmetry_space_group_name_H-M "P -1"
_symmetry_group_IT_number 2
_symmetry_cell_setting 'triclinic'
loop_
_space_group_symop_operation_xyz
x,y,z
-x,-y,-z
loop_
_atom_site_type_symbol
_atom_site_label
_atom_site_fract_x
_atom_site_fract_y
_atom_site_fract_z
Si Si1 0.609552 0.187391 0.613925
Si Si2 0.456197 0.296209 0.338197
Si Si3 0.799936 0.345537 0.875955
Si Si4 0.521135 0.613542 0.297270
Si Si5 0.301174 0.851578 0.766619
Si Si6 0.669082 0.057999 0.785045
Si Si7 0.978459 0.744102 0.291378
Si Si8 0.893280 0.167673 0.917255
O O1 0.724138 0.268678 0.718610
O O2 0.674591 0.130805 0.365175
O O3 0.500000 0.000000 0.500000
O O4 0.542069 0.387040 0.919561
O O5 0.500000 0.500000 0.500000
O O6 0.440733 0.387487 0.602461
O O7 0.564025 0.158725 0.071476
O O8 0.347546 0.102683 0.115695
O O9 0.714361 0.222878 0.875546
O O10 0.933553 0.289991 0.723576
O O11 0.839798 0.602521 0.216858
O O12 0.389045 0.684660 0.498537
O O13 0.615095 0.820264 0.453837
O O14 0.169789 0.766714 0.823533
O O15 0.776952 0.054901 0.779959
O O16 0.029774 0.682125 0.038047
O O17 0.975171 0.995110 0.640685
#
# Coordination Sequence:
#
# PCOD9076859 Si02
#       8
#     2   2   2   2   2   2   2   2
#     4  12  25  41  58  91 133 164 191 238 316 382
#     4  11  20  32  55  92 121 156 200 250 296 357
#     4  10  21  39  59  88 122 159 203 251 309 347
#     4  11  20  38  57  87 123 165 202 233 297 372
#     4  11  22  37  57  89 127 160 200 246 301 369
#     4  10  18  33  61  87 118 152 205 253 295 354
#     4   9  21  38  65  88 112 155 215 271 289 342
#     4  10  18  37  60  89 113 150 212 260 309 332
#
# _framework density 20.089279999999999
#
# number of rings (size 3 to 8) (size 9 to 14) (size 15 to 20)
#    0.000    1.500    2.500    4.875    1.750    0.000 
#    0.000    1.250    0.000    0.000    0.000    0.000 
#    0.000    0.000    0.000    0.000    0.000    0.000 
#
# Total GULP energy -89077.327590 kJ/mol
# GULP energy per Si atom -5567.332974 kJ/mol
# Density = 2.004356 g / cm^3
# Si number density = 20.089280 Si / 1000 Ang^3
#
#
#
# Elastic Constant Matrix: (Units=GPa)
#
#
# Indices 1 2 3 4 5 6 
#
# 1 88.3009 18.5635 17.3811 -6.1894 0.9532 -10.3804
# 2 18.5635 130.1799 38.7006 -2.1134 4.6594 -14.1687
# 3 17.3811 38.7006 74.2607 -3.3638 -3.1534 -3.6925
# 4 -6.1894 -2.1134 -3.3638 35.0212 -8.0240 5.1275
# 5 0.9532 4.6594 -3.1534 -8.0240 27.4690 -2.4960
# 6 -10.3804 -14.1687 -3.6925 5.1275 -2.4960 25.3829
#
#
#
# Elastic Compliance Matrix: (Units=1/GPa)
#
#
# Indices 1 2 3 4 5 6 
#
# 1 0.012497 -0.000622 -0.002323 0.001381 0.000187 0.004165
# 2 -0.000622 0.009763 -0.004859 -0.001132 -0.002113 0.004509
# 3 -0.002323 -0.004859 0.016699 0.001830 0.003240 -0.001284
# 4 0.001381 -0.001132 0.001830 0.031782 0.009155 -0.005321
# 5 0.000187 -0.002113 0.003240 0.009155 0.039934 0.001446
# 6 0.004165 0.004509 -0.001284 -0.005321 0.001446 0.044647
#
#
# Mechanical properties :
#
#
# Convention : Reuss Voigt Hill
#
# Bulk Modulus (GPa) = 42.82668 49.11464 45.97066
# Shear Modulus (GPa) = 27.97750 32.11437 30.04593
#
# Velocity S-wave (km/s) = 3.73588 4.00256 3.87152
# Velocity P-wave (km/s) = 6.32246 6.77215 6.55116
#
# Compressibility (1/GPa) = 0.02334993
#
# Stress axis : x y z
#
# Youngs Moduli (GPa) = 80.01627 102.42767 59.88497
#
# Poissons Ratio (x) = 0.06376 0.13912
# Poissons Ratio (y) = 0.04981 0.29098
# Poissons Ratio (z) = 0.18589 0.49770
#
# Static dielectric constant tensor:
#      x y z
#    x 1.747530 -0.006490 -0.006540 
#    y -0.006490 1.790640 -0.001400 
#    z -0.006540 -0.001400 1.732790 
# 
# From -- ./inp_files/178966.got.cif
#   From: 2010.05.17/outbox.cif.g08.bks.cpg/sg2_90_cif.got.tgz:178966.got - 2010.06.03 11:33:40.
