data_PCOD9076589
_publ_section_title
;
Structure prediction by ZEFSAII (Michael W. Deem and Ramdas Pophale) SiO2 
 PCOD9076589
Probable space group: P -1
;
_chemical_formula_sum "Si O2"
_cell_formula_units_Z 16
_cell_length_a 10.153882
_cell_length_b 9.116254
_cell_length_c 27.754662
_cell_angle_alpha 39.331172
_cell_angle_beta 37.561839
_cell_angle_gamma 67.928590
_cell_volume 783.203911
_symmetry_space_group_name_H-M "P -1"
_symmetry_group_IT_number 2
_symmetry_cell_setting 'triclinic'
loop_
_space_group_symop_operation_xyz
x,y,z
-x,-y,-z
loop_
_atom_site_type_symbol
_atom_site_label
_atom_site_fract_x
_atom_site_fract_y
_atom_site_fract_z
Si Si1 0.402275 0.170092 0.616766
Si Si2 0.752600 0.214237 0.835780
Si Si3 0.464423 0.331866 0.391805
Si Si4 0.559365 0.548948 0.127356
Si Si5 0.867170 0.863791 0.201865
Si Si6 0.489621 0.629240 0.019603
Si Si7 0.869495 0.168388 0.315277
Si Si8 0.303379 0.102447 0.393071
O O1 0.500000 0.500000 0.500000
O O2 0.246014 0.056365 0.741899
O O3 0.198506 0.977817 0.680628
O O4 0.645956 0.139226 0.551242
O O5 0.686900 0.436336 0.789074
O O6 0.022906 0.299840 0.761874
O O7 0.500000 0.000000 0.000000
O O8 0.680348 0.982587 0.873928
O O9 0.623958 0.645469 0.291287
O O10 0.667437 0.248987 0.359605
O O11 0.410097 0.309165 0.356832
O O12 0.197584 0.075065 0.564375
O O13 0.559243 0.535895 0.072393
O O14 0.488495 0.281796 0.247266
O O15 0.861761 0.850024 0.973798
O O16 0.168933 0.468990 0.158417
O O17 0.500000 0.500000 0.000000
O O18 0.000000 0.000000 0.500000
#
# Coordination Sequence:
#
# PCOD9076589 Si02
#       8
#     2   2   2   2   2   2   2   2
#     4  11  23  39  63  90 118 158 197 252 300 348
#     4   8  17  32  58  87 116 154 191 240 289 344
#     4  10  20  34  59  85 111 157 198 244 287 350
#     4  10  21  38  60  85 126 162 188 245 301 358
#     4  10  19  37  61  92 116 149 209 244 292 349
#     4  10  18  33  57  90 119 154 199 241 290 350
#     4  10  18  33  58  86 116 147 203 248 283 343
#     4  11  26  43  58  86 123 163 197 241 311 360
#
# _framework density 20.428906999999999
#
# number of rings (size 3 to 8) (size 9 to 14) (size 15 to 20)
#    0.000    2.250    1.250    4.500    1.750    1.000 
#    0.000    1.875    0.000    0.000    0.000    0.000 
#    0.000    0.000    0.000    0.000    0.000    0.000 
#
# Total GULP energy -89161.504656 kJ/mol
# GULP energy per Si atom -5572.594041 kJ/mol
# Density = 2.038241 g / cm^3
# Si number density = 20.428907 Si / 1000 Ang^3
#
#
#
# Elastic Constant Matrix: (Units=GPa)
#
#
# Indices 1 2 3 4 5 6 
#
# 1 72.3028 29.4382 30.1141 -9.0232 -2.6248 12.6246
# 2 29.4382 91.6397 10.0812 -1.1517 -0.5375 19.5785
# 3 30.1141 10.0812 62.3966 0.3531 -0.3283 -3.9665
# 4 -9.0232 -1.1517 0.3531 30.5475 0.2731 -5.1134
# 5 -2.6248 -0.5375 -0.3283 0.2731 33.6791 -1.0480
# 6 12.6246 19.5785 -3.9665 -5.1134 -1.0480 40.8823
#
#
#
# Elastic Compliance Matrix: (Units=1/GPa)
#
#
# Indices 1 2 3 4 5 6 
#
# 1 0.021405 -0.004733 -0.009881 0.005480 0.001309 -0.004583
# 2 -0.004733 0.013564 -0.000235 -0.001766 -0.000305 -0.005286
# 3 -0.009881 -0.000235 0.021157 -0.002346 -0.000396 0.004913
# 4 0.005480 -0.001766 -0.002346 0.034864 0.000196 0.003292
# 5 0.001309 -0.000305 -0.000396 0.000196 0.029799 0.000492
# 6 -0.004583 -0.005286 0.004913 0.003292 0.000492 0.029308
#
#
# Mechanical properties :
#
#
# Convention : Reuss Voigt Hill
#
# Bulk Modulus (GPa) = 37.83981 40.62290 39.23135
# Shear Modulus (GPa) = 26.51046 31.46881 28.98963
#
# Velocity S-wave (km/s) = 3.60626 3.92906 3.77111
# Velocity P-wave (km/s) = 5.99191 6.36487 6.18120
#
# Compressibility (1/GPa) = 0.02642720
#
# Stress axis : x y z
#
# Youngs Moduli (GPa) = 46.71791 73.72502 47.26596
#
# Poissons Ratio (x) = 0.34897 0.46705
# Poissons Ratio (y) = 0.22114 0.01109
# Poissons Ratio (z) = 0.46163 0.01730
#
# Static dielectric constant tensor:
#      x y z
#    x 1.746860 -0.014470 0.019460 
#    y -0.014470 1.821550 -0.004240 
#    z 0.019460 -0.004240 1.790560 
# 
# From -- ./inp_files/616769.got.cif
#   From: 2010.05.17/outbox.cif.g08.bks.cpg/sg2_309_cif.got.tgz:616769.got - 2010.06.03 11:33:40.
