data_PCOD9076764
_publ_section_title
;
Structure prediction by ZEFSAII (Michael W. Deem and Ramdas Pophale) SiO2 
 PCOD9076764
Probable space group: P -1
;
_chemical_formula_sum "Si O2"
_cell_formula_units_Z 14
_cell_length_a 7.162283
_cell_length_b 14.351471
_cell_length_c 17.796015
_cell_angle_alpha 155.619435
_cell_angle_beta 54.639355
_cell_angle_gamma 126.134808
_cell_volume 605.073455
_symmetry_space_group_name_H-M "P -1"
_symmetry_group_IT_number 2
_symmetry_cell_setting 'triclinic'
loop_
_space_group_symop_operation_xyz
x,y,z
-x,-y,-z
loop_
_atom_site_type_symbol
_atom_site_label
_atom_site_fract_x
_atom_site_fract_y
_atom_site_fract_z
Si Si1 0.097976 0.850917 0.551028
Si Si2 0.338967 0.021659 0.979494
Si Si3 0.736591 0.980239 0.524310
Si Si4 0.551898 0.724450 0.599178
Si Si5 0.965700 0.636090 0.843392
Si Si6 0.586193 0.514625 0.284662
Si Si7 0.398993 0.248416 0.871642
O O1 0.094235 0.577580 0.357082
O O2 0.821562 0.844858 0.615909
O O3 0.240022 0.913867 0.486384
O O4 0.214029 0.055101 0.728415
O O5 0.402664 0.288545 0.143736
O O6 0.418628 0.899040 0.798298
O O7 0.092789 0.873388 0.951257
O O8 0.500000 0.000000 0.000000
O O9 0.631913 0.709392 0.353764
O O10 0.617971 0.119352 0.716291
O O11 0.000000 0.000000 0.500000
O O12 0.500000 0.500000 0.500000
O O13 0.481678 0.633698 0.466588
O O14 0.167071 0.554091 0.792132
O O15 0.744076 0.689374 0.978083
O O16 0.500000 0.500000 0.000000
#
# Coordination Sequence:
#
# PCOD9076764 Si02
#       7
#     2   2   2   2   2   2   2
#     4  11  22  40  68  92 127 165 211 256 313 371
#     4  10  18  33  59  92 127 160 211 253 299 373
#     4  12  23  45  63  91 133 161 205 273 315 369
#     4  11  18  33  65  98 120 165 211 254 302 368
#     4  10  20  38  64  92 123 161 213 254 302 374
#     4  10  21  38  60  94 131 158 207 263 308 359
#     4  12  25  41  66  92 123 171 217 250 316 381
#
# _framework density 23.137685999999999
#
# number of rings (size 3 to 8) (size 9 to 14) (size 15 to 20)
#    0.000    1.143    8.571    2.143    0.000    0.000 
#    2.571    2.857    0.000    1.714    0.000    0.000 
#    0.000    0.000    0.000    0.000    0.000    0.000 
#
# Total GULP energy -78121.050498 kJ/mol
# GULP energy per Si atom -5580.075036 kJ/mol
# Density = 2.308502 g / cm^3
# Si number density = 23.137686 Si / 1000 Ang^3
#
#
#
# Elastic Constant Matrix: (Units=GPa)
#
#
# Indices 1 2 3 4 5 6 
#
# 1 34.1928 30.7220 21.4225 12.1739 -3.9815 8.9821
# 2 30.7220 194.0487 74.6123 19.2941 -9.3770 26.8319
# 3 21.4225 74.6123 154.5486 8.4557 4.6457 20.5357
# 4 12.1739 19.2941 8.4557 74.8453 7.0125 -2.2344
# 5 -3.9815 -9.3770 4.6457 7.0125 40.0688 7.2479
# 6 8.9821 26.8319 20.5357 -2.2344 7.2479 38.6609
#
#
#
# Elastic Compliance Matrix: (Units=1/GPa)
#
#
# Indices 1 2 3 4 5 6 
#
# 1 0.038322 -0.003271 -0.002709 -0.005801 0.005560 -0.006571
# 2 -0.003271 0.007465 -0.002675 -0.001443 0.002632 -0.003577
# 3 -0.002709 -0.002675 0.008390 0.000285 -0.001619 -0.001650
# 4 -0.005801 -0.001443 0.000285 0.015163 -0.004303 0.003881
# 5 0.005560 0.002632 -0.001619 -0.004303 0.028486 -0.007847
# 6 -0.006571 -0.003577 -0.001650 0.003881 -0.007847 0.032447
#
#
# Mechanical properties :
#
#
# Convention : Reuss Voigt Hill
#
# Bulk Modulus (GPa) = 27.12602 70.70041 48.91321
# Shear Modulus (GPa) = 31.27478 47.78387 39.52933
#
# Velocity S-wave (km/s) = 3.68051 4.54937 4.13781
# Velocity P-wave (km/s) = 5.45992 7.63010 6.63435
#
# Compressibility (1/GPa) = 0.03686498
#
# Stress axis : x y z
#
# Youngs Moduli (GPa) = 26.09499 133.95364 119.18959
#
# Poissons Ratio (x) = 0.43820 0.32290
# Poissons Ratio (y) = 0.08536 0.31889
# Poissons Ratio (z) = 0.07069 0.35839
#
# Static dielectric constant tensor:
#      x y z
#    x 2.684610 -0.705680 -0.447020 
#    y -0.705680 2.566830 0.466350 
#    z -0.447020 0.466350 2.040070 
# 
# From -- ./inp_files/500142.got.cif
#   From: 2010.05.17/outbox.cif.g08.bks.cpg/sg2_251_cif.got.tgz:500142.got - 2010.06.03 11:33:40.
