data_PCOD9076930
_publ_section_title
;
Structure prediction by ZEFSAII (Michael W. Deem and Ramdas Pophale) SiO2 
 PCOD9076930
Probable space group: P -1
;
_chemical_formula_sum "Si O2"
_cell_formula_units_Z 15
_cell_length_a 8.466350
_cell_length_b 10.420464
_cell_length_c 14.267955
_cell_angle_alpha 42.702514
_cell_angle_beta 127.443140
_cell_angle_gamma 133.158151
_cell_volume 608.465895
_symmetry_space_group_name_H-M "P -1"
_symmetry_group_IT_number 2
_symmetry_cell_setting 'triclinic'
loop_
_space_group_symop_operation_xyz
x,y,z
-x,-y,-z
loop_
_atom_site_type_symbol
_atom_site_label
_atom_site_fract_x
_atom_site_fract_y
_atom_site_fract_z
Si Si1 0.491525 0.364091 0.184147
Si Si2 0.031537 0.309491 0.043071
Si Si3 0.038649 0.254205 0.555522
Si Si4 0.029834 0.531029 0.743210
Si Si5 0.193225 0.904401 0.742342
Si Si6 0.906010 0.841096 0.177606
Si Si7 0.651934 0.943601 0.880916
Si Si8 0.500000 0.000000 0.500000
O O1 0.297673 0.437603 0.081473
O O2 0.756650 0.501205 0.197644
O O3 0.435218 0.230169 0.139160
O O4 0.460302 0.202035 0.342929
O O5 0.906008 0.270095 0.117096
O O6 0.939124 0.384640 0.880138
O O7 0.996401 0.074068 0.132076
O O8 0.107995 0.450785 0.404239
O O9 0.135620 0.306417 0.668077
O O10 0.772154 0.151670 0.522723
O O11 0.107296 0.080563 0.629042
O O12 0.124922 0.769357 0.694605
O O13 0.458326 0.011762 0.788894
O O14 0.704203 0.841802 0.045338
O O15 0.115299 0.874329 0.169577
#
# Coordination Sequence:
#
# PCOD9076930 Si02
#       8
#     2   2   2   2   2   2   2   1
#     4   9  17  30  51  73  97 129 165 200 238 288
#     4  10  18  32  47  74 100 133 162 193 251 293
#     4  10  19  31  49  74  98 132 161 203 246 286
#     4  10  20  30  48  73 105 129 157 203 247 298
#     4  10  19  32  50  74  99 127 167 205 242 287
#     4   9  18  34  55  71  95 128 169 206 234 292
#     4   9  17  32  54  77  91 123 174 210 233 274
#     4  10  14  30  48  72  98 122 156 198 240 282
#
# _framework density 24.652162000000001
#
# number of rings (size 3 to 8) (size 9 to 14) (size 15 to 20)
#    0.000    2.400    4.000    1.200    0.000    2.133 
#    0.000    0.000    0.000   10.400    0.000    0.000 
#    0.000    0.000    0.000    0.000    0.000    0.000 
#
# Total GULP energy -83545.952336 kJ/mol
# GULP energy per Si atom -5569.730156 kJ/mol
# Density = 2.459605 g / cm^3
# Si number density = 24.652162 Si / 1000 Ang^3
#
#
#
# Elastic Constant Matrix: (Units=GPa)
#
#
# Indices 1 2 3 4 5 6 
#
# 1 70.1263 17.6993 34.4059 11.0236 18.8870 -3.2825
# 2 17.6993 39.4770 16.4695 3.9220 5.6236 17.0533
# 3 34.4059 16.4695 184.3986 11.7397 2.1632 -7.0804
# 4 11.0236 3.9220 11.7397 29.8981 6.3311 0.6257
# 5 18.8870 5.6236 2.1632 6.3311 45.4087 -1.7327
# 6 -3.2825 17.0533 -7.0804 0.6257 -1.7327 31.3775
#
#
#
# Elastic Compliance Matrix: (Units=1/GPa)
#
#
# Indices 1 2 3 4 5 6 
#
# 1 0.020586 -0.009799 -0.002370 -0.004158 -0.006402 0.006674
# 2 -0.009799 0.041718 -0.002824 0.000166 -0.001912 -0.024445
# 3 -0.002370 -0.002824 0.006310 -0.001581 0.001363 0.002818
# 4 -0.004158 0.000166 -0.001581 0.036326 -0.003349 -0.001791
# 5 -0.006402 -0.001912 0.001363 -0.003349 0.025406 0.002147
# 6 0.006674 -0.024445 0.002818 -0.001791 0.002147 0.046644
#
#
# Mechanical properties :
#
#
# Convention : Reuss Voigt Hill
#
# Bulk Modulus (GPa) = 25.88762 47.90569 36.89665
# Shear Modulus (GPa) = 22.74254 36.36536 29.55395
#
# Velocity S-wave (km/s) = 3.04063 3.84492 3.46618
# Velocity P-wave (km/s) = 4.78029 6.25988 5.56943
#
# Compressibility (1/GPa) = 0.03862851
#
# Stress axis : x y z
#
# Youngs Moduli (GPa) = 48.57666 23.97019 158.47030
#
# Poissons Ratio (x) = 0.23488 0.37553
# Poissons Ratio (y) = 0.47600 0.44760
# Poissons Ratio (z) = 0.11511 0.06770
#
# Static dielectric constant tensor:
#      x y z
#    x 1.975970 -0.071330 -0.025980 
#    y -0.071330 2.134330 -0.082490 
#    z -0.025980 -0.082490 1.923450 
# 
# From -- ./inp_files/164907.got.cif
#   From: 2010.05.17/outbox.cif.g08.bks.cpg/sg2_83_cif.got.tgz:164907.got - 2010.06.03 11:33:40.
