data_PCOD9076624
_publ_section_title
;
Structure prediction by ZEFSAII (Michael W. Deem and Ramdas Pophale) SiO2 
 PCOD9076624
Probable space group: P -1
;
_chemical_formula_sum "Si O2"
_cell_formula_units_Z 16
_cell_length_a 9.613856
_cell_length_b 7.856605
_cell_length_c 12.958329
_cell_angle_alpha 57.656078
_cell_angle_beta 91.197025
_cell_angle_gamma 92.700802
_cell_volume 825.988092
_symmetry_space_group_name_H-M "P -1"
_symmetry_group_IT_number 2
_symmetry_cell_setting 'triclinic'
loop_
_space_group_symop_operation_xyz
x,y,z
-x,-y,-z
loop_
_atom_site_type_symbol
_atom_site_label
_atom_site_fract_x
_atom_site_fract_y
_atom_site_fract_z
Si Si1 0.666382 0.430143 0.426845
Si Si2 0.081332 0.376039 0.391103
Si Si3 0.085468 0.249895 0.650315
Si Si4 0.159337 0.613623 0.750769
Si Si5 0.145758 0.824899 0.888619
Si Si6 0.654707 0.077664 0.946415
Si Si7 0.100742 0.188594 0.981034
Si Si8 0.363335 0.587672 0.337650
O O1 0.765558 0.629384 0.382375
O O2 0.738683 0.332366 0.360838
O O3 0.512848 0.491618 0.375939
O O4 0.662959 0.329123 0.573030
O O5 0.050694 0.230894 0.534728
O O6 0.243765 0.417945 0.365477
O O7 0.023522 0.594954 0.354933
O O8 0.991920 0.316646 0.309652
O O9 0.101453 0.042790 0.775897
O O10 0.202291 0.708640 0.828969
O O11 0.140960 0.371702 0.845375
O O12 0.000985 0.726283 0.962001
O O13 0.259984 0.846613 0.974439
O O14 0.643574 0.246845 0.804562
O O15 0.754087 0.907483 0.957798
O O16 0.500000 0.000000 0.000000
O O17 0.000000 0.000000 0.000000
#
# Coordination Sequence:
#
# PCOD9076624 Si02
#       8
#     2   2   2   2   2   2   2   2
#     4   9  19  35  58  78 107 139 177 230 268 323
#     4   9  17  31  56  77 103 137 182 227 256 321
#     4   9  17  33  53  79 102 139 185 219 264 314
#     4  11  21  36  53  81 114 144 176 222 288 323
#     4  11  22  35  55  80 115 145 173 225 282 329
#     4  11  21  36  59  81 105 142 188 226 260 326
#     4  10  20  35  55  77 107 145 184 220 258 320
#     4  10  18  33  58  83 100 136 189 226 264 308
#
# _framework density 19.370737999999999
#
# number of rings (size 3 to 8) (size 9 to 14) (size 15 to 20)
#    0.000    2.000    0.000    7.875    0.000    0.500 
#    0.000    3.750    0.000   10.500    0.000    0.000 
#    0.000    0.000    0.000    0.000    0.000    0.000 
#
# Total GULP energy -89161.989305 kJ/mol
# GULP energy per Si atom -5572.624332 kJ/mol
# Density = 1.932665 g / cm^3
# Si number density = 19.370738 Si / 1000 Ang^3
#
#
#
# Elastic Constant Matrix: (Units=GPa)
#
#
# Indices 1 2 3 4 5 6 
#
# 1 129.7936 11.8225 31.6960 12.9739 8.3324 -2.4938
# 2 11.8225 47.4214 32.6919 12.8056 0.5554 -1.8567
# 3 31.6960 32.6919 149.1119 13.5058 14.7116 -1.2341
# 4 12.9739 12.8056 13.5058 28.3963 -4.2760 0.0099
# 5 8.3324 0.5554 14.7116 -4.2760 34.3574 5.2783
# 6 -2.4938 -1.8567 -1.2341 0.0099 5.2783 8.3374
#
#
#
# Elastic Compliance Matrix: (Units=1/GPa)
#
#
# Indices 1 2 3 4 5 6 
#
# 1 0.008625 -0.000151 -0.001165 -0.003724 -0.002680 0.004075
# 2 -0.000151 0.027504 -0.005009 -0.010009 -0.000367 0.005582
# 3 -0.001165 -0.005009 0.008631 -0.001905 -0.003923 0.002299
# 4 -0.003724 -0.010009 -0.001905 0.043654 0.008728 -0.009202
# 5 -0.002680 -0.000367 -0.003923 0.008728 0.036283 -0.024445
# 6 0.004075 0.005582 0.002299 -0.009202 -0.024445 0.138230
#
#
# Mechanical properties :
#
#
# Convention : Reuss Voigt Hill
#
# Bulk Modulus (GPa) = 31.14251 53.19420 42.16835
# Shear Modulus (GPa) = 17.46535 30.89264 24.17899
#
# Velocity S-wave (km/s) = 3.00598 3.99784 3.53685
# Velocity P-wave (km/s) = 5.30659 6.98792 6.20447
#
# Compressibility (1/GPa) = 0.03211045
#
# Stress axis : x y z
#
# Youngs Moduli (GPa) = 115.93767 36.35838 115.86379
#
# Poissons Ratio (x) = 0.00548 0.13498
# Poissons Ratio (y) = 0.01748 0.58037
# Poissons Ratio (z) = 0.13506 0.18212
#
# Static dielectric constant tensor:
#      x y z
#    x 1.679040 -0.007200 -0.022100 
#    y -0.007200 1.730220 0.045480 
#    z -0.022100 0.045480 1.730310 
# 
# From -- ./inp_files/260374.got.cif
#   From: 2010.05.17/outbox.cif.g08.bks.cpg/sg2_131_cif.got.tgz:260374.got - 2010.06.03 11:33:40.
