data_PCOD9076299
_publ_section_title
;
Structure prediction by ZEFSAII (Michael W. Deem and Ramdas Pophale) SiO2 
 PCOD9076299
Probable space group: P -1
;
_chemical_formula_sum "Si O2"
_cell_formula_units_Z 12
_cell_length_a 11.514791
_cell_length_b 12.609125
_cell_length_c 6.896554
_cell_angle_alpha 42.925031
_cell_angle_beta 39.152980
_cell_angle_gamma 54.866012
_cell_volume 430.504020
_symmetry_space_group_name_H-M "P -1"
_symmetry_group_IT_number 2
_symmetry_cell_setting 'triclinic'
loop_
_space_group_symop_operation_xyz
x,y,z
-x,-y,-z
loop_
_atom_site_type_symbol
_atom_site_label
_atom_site_fract_x
_atom_site_fract_y
_atom_site_fract_z
Si Si1 0.485651 0.325065 0.816784
Si Si2 0.158023 0.899951 0.031934
Si Si3 0.891071 0.453787 0.511109
Si Si4 0.457067 0.711851 0.757174
Si Si5 0.187955 0.262445 0.016099
Si Si6 0.687839 0.040322 0.826379
O O1 0.500000 0.500000 0.500000
O O2 0.281509 0.287253 0.066453
O O3 0.651612 0.227114 0.630143
O O4 0.495108 0.291609 0.074293
O O5 0.088117 0.718149 0.390538
O O6 0.257191 0.973463 0.993061
O O7 0.321160 0.863430 0.716097
O O8 0.000000 0.000000 0.000000
O O9 0.919967 0.594736 0.134277
O O10 0.000000 0.500000 0.500000
O O11 0.681189 0.432272 0.890961
O O12 0.629232 0.728568 0.374996
O O13 0.152624 0.077824 0.302601
O O14 0.500000 0.000000 0.000000
#
# Coordination Sequence:
#
# PCOD9076299 Si02
#       6
#     2   2   2   2   2   2
#     4  10  18  33  54  81 113 143 177 232 281 319
#     4   9  18  33  51  80 112 145 184 225 282 335
#     4  10  20  33  55  83 110 152 185 224 286 337
#     4   9  21  34  59  83 107 147 189 228 282 322
#     4  11  19  35  59  84 112 138 192 236 269 339
#     4   9  19  31  53  84 106 146 183 229 278 329
#
# _framework density 27.874303000000001
#
# number of rings (size 3 to 8) (size 9 to 14) (size 15 to 20)
#    1.000    1.333    1.667    1.500    0.000    2.667 
#    0.000    0.000    0.000   13.000    0.000    0.000 
#    0.000    0.000    0.000    0.000    0.000    0.000 
#
# Total GULP energy -66866.675078 kJ/mol
# GULP energy per Si atom -5572.222923 kJ/mol
# Density = 2.781086 g / cm^3
# Si number density = 27.874303 Si / 1000 Ang^3
#
#
#
# Elastic Constant Matrix: (Units=GPa)
#
#
# Indices 1 2 3 4 5 6 
#
# 1 215.6826 50.4901 58.5158 -15.8664 -10.9548 1.2447
# 2 50.4901 100.8172 6.9348 -49.8604 8.4374 -11.5970
# 3 58.5158 6.9348 105.1512 -6.8919 6.3847 -8.6682
# 4 -15.8664 -49.8604 -6.8919 54.0272 -12.1533 8.0165
# 5 -10.9548 8.4374 6.3847 -12.1533 48.6964 -20.2669
# 6 1.2447 -11.5970 -8.6682 8.0165 -20.2669 41.1465
#
#
#
# Elastic Compliance Matrix: (Units=1/GPa)
#
#
# Indices 1 2 3 4 5 6 
#
# 1 0.006594 -0.004249 -0.003701 -0.001906 0.001859 -0.000890
# 2 -0.004249 0.021336 0.002396 0.018471 0.001147 0.003613
# 3 -0.003701 0.002396 0.011808 0.001993 -0.001380 0.002207
# 4 -0.001906 0.018471 0.001993 0.036335 0.005782 0.001452
# 5 0.001859 0.001147 -0.001380 0.005782 0.027547 0.012418
# 6 -0.000890 0.003613 0.002207 0.001452 0.012418 0.031647
#
#
# Mechanical properties :
#
#
# Convention : Reuss Voigt Hill
#
# Bulk Modulus (GPa) = 34.92595 72.61473 53.77034
# Shear Modulus (GPa) = 32.06806 49.15469 40.61138
#
# Velocity S-wave (km/s) = 3.39551 4.20389 3.82114
# Velocity P-wave (km/s) = 5.28485 7.04776 6.22899
#
# Compressibility (1/GPa) = 0.02863201
#
# Stress axis : x y z
#
# Youngs Moduli (GPa) = 151.64531 46.86827 84.68982
#
# Poissons Ratio (x) = 0.19913 0.31341
# Poissons Ratio (y) = 0.64428 -0.20292
# Poissons Ratio (z) = 0.56118 -0.11230
#
# Static dielectric constant tensor:
#      x y z
#    x 2.119880 -0.074820 0.016870 
#    y -0.074820 2.414230 0.164640 
#    z 0.016870 0.164640 2.113250 
# 
# From -- ./inp_files/266369.got.cif
#   From: 2010.05.17/outbox.cif.g08.bks.cpg/sg2_134_cif.got.tgz:266369.got - 2010.06.03 11:33:40.
