data_PCOD9076954
_publ_section_title
;
Structure prediction by ZEFSAII (Michael W. Deem and Ramdas Pophale) SiO2 
 PCOD9076954
Probable space group: P -1
;
_chemical_formula_sum "Si O2"
_cell_formula_units_Z 16
_cell_length_a 5.290486
_cell_length_b 11.832212
_cell_length_c 26.027072
_cell_angle_alpha 148.644290
_cell_angle_beta 117.066475
_cell_angle_gamma 71.658773
_cell_volume 745.267226
_symmetry_space_group_name_H-M "P -1"
_symmetry_group_IT_number 2
_symmetry_cell_setting 'triclinic'
loop_
_space_group_symop_operation_xyz
x,y,z
-x,-y,-z
loop_
_atom_site_type_symbol
_atom_site_label
_atom_site_fract_x
_atom_site_fract_y
_atom_site_fract_z
Si Si1 0.794763 0.499687 0.371556
Si Si2 0.824156 0.827123 0.991698
Si Si3 0.390223 0.749459 0.831336
Si Si4 0.873890 0.267930 0.425987
Si Si5 0.742921 0.461632 0.918801
Si Si6 0.168171 0.194531 0.811117
Si Si7 0.334266 0.265565 0.319176
Si Si8 0.578141 0.080486 0.885914
O O1 0.720863 0.482175 0.297073
O O2 0.524138 0.423806 0.355643
O O3 0.976326 0.715624 0.498280
O O4 0.035163 0.337276 0.332747
O O5 0.650112 0.748813 0.894246
O O6 0.683636 0.680993 0.969263
O O7 0.147173 0.780623 0.008216
O O8 0.812419 0.090285 0.098438
O O9 0.487558 0.892137 0.845524
O O10 0.531103 0.261391 0.386014
O O11 0.000000 0.500000 0.500000
O O12 0.914974 0.048162 0.314510
O O13 0.439544 0.335909 0.862187
O O14 0.888375 0.309049 0.833529
O O15 0.000000 0.500000 0.000000
O O16 0.313586 0.171835 0.871742
O O17 0.295640 0.031346 0.196189
#
# Coordination Sequence:
#
# PCOD9076954 Si02
#       8
#     2   2   2   2   2   2   2   2
#     4  10  18  34  52  80 114 143 185 234 299 347
#     4  11  22  37  59  82 122 159 204 243 300 354
#     4  10  22  36  57  90 117 156 200 255 296 353
#     4   9  20  35  60  88 116 153 192 252 308 347
#     4  12  25  42  61  88 123 171 199 240 297 365
#     4  11  25  40  62  90 126 155 204 245 300 366
#     4   9  18  29  50  81 114 142 176 230 293 348
#     4  10  19  34  57  82 121 151 190 249 296 353
#
# _framework density 21.468810000000001
#
# number of rings (size 3 to 8) (size 9 to 14) (size 15 to 20)
#    0.000    1.750    2.500    2.625    1.750    7.000 
#    0.000    0.000    0.000    1.500    0.000    0.000 
#    0.000    0.000    0.000    0.000    0.000    0.000 
#
# Total GULP energy -89162.845626 kJ/mol
# GULP energy per Si atom -5572.677852 kJ/mol
# Density = 2.141995 g / cm^3
# Si number density = 21.468810 Si / 1000 Ang^3
#
#
#
# Elastic Constant Matrix: (Units=GPa)
#
#
# Indices 1 2 3 4 5 6 
#
# 1 90.1709 19.1274 30.8840 -0.8384 -2.2113 1.2096
# 2 19.1274 65.3658 41.3153 -23.0037 5.9535 -10.8454
# 3 30.8840 41.3153 116.5693 -36.1261 0.0493 -20.2738
# 4 -0.8384 -23.0037 -36.1261 45.6945 -4.8397 5.3490
# 5 -2.2113 5.9535 0.0493 -4.8397 28.1418 4.9880
# 6 1.2096 -10.8454 -20.2738 5.3490 4.9880 14.6162
#
#
#
# Elastic Compliance Matrix: (Units=1/GPa)
#
#
# Indices 1 2 3 4 5 6 
#
# 1 0.014193 -0.004494 -0.005703 -0.004773 0.003349 -0.011816
# 2 -0.004494 0.023760 -0.002411 0.007626 -0.006564 0.014107
# 3 -0.005703 -0.002411 0.017509 0.010005 -0.001778 0.019915
# 4 -0.004773 0.007626 0.010005 0.032978 0.002418 0.007037
# 5 0.003349 -0.006564 -0.001778 0.002418 0.041630 -0.022706
# 6 -0.011816 0.014107 0.019915 0.007037 -0.022706 0.112660
#
#
# Mechanical properties :
#
#
# Convention : Reuss Voigt Hill
#
# Bulk Modulus (GPa) = 33.06199 50.52881 41.79540
# Shear Modulus (GPa) = 17.98386 29.74242 23.86314
#
# Velocity S-wave (km/s) = 2.89740 3.72611 3.33757
# Velocity P-wave (km/s) = 5.16010 6.48836 5.86197
#
# Compressibility (1/GPa) = 0.03024621
#
# Stress axis : x y z
#
# Youngs Moduli (GPa) = 70.45773 42.08840 57.11338
#
# Poissons Ratio (x) = 0.18913 0.32573
# Poissons Ratio (y) = 0.31661 0.13769
# Poissons Ratio (z) = 0.40184 0.10147
#
# Static dielectric constant tensor:
#      x y z
#    x 1.841340 0.017320 -0.030390 
#    y 0.017320 1.777570 -0.003330 
#    z -0.030390 -0.003330 1.967670 
# 
# From -- ./inp_files/82864.got.cif
#   From: 2010.05.17/outbox.cif.g08.bks.cpg/sg2_42_cif.got.tgz:82864.got - 2010.06.03 11:33:40.
