data_PCOD9076565
_publ_section_title
;
Structure prediction by ZEFSAII (Michael W. Deem and Ramdas Pophale) SiO2 
 PCOD9076565
Probable space group: P -1
;
_chemical_formula_sum "Si O2"
_cell_formula_units_Z 16
_cell_length_a 12.581301
_cell_length_b 9.092159
_cell_length_c 10.531288
_cell_angle_alpha 42.729692
_cell_angle_beta 94.804011
_cell_angle_gamma 91.002774
_cell_volume 812.829079
_symmetry_space_group_name_H-M "P -1"
_symmetry_group_IT_number 2
_symmetry_cell_setting 'triclinic'
loop_
_space_group_symop_operation_xyz
x,y,z
-x,-y,-z
loop_
_atom_site_type_symbol
_atom_site_label
_atom_site_fract_x
_atom_site_fract_y
_atom_site_fract_z
Si Si1 0.878685 0.005973 0.601462
Si Si2 0.324980 0.520899 0.907753
Si Si3 0.893633 0.040604 0.282773
Si Si4 0.280004 0.628932 0.567278
Si Si5 0.479669 0.276498 0.467344
Si Si6 0.756753 0.635897 0.510306
Si Si7 0.158953 0.487485 0.129680
Si Si8 0.498833 0.203823 0.220108
O O1 0.877026 0.082146 0.406034
O O2 0.890383 0.742401 0.763358
O O3 0.773712 0.125283 0.579331
O O4 0.986259 0.071408 0.639806
O O5 0.261866 0.517869 0.772696
O O6 0.376383 0.751305 0.786141
O O7 0.260184 0.472248 0.055833
O O8 0.431072 0.360115 0.019878
O O9 0.805961 0.870414 0.345233
O O10 0.889921 0.270652 0.062948
O O11 0.409529 0.609023 0.580462
O O12 0.229668 0.508949 0.521680
O O13 0.369436 0.354615 0.472352
O O14 0.458651 0.243497 0.335373
O O15 0.511054 0.036946 0.672596
O O16 0.814411 0.532912 0.706310
#
# Coordination Sequence:
#
# PCOD9076565 Si02
#       8
#     2   2   2   2   2   2   2   2
#     4  10  22  40  67  91 117 154 208 255 297 348
#     4  10  18  33  57  86 117 154 209 240 288 356
#     4  10  22  42  64  92 117 156 206 256 296 351
#     4  11  23  39  58  90 131 160 190 250 305 358
#     4  10  19  35  58  84 123 158 199 243 296 355
#     4  11  24  40  60  90 130 161 192 245 309 359
#     4  11  20  39  66  88 116 156 207 251 294 355
#     4   9  18  30  57  86 110 160 208 248 281 341
#
# _framework density 19.684335000000001
#
# number of rings (size 3 to 8) (size 9 to 14) (size 15 to 20)
#    0.000    1.750    2.500    2.250    7.000    0.500 
#    4.500    1.250    0.000    0.000    0.000    0.000 
#    0.000    0.000    0.000    0.000    0.000    0.000 
#
# Total GULP energy -89097.319175 kJ/mol
# GULP energy per Si atom -5568.582448 kJ/mol
# Density = 1.963953 g / cm^3
# Si number density = 19.684335 Si / 1000 Ang^3
#
#
#
# Elastic Constant Matrix: (Units=GPa)
#
#
# Indices 1 2 3 4 5 6 
#
# 1 57.0051 10.9666 8.4169 6.0410 16.7724 3.6394
# 2 10.9666 77.4172 38.7576 5.8662 12.3105 7.4837
# 3 8.4169 38.7576 97.8552 0.6925 12.6931 2.3450
# 4 6.0410 5.8662 0.6925 13.1756 -4.2941 1.8202
# 5 16.7724 12.3105 12.6931 -4.2941 16.5304 2.9105
# 6 3.6394 7.4837 2.3450 1.8202 2.9105 10.8014
#
#
#
# Elastic Compliance Matrix: (Units=1/GPa)
#
#
# Indices 1 2 3 4 5 6 
#
# 1 0.034170 0.004163 0.001884 -0.034085 -0.048790 0.004084
# 2 0.004163 0.019691 -0.005646 -0.015109 -0.017314 -0.006608
# 3 0.001884 -0.005646 0.013433 -0.002526 -0.009256 0.003280
# 4 -0.034085 -0.015109 -0.002526 0.129250 0.085269 -0.022256
# 5 -0.048790 -0.017314 -0.009256 0.085269 0.156757 -0.026164
# 6 0.004084 -0.006608 0.003280 -0.022256 -0.026164 0.105872
#
#
# Mechanical properties :
#
#
# Convention : Reuss Voigt Hill
#
# Bulk Modulus (GPa) = 14.68518 38.72887 26.70702
# Shear Modulus (GPa) = 10.39351 19.71056 15.05203
#
# Velocity S-wave (km/s) = 2.30034 3.16782 2.76827
# Velocity P-wave (km/s) = 3.81208 5.75307 4.88005
#
# Compressibility (1/GPa) = 0.06809586
#
# Stress axis : x y z
#
# Youngs Moduli (GPa) = 29.26546 50.78564 74.44277
#
# Poissons Ratio (x) = -0.21140 -0.14027
# Poissons Ratio (y) = -0.12182 0.42029
# Poissons Ratio (z) = -0.05515 0.28673
#
# Static dielectric constant tensor:
#      x y z
#    x 1.758610 0.014480 -0.009020 
#    y 0.014480 1.672010 -0.024660 
#    z -0.009020 -0.024660 1.731980 
# 
# From -- ./inp_files/342474.got.cif
#   From: 2010.05.17/outbox.cif.g08.bks.cpg/sg2_172_cif.got.tgz:342474.got - 2010.06.03 11:33:40.
