data_PCOD9076250
_publ_section_title
;
Structure prediction by ZEFSAII (Michael W. Deem and Ramdas Pophale) SiO2 
 PCOD9076250
Probable space group: P -1
;
_chemical_formula_sum "Si O2"
_cell_formula_units_Z 12
_cell_length_a 10.631368
_cell_length_b 12.198709
_cell_length_c 9.536914
_cell_angle_alpha 140.021271
_cell_angle_beta 107.115300
_cell_angle_gamma 44.689703
_cell_volume 465.140920
_symmetry_space_group_name_H-M "P -1"
_symmetry_group_IT_number 2
_symmetry_cell_setting 'triclinic'
loop_
_space_group_symop_operation_xyz
x,y,z
-x,-y,-z
loop_
_atom_site_type_symbol
_atom_site_label
_atom_site_fract_x
_atom_site_fract_y
_atom_site_fract_z
Si Si1 0.346181 0.642667 0.451265
Si Si2 0.886985 0.584131 0.696841
Si Si3 0.502476 0.165039 0.293222
Si Si4 0.697102 0.698313 0.370044
Si Si5 0.083982 0.896638 0.082520
Si Si6 0.474159 0.694848 0.083778
O O1 0.500000 0.500000 0.500000
O O2 0.415996 0.752999 0.518238
O O3 0.390260 0.462151 0.168249
O O4 0.102955 0.901821 0.669097
O O5 0.722343 0.592225 0.631025
O O6 0.000000 0.500000 0.500000
O O7 0.093219 0.398126 0.683369
O O8 0.699813 0.906576 0.005672
O O9 0.431518 0.115581 0.348790
O O10 0.811523 0.397573 0.154205
O O11 0.540660 0.792193 0.287950
O O12 0.233821 0.907583 0.162772
O O13 0.000000 0.000000 0.000000
O O14 0.500000 0.500000 0.000000
#
# Coordination Sequence:
#
# PCOD9076250 Si02
#       6
#     2   2   2   2   2   2
#     4  12  21  34  57  83 113 150 181 221 283 337
#     4   9  19  32  53  78 107 146 183 233 268 316
#     4  10  18  33  53  81 110 140 188 226 269 328
#     4  10  19  34  53  80 115 141 181 229 277 322
#     4  11  20  33  51  78 113 148 179 219 272 331
#     4  10  21  34  51  83 117 141 182 228 275 331
#
# _framework density 25.798632999999999
#
# number of rings (size 3 to 8) (size 9 to 14) (size 15 to 20)
#    0.000    1.667    6.667    0.000    0.000    4.000 
#    0.000    0.000    0.000    1.000    0.000   40.833 
#    0.000    0.000    0.000    0.000    0.000    0.000 
#
# Total GULP energy -66983.141695 kJ/mol
# GULP energy per Si atom -5581.928475 kJ/mol
# Density = 2.573991 g / cm^3
# Si number density = 25.798633 Si / 1000 Ang^3
#
#
#
# Elastic Constant Matrix: (Units=GPa)
#
#
# Indices 1 2 3 4 5 6 
#
# 1 63.3391 30.0772 48.1005 0.6428 1.7702 -31.5647
# 2 30.0772 107.2391 29.5770 -22.0576 -14.0137 -49.6302
# 3 48.1005 29.5770 192.6367 -7.4041 -20.6810 -34.1653
# 4 0.6428 -22.0576 -7.4041 41.1186 -17.5795 -0.0002
# 5 1.7702 -14.0137 -20.6810 -17.5795 62.4617 1.9379
# 6 -31.5647 -49.6302 -34.1653 -0.0002 1.9379 68.7331
#
#
#
# Elastic Compliance Matrix: (Units=1/GPa)
#
#
# Indices 1 2 3 4 5 6 
#
# 1 0.025270 -0.005274 -0.005440 -0.006657 -0.005737 0.005254
# 2 -0.005274 0.020980 0.002131 0.015824 0.009596 0.013516
# 3 -0.005440 0.002131 0.007290 0.004331 0.004186 0.002546
# 4 -0.006657 0.015824 0.004331 0.040663 0.016305 0.010062
# 5 -0.005737 0.009596 0.004186 0.016305 0.024124 0.005695
# 6 0.005254 0.013516 0.002546 0.010062 0.005695 0.027827
#
#
# Mechanical properties :
#
#
# Convention : Reuss Voigt Hill
#
# Bulk Modulus (GPa) = 27.49218 64.30269 45.89743
# Shear Modulus (GPa) = 28.49907 51.49334 39.99620
#
# Velocity S-wave (km/s) = 3.32727 4.47248 3.94169
# Velocity P-wave (km/s) = 5.04386 7.18677 6.20847
#
# Compressibility (1/GPa) = 0.03637398
#
# Stress axis : x y z
#
# Youngs Moduli (GPa) = 39.57249 47.66336 137.18140
#
# Poissons Ratio (x) = 0.25140 0.74626
# Poissons Ratio (y) = 0.20872 -0.29238
# Poissons Ratio (z) = 0.21527 -0.10159
#
# Static dielectric constant tensor:
#      x y z
#    x 2.061750 0.079600 0.049700 
#    y 0.079600 2.174800 0.043490 
#    z 0.049700 0.043490 1.969120 
# 
# From -- ./inp_files/161834.got.cif
#   From: 2010.05.17/outbox.cif.g08.bks.cpg/sg2_81_cif.got.tgz:161834.got - 2010.06.03 11:33:40.
