data_PCOD9076766
_publ_section_title
;
Structure prediction by ZEFSAII (Michael W. Deem and Ramdas Pophale) SiO2 
 PCOD9076766
Probable space group: P -1
;
_chemical_formula_sum "Si O2"
_cell_formula_units_Z 14
_cell_length_a 10.355195
_cell_length_b 8.315293
_cell_length_c 9.491082
_cell_angle_alpha 72.636407
_cell_angle_beta 86.433352
_cell_angle_gamma 133.868640
_cell_volume 517.564807
_symmetry_space_group_name_H-M "P -1"
_symmetry_group_IT_number 2
_symmetry_cell_setting 'triclinic'
loop_
_space_group_symop_operation_xyz
x,y,z
-x,-y,-z
loop_
_atom_site_type_symbol
_atom_site_label
_atom_site_fract_x
_atom_site_fract_y
_atom_site_fract_z
Si Si1 0.895039 0.368471 0.713934
Si Si2 0.942648 0.986318 0.170369
Si Si3 0.595146 0.332468 0.759128
Si Si4 0.224000 0.809165 0.919010
Si Si5 0.301869 0.510138 0.992183
Si Si6 0.448067 0.546661 0.666865
Si Si7 0.301798 0.902230 0.492627
O O1 0.808978 0.474475 0.679521
O O2 0.796669 0.181349 0.635927
O O3 0.125563 0.622406 0.644781
O O4 0.818374 0.222082 0.903496
O O5 0.779302 0.694026 0.306828
O O6 0.851193 0.085083 0.162311
O O7 0.000000 0.000000 0.000000
O O8 0.160080 0.231038 0.145669
O O9 0.536545 0.448822 0.665758
O O10 0.450756 0.043277 0.800676
O O11 0.560748 0.314330 0.933295
O O12 0.184136 0.571972 0.952960
O O13 0.405062 0.549109 0.834276
O O14 0.621619 0.839908 0.535940
O O15 0.500000 0.000000 0.500000
#
# Coordination Sequence:
#
# PCOD9076766 Si02
#       7
#     2   2   2   2   2   2   2
#     4  10  23  43  64  90 120 161 211 249 298 367
#     4   9  20  32  53  90 126 153 193 248 307 354
#     4  10  20  38  62  93 123 152 197 253 320 361
#     4  10  19  36  62  91 123 156 197 249 310 369
#     4  10  18  33  59  94 120 157 192 245 313 368
#     4  10  21  38  58  88 126 156 200 250 303 364
#     4  11  25  44  64  86 117 169 214 250 295 357
#
# _framework density 27.049748999999998
#
# number of rings (size 3 to 8) (size 9 to 14) (size 15 to 20)
#    0.000    2.000    0.000    4.286    4.000    2.857 
#   12.857    0.714    0.000    0.000    0.000    0.000 
#    0.000    0.000    0.000    0.000    0.000    0.000 
#
# Total GULP energy -78051.690387 kJ/mol
# GULP energy per Si atom -5575.120742 kJ/mol
# Density = 2.698818 g / cm^3
# Si number density = 27.049749 Si / 1000 Ang^3
#
#
#
# Elastic Constant Matrix: (Units=GPa)
#
#
# Indices 1 2 3 4 5 6 
#
# 1 65.4551 35.2560 18.9205 -27.5975 -3.3909 0.5223
# 2 35.2560 171.9622 67.3839 -48.2884 -6.9849 8.7727
# 3 18.9205 67.3839 114.7215 -9.2047 -8.6351 13.9196
# 4 -27.5975 -48.2884 -9.2047 52.6041 -0.5220 -6.1892
# 5 -3.3909 -6.9849 -8.6351 -0.5220 34.4239 -11.4971
# 6 0.5223 8.7727 13.9196 -6.1892 -11.4971 38.8411
#
#
#
# Elastic Compliance Matrix: (Units=1/GPa)
#
#
# Indices 1 2 3 4 5 6 
#
# 1 0.020744 -0.000359 -0.002558 0.010501 0.002538 0.003143
# 2 -0.000359 0.010416 -0.005436 0.008594 0.001297 0.001354
# 3 -0.002558 -0.005436 0.012457 -0.004596 0.000428 -0.003808
# 4 0.010501 0.008594 -0.004596 0.032342 0.004096 0.005931
# 5 0.002538 0.001297 0.000428 0.004096 0.033058 0.009957
# 6 0.003143 0.001354 -0.003808 0.005931 0.009957 0.030655
#
#
# Mechanical properties :
#
#
# Convention : Reuss Voigt Hill
#
# Bulk Modulus (GPa) = 37.15982 66.13996 51.64989
# Shear Modulus (GPa) = 30.23926 40.54572 35.39249
#
# Velocity S-wave (km/s) = 3.34715 3.87580 3.62114
# Velocity P-wave (km/s) = 5.35773 6.67334 6.05139
#
# Compressibility (1/GPa) = 0.02691079
#
# Stress axis : x y z
#
# Youngs Moduli (GPa) = 48.20597 96.00903 80.27668
#
# Poissons Ratio (x) = 0.03449 0.20536
# Poissons Ratio (y) = 0.01732 0.43636
# Poissons Ratio (z) = 0.12332 0.52188
#
# Static dielectric constant tensor:
#      x y z
#    x 2.177420 0.024490 0.001570 
#    y 0.024490 2.228050 -0.018980 
#    z 0.001570 -0.018980 2.193130 
# 
# From -- ./inp_files/416882.got.cif
#   From: 2010.05.17/outbox.cif.g08.bks.cpg/sg2_209_cif.got.tgz:416882.got - 2010.06.03 11:33:40.
