data_PCOD9076249
_publ_section_title
;
Structure prediction by ZEFSAII (Michael W. Deem and Ramdas Pophale) SiO2 
 PCOD9076249
Probable space group: P -1
;
_chemical_formula_sum "Si O2"
_cell_formula_units_Z 14
_cell_length_a 7.706402
_cell_length_b 6.004768
_cell_length_c 22.456238
_cell_angle_alpha 132.204765
_cell_angle_beta 48.189214
_cell_angle_gamma 115.370382
_cell_volume 573.387676
_symmetry_space_group_name_H-M "P -1"
_symmetry_group_IT_number 2
_symmetry_cell_setting 'triclinic'
loop_
_space_group_symop_operation_xyz
x,y,z
-x,-y,-z
loop_
_atom_site_type_symbol
_atom_site_label
_atom_site_fract_x
_atom_site_fract_y
_atom_site_fract_z
Si Si1 0.818923 0.110584 0.009896
Si Si2 0.933862 0.855242 0.641388
Si Si3 0.319284 0.341713 0.451216
Si Si4 0.440808 0.091670 0.178292
Si Si5 0.307663 0.265479 0.600986
Si Si6 0.538678 0.751054 0.308328
Si Si7 0.802620 0.835477 0.148469
O O1 0.565846 0.007598 0.071732
O O2 0.812754 0.472551 0.077104
O O3 0.949542 0.032253 0.903984
O O4 0.000000 0.000000 0.000000
O O5 0.750069 0.718681 0.612958
O O6 0.812342 0.980763 0.751712
O O7 0.123042 0.584714 0.560719
O O8 0.059470 0.121570 0.625389
O O9 0.574864 0.480484 0.418475
O O10 0.344094 0.010864 0.414195
O O11 0.438198 0.454259 0.249181
O O12 0.615469 0.954463 0.164099
O O13 0.324646 0.345130 0.681121
O O14 0.500000 0.000000 0.500000
O O15 0.709166 0.890656 0.245712
#
# Coordination Sequence:
#
# PCOD9076249 Si02
#       7
#     2   2   2   2   2   2   2
#     4   8  16  28  50  82 110 138 176 223 270 328
#     4  10  20  37  55  75 113 146 182 231 271 320
#     4  10  21  39  52  77 110 147 190 227 267 320
#     4  10  18  33  53  81 110 140 182 225 274 324
#     4  10  22  38  51  76 110 147 187 228 270 322
#     4  11  19  34  57  76 110 146 186 227 267 324
#     4   9  16  30  52  80 110 140 179 222 272 326
#
# _framework density 24.416291999999999
#
# number of rings (size 3 to 8) (size 9 to 14) (size 15 to 20)
#    0.000    2.286    2.857    0.000    0.000    2.857 
#    2.571    0.000    0.000    0.857    0.000   41.000 
#    0.000    0.000    0.000    0.000    0.000    0.000 
#
# Total GULP energy -78087.092229 kJ/mol
# GULP energy per Si atom -5577.649445 kJ/mol
# Density = 2.436072 g / cm^3
# Si number density = 24.416292 Si / 1000 Ang^3
#
#
#
# Elastic Constant Matrix: (Units=GPa)
#
#
# Indices 1 2 3 4 5 6 
#
# 1 53.6234 22.7904 5.5037 -8.3883 -11.4757 -7.4170
# 2 22.7904 96.6179 41.9989 -17.3348 -18.5734 -6.3793
# 3 5.5037 41.9989 96.3400 -37.3942 -21.2362 -4.3634
# 4 -8.3883 -17.3348 -37.3942 71.5346 -12.8111 -6.5755
# 5 -11.4757 -18.5734 -21.2362 -12.8111 23.2324 -3.9635
# 6 -7.4170 -6.3793 -4.3634 -6.5755 -3.9635 33.1381
#
#
#
# Elastic Compliance Matrix: (Units=1/GPa)
#
#
# Indices 1 2 3 4 5 6 
#
# 1 0.038094 -0.000608 0.025071 0.030976 0.062653 0.025351
# 2 -0.000608 0.015593 0.000657 0.007944 0.018293 0.006717
# 3 0.025071 0.000657 0.047195 0.046234 0.086922 0.031523
# 4 0.030976 0.007944 0.046234 0.066721 0.107643 0.040664
# 5 0.062653 0.018293 0.086922 0.107643 0.240933 0.079167
# 6 0.025351 0.006717 0.031523 0.040664 0.079167 0.058832
#
#
# Mechanical properties :
#
#
# Convention : Reuss Voigt Hill
#
# Bulk Modulus (GPa) = 6.61717 43.01860 24.81788
# Shear Modulus (GPa) = 10.69513 37.33356 24.01435
#
# Velocity S-wave (km/s) = 2.09519 3.91454 3.13954
# Velocity P-wave (km/s) = 2.92731 6.17159 4.82999
#
# Compressibility (1/GPa) = 0.15112198
#
# Stress axis : x y z
#
# Youngs Moduli (GPa) = 26.25088 64.13010 21.18874
#
# Poissons Ratio (x) = 0.03900 -0.53122
# Poissons Ratio (y) = 0.01597 -0.01392
# Poissons Ratio (z) = -0.65814 -0.04214
#
# Static dielectric constant tensor:
#      x y z
#    x 1.925800 -0.002910 0.012180 
#    y -0.002910 1.988660 -0.069190 
#    z 0.012180 -0.069190 2.023200 
# 
# From -- ./inp_files/35941.got.cif
#   From: 2010.05.17/outbox.cif.g08.bks.cpg/sg2_18_cif.got.tgz:35941.got - 2010.06.03 11:33:40.
