data_PCOD9076723
_publ_section_title
;
Structure prediction by ZEFSAII (Michael W. Deem and Ramdas Pophale) SiO2 
 PCOD9076723
Probable space group: P -1
;
_chemical_formula_sum "Si O2"
_cell_formula_units_Z 14
_cell_length_a 13.619776
_cell_length_b 11.831849
_cell_length_c 9.269871
_cell_angle_alpha 81.433941
_cell_angle_beta 118.243545
_cell_angle_gamma 148.674816
_cell_volume 568.021205
_symmetry_space_group_name_H-M "P -1"
_symmetry_group_IT_number 2
_symmetry_cell_setting 'triclinic'
loop_
_space_group_symop_operation_xyz
x,y,z
-x,-y,-z
loop_
_atom_site_type_symbol
_atom_site_label
_atom_site_fract_x
_atom_site_fract_y
_atom_site_fract_z
Si Si1 0.376700 0.949353 0.557891
Si Si2 0.767066 0.625745 0.751290
Si Si3 0.152223 0.539200 0.021510
Si Si4 0.228013 0.750412 0.777928
Si Si5 0.204712 0.035395 0.414685
Si Si6 0.816886 0.023383 0.257172
Si Si7 0.659625 0.568414 0.991104
O O1 0.248951 0.746276 0.622722
O O2 0.238178 0.934668 0.414720
O O3 0.500000 0.000000 0.500000
O O4 0.573013 0.186809 0.765540
O O5 0.890690 0.629190 0.922551
O O6 0.982436 0.846909 0.739440
O O7 0.491654 0.350200 0.536380
O O8 0.688942 0.632004 0.831890
O O9 0.104991 0.534470 0.824890
O O10 0.000000 0.500000 0.000000
O O11 0.131230 0.790972 0.734783
O O12 0.500000 0.000000 0.000000
O O13 0.144968 0.987204 0.553072
O O14 0.948898 0.835807 0.195972
O O15 0.519522 0.713424 0.076978
O O16 0.500000 0.500000 0.000000
#
# Coordination Sequence:
#
# PCOD9076723 Si02
#       7
#     2   2   2   2   2   2   2
#     4   9  19  33  53  86 122 161 205 250 305 361
#     4  10  22  41  66  91 125 167 208 255 316 373
#     4  10  18  33  59  84 119 162 204 241 299 370
#     4   9  17  33  56  83 121 165 206 245 298 372
#     4   9  22  42  60  90 128 158 208 264 311 373
#     4  10  21  41  63  91 124 166 208 255 316 377
#     4  11  25  43  65  92 123 162 212 268 321 369
#
# _framework density 24.646968000000001
#
# number of rings (size 3 to 8) (size 9 to 14) (size 15 to 20)
#    0.000    2.286    1.429    2.571    2.000    4.000 
#    0.000    7.857    0.000    2.571    0.000    0.000 
#    0.000    0.000    0.000    0.000    0.000    0.000 
#
# Total GULP energy -78023.383607 kJ/mol
# GULP energy per Si atom -5573.098829 kJ/mol
# Density = 2.459087 g / cm^3
# Si number density = 24.646968 Si / 1000 Ang^3
#
#
#
# Elastic Constant Matrix: (Units=GPa)
#
#
# Indices 1 2 3 4 5 6 
#
# 1 118.7595 48.4609 44.9615 -11.9923 -21.0197 24.8693
# 2 48.4609 124.5094 52.0336 -4.1104 -8.6031 25.4916
# 3 44.9615 52.0336 106.9615 2.6550 5.2890 2.5783
# 4 -11.9923 -4.1104 2.6550 41.3744 15.9012 -2.6966
# 5 -21.0197 -8.6031 5.2890 15.9012 28.2693 -2.7391
# 6 24.8693 25.4916 2.5783 -2.6966 -2.7391 49.3116
#
#
#
# Elastic Compliance Matrix: (Units=1/GPa)
#
#
# Indices 1 2 3 4 5 6 
#
# 1 0.014167 -0.001217 -0.005757 -0.000156 0.010784 -0.005625
# 2 -0.001217 0.012041 -0.005385 -0.000514 0.003556 -0.005160
# 3 -0.005757 -0.005385 0.014689 0.000395 -0.008457 0.004471
# 4 -0.000156 -0.000514 0.000395 0.030887 -0.017620 0.001034
# 5 0.010784 0.003556 -0.008457 -0.017620 0.055511 -0.004715
# 6 -0.005625 -0.005160 0.004471 0.001034 -0.004715 0.025344
#
#
# Mechanical properties :
#
#
# Convention : Reuss Voigt Hill
#
# Bulk Modulus (GPa) = 61.80428 71.23807 66.52117
# Shear Modulus (GPa) = 27.35990 37.44268 32.40129
#
# Velocity S-wave (km/s) = 3.33539 3.90187 3.62970
# Velocity P-wave (km/s) = 6.32166 7.01894 6.67940
#
# Compressibility (1/GPa) = 0.01618011
#
# Stress axis : x y z
#
# Youngs Moduli (GPa) = 70.58584 83.05302 68.07699
#
# Poissons Ratio (x) = 0.10104 0.39193
# Poissons Ratio (y) = 0.08587 0.36657
# Poissons Ratio (z) = 0.40637 0.44721
#
# Static dielectric constant tensor:
#      x y z
#    x 1.986060 -0.080950 -0.039810 
#    y -0.080950 2.234130 0.098100 
#    z -0.039810 0.098100 1.967380 
# 
# From -- ./inp_files/315303.got.cif
#   From: 2010.05.17/outbox.cif.g08.bks.cpg/sg2_158_cif.got.tgz:315303.got - 2010.06.03 11:33:40.
