data_PCOD9076248
_publ_section_title
;
Structure prediction by ZEFSAII (Michael W. Deem and Ramdas Pophale) SiO2 
 PCOD9076248
Probable space group: P -1
;
_chemical_formula_sum "Si O2"
_cell_formula_units_Z 16
_cell_length_a 7.314767
_cell_length_b 25.674098
_cell_length_c 13.269636
_cell_angle_alpha 23.935867
_cell_angle_beta 124.013234
_cell_angle_gamma 135.509303
_cell_volume 669.882540
_symmetry_space_group_name_H-M "P -1"
_symmetry_group_IT_number 2
_symmetry_cell_setting 'triclinic'
loop_
_space_group_symop_operation_xyz
x,y,z
-x,-y,-z
loop_
_atom_site_type_symbol
_atom_site_label
_atom_site_fract_x
_atom_site_fract_y
_atom_site_fract_z
Si Si1 0.440763 0.524058 0.289429
Si Si2 0.626953 0.067800 0.307280
Si Si3 0.854488 0.271653 0.475109
Si Si4 0.100839 0.334577 0.086033
Si Si5 0.624488 0.746751 0.149137
Si Si6 0.326704 0.714408 0.805352
Si Si7 0.756343 0.008068 0.017443
Si Si8 0.437015 0.300764 0.411440
O O1 0.565283 0.650265 0.196623
O O2 0.515501 0.400470 0.551889
O O3 0.108506 0.388944 0.419694
O O4 0.472124 0.628238 0.017454
O O5 0.950055 0.204570 0.181619
O O6 0.500000 0.000000 0.500000
O O7 0.542759 0.905459 0.516130
O O8 0.503320 0.155473 0.068240
O O9 0.890480 0.338193 0.257840
O O10 0.806248 0.102670 0.762636
O O11 0.600255 0.262434 0.455661
O O12 0.208818 0.283281 0.300580
O O13 0.852167 0.327351 0.074655
O O14 0.346767 0.516054 0.812080
O O15 0.954488 0.879099 0.032891
O O16 0.500000 0.000000 0.000000
O O17 0.674842 0.831133 0.303117
#
# Coordination Sequence:
#
# PCOD9076248 Si02
#       8
#     2   2   2   2   2   2   2   2
#     4  10  19  31  55  84 109 140 178 238 267 318
#     4  10  18  33  53  81 109 141 180 232 269 317
#     4  10  20  36  55  82 114 141 178 227 279 323
#     4  10  20  33  56  82 106 144 183 229 264 324
#     4  10  18  33  54  82 108 138 192 224 270 310
#     4  11  20  34  59  83 113 139 180 234 279 313
#     4   9  19  33  54  76 108 145 178 220 260 328
#     4  10  19  34  55  79 107 148 185 216 269 328
#
# _framework density 23.884785999999998
#
# number of rings (size 3 to 8) (size 9 to 14) (size 15 to 20)
#    0.000    2.000    3.750    1.875    0.000    0.000 
#    0.000    6.250    0.000    0.750    0.000    0.000 
#    0.000    0.000    0.000    0.000    0.000    0.000 
#
# Total GULP energy -89203.107596 kJ/mol
# GULP energy per Si atom -5575.194225 kJ/mol
# Density = 2.383042 g / cm^3
# Si number density = 23.884786 Si / 1000 Ang^3
#
#
#
# Elastic Constant Matrix: (Units=GPa)
#
#
# Indices 1 2 3 4 5 6 
#
# 1 61.5167 15.8476 18.1117 -2.7556 11.2290 17.1231
# 2 15.8476 119.1956 66.8195 -7.7966 4.5161 19.7064
# 3 18.1117 66.8195 248.8159 10.6136 40.8585 17.8876
# 4 -2.7556 -7.7966 10.6136 35.9669 2.9193 1.3630
# 5 11.2290 4.5161 40.8585 2.9193 13.2035 2.1838
# 6 17.1231 19.7064 17.8876 1.3630 2.1838 28.7172
#
#
#
# Elastic Compliance Matrix: (Units=1/GPa)
#
#
# Indices 1 2 3 4 5 6 
#
# 1 0.026590 -0.002816 0.006147 0.003340 -0.038939 -0.014948
# 2 -0.002816 0.012097 -0.005225 0.002943 0.014539 -0.004613
# 3 0.006147 -0.005225 0.011671 -0.000802 -0.038657 -0.004372
# 4 0.003340 0.002943 -0.000802 0.029684 -0.007204 -0.004372
# 5 -0.038939 0.014539 -0.038657 -0.007204 0.221658 0.020806
# 6 -0.014948 -0.004613 -0.004372 -0.004372 0.020806 0.048250
#
#
# Mechanical properties :
#
#
# Convention : Reuss Voigt Hill
#
# Bulk Modulus (GPa) = 21.47294 70.12064 45.79679
# Shear Modulus (GPa) = 13.54050 37.49413 25.51732
#
# Velocity S-wave (km/s) = 2.38357 3.96636 3.27211
# Velocity P-wave (km/s) = 4.07246 7.09913 5.78716
#
# Compressibility (1/GPa) = 0.04657024
#
# Stress axis : x y z
#
# Youngs Moduli (GPa) = 37.60871 82.66184 85.68021
#
# Poissons Ratio (x) = 0.23278 -0.52669
# Poissons Ratio (y) = 0.10591 0.44769
# Poissons Ratio (z) = -0.23119 0.43192
#
# Static dielectric constant tensor:
#      x y z
#    x 1.956180 -0.052800 -0.046410 
#    y -0.052800 1.923950 0.013110 
#    z -0.046410 0.013110 2.053950 
# 
# From -- ./inp_files/256901.got.cif
#   From: 2010.05.17/outbox.cif.g08.bks.cpg/sg2_129_cif.got.tgz:256901.got - 2010.06.03 11:33:40.
