data_PCOD9076312
_publ_section_title
;
Structure prediction by ZEFSAII (Michael W. Deem and Ramdas Pophale) SiO2 
 PCOD9076312
Probable space group: P -1
;
_chemical_formula_sum "Si O2"
_cell_formula_units_Z 14
_cell_length_a 7.177411
_cell_length_b 14.990817
_cell_length_c 8.184956
_cell_angle_alpha 53.229893
_cell_angle_beta 50.648237
_cell_angle_gamma 77.590937
_cell_volume 525.870664
_symmetry_space_group_name_H-M "P -1"
_symmetry_group_IT_number 2
_symmetry_cell_setting 'triclinic'
loop_
_space_group_symop_operation_xyz
x,y,z
-x,-y,-z
loop_
_atom_site_type_symbol
_atom_site_label
_atom_site_fract_x
_atom_site_fract_y
_atom_site_fract_z
Si Si1 0.172187 0.164769 0.166404
Si Si2 0.609164 0.104036 0.200977
Si Si3 0.503982 0.246041 0.364697
Si Si4 0.381395 0.624725 0.353865
Si Si5 0.362853 0.504295 0.831953
Si Si6 0.975227 0.727044 0.581552
Si Si7 0.698125 0.957899 0.048643
O O1 0.372849 0.120920 0.210850
O O2 0.974351 0.190625 0.376148
O O3 0.340393 0.289315 0.873911
O O4 0.109318 0.078285 0.143339
O O5 0.683061 0.212015 0.165684
O O6 0.500000 0.000000 0.500000
O O7 0.782453 0.058566 0.026590
O O8 0.597641 0.377751 0.223050
O O9 0.236607 0.236212 0.440972
O O10 0.441584 0.156808 0.647614
O O11 0.311227 0.539490 0.638801
O O12 0.398872 0.549355 0.266993
O O13 0.201074 0.708915 0.368099
O O14 0.156100 0.400671 0.137339
O O15 0.500000 0.000000 0.000000
#
# Coordination Sequence:
#
# PCOD9076312 Si02
#       7
#     2   2   2   2   2   2   2
#     4   9  17  33  57  79 108 144 181 217 267 327
#     4   8  16  29  54  82 101 137 184 221 271 318
#     4  10  18  33  54  83 111 141 183 226 269 324
#     4  10  20  35  55  82 112 147 181 220 265 326
#     4  10  20  35  55  80 114 145 185 216 263 333
#     4  10  21  34  55  83 117 141 178 226 270 317
#     4   9  16  31  58  82 102 144 186 222 272 324
#
# _framework density 26.622516999999998
#
# number of rings (size 3 to 8) (size 9 to 14) (size 15 to 20)
#    0.000    2.571    1.429    0.857    0.000    0.571 
#    0.000    0.000    0.000   27.429    0.000    0.000 
#    0.000    0.000    0.000    0.000    0.000    0.000 
#
# Total GULP energy -78329.367594 kJ/mol
# GULP energy per Si atom -5594.954828 kJ/mol
# Density = 2.656192 g / cm^3
# Si number density = 26.622517 Si / 1000 Ang^3
#
#
#
# Elastic Constant Matrix: (Units=GPa)
#
#
# Indices 1 2 3 4 5 6 
#
# 1 54.3211 39.8119 41.1020 6.5664 10.9197 -8.6840
# 2 39.8119 308.4905 50.7888 30.2353 -5.8078 19.6016
# 3 41.1020 50.7888 108.1545 -18.3769 8.3461 -5.9430
# 4 6.5664 30.2353 -18.3769 43.6328 -9.7386 4.6091
# 5 10.9197 -5.8078 8.3461 -9.7386 32.9134 3.8824
# 6 -8.6840 19.6016 -5.9430 4.6091 3.8824 46.4091
#
#
#
# Elastic Compliance Matrix: (Units=1/GPa)
#
#
# Indices 1 2 3 4 5 6 
#
# 1 0.035758 -0.001814 -0.013562 -0.013786 -0.013796 0.008244
# 2 -0.001814 0.004276 -0.002053 -0.003045 0.001237 -0.002209
# 3 -0.013562 -0.002053 0.017005 0.011463 0.003324 -0.000910
# 4 -0.013786 -0.003045 0.011463 0.035069 0.012015 -0.004314
# 5 -0.013796 0.001237 0.003324 0.012015 0.038729 -0.007111
# 6 0.008244 -0.002209 -0.000910 -0.004314 -0.007111 0.024930
#
#
# Mechanical properties :
#
#
# Convention : Reuss Voigt Hill
#
# Bulk Modulus (GPa) = 45.08306 81.59684 63.33995
# Shear Modulus (GPa) = 25.25019 47.20863 36.22941
#
# Velocity S-wave (km/s) = 3.08304 4.21558 3.69298
# Velocity P-wave (km/s) = 5.44467 7.37637 6.48287
#
# Compressibility (1/GPa) = 0.02218128
#
# Stress axis : x y z
#
# Youngs Moduli (GPa) = 27.96563 233.87647 58.80565
#
# Poissons Ratio (x) = 0.42432 0.79752
# Poissons Ratio (y) = 0.05074 0.12070
# Poissons Ratio (z) = 0.37927 0.48005
#
# Static dielectric constant tensor:
#      x y z
#    x 2.109230 -0.017950 0.029810 
#    y -0.017950 2.196000 0.033960 
#    z 0.029810 0.033960 2.027740 
# 
# From -- ./inp_files/60761.got.cif
#   From: 2010.05.17/outbox.cif.g08.bks.cpg/sg2_31_cif.got.tgz:60761.got - 2010.06.03 11:33:40.
