data_PCOD9076667
_publ_section_title
;
Structure prediction by ZEFSAII (Michael W. Deem and Ramdas Pophale) SiO2 
 PCOD9076667
Probable space group: P -1
;
_chemical_formula_sum "Si O2"
_cell_formula_units_Z 14
_cell_length_a 10.370008
_cell_length_b 6.475101
_cell_length_c 15.147109
_cell_angle_alpha 55.141036
_cell_angle_beta 84.114993
_cell_angle_gamma 67.335974
_cell_volume 760.769696
_symmetry_space_group_name_H-M "P -1"
_symmetry_group_IT_number 2
_symmetry_cell_setting 'triclinic'
loop_
_space_group_symop_operation_xyz
x,y,z
-x,-y,-z
loop_
_atom_site_type_symbol
_atom_site_label
_atom_site_fract_x
_atom_site_fract_y
_atom_site_fract_z
Si Si1 0.451283 0.807010 0.108164
Si Si2 0.695678 0.240392 0.204920
Si Si3 0.436352 0.168164 0.711658
Si Si4 0.359716 0.764212 0.591305
Si Si5 0.082009 0.699859 0.955851
Si Si6 0.826743 0.263509 0.865153
Si Si7 0.641599 0.788318 0.641070
O O1 0.543332 0.495580 0.147380
O O2 0.489502 0.837983 0.198689
O O3 0.289064 0.867757 0.092213
O O4 0.500000 0.000000 0.000000
O O5 0.720570 0.201393 0.318014
O O6 0.806020 0.321678 0.123302
O O7 0.674723 0.973910 0.236299
O O8 0.364872 0.488330 0.612708
O O9 0.550493 0.992862 0.674567
O O10 0.522920 0.716273 0.614953
O O11 0.303392 0.035220 0.469889
O O12 0.155980 0.640866 0.061068
O O13 0.972088 0.018911 0.886701
O O14 0.000000 0.500000 0.000000
O O15 0.761426 0.520432 0.740670
#
# Coordination Sequence:
#
# PCOD9076667 Si02
#       7
#     2   2   2   2   2   2   2
#     4  11  21  33  58  87 115 144 193 240 286 338
#     4  10  21  38  57  86 116 148 191 241 285 340
#     4  10  18  33  58  88 117 148 182 234 299 331
#     4   9  19  35  58  90 118 145 183 242 287 341
#     4  11  26  41  58  78 119 161 192 232 288 337
#     4  11  23  39  55  89 113 152 195 234 277 350
#     4  10  19  35  58  88 120 145 191 234 285 343
#
# _framework density 18.402415999999999
#
# number of rings (size 3 to 8) (size 9 to 14) (size 15 to 20)
#    0.000    1.714    4.286    2.143    4.000    4.571 
#    0.000    0.714    0.000    1.714    0.000    0.000 
#    0.000    0.000    0.000    0.000    0.000    0.000 
#
# Total GULP energy -78126.623032 kJ/mol
# GULP energy per Si atom -5580.473074 kJ/mol
# Density = 1.836053 g / cm^3
# Si number density = 18.402416 Si / 1000 Ang^3
#
#
#
# Elastic Constant Matrix: (Units=GPa)
#
#
# Indices 1 2 3 4 5 6 
#
# 1 50.2352 13.2465 13.6927 3.7858 -5.1880 6.2745
# 2 13.2465 56.6370 13.5612 -7.9372 -4.6369 15.7855
# 3 13.6927 13.5612 97.6880 -16.4438 2.6984 3.6621
# 4 3.7858 -7.9372 -16.4438 22.9291 -3.0503 -9.0036
# 5 -5.1880 -4.6369 2.6984 -3.0503 22.7657 -5.0190
# 6 6.2745 15.7855 3.6621 -9.0036 -5.0190 31.0817
#
#
#
# Elastic Compliance Matrix: (Units=1/GPa)
#
#
# Indices 1 2 3 4 5 6 
#
# 1 0.023853 -0.004473 -0.004309 -0.009979 0.002709 -0.004489
# 2 -0.004473 0.022250 -0.001478 0.004325 0.002374 -0.008587
# 3 -0.004309 -0.001478 0.012703 0.010398 -0.000730 0.003018
# 4 -0.009979 0.004325 0.010398 0.062727 0.009824 0.018350
# 5 0.002709 0.002374 -0.000730 0.009824 0.048413 0.008997
# 6 -0.004489 -0.008587 0.003018 0.018350 0.008997 0.043853
#
#
# Mechanical properties :
#
#
# Convention : Reuss Voigt Hill
#
# Bulk Modulus (GPa) = 26.11790 31.72900 28.92345
# Shear Modulus (GPa) = 20.23647 26.29263 23.26455
#
# Velocity S-wave (km/s) = 3.31972 3.78399 3.55943
# Velocity P-wave (km/s) = 5.37750 6.03081 5.71350
#
# Compressibility (1/GPa) = 0.03828792
#
# Stress axis : x y z
#
# Youngs Moduli (GPa) = 41.92399 44.94401 78.72123
#
# Poissons Ratio (x) = 0.20101 0.33919
# Poissons Ratio (y) = 0.18751 0.11631
# Poissons Ratio (z) = 0.18064 0.06641
#
# Static dielectric constant tensor:
#      x y z
#    x 1.611300 0.016420 -0.007160 
#    y 0.016420 1.652810 -0.016030 
#    z -0.007160 -0.016030 1.667980 
# 
# From -- ./inp_files/35462.got.cif
#   From: 2010.05.17/outbox.cif.g08.bks.cpg/sg2_18_cif.got.tgz:35462.got - 2010.06.03 11:33:40.
