data_PCOD9076296
_publ_section_title
;
Structure prediction by ZEFSAII (Michael W. Deem and Ramdas Pophale) SiO2 
 PCOD9076296
Probable space group: P -1
;
_chemical_formula_sum "Si O2"
_cell_formula_units_Z 16
_cell_length_a 11.501820
_cell_length_b 8.992994
_cell_length_c 12.912291
_cell_angle_alpha 103.288968
_cell_angle_beta 88.524892
_cell_angle_gamma 38.969935
_cell_volume 770.523221
_symmetry_space_group_name_H-M "P -1"
_symmetry_group_IT_number 2
_symmetry_cell_setting 'triclinic'
loop_
_space_group_symop_operation_xyz
x,y,z
-x,-y,-z
loop_
_atom_site_type_symbol
_atom_site_label
_atom_site_fract_x
_atom_site_fract_y
_atom_site_fract_z
Si Si1 0.456675 0.160843 0.119664
Si Si2 0.466537 0.658702 0.614182
Si Si3 0.374250 0.407116 0.796385
Si Si4 0.901047 0.080691 0.222271
Si Si5 0.933319 0.553984 0.839634
Si Si6 0.339712 0.615092 0.219312
Si Si7 0.632126 0.918403 0.290249
Si Si8 0.967299 0.294094 0.995263
O O1 0.253396 0.309642 0.195039
O O2 0.424720 0.371155 0.124770
O O3 0.613431 0.983062 0.178782
O O4 0.500000 0.000000 0.000000
O O5 0.500000 0.500000 0.500000
O O6 0.247949 0.862238 0.697367
O O7 0.617753 0.466091 0.673572
O O8 0.470324 0.832578 0.610085
O O9 0.218630 0.640139 0.755068
O O10 0.537020 0.363492 0.804523
O O11 0.451482 0.163586 0.713957
O O12 0.244117 0.512766 0.918200
O O13 0.112991 0.872472 0.235792
O O14 0.932842 0.962376 0.092524
O O15 0.945341 0.425093 0.916409
O O16 0.134968 0.338067 0.737768
O O17 0.914006 0.739880 0.924455
#
# Coordination Sequence:
#
# PCOD9076296 Si02
#       8
#     2   2   2   2   2   2   2   2
#     4  11  20  32  55  79 111 156 193 236 272 323
#     4  10  22  42  69  86 103 142 197 256 294 327
#     4  10  23  35  53  85 124 159 186 219 281 349
#     4  11  21  40  56  82 121 152 192 236 281 338
#     4  10  19  33  54  80 113 154 194 237 273 316
#     4  10  23  39  56  85 121 150 192 235 282 345
#     4  10  21  39  56  85 115 144 198 235 283 342
#     4  10  18  33  54  80 117 161 190 219 274 337
#
# _framework density 20.765111999999998
#
# number of rings (size 3 to 8) (size 9 to 14) (size 15 to 20)
#    0.000    1.750    2.500    2.625    3.500    3.000 
#    0.000    2.500    0.000    1.500    0.000    0.000 
#    0.000    0.000    0.000    0.000    0.000    0.000 
#
# Total GULP energy -89326.033767 kJ/mol
# GULP energy per Si atom -5582.877110 kJ/mol
# Density = 2.071785 g / cm^3
# Si number density = 20.765112 Si / 1000 Ang^3
#
#
#
# Elastic Constant Matrix: (Units=GPa)
#
#
# Indices 1 2 3 4 5 6 
#
# 1 146.3340 57.7464 30.2606 18.8370 22.4111 1.4640
# 2 57.7464 84.1601 14.3073 16.8954 12.6098 -2.0490
# 3 30.2606 14.3073 64.1985 17.7148 35.9886 7.8683
# 4 18.8370 16.8954 17.7148 17.8572 9.3156 5.5510
# 5 22.4111 12.6098 35.9886 9.3156 30.3047 15.3318
# 6 1.4640 -2.0490 7.8683 5.5510 15.3318 38.8421
#
#
#
# Elastic Compliance Matrix: (Units=1/GPa)
#
#
# Indices 1 2 3 4 5 6 
#
# 1 0.010219 -0.005487 0.000094 -0.003526 -0.005256 0.001885
# 2 -0.005487 0.019987 0.010997 -0.018299 -0.015654 0.007827
# 3 0.000094 0.010997 0.074673 -0.044376 -0.094376 0.029044
# 4 -0.003526 -0.018299 -0.044376 0.106408 0.042207 -0.023710
# 5 -0.005256 -0.015654 -0.094376 0.042207 0.170184 -0.054717
# 6 0.001885 0.007827 0.029044 -0.023710 -0.054717 0.045190
#
#
# Mechanical properties :
#
#
# Convention : Reuss Voigt Hill
#
# Bulk Modulus (GPa) = 8.61413 55.48012 32.04712
# Shear Modulus (GPa) = 11.00966 30.22603 20.61784
#
# Velocity S-wave (km/s) = 2.30510 3.81939 3.15446
# Velocity P-wave (km/s) = 3.35292 6.79899 5.36043
#
# Compressibility (1/GPa) = 0.11608840
#
# Stress axis : x y z
#
# Youngs Moduli (GPa) = 97.85310 50.03279 13.39179
#
# Poissons Ratio (x) = 0.27452 -0.00126
# Poissons Ratio (y) = 0.53689 -0.14727
# Poissons Ratio (z) = -0.00922 -0.55023
#
# Static dielectric constant tensor:
#      x y z
#    x 1.803030 0.028380 0.009320 
#    y 0.028380 1.786960 0.022840 
#    z 0.009320 0.022840 1.740550 
# 
# From -- ./inp_files/499231.got.cif
#   From: 2010.05.17/outbox.cif.g08.bks.cpg/sg2_250_cif.got.tgz:499231.got - 2010.06.03 11:33:40.
