data_PCOD9076832
_publ_section_title
;
Structure prediction by ZEFSAII (Michael W. Deem and Ramdas Pophale) SiO2 
 PCOD9076832
Probable space group: P -1
;
_chemical_formula_sum "Si O2"
_cell_formula_units_Z 15
_cell_length_a 7.470815
_cell_length_b 21.203667
_cell_length_c 7.731902
_cell_angle_alpha 54.022352
_cell_angle_beta 40.504118
_cell_angle_gamma 61.480077
_cell_volume 642.659848
_symmetry_space_group_name_H-M "P -1"
_symmetry_group_IT_number 2
_symmetry_cell_setting 'triclinic'
loop_
_space_group_symop_operation_xyz
x,y,z
-x,-y,-z
loop_
_atom_site_type_symbol
_atom_site_label
_atom_site_fract_x
_atom_site_fract_y
_atom_site_fract_z
Si Si1 0.786658 0.629423 0.796722
Si Si2 0.211291 0.633876 0.759911
Si Si3 0.689374 0.958434 0.172105
Si Si4 0.270615 0.875112 0.830423
Si Si5 0.500000 0.500000 0.000000
Si Si6 0.303769 0.715121 0.220036
Si Si7 0.453665 0.877980 0.129888
Si Si8 0.963840 0.206479 0.206497
O O1 0.707865 0.560447 0.843193
O O2 0.958578 0.601581 0.886759
O O3 0.992896 0.688182 0.461402
O O4 0.513318 0.676158 0.990591
O O5 0.390223 0.569466 0.834113
O O6 0.371895 0.676870 0.418832
O O7 0.094726 0.701981 0.863996
O O8 0.543127 0.916225 0.505044
O O9 0.557285 0.920761 0.159824
O O10 0.014111 0.936548 0.954703
O O11 0.610275 0.050273 0.068872
O O12 0.171916 0.824107 0.819544
O O13 0.309494 0.807782 0.053565
O O14 0.184003 0.836805 0.458331
O O15 0.716589 0.820685 0.985375
#
# Coordination Sequence:
#
# PCOD9076832 Si02
#       8
#     2   2   2   2   1   2   2   2
#     4  10  25  46  68 101 131 177 213 271 329 398
#     4  10  26  44  70 100 135 176 216 278 329 397
#     4   9  17  30  55  93 130 166 226 271 330 364
#     4  10  18  33  60  92 126 176 219 273 316 392
#     4  12  24  52  74 104 134 168 224 270 334 406
#     4  10  23  44  65  95 139 173 222 262 338 381
#     4   9  18  32  55  91 130 171 217 281 313 389
#     4  10  20  34  60  88 127 173 224 258 332 386
#
# _framework density 23.340499000000001
#
# number of rings (size 3 to 8) (size 9 to 14) (size 15 to 20)
#    0.800    1.333    0.000    2.800    1.867    6.400 
#    2.400    0.000    0.000    4.800    0.000    0.000 
#    0.000    0.000    0.000    0.000    0.000    0.000 
#
# Total GULP energy -83642.734758 kJ/mol
# GULP energy per Si atom -5576.182317 kJ/mol
# Density = 2.328737 g / cm^3
# Si number density = 23.340499 Si / 1000 Ang^3
#
#
#
# Elastic Constant Matrix: (Units=GPa)
#
#
# Indices 1 2 3 4 5 6 
#
# 1 73.4490 21.1224 8.4348 0.0690 8.4242 8.2817
# 2 21.1224 55.2558 70.8056 -49.2062 3.2036 -21.0170
# 3 8.4348 70.8056 138.4894 7.0693 -2.1418 -9.8505
# 4 0.0690 -49.2062 7.0693 22.6325 -4.9152 -0.9625
# 5 8.4242 3.2036 -2.1418 -4.9152 25.2568 -16.6819
# 6 8.2817 -21.0170 -9.8505 -0.9625 -16.6819 33.6625
#
#
#
# Elastic Compliance Matrix: (Units=1/GPa)
#
#
# Indices 1 2 3 4 5 6 
#
# 1 0.014637 0.003780 -0.003774 0.007248 -0.008449 -0.006325
# 2 0.003780 -0.006639 0.003248 -0.018036 -0.009986 -0.009589
# 3 -0.003774 0.003248 0.006224 0.007514 0.009120 0.009512
# 4 0.007248 -0.018036 0.007514 -0.000233 -0.009968 -0.015791
# 5 -0.008449 -0.009986 0.009120 -0.009968 0.061456 0.028683
# 6 -0.006325 -0.009589 0.009512 -0.015791 0.028683 0.041822
#
#
# Mechanical properties :
#
#
# Convention : Reuss Voigt Hill
#
# Bulk Modulus (GPa) = 48.24191 51.99110 50.11650
# Shear Modulus (GPa) = 42.49147 27.43246 34.96196
#
# Velocity S-wave (km/s) = 4.27137 3.43201 3.87448
# Velocity P-wave (km/s) = 6.71116 6.16671 6.44469
#
# Compressibility (1/GPa) = 0.02072887
#
# Stress axis : x y z
#
# Youngs Moduli (GPa) = 68.32067 -150.63532 160.66696
#
# Poissons Ratio (x) = 0.56934 0.60642
# Poissons Ratio (y) = -0.25822 -0.52186
# Poissons Ratio (z) = 0.25787 0.48928
#
# Static dielectric constant tensor:
#      x y z
#    x 1.974660 0.075270 0.051200 
#    y 0.075270 1.834870 0.010670 
#    z 0.051200 0.010670 1.835850 
# 
# From -- ./inp_files/226035.got.cif
#   From: 2010.05.17/outbox.cif.g08.bks.cpg/sg2_114_cif.got.tgz:226035.got - 2010.06.03 11:33:40.
