data_PCOD9076374
_publ_section_title
;
Structure prediction by ZEFSAII (Michael W. Deem and Ramdas Pophale) SiO2 
 PCOD9076374
Probable space group: P -1
;
_chemical_formula_sum "Si O2"
_cell_formula_units_Z 14
_cell_length_a 9.538055
_cell_length_b 7.424979
_cell_length_c 9.027783
_cell_angle_alpha 81.769270
_cell_angle_beta 100.171686
_cell_angle_gamma 123.502556
_cell_volume 523.933508
_symmetry_space_group_name_H-M "P -1"
_symmetry_group_IT_number 2
_symmetry_cell_setting 'triclinic'
loop_
_space_group_symop_operation_xyz
x,y,z
-x,-y,-z
loop_
_atom_site_type_symbol
_atom_site_label
_atom_site_fract_x
_atom_site_fract_y
_atom_site_fract_z
Si Si1 0.890348 0.603593 0.488806
Si Si2 0.355893 0.640041 0.079478
Si Si3 0.042678 0.482327 0.192910
Si Si4 0.402691 0.082709 0.134590
Si Si5 0.106055 0.925348 0.277651
Si Si6 0.578662 0.577107 0.341962
Si Si7 0.824176 0.011146 0.181423
O O1 0.844284 0.548386 0.657478
O O2 0.720070 0.513714 0.374332
O O3 0.000000 0.500000 0.500000
O O4 0.030392 0.847404 0.436864
O O5 0.153200 0.513040 0.064873
O O6 0.440191 0.529392 0.195099
O O7 0.428482 0.707457 0.919793
O O8 0.413994 0.870972 0.143893
O O9 0.049869 0.699003 0.210528
O O10 0.872530 0.250221 0.199369
O O11 0.272773 0.056252 0.984457
O O12 0.307172 0.066898 0.270615
O O13 0.997697 0.019362 0.190081
O O14 0.500000 0.500000 0.500000
O O15 0.707459 0.835426 0.303449
#
# Coordination Sequence:
#
# PCOD9076374 Si02
#       7
#     2   2   2   2   2   2   2
#     4   9  18  33  56  83 112 147 185 232 283 335
#     4   9  18  32  55  82 111 150 189 233 284 336
#     4  10  19  35  57  86 113 148 192 236 283 336
#     4   9  18  35  55  81 112 152 191 226 286 341
#     4   9  19  33  54  80 115 148 183 235 279 333
#     4  10  18  33  55  84 112 148 188 232 285 340
#     4  10  21  34  58  87 110 150 195 233 280 340
#
# _framework density 26.720949000000001
#
# number of rings (size 3 to 8) (size 9 to 14) (size 15 to 20)
#    0.000    2.571    1.429    0.429    0.000    4.571 
#    0.000    0.714    0.000   40.286    0.000    0.000 
#    0.000    0.000    0.000    0.000    0.000    0.000 
#
# Total GULP energy -78128.860901 kJ/mol
# GULP energy per Si atom -5580.632922 kJ/mol
# Density = 2.666013 g / cm^3
# Si number density = 26.720949 Si / 1000 Ang^3
#
#
#
# Elastic Constant Matrix: (Units=GPa)
#
#
# Indices 1 2 3 4 5 6 
#
# 1 178.3114 29.6300 25.0119 -16.9518 -0.5804 -7.0883
# 2 29.6300 92.2141 31.7182 -15.6609 -13.3659 -10.6851
# 3 25.0119 31.7182 76.0046 -28.7454 0.1269 -23.3304
# 4 -16.9518 -15.6609 -28.7454 40.5070 10.9968 -0.3344
# 5 -0.5804 -13.3659 0.1269 10.9968 51.3447 -13.2934
# 6 -7.0883 -10.6851 -23.3304 -0.3344 -13.2934 22.0568
#
#
#
# Elastic Compliance Matrix: (Units=1/GPa)
#
#
# Indices 1 2 3 4 5 6 
#
# 1 0.006120 -0.001522 -0.000738 0.001627 -0.000653 0.000081
# 2 -0.001522 0.014013 -0.002901 0.001432 0.004945 0.006233
# 3 -0.000738 -0.002901 0.034711 0.022381 0.004178 0.037931
# 4 0.001627 0.001432 0.022381 0.042710 -0.002607 0.023967
# 5 -0.000653 0.004945 0.004178 -0.002607 0.027257 0.022993
# 6 0.000081 0.006233 0.037931 0.023967 0.022993 0.102725
#
#
# Mechanical properties :
#
#
# Convention : Reuss Voigt Hill
#
# Bulk Modulus (GPa) = 22.45949 57.69447 40.07698
# Shear Modulus (GPa) = 19.78645 40.12635 29.95640
#
# Velocity S-wave (km/s) = 2.72414 3.87936 3.35189
# Velocity P-wave (km/s) = 4.27995 6.45788 5.47824
#
# Compressibility (1/GPa) = 0.04452461
#
# Stress axis : x y z
#
# Youngs Moduli (GPa) = 163.39069 71.36150 28.80900
#
# Poissons Ratio (x) = 0.10859 0.02126
# Poissons Ratio (y) = 0.24863 0.08356
# Poissons Ratio (z) = 0.12055 0.20699
#
# Static dielectric constant tensor:
#      x y z
#    x 2.130270 0.019720 -0.063800 
#    y 0.019720 2.114400 -0.004140 
#    z -0.063800 -0.004140 2.273990 
# 
# From -- ./inp_files/170848.got.cif
#   From: 2010.05.17/outbox.cif.g08.bks.cpg/sg2_86_cif.got.tgz:170848.got - 2010.06.03 11:33:40.
