data_PCOD9076805
_publ_section_title
;
Structure prediction by ZEFSAII (Michael W. Deem and Ramdas Pophale) SiO2 
 PCOD9076805
Probable space group: P -1
;
_chemical_formula_sum "Si O2"
_cell_formula_units_Z 16
_cell_length_a 9.868915
_cell_length_b 12.052812
_cell_length_c 20.565090
_cell_angle_alpha 145.870531
_cell_angle_beta 33.694647
_cell_angle_gamma 133.547624
_cell_volume 761.397925
_symmetry_space_group_name_H-M "P -1"
_symmetry_group_IT_number 2
_symmetry_cell_setting 'triclinic'
loop_
_space_group_symop_operation_xyz
x,y,z
-x,-y,-z
loop_
_atom_site_type_symbol
_atom_site_label
_atom_site_fract_x
_atom_site_fract_y
_atom_site_fract_z
Si Si1 0.974450 0.805493 0.960047
Si Si2 0.009498 0.340054 0.254462
Si Si3 0.011952 0.776816 0.446760
Si Si4 0.534967 0.272671 0.853326
Si Si5 0.503872 0.205679 0.059228
Si Si6 0.454311 0.652617 0.754399
Si Si7 0.245085 0.975441 0.239205
Si Si8 0.525381 0.669317 0.516931
O O1 0.971518 0.647582 0.825538
O O2 0.201344 0.760906 0.892286
O O3 0.733315 0.792276 0.092175
O O4 0.000000 0.000000 0.000000
O O5 0.002438 0.569147 0.388858
O O6 0.748925 0.240397 0.327896
O O7 0.250539 0.238381 0.137479
O O8 0.992568 0.957569 0.593052
O O9 0.767591 0.783194 0.500728
O O10 0.254351 0.763582 0.300498
O O11 0.590754 0.134712 0.826121
O O12 0.500000 0.500000 0.000000
O O13 0.517645 0.366678 0.188938
O O14 0.500000 0.000000 0.000000
O O15 0.728931 0.174803 0.904532
O O16 0.644291 0.813984 0.727054
O O17 0.450096 0.447740 0.617278
O O18 0.500000 0.500000 0.500000
#
# Coordination Sequence:
#
# PCOD9076805 Si02
#       8
#     2   2   2   2   2   2   2   2
#     4  12  20  34  62  89 116 154 205 252 289 343
#     4  11  19  37  62  85 119 157 197 246 300 350
#     4  11  21  37  59  92 121 153 198 248 306 352
#     4  12  22  35  60  91 122 157 199 245 301 360
#     4  10  22  36  54  87 120 161 198 244 295 357
#     4  11  19  36  57  89 120 151 200 250 297 344
#     4  11  20  38  56  82 123 155 190 249 294 354
#     4  10  18  33  60  86 121 148 192 255 299 334
#
# _framework density 21.013978000000002
#
# number of rings (size 3 to 8) (size 9 to 14) (size 15 to 20)
#    0.000    1.000    8.750    1.125    0.000    0.500 
#    0.000    0.000    0.000    7.500    0.000    0.000 
#    0.000    0.000    0.000    0.000    0.000    0.000 
#
# Total GULP energy -89164.304302 kJ/mol
# GULP energy per Si atom -5572.769019 kJ/mol
# Density = 2.096615 g / cm^3
# Si number density = 21.013978 Si / 1000 Ang^3
#
#
#
# Elastic Constant Matrix: (Units=GPa)
#
#
# Indices 1 2 3 4 5 6 
#
# 1 75.9251 -1.1422 51.2864 -13.3434 3.4725 -1.6236
# 2 -1.1422 32.9659 38.8128 -7.0391 -8.3934 8.0035
# 3 51.2864 38.8128 173.5030 -24.1315 9.1464 10.6280
# 4 -13.3434 -7.0391 -24.1315 43.7056 4.2076 -6.1525
# 5 3.4725 -8.3934 9.1464 4.2076 38.4258 -1.9077
# 6 -1.6236 8.0035 10.6280 -6.1525 -1.9077 16.4650
#
#
#
# Elastic Compliance Matrix: (Units=1/GPa)
#
#
# Indices 1 2 3 4 5 6 
#
# 1 0.019205 0.010344 -0.007834 0.003483 0.002180 0.003477
# 2 0.010344 0.056055 -0.015422 0.000256 0.014231 -0.014529
# 3 -0.007834 -0.015422 0.012218 0.002297 -0.005869 -0.000985
# 4 0.003483 0.000256 0.002297 0.026748 -0.003320 0.008347
# 5 0.002180 0.014231 -0.005869 -0.003320 0.030666 -0.000602
# 6 0.003477 -0.014529 -0.000985 0.008347 -0.000602 0.071825
#
#
# Mechanical properties :
#
#
# Convention : Reuss Voigt Hill
#
# Bulk Modulus (GPa) = 16.21941 51.14532 33.68236
# Shear Modulus (GPa) = 19.00461 32.61510 25.80985
#
# Velocity S-wave (km/s) = 3.01055 3.94390 3.50840
# Velocity P-wave (km/s) = 4.45193 6.71794 5.69870
#
# Compressibility (1/GPa) = 0.06165452
#
# Stress axis : x y z
#
# Youngs Moduli (GPa) = 52.06893 17.83955 81.84339
#
# Poissons Ratio (x) = -0.18453 0.64119
# Poissons Ratio (y) = -0.53860 1.26218
# Poissons Ratio (z) = 0.40792 0.27512
#
# Static dielectric constant tensor:
#      x y z
#    x 1.777010 0.071420 0.057180 
#    y 0.071420 1.837210 0.052320 
#    z 0.057180 0.052320 1.927930 
# 
# From -- ./inp_files/594816.got.cif
#   From: 2010.05.17/outbox.cif.g08.bks.cpg/sg2_298_cif.got.tgz:594816.got - 2010.06.03 11:33:40.
