data_PCOD9076513
_publ_section_title
;
Structure prediction by ZEFSAII (Michael W. Deem and Ramdas Pophale) SiO2 
 PCOD9076513
Probable space group: P -1
;
_chemical_formula_sum "Si O2"
_cell_formula_units_Z 16
_cell_length_a 19.410320
_cell_length_b 8.784528
_cell_length_c 11.416489
_cell_angle_alpha 75.946535
_cell_angle_beta 142.179359
_cell_angle_gamma 73.422674
_cell_volume 691.487484
_symmetry_space_group_name_H-M "P -1"
_symmetry_group_IT_number 2
_symmetry_cell_setting 'triclinic'
loop_
_space_group_symop_operation_xyz
x,y,z
-x,-y,-z
loop_
_atom_site_type_symbol
_atom_site_label
_atom_site_fract_x
_atom_site_fract_y
_atom_site_fract_z
Si Si1 0.388552 0.618643 0.206508
Si Si2 0.105260 0.191455 0.331547
Si Si3 0.383507 0.829603 0.582857
Si Si4 0.911258 0.313093 0.259764
Si Si5 0.284123 0.265421 0.252153
Si Si6 0.762307 0.551544 0.250266
Si Si7 0.687263 0.715521 0.361490
Si Si8 0.417107 0.931517 0.155850
O O1 0.500000 0.500000 0.500000
O O2 0.536032 0.395247 0.348379
O O3 0.216067 0.690126 0.953581
O O4 0.327411 0.863871 0.056585
O O5 0.192397 0.267932 0.443576
O O6 0.224059 0.967210 0.436854
O O7 0.093528 0.122956 0.456890
O O8 0.888402 0.463901 0.957052
O O9 0.562003 0.697774 0.919536
O O10 0.307859 0.058756 0.358539
O O11 0.790866 0.601556 0.001123
O O12 0.906607 0.322479 0.391613
O O13 0.476878 0.134900 0.570076
O O14 0.729022 0.773615 0.138474
O O15 0.792128 0.504280 0.438087
O O16 0.592138 0.729807 0.337110
O O17 0.500000 0.000000 0.000000
#
# Coordination Sequence:
#
# PCOD9076513 Si02
#       8
#     2   2   2   2   2   2   2   2
#     4  11  21  34  50  81 115 144 169 210 267 329
#     4  10  18  33  57  79 105 135 177 231 259 308
#     4  10  19  32  56  76 109 141 181 212 261 318
#     4   9  21  32  53  81 108 138 171 218 273 306
#     4   9  18  32  54  82 103 137 177 220 269 303
#     4   9  19  35  56  82  99 140 188 218 255 304
#     4  10  18  34  59  81  98 135 191 226 250 300
#     4  10  19  33  56  79 110 139 177 217 261 315
#
# _framework density 23.138525999999999
#
# number of rings (size 3 to 8) (size 9 to 14) (size 15 to 20)
#    0.750    1.500    5.000    0.375    1.750    2.000 
#    0.000    5.000    2.750    3.000    0.000    0.000 
#    0.000    0.000    0.000    0.000    0.000    0.000 
#
# Total GULP energy -89287.711290 kJ/mol
# GULP energy per Si atom -5580.481956 kJ/mol
# Density = 2.308586 g / cm^3
# Si number density = 23.138526 Si / 1000 Ang^3
#
#
#
# Elastic Constant Matrix: (Units=GPa)
#
#
# Indices 1 2 3 4 5 6 
#
# 1 93.4998 21.4273 7.4376 6.1492 27.3477 -23.1857
# 2 21.4273 67.5184 7.6951 6.6756 13.8085 -16.7726
# 3 7.4376 7.6951 48.8376 -8.0018 12.8314 -4.6504
# 4 6.1492 6.6756 -8.0018 17.0117 -10.2238 -0.8349
# 5 27.3477 13.8085 12.8314 -10.2238 28.1352 4.1142
# 6 -23.1857 -16.7726 -4.6504 -0.8349 4.1142 37.0074
#
#
#
# Elastic Compliance Matrix: (Units=1/GPa)
#
#
# Indices 1 2 3 4 5 6 
#
# 1 0.070511 0.036751 0.009271 -0.119045 -0.145093 0.075442
# 2 0.036751 0.044082 0.004257 -0.084768 -0.097778 0.052497
# 3 0.009271 0.004257 0.025602 -0.009220 -0.028156 0.013877
# 4 -0.119045 -0.084768 -0.009220 0.298403 0.290385 -0.139712
# 5 -0.145093 -0.097778 -0.028156 0.290385 0.368243 -0.173144
# 6 0.075442 0.052497 0.013877 -0.139712 -0.173144 0.115921
#
#
# Mechanical properties :
#
#
# Convention : Reuss Voigt Hill
#
# Bulk Modulus (GPa) = 4.15364 31.44175 17.79770
# Shear Modulus (GPa) = 5.54045 27.98390 16.76217
#
# Velocity S-wave (km/s) = 1.54909 3.48143 2.69444
# Velocity P-wave (km/s) = 2.23575 5.45696 4.16995
#
# Compressibility (1/GPa) = 0.24075249
#
# Stress axis : x y z
#
# Youngs Moduli (GPa) = 14.18226 22.68522 39.05976
#
# Poissons Ratio (x) = -0.83371 -0.36211
# Poissons Ratio (y) = -0.52121 -0.16629
# Poissons Ratio (z) = -0.13148 -0.09658
#
# Static dielectric constant tensor:
#      x y z
#    x 1.952230 -0.077070 -0.021790 
#    y -0.077070 1.880420 0.009490 
#    z -0.021790 0.009490 1.876210 
# 
# From -- ./inp_files/468910.got.cif
#   From: 2010.05.17/outbox.cif.g08.bks.cpg/sg2_235_cif.got.tgz:468910.got - 2010.06.03 11:33:40.
