data_PCOD9076116
_publ_section_title
;
Structure prediction by ZEFSAII (Michael W. Deem and Ramdas Pophale) SiO2 
 PCOD9076116
Probable space group: P -1
;
_chemical_formula_sum "Si O2"
_cell_formula_units_Z 14
_cell_length_a 13.078544
_cell_length_b 14.720486
_cell_length_c 8.223790
_cell_angle_alpha 52.429043
_cell_angle_beta 123.990715
_cell_angle_gamma 151.987775
_cell_volume 588.457180
_symmetry_space_group_name_H-M "P -1"
_symmetry_group_IT_number 2
_symmetry_cell_setting 'triclinic'
loop_
_space_group_symop_operation_xyz
x,y,z
-x,-y,-z
loop_
_atom_site_type_symbol
_atom_site_label
_atom_site_fract_x
_atom_site_fract_y
_atom_site_fract_z
Si Si1 0.377950 0.314357 0.703432
Si Si2 0.847060 0.753532 0.152094
Si Si3 0.537784 0.686097 0.869961
Si Si4 0.195789 0.734281 0.871096
Si Si5 0.592132 0.908885 0.161165
Si Si6 0.653707 0.264715 0.524725
Si Si7 0.115159 0.751489 0.416733
O O1 0.500000 0.500000 0.500000
O O2 0.177737 0.228813 0.701610
O O3 0.331404 0.159529 0.740842
O O4 0.512216 0.379375 0.914269
O O5 0.632377 0.511789 0.180069
O O6 0.051380 0.830242 0.217107
O O7 0.780186 0.817110 0.924537
O O8 0.502603 0.790165 0.680981
O O9 0.169297 0.774456 0.629554
O O10 0.221987 0.854812 0.897007
O O11 0.414691 0.825708 0.971528
O O12 0.000000 0.500000 0.000000
O O13 0.455810 0.803555 0.323839
O O14 0.711097 0.181389 0.611152
O O15 0.885083 0.507008 0.462975
#
# Coordination Sequence:
#
# PCOD9076116 Si02
#       7
#     2   2   2   2   2   2   2
#     4  10  18  32  61  94 130 172 213 265 320 391
#     4   8  17  32  54  90 127 169 213 255 325 386
#     4   8  16  31  55  91 125 174 215 256 325 387
#     4  11  24  43  66  92 133 170 216 287 330 383
#     4  11  24  40  64 100 129 171 226 262 335 402
#     4  10  19  35  62  94 126 170 223 263 323 390
#     4  10  19  36  61  93 128 168 215 273 317 381
#
# _framework density 23.791025999999999
#
# number of rings (size 3 to 8) (size 9 to 14) (size 15 to 20)
#    0.857    1.429    1.429    2.571    0.000    0.571 
#    0.000    0.714    0.000    0.857    0.000    0.000 
#    0.000    0.143    0.000    0.000    0.000    0.000 
#
# Total GULP energy -78169.744035 kJ/mol
# GULP energy per Si atom -5583.553145 kJ/mol
# Density = 2.373688 g / cm^3
# Si number density = 23.791026 Si / 1000 Ang^3
#
#
#
# Elastic Constant Matrix: (Units=GPa)
#
#
# Indices 1 2 3 4 5 6 
#
# 1 159.1197 46.7283 60.5633 2.3021 25.6383 -30.7243
# 2 46.7283 113.3850 26.0827 -15.1409 3.0000 -11.0614
# 3 60.5633 26.0827 133.3537 2.7054 22.0806 8.0237
# 4 2.3021 -15.1409 2.7054 37.4518 6.8674 8.9794
# 5 25.6383 3.0000 22.0806 6.8674 44.5620 -6.1276
# 6 -30.7243 -11.0614 8.0237 8.9794 -6.1276 38.9448
#
#
#
# Elastic Compliance Matrix: (Units=1/GPa)
#
#
# Indices 1 2 3 4 5 6 
#
# 1 0.011104 -0.003011 -0.004597 -0.003414 -0.002102 0.009308
# 2 -0.003011 0.010866 -0.000980 0.004504 0.000792 -0.000001
# 3 -0.004597 -0.000980 0.010812 0.001511 -0.003854 -0.007087
# 4 -0.003414 0.004504 0.001511 0.031996 -0.005387 -0.009950
# 5 -0.002102 0.000792 -0.003854 -0.005387 0.027004 0.004852
# 6 0.009308 -0.000001 -0.007087 -0.009950 0.004852 0.037538
#
#
# Mechanical properties :
#
#
# Convention : Reuss Voigt Hill
#
# Bulk Modulus (GPa) = 64.07722 74.73411 69.40567
# Shear Modulus (GPa) = 32.96015 42.35732 37.65874
#
# Velocity S-wave (km/s) = 3.72614 4.22405 3.98288
# Velocity P-wave (km/s) = 6.74566 7.43445 7.09841
#
# Compressibility (1/GPa) = 0.01560617
#
# Stress axis : x y z
#
# Youngs Moduli (GPa) = 90.05972 92.02785 92.48813
#
# Poissons Ratio (x) = 0.27709 0.42514
# Poissons Ratio (y) = 0.27116 0.09068
# Poissons Ratio (z) = 0.41398 0.09023
#
# Static dielectric constant tensor:
#      x y z
#    x 1.902490 -0.035290 0.036090 
#    y -0.035290 1.980460 -0.005610 
#    z 0.036090 -0.005610 1.907010 
# 
# From -- ./inp_files/312845.got.cif
#   From: 2010.05.17/outbox.cif.g08.bks.cpg/sg2_157_cif.got.tgz:312845.got - 2010.06.03 11:33:40.
