data_PCOD9076154
_publ_section_title
;
Structure prediction by ZEFSAII (Michael W. Deem and Ramdas Pophale) SiO2 
 PCOD9076154
Probable space group: P -1
;
_chemical_formula_sum "Si O2"
_cell_formula_units_Z 16
_cell_length_a 5.651055
_cell_length_b 15.800729
_cell_length_c 12.103674
_cell_angle_alpha 41.848030
_cell_angle_beta 111.600010
_cell_angle_gamma 95.516730
_cell_volume 642.172821
_symmetry_space_group_name_H-M "P -1"
_symmetry_group_IT_number 2
_symmetry_cell_setting 'triclinic'
loop_
_space_group_symop_operation_xyz
x,y,z
-x,-y,-z
loop_
_atom_site_type_symbol
_atom_site_label
_atom_site_fract_x
_atom_site_fract_y
_atom_site_fract_z
Si Si1 0.348610 0.064373 0.796771
Si Si2 0.098482 0.860701 0.859995
Si Si3 0.794517 0.704215 0.843369
Si Si4 0.716305 0.557912 0.767104
Si Si5 0.562749 0.647398 0.066959
Si Si6 0.140003 0.939862 0.196007
Si Si7 0.073778 0.344329 0.691506
Si Si8 0.507238 0.641311 0.413464
O O1 0.293889 0.955298 0.807865
O O2 0.043629 0.138106 0.700995
O O3 0.554553 0.125314 0.712891
O O4 0.500000 0.000000 0.000000
O O5 0.320413 0.719244 0.036808
O O6 0.913940 0.827478 0.764246
O O7 0.905171 0.930881 0.857795
O O8 0.560615 0.713076 0.883299
O O9 0.017284 0.564282 0.048732
O O10 0.717428 0.676897 0.733681
O O11 0.471085 0.497898 0.811859
O O12 0.674961 0.601830 0.591849
O O13 0.819705 0.661556 0.160064
O O14 0.000000 0.000000 0.000000
O O15 0.328607 0.289343 0.707461
O O16 0.000000 0.500000 0.500000
O O17 0.811752 0.294803 0.688372
O O18 0.500000 0.500000 0.500000
#
# Coordination Sequence:
#
# PCOD9076154 Si02
#       8
#     2   2   2   2   2   2   2   2
#     4   8  14  26  43  61  84 117 151 176 217 272
#     4   9  19  27  43  66  93 124 152 188 230 271
#     4  10  20  31  42  65  96 125 163 188 236 272
#     4  10  20  31  46  62  87 131 164 202 225 276
#     4  11  19  30  45  65  94 125 160 199 229 278
#     4   8  14  26  43  61  83 115 150 175 216 274
#     4  10  19  30  50  63  83 113 161 199 237 265
#     4  10  18  33  48  66  78 111 165 202 236 264
#
# _framework density 24.915410999999999
#
# number of rings (size 3 to 8) (size 9 to 14) (size 15 to 20)
#    0.750    1.750    2.500    2.625    1.750    0.000 
#    0.000    0.000    0.000    0.000    0.000    0.000 
#    0.000    0.000    0.000    6.750    0.500    0.750 
#
# Total GULP energy -89147.943897 kJ/mol
# GULP energy per Si atom -5571.746494 kJ/mol
# Density = 2.485870 g / cm^3
# Si number density = 24.915411 Si / 1000 Ang^3
#
#
#
# Elastic Constant Matrix: (Units=GPa)
#
#
# Indices 1 2 3 4 5 6 
#
# 1 187.1754 49.1217 16.0524 20.5794 17.5595 2.3935
# 2 49.1217 114.1703 30.1769 34.7604 8.5329 12.5417
# 3 16.0524 30.1769 70.5450 36.6692 -0.8807 -4.6745
# 4 20.5794 34.7604 36.6692 51.5535 0.2142 6.6565
# 5 17.5595 8.5329 -0.8807 0.2142 16.3700 3.6145
# 6 2.3935 12.5417 -4.6745 6.6565 3.6145 53.2589
#
#
#
# Elastic Compliance Matrix: (Units=1/GPa)
#
#
# Indices 1 2 3 4 5 6 
#
# 1 0.006596 -0.002067 0.000067 -0.001362 -0.006149 0.000784
# 2 -0.002067 0.012481 -0.001982 -0.005903 -0.003872 -0.002020
# 3 0.000067 -0.001982 0.023710 -0.016137 0.001463 0.004462
# 4 -0.001362 -0.005903 -0.016137 0.035995 0.004248 -0.004752
# 5 -0.006149 -0.003872 0.001463 0.004248 0.070609 -0.004007
# 6 0.000784 -0.002020 0.004462 -0.004752 -0.004007 0.020474
#
#
# Mechanical properties :
#
#
# Convention : Reuss Voigt Hill
#
# Bulk Modulus (GPa) = 28.71804 62.51029 45.61417
# Shear Modulus (GPa) = 26.39384 42.67247 34.53316
#
# Velocity S-wave (km/s) = 3.25828 4.14296 3.72696
# Velocity P-wave (km/s) = 5.07015 6.93029 6.07188
#
# Compressibility (1/GPa) = 0.03482132
#
# Stress axis : x y z
#
# Youngs Moduli (GPa) = 151.60590 80.12347 42.17642
#
# Poissons Ratio (x) = 0.16564 -0.00281
# Poissons Ratio (y) = 0.31342 0.08359
# Poissons Ratio (z) = -0.01011 0.15881
#
# Static dielectric constant tensor:
#      x y z
#    x 2.118310 -0.091000 -0.012810 
#    y -0.091000 2.131640 0.066400 
#    z -0.012810 0.066400 1.942260 
# 
# From -- ./inp_files/79806.got.cif
#   From: 2010.05.17/outbox.cif.g08.bks.cpg/sg2_40_cif.got.tgz:79806.got - 2010.06.03 11:33:40.
