data_PCOD9076767
_publ_section_title
;
Structure prediction by ZEFSAII (Michael W. Deem and Ramdas Pophale) SiO2 
 PCOD9076767
Probable space group: P -1
;
_chemical_formula_sum "Si O2"
_cell_formula_units_Z 16
_cell_length_a 12.994576
_cell_length_b 7.723462
_cell_length_c 12.007606
_cell_angle_alpha 110.141462
_cell_angle_beta 44.861938
_cell_angle_gamma 124.291936
_cell_volume 699.192123
_symmetry_space_group_name_H-M "P -1"
_symmetry_group_IT_number 2
_symmetry_cell_setting 'triclinic'
loop_
_space_group_symop_operation_xyz
x,y,z
-x,-y,-z
loop_
_atom_site_type_symbol
_atom_site_label
_atom_site_fract_x
_atom_site_fract_y
_atom_site_fract_z
Si Si1 0.317210 0.881142 0.859978
Si Si2 0.684012 0.218451 0.407688
Si Si3 0.147879 0.887801 0.561946
Si Si4 0.534942 0.273845 0.091371
Si Si5 0.771479 0.183312 0.756336
Si Si6 0.020173 0.845596 0.223491
Si Si7 0.477853 0.323502 0.732987
Si Si8 0.327598 0.304354 0.618410
O O1 0.385604 0.773551 0.870378
O O2 0.159532 0.309913 0.723539
O O3 0.276812 0.762897 0.747521
O O4 0.158487 0.883041 0.035624
O O5 0.639086 0.373610 0.546101
O O6 0.500000 0.000000 0.500000
O O7 0.832373 0.216916 0.364316
O O8 0.555695 0.872562 0.206804
O O9 0.999233 0.946703 0.688533
O O10 0.308416 0.119473 0.508427
O O11 0.171670 0.792928 0.409354
O O12 0.513647 0.477577 0.168189
O O13 0.357971 0.062415 0.168691
O O14 0.664366 0.295768 0.899651
O O15 0.928932 0.238966 0.726211
O O16 0.334529 0.251539 0.731138
O O17 0.500000 0.500000 0.500000
#
# Coordination Sequence:
#
# PCOD9076767 Si02
#       8
#     2   2   2   2   2   2   2   2
#     4  10  20  40  62  94 137 161 213 258 327 384
#     4  10  18  33  59  94 120 169 204 260 320 372
#     4  10  19  35  61  87 122 166 211 253 314 382
#     4  10  23  37  65  96 123 171 213 265 307 378
#     4  10  19  40  60  89 128 172 220 249 310 379
#     4   9  21  37  62  89 125 182 199 260 328 372
#     4  11  22  37  64 100 124 163 213 266 328 363
#     4  10  21  34  62  97 121 155 215 263 320 382
#
# _framework density 22.883554
#
# number of rings (size 3 to 8) (size 9 to 14) (size 15 to 20)
#    0.750    1.250    2.500    2.625    1.750    2.000 
#    0.000   12.500    5.500    1.500    0.000    0.000 
#    0.000    0.000    0.000    0.000    0.000    0.000 
#
# Total GULP energy -89306.881412 kJ/mol
# GULP energy per Si atom -5581.680088 kJ/mol
# Density = 2.283147 g / cm^3
# Si number density = 22.883554 Si / 1000 Ang^3
#
#
#
# Elastic Constant Matrix: (Units=GPa)
#
#
# Indices 1 2 3 4 5 6 
#
# 1 70.4487 5.4377 16.6700 -5.3463 3.8288 7.9813
# 2 5.4377 21.1582 23.2421 12.2432 -5.6892 -10.7986
# 3 16.6700 23.2421 148.4906 23.4579 7.2639 -6.9182
# 4 -5.3463 12.2432 23.4579 39.2266 -1.7763 -8.7516
# 5 3.8288 -5.6892 7.2639 -1.7763 39.5084 -0.5079
# 6 7.9813 -10.7986 -6.9182 -8.7516 -0.5079 22.4561
#
#
#
# Elastic Compliance Matrix: (Units=1/GPa)
#
#
# Indices 1 2 3 4 5 6 
#
# 1 0.017033 -0.011826 -0.001056 0.004157 -0.003108 -0.010516
# 2 -0.011826 0.096183 -0.010153 -0.015510 0.016701 0.041661
# 3 -0.001056 -0.010153 0.008954 -0.003155 -0.003187 -0.003050
# 4 0.004157 -0.015510 -0.003155 0.033460 -0.000512 0.003121
# 5 -0.003108 0.016701 -0.003187 -0.000512 0.028691 0.008604
# 6 -0.010516 0.041661 -0.003050 0.003121 0.008604 0.068774
#
#
# Mechanical properties :
#
#
# Convention : Reuss Voigt Hill
#
# Bulk Modulus (GPa) = 13.14045 36.75522 24.94783
# Shear Modulus (GPa) = 15.40678 33.22138 24.31408
#
# Velocity S-wave (km/s) = 2.59756 3.81433 3.26316
# Velocity P-wave (km/s) = 3.84073 5.95781 5.01232
#
# Compressibility (1/GPa) = 0.07610090
#
# Stress axis : x y z
#
# Youngs Moduli (GPa) = 58.70907 10.39680 111.67836
#
# Poissons Ratio (x) = 0.12295 0.11791
# Poissons Ratio (y) = 0.69430 1.13388
# Poissons Ratio (z) = 0.06198 0.10556
#
# Static dielectric constant tensor:
#      x y z
#    x 1.925670 -0.073180 -0.003530 
#    y -0.073180 2.016710 0.009190 
#    z -0.003530 0.009190 1.872540 
# 
# From -- ./inp_files/463172.got.cif
#   From: 2010.05.17/outbox.cif.g08.bks.cpg/sg2_232_cif.got.tgz:463172.got - 2010.06.03 11:33:40.
