data_PCOD9076479
_publ_section_title
;
Structure prediction by ZEFSAII (Michael W. Deem and Ramdas Pophale) SiO2 
 PCOD9076479
Probable space group: P -1
;
_chemical_formula_sum "Si O2"
_cell_formula_units_Z 16
_cell_length_a 10.641600
_cell_length_b 16.727741
_cell_length_c 10.269674
_cell_angle_alpha 73.375145
_cell_angle_beta 50.875460
_cell_angle_gamma 114.031275
_cell_volume 831.923989
_symmetry_space_group_name_H-M "P -1"
_symmetry_group_IT_number 2
_symmetry_cell_setting 'triclinic'
loop_
_space_group_symop_operation_xyz
x,y,z
-x,-y,-z
loop_
_atom_site_type_symbol
_atom_site_label
_atom_site_fract_x
_atom_site_fract_y
_atom_site_fract_z
Si Si1 0.057235 0.924675 0.979959
Si Si2 0.624102 0.195492 0.509718
Si Si3 0.860148 0.532684 0.050591
Si Si4 0.586271 0.152592 0.854528
Si Si5 0.309642 0.616359 0.269094
Si Si6 0.503707 0.340799 0.597749
Si Si7 0.931104 0.153350 0.709087
Si Si8 0.495737 0.403257 0.096439
O O1 0.038844 0.873339 0.156044
O O2 0.814866 0.786141 0.123571
O O3 0.366173 0.049329 0.680048
O O4 0.000000 0.000000 0.000000
O O5 0.653173 0.170100 0.648336
O O6 0.561974 0.268484 0.546486
O O7 0.893748 0.303589 0.201181
O O8 0.645195 0.454966 0.342467
O O9 0.706415 0.472834 0.041775
O O10 0.000000 0.500000 0.000000
O O11 0.574062 0.244193 0.851787
O O12 0.813535 0.198733 0.764894
O O13 0.303462 0.994761 0.136471
O O14 0.365564 0.592135 0.379160
O O15 0.000000 0.500000 0.500000
O O16 0.435142 0.623634 0.060374
O O17 0.207621 0.264365 0.404284
O O18 0.500000 0.500000 0.000000
#
# Coordination Sequence:
#
# PCOD9076479 Si02
#       8
#     2   2   2   2   2   2   2   2
#     4   9  16  30  52  84 113 151 198 239 293 350
#     4   8  15  27  51  80 110 150 194 234 283 359
#     4  10  18  33  56  85 114 153 205 242 294 367
#     4   9  19  36  58  88 123 158 197 243 319 358
#     4  11  22  39  59  85 127 160 194 254 314 358
#     4   9  17  32  53  79 112 149 196 239 291 350
#     4  10  19  35  61  91 118 159 204 250 290 376
#     4  12  24  38  63  92 121 158 212 256 301 360
#
# _framework density 19.232527000000001
#
# number of rings (size 3 to 8) (size 9 to 14) (size 15 to 20)
#    0.000    2.250    1.250    4.500    0.000    0.500 
#    0.000    0.625    2.750    0.000    0.000    4.375 
#    0.000    0.000    0.000    0.000    0.000    0.000 
#
# Total GULP energy -89207.842118 kJ/mol
# GULP energy per Si atom -5575.490132 kJ/mol
# Density = 1.918875 g / cm^3
# Si number density = 19.232527 Si / 1000 Ang^3
#
#
#
# Elastic Constant Matrix: (Units=GPa)
#
#
# Indices 1 2 3 4 5 6 
#
# 1 100.1261 25.3212 32.1594 -0.9066 9.3987 21.3476
# 2 25.3212 42.2654 44.9451 -5.4487 -2.4793 18.4848
# 3 32.1594 44.9451 138.7678 -33.5447 -2.1980 22.2050
# 4 -0.9066 -5.4487 -33.5447 23.5448 6.4407 -2.9569
# 5 9.3987 -2.4793 -2.1980 6.4407 28.8625 -7.2937
# 6 21.3476 18.4848 22.2050 -2.9569 -7.2937 34.4768
#
#
#
# Elastic Compliance Matrix: (Units=1/GPa)
#
#
# Indices 1 2 3 4 5 6 
#
# 1 0.013466 -0.004763 -0.000814 -0.000844 -0.006355 -0.006676
# 2 -0.004763 0.046768 -0.015358 -0.014006 0.004362 -0.012512
# 3 -0.000814 -0.015358 0.018415 0.023887 -0.005550 -0.002247
# 4 -0.000844 -0.014006 0.023887 0.077467 -0.017511 -0.004413
# 5 -0.006355 0.004362 -0.005550 -0.017511 0.043847 0.012945
# 6 -0.006676 -0.012512 -0.002247 -0.004413 0.012945 0.043655
#
#
# Mechanical properties :
#
#
# Convention : Reuss Voigt Hill
#
# Bulk Modulus (GPa) = 27.19021 54.00118 40.59570
# Shear Modulus (GPa) = 16.79268 29.29241 23.04255
#
# Velocity S-wave (km/s) = 2.95810 3.90688 3.46512
# Velocity P-wave (km/s) = 5.08286 6.96352 6.09615
#
# Compressibility (1/GPa) = 0.03677794
#
# Stress axis : x y z
#
# Youngs Moduli (GPa) = 74.26184 21.38216 54.30262
#
# Poissons Ratio (x) = 0.10184 0.04422
# Poissons Ratio (y) = 0.35371 0.83399
# Poissons Ratio (z) = 0.06048 0.32839
#
# Static dielectric constant tensor:
#      x y z
#    x 2.699580 -0.876110 -0.116230 
#    y -0.876110 2.413080 0.054460 
#    z -0.116230 0.054460 1.690020 
# 
# From -- ./inp_files/279375.got.cif
#   From: 2010.05.17/outbox.cif.g08.bks.cpg/sg2_140_cif.got.tgz:279375.got - 2010.06.03 11:33:40.
