data_PCOD9076185
_publ_section_title
;
Structure prediction by ZEFSAII (Michael W. Deem and Ramdas Pophale) SiO2 
 PCOD9076185
Probable space group: P -1
;
_chemical_formula_sum "Si O2"
_cell_formula_units_Z 16
_cell_length_a 7.521787
_cell_length_b 9.641770
_cell_length_c 13.794554
_cell_angle_alpha 69.208614
_cell_angle_beta 117.453091
_cell_angle_gamma 101.783627
_cell_volume 828.962381
_symmetry_space_group_name_H-M "P -1"
_symmetry_group_IT_number 2
_symmetry_cell_setting 'triclinic'
loop_
_space_group_symop_operation_xyz
x,y,z
-x,-y,-z
loop_
_atom_site_type_symbol
_atom_site_label
_atom_site_fract_x
_atom_site_fract_y
_atom_site_fract_z
Si Si1 0.801511 0.571186 0.047335
Si Si2 0.029295 0.027070 0.887008
Si Si3 0.753734 0.040550 0.292572
Si Si4 0.421456 0.829393 0.600632
Si Si5 0.591718 0.351549 0.178850
Si Si6 0.578752 0.866455 0.117977
Si Si7 0.194685 0.967069 0.355388
Si Si8 0.173811 0.710049 0.016568
O O1 0.710972 0.502485 0.140552
O O2 0.012491 0.662510 0.071168
O O3 0.624313 0.653449 0.926987
O O4 0.828857 0.423582 0.026275
O O5 0.205078 0.149829 0.874011
O O6 0.844789 0.056637 0.763245
O O7 0.099671 0.863197 0.915084
O O8 0.000000 0.000000 0.000000
O O9 0.683958 0.051726 0.383703
O O10 0.705776 0.207873 0.206755
O O11 0.981756 0.001050 0.341440
O O12 0.621807 0.926646 0.221615
O O13 0.424578 0.680944 0.702632
O O14 0.646148 0.894747 0.626097
O O15 0.294740 0.832681 0.470014
O O16 0.401359 0.741898 0.100998
O O17 0.500000 0.000000 0.000000
#
# Coordination Sequence:
#
# PCOD9076185 Si02
#       8
#     2   2   2   2   2   2   2   2
#     4  10  19  34  47  73 104 144 179 223 250 310
#     4  10  21  32  54  80 113 137 168 215 275 327
#     4   9  19  34  52  77 113 131 172 219 268 321
#     4   9  20  31  54  80 111 139 172 218 263 327
#     4   9  19  31  52  71 105 139 175 218 268 301
#     4   9  18  31  48  74 104 141 163 213 270 321
#     4  10  18  33  51  82 114 138 169 209 276 330
#     4  10  21  31  49  74 108 138 178 212 269 308
#
# _framework density 19.30124
#
# number of rings (size 3 to 8) (size 9 to 14) (size 15 to 20)
#    0.750    1.750    0.000    3.375    3.500    3.000 
#    0.000    0.000    0.000    0.000    0.000   12.250 
#    0.000    0.000    0.000    0.000    0.000    0.000 
#
# Total GULP energy -89090.704686 kJ/mol
# GULP energy per Si atom -5568.169043 kJ/mol
# Density = 1.925731 g / cm^3
# Si number density = 19.301240 Si / 1000 Ang^3
#
#
#
# Elastic Constant Matrix: (Units=GPa)
#
#
# Indices 1 2 3 4 5 6 
#
# 1 78.5277 26.2722 33.5986 5.7286 8.5128 28.3308
# 2 26.2722 53.3635 23.8389 -1.1419 7.1052 24.5782
# 3 33.5986 23.8389 131.6501 -4.5711 -3.6449 18.9726
# 4 5.7286 -1.1419 -4.5711 24.0867 0.8330 -1.7753
# 5 8.5128 7.1052 -3.6449 0.8330 25.1904 4.0408
# 6 28.3308 24.5782 18.9726 -1.7753 4.0408 34.5436
#
#
#
# Elastic Compliance Matrix: (Units=1/GPa)
#
#
# Indices 1 2 3 4 5 6 
#
# 1 0.020654 -0.002012 -0.003312 -0.006475 -0.004513 -0.013494
# 2 -0.002012 0.029543 -0.002464 0.000311 -0.005230 -0.017389
# 3 -0.003312 -0.002464 0.009173 0.002240 0.003200 -0.000828
# 4 -0.006475 0.000311 0.002240 0.043948 -0.000010 0.006119
# 5 -0.004513 -0.005230 0.003200 -0.000010 0.043061 0.000628
# 6 -0.013494 -0.017389 -0.000828 0.006119 0.000628 0.053084
#
#
# Mechanical properties :
#
#
# Convention : Reuss Voigt Hill
#
# Bulk Modulus (GPa) = 22.83403 47.88453 35.35928
# Shear Modulus (GPa) = 21.77356 28.75293 25.26325
#
# Velocity S-wave (km/s) = 3.36235 3.86384 3.62179
# Velocity P-wave (km/s) = 5.18940 6.69093 5.98742
#
# Compressibility (1/GPa) = 0.04379429
#
# Stress axis : x y z
#
# Youngs Moduli (GPa) = 48.41599 33.84940 109.01503
#
# Poissons Ratio (x) = 0.06809 0.36106
# Poissons Ratio (y) = 0.09740 0.26863
# Poissons Ratio (z) = 0.16036 0.08341
#
# Static dielectric constant tensor:
#      x y z
#    x 1.778270 -0.006940 -0.038800 
#    y -0.006940 1.698950 0.013840 
#    z -0.038800 0.013840 1.704750 
# 
# From -- ./inp_files/494746.got.cif
#   From: 2010.05.17/outbox.cif.g08.bks.cpg/sg2_248_cif.got.tgz:494746.got - 2010.06.03 11:33:40.
