data_PCOD9076952
_publ_section_title
;
Structure prediction by ZEFSAII (Michael W. Deem and Ramdas Pophale) SiO2 
 PCOD9076952
Probable space group: P -1
;
_chemical_formula_sum "Si O2"
_cell_formula_units_Z 16
_cell_length_a 14.281683
_cell_length_b 11.632040
_cell_length_c 19.427372
_cell_angle_alpha 34.297593
_cell_angle_beta 28.561077
_cell_angle_gamma 29.489074
_cell_volume 733.070907
_symmetry_space_group_name_H-M "P -1"
_symmetry_group_IT_number 2
_symmetry_cell_setting 'triclinic'
loop_
_space_group_symop_operation_xyz
x,y,z
-x,-y,-z
loop_
_atom_site_type_symbol
_atom_site_label
_atom_site_fract_x
_atom_site_fract_y
_atom_site_fract_z
Si Si1 0.154830 0.683406 0.190035
Si Si2 0.497314 0.168265 0.156043
Si Si3 0.809904 0.886115 0.425077
Si Si4 0.683084 0.936457 0.808935
Si Si5 0.120395 0.863396 0.333332
Si Si6 0.498768 0.326755 0.313434
Si Si7 0.187524 0.262715 0.037179
Si Si8 0.216995 0.977600 0.833193
O O1 0.318825 0.423792 0.180032
O O2 0.061810 0.714308 0.311492
O O3 0.908363 0.811083 0.245736
O O4 0.299329 0.811716 0.022807
O O5 0.366352 0.112768 0.210673
O O6 0.627859 0.999350 0.221296
O O7 0.656079 0.778448 0.559223
O O8 0.883151 0.880681 0.459346
O O9 0.673587 0.150802 0.347193
O O10 0.777944 0.716528 0.912867
O O11 0.849346 0.038602 0.662072
O O12 0.434469 0.141090 0.900455
O O13 0.339586 0.594946 0.311664
O O14 0.125950 0.056252 0.182577
O O15 0.648301 0.272060 0.173880
O O16 0.000000 0.500000 0.000000
O O17 0.000000 0.000000 0.000000
#
# Coordination Sequence:
#
# PCOD9076952 Si02
#       8
#     2   2   2   2   2   2   2   2
#     4   9  19  32  54  79 108 146 188 224 284 327
#     4  10  18  34  52  79 115 144 179 234 276 338
#     4  10  20  35  58  83 109 149 187 239 276 328
#     4   9  21  33  50  80 110 146 186 223 282 338
#     4  10  20  33  54  80 113 145 183 231 282 332
#     4  10  21  36  57  84 113 142 192 233 280 331
#     4   9  20  35  49  76 111 148 184 229 276 332
#     4   9  19  34  52  81 108 146 180 226 283 334
#
# _framework density 21.825993
#
# number of rings (size 3 to 8) (size 9 to 14) (size 15 to 20)
#    0.750    1.750    0.000    1.875    1.750    3.000 
#    0.000    0.000    0.000    3.000    0.000    5.250 
#    0.000    0.000    0.000    0.000    0.000    0.000 
#
# Total GULP energy -89156.085239 kJ/mol
# GULP energy per Si atom -5572.255327 kJ/mol
# Density = 2.177632 g / cm^3
# Si number density = 21.825993 Si / 1000 Ang^3
#
#
#
# Elastic Constant Matrix: (Units=GPa)
#
#
# Indices 1 2 3 4 5 6 
#
# 1 181.5491 49.9575 7.5702 -7.9693 -21.6181 -7.4581
# 2 49.9575 82.5270 11.0704 -4.6282 -1.4385 -19.6078
# 3 7.5702 11.0704 38.8391 7.0147 -13.2349 6.5443
# 4 -7.9693 -4.6282 7.0147 18.7294 -2.9085 -2.8654
# 5 -21.6181 -1.4385 -13.2349 -2.9085 28.1665 -5.6081
# 6 -7.4581 -19.6078 6.5443 -2.8654 -5.6081 31.2163
#
#
#
# Elastic Compliance Matrix: (Units=1/GPa)
#
#
# Indices 1 2 3 4 5 6 
#
# 1 0.007593 -0.004542 0.001604 0.002544 0.006622 0.000048
# 2 -0.004542 0.019755 -0.009668 0.008085 -0.003505 0.013463
# 3 0.001604 -0.009668 0.038066 -0.015620 0.014523 -0.012495
# 4 0.002544 0.008085 -0.015620 0.065518 0.004950 0.015864
# 5 0.006622 -0.003505 0.014523 0.004950 0.048850 0.005566
# 6 0.000048 0.013463 -0.012495 0.015864 0.005566 0.045578
#
#
# Mechanical properties :
#
#
# Convention : Reuss Voigt Hill
#
# Bulk Modulus (GPa) = 24.87593 48.90130 36.88861
# Shear Modulus (GPa) = 18.94131 31.24359 25.09245
#
# Velocity S-wave (km/s) = 2.94910 3.78760 3.39434
# Velocity P-wave (km/s) = 4.79774 6.44838 5.68331
#
# Compressibility (1/GPa) = 0.04019951
#
# Stress axis : x y z
#
# Youngs Moduli (GPa) = 131.69538 50.62052 26.27041
#
# Poissons Ratio (x) = 0.22993 -0.04213
# Poissons Ratio (y) = 0.59819 0.25400
# Poissons Ratio (z) = -0.21119 0.48942
#
# Static dielectric constant tensor:
#      x y z
#    x 1.971600 -0.041050 0.029190 
#    y -0.041050 1.802260 -0.028900 
#    z 0.029190 -0.028900 1.880430 
# 
# From -- ./inp_files/597689.got.cif
#   From: 2010.05.17/outbox.cif.g08.bks.cpg/sg2_299_cif.got.tgz:597689.got - 2010.06.03 11:33:40.
