data_PCOD9076118
_publ_section_title
;
Structure prediction by ZEFSAII (Michael W. Deem and Ramdas Pophale) SiO2 
 PCOD9076118
Probable space group: P -1
;
_chemical_formula_sum "Si O2"
_cell_formula_units_Z 14
_cell_length_a 10.058237
_cell_length_b 9.387823
_cell_length_c 11.271923
_cell_angle_alpha 116.357787
_cell_angle_beta 96.925901
_cell_angle_gamma 134.073854
_cell_volume 510.475293
_symmetry_space_group_name_H-M "P -1"
_symmetry_group_IT_number 2
_symmetry_cell_setting 'triclinic'
loop_
_space_group_symop_operation_xyz
x,y,z
-x,-y,-z
loop_
_atom_site_type_symbol
_atom_site_label
_atom_site_fract_x
_atom_site_fract_y
_atom_site_fract_z
Si Si1 0.582140 0.898132 0.323513
Si Si2 0.229632 0.407757 0.469819
Si Si3 0.044132 0.442852 0.100907
Si Si4 0.816541 0.145180 0.189631
Si Si5 0.502017 0.550977 0.882780
Si Si6 0.991981 0.784275 0.381675
Si Si7 0.226411 0.068521 0.257059
O O1 0.535311 0.660261 0.257252
O O2 0.627359 0.980166 0.218072
O O3 0.840247 0.184473 0.524572
O O4 0.331688 0.733569 0.273862
O O5 0.068550 0.188928 0.485884
O O6 0.259255 0.290029 0.340852
O O7 0.500234 0.729647 0.661943
O O8 0.076600 0.384366 0.374239
O O9 0.979431 0.203975 0.952993
O O10 0.855513 0.292442 0.132559
O O11 0.000000 0.500000 0.000000
O O12 0.744301 0.902335 0.033983
O O13 0.281555 0.452857 0.789152
O O14 0.500000 0.500000 0.000000
O O15 0.150929 0.956769 0.342204
#
# Coordination Sequence:
#
# PCOD9076118 Si02
#       7
#     2   2   2   2   2   2   2
#     4  10  21  38  62  89 123 162 201 256 313 361
#     4  10  21  36  63  98 121 151 193 254 330 377
#     4  12  27  43  60  85 123 175 221 250 288 355
#     4  10  21  39  60  88 123 154 205 259 309 371
#     4  10  18  32  61  96 124 153 188 244 320 378
#     4  11  20  36  61  95 130 152 187 246 318 386
#     4  11  21  36  61  90 125 158 194 251 313 366
#
# _framework density 27.425421
#
# number of rings (size 3 to 8) (size 9 to 14) (size 15 to 20)
#    0.000    1.429    0.000    8.571    0.000    5.143 
#    0.000    2.857    0.000    6.000    0.000    0.000 
#    0.000    0.000    0.000    0.000    0.000    0.000 
#
# Total GULP energy -78083.557903 kJ/mol
# GULP energy per Si atom -5577.396993 kJ/mol
# Density = 2.736300 g / cm^3
# Si number density = 27.425421 Si / 1000 Ang^3
#
#
#
# Elastic Constant Matrix: (Units=GPa)
#
#
# Indices 1 2 3 4 5 6 
#
# 1 72.1495 28.5738 39.4227 9.2916 6.0792 6.9265
# 2 28.5738 194.4095 23.8159 -42.5667 8.7047 16.5733
# 3 39.4227 23.8159 116.2241 -1.9004 19.5872 -4.9469
# 4 9.2916 -42.5667 -1.9004 39.7447 3.1887 8.5483
# 5 6.0792 8.7047 19.5872 3.1887 49.8739 4.3387
# 6 6.9265 16.5733 -4.9469 8.5483 4.3387 28.0360
#
#
#
# Elastic Compliance Matrix: (Units=1/GPa)
#
#
# Indices 1 2 3 4 5 6 
#
# 1 0.020262 -0.004258 -0.006449 -0.009520 0.001498 -0.000956
# 2 -0.004258 0.009424 -0.000456 0.012954 -0.001045 -0.008387
# 3 -0.006449 -0.000456 0.011792 0.000998 -0.004202 0.004289
# 4 -0.009520 0.012954 0.000998 0.045528 -0.002787 -0.018580
# 5 0.001498 -0.001045 -0.004202 -0.002787 0.022146 -0.003071
# 6 -0.000956 -0.008387 0.004289 -0.018580 -0.003071 0.047760
#
#
# Mechanical properties :
#
#
# Convention : Reuss Voigt Hill
#
# Bulk Modulus (GPa) = 52.21411 62.93420 57.57415
# Shear Modulus (GPa) = 26.93664 42.92897 34.93281
#
# Velocity S-wave (km/s) = 3.13737 3.96068 3.57282
# Velocity P-wave (km/s) = 5.67486 6.62670 6.16917
#
# Compressibility (1/GPa) = 0.01915191
#
# Stress axis : x y z
#
# Youngs Moduli (GPa) = 49.35400 106.11626 84.80302
#
# Poissons Ratio (x) = 0.45185 0.54689
# Poissons Ratio (y) = 0.21015 0.03864
# Poissons Ratio (z) = 0.31828 0.04836
#
# Static dielectric constant tensor:
#      x y z
#    x 2.265910 -0.127130 -0.097200 
#    y -0.127130 2.261480 0.051700 
#    z -0.097200 0.051700 2.099750 
# 
# From -- ./inp_files/428559.got.cif
#   From: 2010.05.17/outbox.cif.g08.bks.cpg/sg2_215_cif.got.tgz:428559.got - 2010.06.03 11:33:40.
