data_PCOD9076572
_publ_section_title
;
Structure prediction by ZEFSAII (Michael W. Deem and Ramdas Pophale) SiO2 
 PCOD9076572
Probable space group: P -1
;
_chemical_formula_sum "Si O2"
_cell_formula_units_Z 16
_cell_length_a 23.299885
_cell_length_b 21.966557
_cell_length_c 14.851655
_cell_angle_alpha 159.918045
_cell_angle_beta 150.937657
_cell_angle_gamma 18.713924
_cell_volume 829.125959
_symmetry_space_group_name_H-M "P -1"
_symmetry_group_IT_number 2
_symmetry_cell_setting 'triclinic'
loop_
_space_group_symop_operation_xyz
x,y,z
-x,-y,-z
loop_
_atom_site_type_symbol
_atom_site_label
_atom_site_fract_x
_atom_site_fract_y
_atom_site_fract_z
Si Si1 0.143177 0.569097 0.357696
Si Si2 0.143074 0.535415 0.674192
Si Si3 0.438780 0.500433 0.633172
Si Si4 0.755825 0.915512 0.232229
Si Si5 0.005921 0.180626 0.311128
Si Si6 0.234499 0.042517 0.178731
Si Si7 0.491818 0.319250 0.788349
Si Si8 0.615876 0.118415 0.505160
O O1 0.282302 0.535867 0.450995
O O2 0.115834 0.680250 0.573764
O O3 0.951498 0.771276 0.325249
O O4 0.220035 0.282174 0.071229
O O5 0.061744 0.606121 0.560778
O O6 0.218725 0.264567 0.437842
O O7 0.307413 0.485933 0.819606
O O8 0.972250 0.787354 0.851353
O O9 0.617038 0.228315 0.447968
O O10 0.505190 0.391851 0.677023
O O11 0.347736 0.795739 0.920358
O O12 0.676241 0.933531 0.244881
O O13 0.200981 0.013198 0.383357
O O14 0.000000 0.000000 0.000000
O O15 0.341930 0.904463 0.228281
O O16 0.506038 0.174881 0.518718
O O17 0.500000 0.500000 0.000000
#
# Coordination Sequence:
#
# PCOD9076572 Si02
#       8
#     2   2   2   2   2   2   2   2
#     4  10  18  33  57  87 112 147 182 245 294 328
#     4  11  25  37  53  79 120 161 191 237 290 350
#     4  10  19  33  55  79 111 146 184 237 287 340
#     4   8  19  34  52  88 115 136 191 242 292 338
#     4  11  20  33  57  84 117 147 190 236 288 342
#     4  11  24  39  52  81 121 157 195 231 293 357
#     4  12  20  36  57  83 113 152 195 242 291 340
#     4   9  19  32  52  84 109 142 188 244 281 337
#
# _framework density 19.297429999999999
#
# number of rings (size 3 to 8) (size 9 to 14) (size 15 to 20)
#    0.750    1.000    2.500    3.000    0.000    2.000 
#    0.000    0.000    0.000    0.750    0.000    2.625 
#    0.000    0.000    0.000    0.000    0.000    0.000 
#
# Total GULP energy -89068.822535 kJ/mol
# GULP energy per Si atom -5566.801408 kJ/mol
# Density = 1.925351 g / cm^3
# Si number density = 19.297430 Si / 1000 Ang^3
#
#
#
# Elastic Constant Matrix: (Units=GPa)
#
#
# Indices 1 2 3 4 5 6 
#
# 1 48.1848 26.2980 19.7261 4.4352 14.6602 -0.6348
# 2 26.2980 100.2931 35.3551 22.8724 13.4065 -12.0959
# 3 19.7261 35.3551 96.5454 18.0324 -2.6414 2.4724
# 4 4.4352 22.8724 18.0324 28.8751 3.9969 0.6692
# 5 14.6602 13.4065 -2.6414 3.9969 22.3098 5.1965
# 6 -0.6348 -12.0959 2.4724 0.6692 5.1965 29.3054
#
#
#
# Elastic Compliance Matrix: (Units=1/GPa)
#
#
# Indices 1 2 3 4 5 6 
#
# 1 0.031506 -0.003963 -0.006613 0.005233 -0.020781 0.003170
# 2 -0.003963 0.016704 -0.004054 -0.009142 -0.008334 0.008837
# 3 -0.006613 -0.004054 0.014810 -0.006406 0.010809 -0.004836
# 4 0.005233 -0.009142 -0.006406 0.046004 -0.006231 -0.003065
# 5 -0.020781 -0.008334 0.010809 -0.006231 0.069854 -0.017046
# 6 0.003170 0.008837 -0.004836 -0.003065 -0.017046 0.041340
#
#
# Mechanical properties :
#
#
# Convention : Reuss Voigt Hill
#
# Bulk Modulus (GPa) = 29.62171 45.30910 37.46540
# Shear Modulus (GPa) = 19.17680 27.00765 23.09222
#
# Velocity S-wave (km/s) = 3.15580 3.74511 3.46301
# Velocity P-wave (km/s) = 5.35370 6.49857 5.95372
#
# Compressibility (1/GPa) = 0.03375903
#
# Stress axis : x y z
#
# Youngs Moduli (GPa) = 31.73949 59.86625 67.52375
#
# Poissons Ratio (x) = 0.23727 0.44654
# Poissons Ratio (y) = 0.12580 0.27374
# Poissons Ratio (z) = 0.20990 0.24270
#
# Static dielectric constant tensor:
#      x y z
#    x 1.687760 -0.046030 -0.046910 
#    y -0.046030 1.737080 0.044770 
#    z -0.046910 0.044770 1.770030 
# 
# From -- ./inp_files/543350.got.cif
#   From: 2010.05.17/outbox.cif.g08.bks.cpg/sg2_272_cif.got.tgz:543350.got - 2010.06.03 11:33:40.
