data_PCOD9076515
_publ_section_title
;
Structure prediction by ZEFSAII (Michael W. Deem and Ramdas Pophale) SiO2 
 PCOD9076515
Probable space group: P -1
;
_chemical_formula_sum "Si O2"
_cell_formula_units_Z 16
_cell_length_a 19.803932
_cell_length_b 7.241648
_cell_length_c 7.628901
_cell_angle_alpha 57.397397
_cell_angle_beta 46.441314
_cell_angle_gamma 71.294412
_cell_volume 665.621083
_symmetry_space_group_name_H-M "P -1"
_symmetry_group_IT_number 2
_symmetry_cell_setting 'triclinic'
loop_
_space_group_symop_operation_xyz
x,y,z
-x,-y,-z
loop_
_atom_site_type_symbol
_atom_site_label
_atom_site_fract_x
_atom_site_fract_y
_atom_site_fract_z
Si Si1 0.611873 0.582137 0.244161
Si Si2 0.396246 0.064208 0.620605
Si Si3 0.965432 0.282827 0.072308
Si Si4 0.189486 0.311020 0.112889
Si Si5 0.592310 0.900535 0.820242
Si Si6 0.196748 0.963558 0.977287
Si Si7 0.218216 0.939276 0.544926
Si Si8 0.002549 0.795130 0.351164
O O1 0.500000 0.500000 0.500000
O O2 0.618234 0.766016 0.288558
O O3 0.719899 0.510993 0.115554
O O4 0.611665 0.683391 0.999989
O O5 0.402512 0.147866 0.368112
O O6 0.500000 0.000000 0.500000
O O7 0.301391 0.899371 0.873371
O O8 0.852689 0.266284 0.267393
O O9 0.987261 0.057628 0.248356
O O10 0.000000 0.500000 0.000000
O O11 0.001933 0.259182 0.820438
O O12 0.187631 0.181528 0.997845
O O13 0.081443 0.348511 0.328799
O O14 0.672903 0.088273 0.631785
O O15 0.500000 0.000000 0.000000
O O16 0.106145 0.792304 0.251101
O O17 0.195110 0.012703 0.746622
O O18 0.205300 0.127030 0.328947
#
# Coordination Sequence:
#
# PCOD9076515 Si02
#       8
#     2   2   2   2   2   2   2   2
#     4  10  21  36  54  82 117 144 185 247 292 340
#     4  10  19  34  57  83 110 149 194 233 287 349
#     4   9  17  32  55  83 116 146 185 232 280 342
#     4   9  17  32  56  76 106 148 187 221 284 346
#     4  10  18  33  57  79 107 149 191 229 282 348
#     4   9  17  30  55  82 104 142 190 229 275 342
#     4   8  17  31  49  80 105 143 183 225 276 336
#     4   9  17  32  56  80 111 155 186 227 287 342
#
# _framework density 24.037701999999999
#
# number of rings (size 3 to 8) (size 9 to 14) (size 15 to 20)
#    0.000    2.750    1.250    1.125    0.000    0.500 
#    0.000    3.750    0.000   12.750    0.000    0.000 
#    0.000    0.000    0.000    0.000    0.000    0.000 
#
# Total GULP energy -89153.154198 kJ/mol
# GULP energy per Si atom -5572.072137 kJ/mol
# Density = 2.398299 g / cm^3
# Si number density = 24.037702 Si / 1000 Ang^3
#
#
#
# Elastic Constant Matrix: (Units=GPa)
#
#
# Indices 1 2 3 4 5 6 
#
# 1 156.6673 33.3656 70.7481 -5.4951 -42.1568 19.2163
# 2 33.3656 64.5563 21.8705 -13.0718 -8.1735 21.2918
# 3 70.7481 21.8705 136.9975 2.0499 -54.7749 0.7757
# 4 -5.4951 -13.0718 2.0499 27.3348 -0.1928 -6.7950
# 5 -42.1568 -8.1735 -54.7749 -0.1928 64.9211 1.6396
# 6 19.2163 21.2918 0.7757 -6.7950 1.6396 36.5325
#
#
#
# Elastic Compliance Matrix: (Units=1/GPa)
#
#
# Indices 1 2 3 4 5 6 
#
# 1 0.009727 -0.002143 -0.003328 0.000234 0.003338 -0.003904
# 2 -0.002143 0.022516 -0.002801 0.007950 -0.000633 -0.010429
# 3 -0.003328 -0.002801 0.012761 -0.002333 0.008187 0.002311
# 4 0.000234 0.007950 -0.002333 0.041352 -0.000770 0.003019
# 5 0.003338 -0.000633 0.008187 -0.000770 0.024467 -0.002802
# 6 -0.003904 -0.010429 0.002311 0.003019 -0.002802 0.036143
#
#
# Mechanical properties :
#
#
# Convention : Reuss Voigt Hill
#
# Bulk Modulus (GPa) = 35.13633 67.79886 51.46760
# Shear Modulus (GPa) = 28.90236 41.24015 35.07125
#
# Velocity S-wave (km/s) = 3.47129 4.14653 3.82384
# Velocity P-wave (km/s) = 5.54215 7.15481 6.39948
#
# Compressibility (1/GPa) = 0.02846057
#
# Stress axis : x y z
#
# Youngs Moduli (GPa) = 102.80223 44.41300 78.36672
#
# Poissons Ratio (x) = 0.09516 0.26081
# Poissons Ratio (y) = 0.22027 0.21950
# Poissons Ratio (z) = 0.34214 0.12440
#
# Static dielectric constant tensor:
#      x y z
#    x 1.993140 -0.146590 -0.093990 
#    y -0.146590 2.047340 0.007070 
#    z -0.093990 0.007070 2.040970 
# 
# From -- ./inp_files/341602.got.cif
#   From: 2010.05.17/outbox.cif.g08.bks.cpg/sg2_171_cif.got.tgz:341602.got - 2010.06.03 11:33:40.
