data_PCOD9076835
_publ_section_title
;
Structure prediction by ZEFSAII (Michael W. Deem and Ramdas Pophale) SiO2 
 PCOD9076835
Probable space group: P -1
;
_chemical_formula_sum "Si O2"
_cell_formula_units_Z 14
_cell_length_a 7.198151
_cell_length_b 15.417072
_cell_length_c 11.684337
_cell_angle_alpha 135.715536
_cell_angle_beta 93.704840
_cell_angle_gamma 54.807147
_cell_volume 586.373141
_symmetry_space_group_name_H-M "P -1"
_symmetry_group_IT_number 2
_symmetry_cell_setting 'triclinic'
loop_
_space_group_symop_operation_xyz
x,y,z
-x,-y,-z
loop_
_atom_site_type_symbol
_atom_site_label
_atom_site_fract_x
_atom_site_fract_y
_atom_site_fract_z
Si Si1 0.835544 0.794015 0.822725
Si Si2 0.118482 0.457955 0.252544
Si Si3 0.552575 0.801729 0.190879
Si Si4 0.077372 0.828877 0.688368
Si Si5 0.584374 0.852116 0.502646
Si Si6 0.018953 0.008290 0.644158
Si Si7 0.307780 0.745551 0.844777
O O1 0.863255 0.645747 0.738983
O O2 0.953511 0.763491 0.671503
O O3 0.055435 0.772843 0.882556
O O4 0.500000 0.000000 0.000000
O O5 0.380847 0.422627 0.246869
O O6 0.804183 0.666964 0.413515
O O7 0.207982 0.339256 0.027209
O O8 0.638343 0.776706 0.303014
O O9 0.383562 0.016530 0.364506
O O10 0.318944 0.810656 0.173031
O O11 0.135035 0.838096 0.569746
O O12 0.338124 0.725662 0.688507
O O13 0.833196 0.052261 0.932288
O O14 0.253859 0.994767 0.656649
O O15 0.000000 0.000000 0.500000
#
# Coordination Sequence:
#
# PCOD9076835 Si02
#       7
#     2   2   2   2   2   2   2
#     4  10  18  33  60  93 120 165 211 252 316 375
#     4  12  21  39  66  95 123 168 214 260 316 384
#     4  10  22  43  65  88 128 171 203 270 323 363
#     4   9  17  35  56  91 124 159 208 256 309 374
#     4  10  25  40  62  96 126 161 223 259 311 385
#     4  10  20  40  64  87 123 169 208 259 318 374
#     4   9  19  32  59  93 126 159 214 257 311 379
#
# _framework density 23.875582000000001
#
# number of rings (size 3 to 8) (size 9 to 14) (size 15 to 20)
#    0.857    1.143    2.857    0.429    2.000    1.143 
#    2.571    1.429    0.000    8.571    0.000    0.000 
#    0.000    0.000    0.000    0.000    0.000    0.000 
#
# Total GULP energy -78033.595172 kJ/mol
# GULP energy per Si atom -5573.828227 kJ/mol
# Density = 2.382124 g / cm^3
# Si number density = 23.875582 Si / 1000 Ang^3
#
#
#
# Elastic Constant Matrix: (Units=GPa)
#
#
# Indices 1 2 3 4 5 6 
#
# 1 114.4744 26.0088 23.4798 -1.6824 -14.9672 -12.9661
# 2 26.0088 123.2552 24.8017 -5.5144 1.9756 17.9599
# 3 23.4798 24.8017 75.3069 -5.7805 -3.0956 -8.1935
# 4 -1.6824 -5.5144 -5.7805 42.2278 -2.0924 -12.6715
# 5 -14.9672 1.9756 -3.0956 -2.0924 10.1408 -6.5808
# 6 -12.9661 17.9599 -8.1935 -12.6715 -6.5808 31.1577
#
#
#
# Elastic Compliance Matrix: (Units=1/GPa)
#
#
# Indices 1 2 3 4 5 6 
#
# 1 0.023553 -0.011730 0.004419 0.014528 0.065742 0.037519
# 2 -0.011730 0.016878 -0.007908 -0.010758 -0.045085 -0.030588
# 3 0.004419 -0.007908 0.018821 0.009671 0.029805 0.021575
# 4 0.014528 -0.010758 0.009671 0.040836 0.064073 0.044931
# 5 0.065742 -0.045085 0.029805 0.064073 0.328366 0.156596
# 6 0.037519 -0.030588 0.021575 0.044931 0.156596 0.122361
#
#
# Mechanical properties :
#
#
# Convention : Reuss Voigt Hill
#
# Bulk Modulus (GPa) = 34.70636 51.29080 42.99858
# Shear Modulus (GPa) = 8.46227 32.62167 20.54197
#
# Velocity S-wave (km/s) = 1.88468 3.70039 2.93640
# Velocity P-wave (km/s) = 4.39362 6.30764 5.43554
#
# Compressibility (1/GPa) = 0.02881316
#
# Stress axis : x y z
#
# Youngs Moduli (GPa) = 42.45763 59.24803 53.13335
#
# Poissons Ratio (x) = 0.69498 -0.23481
# Poissons Ratio (y) = 0.49803 0.42020
# Poissons Ratio (z) = -0.18763 0.46856
#
# Static dielectric constant tensor:
#      x y z
#    x 1.972210 -0.033710 0.024460 
#    y -0.033710 1.958320 -0.048940 
#    z 0.024460 -0.048940 1.929560 
# 
# From -- ./inp_files/397625.got.cif
#   From: 2010.05.17/outbox.cif.g08.bks.cpg/sg2_199_cif.got.tgz:397625.got - 2010.06.03 11:33:40.
