data_PCOD9076421
_publ_section_title
;
Structure prediction by ZEFSAII (Michael W. Deem and Ramdas Pophale) SiO2 
 PCOD9076421
Probable space group: P -1
;
_chemical_formula_sum "Si O2"
_cell_formula_units_Z 16
_cell_length_a 6.530772
_cell_length_b 7.455584
_cell_length_c 19.202015
_cell_angle_alpha 123.333360
_cell_angle_beta 120.307584
_cell_angle_gamma 60.512683
_cell_volume 643.753261
_symmetry_space_group_name_H-M "P -1"
_symmetry_group_IT_number 2
_symmetry_cell_setting 'triclinic'
loop_
_space_group_symop_operation_xyz
x,y,z
-x,-y,-z
loop_
_atom_site_type_symbol
_atom_site_label
_atom_site_fract_x
_atom_site_fract_y
_atom_site_fract_z
Si Si1 0.004011 0.351157 0.114555
Si Si2 0.073290 0.668774 0.440270
Si Si3 0.702558 0.608001 0.700222
Si Si4 0.120934 0.781083 0.161362
Si Si5 0.904741 0.981397 0.588252
Si Si6 0.308565 0.844874 0.061578
Si Si7 0.280014 0.035415 0.772378
Si Si8 0.492119 0.770146 0.339028
O O1 0.054630 0.394990 0.213215
O O2 0.066765 0.550316 0.125404
O O3 0.205666 0.108540 0.080092
O O4 0.744833 0.305894 0.041522
O O5 0.231858 0.443864 0.380506
O O6 0.165600 0.858026 0.456505
O O7 0.784702 0.711055 0.380434
O O8 0.058072 0.735737 0.533389
O O9 0.497525 0.836021 0.734430
O O10 0.590118 0.421790 0.674667
O O11 0.144074 0.804599 0.089062
O O12 0.373240 0.781852 0.244747
O O13 0.900091 0.986928 0.199721
O O14 0.662976 0.005234 0.598209
O O15 0.080308 0.087871 0.687427
O O16 0.577609 0.805771 0.133133
#
# Coordination Sequence:
#
# PCOD9076421 Si02
#       8
#     2   2   2   2   2   2   2   2
#     4   9  20  38  56  84 117 146 194 238 271 341
#     4  10  18  33  56  77 103 148 188 223 286 340
#     4   9  20  35  51  77 114 144 183 236 276 329
#     4  10  20  36  59  84 115 153 188 231 287 337
#     4   9  19  33  53  80 108 138 185 239 277 331
#     4  10  20  38  60  81 115 155 188 232 289 336
#     4  10  21  37  53  82 117 144 188 239 277 337
#     4   9  18  34  54  78 108 145 186 231 279 333
#
# _framework density 24.854243
#
# number of rings (size 3 to 8) (size 9 to 14) (size 15 to 20)
#    0.000    2.500    0.000    2.250    0.000    3.000 
#    0.000   11.250    0.000    0.000    0.000    0.000 
#    0.000    0.000    0.000    0.000    0.000    0.000 
#
# Total GULP energy -89269.975009 kJ/mol
# GULP energy per Si atom -5579.373438 kJ/mol
# Density = 2.479767 g / cm^3
# Si number density = 24.854243 Si / 1000 Ang^3
#
#
#
# Elastic Constant Matrix: (Units=GPa)
#
#
# Indices 1 2 3 4 5 6 
#
# 1 56.7074 39.8012 17.7232 1.7432 17.0667 -7.5990
# 2 39.8012 76.0216 26.8724 18.2391 -4.8847 -1.0679
# 3 17.7232 26.8724 96.4467 9.1820 30.1292 -10.3684
# 4 1.7432 18.2391 9.1820 25.6668 -7.8137 -2.4139
# 5 17.0667 -4.8847 30.1292 -7.8137 30.5724 -2.9127
# 6 -7.5990 -1.0679 -10.3684 -2.4139 -2.9127 30.9660
#
#
#
# Elastic Compliance Matrix: (Units=1/GPa)
#
#
# Indices 1 2 3 4 5 6 
#
# 1 0.062855 -0.044887 0.021506 0.002741 -0.061274 0.015528
# 2 -0.044887 0.049970 -0.021916 -0.010350 0.050789 -0.012660
# 3 0.021506 -0.021916 0.028345 -0.008817 -0.044827 0.009109
# 4 0.002741 -0.010350 -0.008817 0.055739 0.020094 0.003599
# 5 -0.061274 0.050789 -0.044827 0.020094 0.122897 -0.015168
# 6 0.015528 -0.012660 0.009109 0.003599 -0.015168 0.037571
#
#
# Mechanical properties :
#
#
# Convention : Reuss Voigt Hill
#
# Bulk Modulus (GPa) = 19.77181 44.21882 31.99531
# Shear Modulus (GPa) = 10.75662 27.09295 18.92478
#
# Velocity S-wave (km/s) = 2.08261 3.30521 2.76240
# Velocity P-wave (km/s) = 3.70883 5.69173 4.80370
#
# Compressibility (1/GPa) = 0.05057706
#
# Stress axis : x y z
#
# Youngs Moduli (GPa) = 15.90958 20.01188 35.27974
#
# Poissons Ratio (x) = 0.89827 -0.75873
# Poissons Ratio (y) = 0.71413 0.77319
# Poissons Ratio (z) = -0.34215 0.43858
#
# Static dielectric constant tensor:
#      x y z
#    x 1.944550 -0.061040 0.007340 
#    y -0.061040 2.053870 0.049970 
#    z 0.007340 0.049970 2.042200 
# 
# From -- ./inp_files/99741.got.cif
#   From: 2010.05.17/outbox.cif.g08.bks.cpg/sg2_50_cif.got.tgz:99741.got - 2010.06.03 11:33:40.
