data_PCOD9076042
_publ_section_title
;
Structure prediction by ZEFSAII (Michael W. Deem and Ramdas Pophale) SiO2 
 PCOD9076042
Probable space group: P -1
;
_chemical_formula_sum "Si O2"
_cell_formula_units_Z 16
_cell_length_a 17.730547
_cell_length_b 11.585232
_cell_length_c 11.020782
_cell_angle_alpha 33.946404
_cell_angle_beta 128.257577
_cell_angle_gamma 148.845674
_cell_volume 620.917422
_symmetry_space_group_name_H-M "P -1"
_symmetry_group_IT_number 2
_symmetry_cell_setting 'triclinic'
loop_
_space_group_symop_operation_xyz
x,y,z
-x,-y,-z
loop_
_atom_site_type_symbol
_atom_site_label
_atom_site_fract_x
_atom_site_fract_y
_atom_site_fract_z
Si Si1 0.539597 0.245690 0.693395
Si Si2 0.320320 0.301871 0.058508
Si Si3 0.651541 0.502958 0.341474
Si Si4 0.634608 0.459578 0.850919
Si Si5 0.979788 0.703798 0.258253
Si Si6 0.866210 0.685430 0.724998
Si Si7 0.964224 0.292904 0.954018
Si Si8 0.779859 0.302559 0.618682
O O1 0.549389 0.389643 0.454394
O O2 0.534252 0.349857 0.727741
O O3 0.706492 0.412672 0.731444
O O4 0.410180 0.855233 0.897637
O O5 0.394255 0.471781 0.112751
O O6 0.145313 0.089268 0.090625
O O7 0.291333 0.016727 0.239205
O O8 0.393419 0.522183 0.819185
O O9 0.658841 0.267839 0.568725
O O10 0.815750 0.895852 0.175124
O O11 0.810716 0.749094 0.723052
O O12 0.000000 0.500000 0.500000
O O13 0.868314 0.582651 0.359378
O O14 0.946271 0.626599 0.149785
O O15 0.924167 0.568998 0.943785
O O16 0.000000 0.000000 0.500000
O O17 0.889632 0.388364 0.757633
#
# Coordination Sequence:
#
# PCOD9076042 Si02
#       8
#     2   2   2   2   2   2   2   2
#     4   9  20  36  54  83 113 153 192 230 284 335
#     4   9  19  33  55  84 109 154 192 223 284 344
#     4  10  19  33  58  84 117 145 185 236 285 333
#     4   9  20  36  56  80 116 150 192 235 276 341
#     4   7  15  28  45  79 117 139 172 227 283 327
#     4  10  18  32  59  86 108 146 200 232 279 340
#     4   9  17  31  51  85 113 144 186 228 286 338
#     4   9  19  31  50  89 123 142 177 245 286 331
#
# _framework density 25.768321
#
# number of rings (size 3 to 8) (size 9 to 14) (size 15 to 20)
#    0.750    2.750    1.250    0.000    3.500    1.500 
#    0.000    1.250    0.000   12.000    0.000   29.750 
#    0.000    0.000    0.000    0.000    0.000    0.000 
#
# Total GULP energy -89197.528284 kJ/mol
# GULP energy per Si atom -5574.845518 kJ/mol
# Density = 2.570967 g / cm^3
# Si number density = 25.768321 Si / 1000 Ang^3
#
#
#
# Elastic Constant Matrix: (Units=GPa)
#
#
# Indices 1 2 3 4 5 6 
#
# 1 73.7171 29.0372 62.6431 7.1549 -11.3703 -24.3812
# 2 29.0372 99.4450 55.3070 24.6302 -6.7611 -10.4819
# 3 62.6431 55.3070 168.4224 45.5757 -17.3098 -19.4470
# 4 7.1549 24.6302 45.5757 24.4313 -7.7908 -13.8854
# 5 -11.3703 -6.7611 -17.3098 -7.7908 48.8524 11.0257
# 6 -24.3812 -10.4819 -19.4470 -13.8854 11.0257 37.4444
#
#
#
# Elastic Compliance Matrix: (Units=1/GPa)
#
#
# Indices 1 2 3 4 5 6 
#
# 1 0.056722 -0.014428 -0.035532 0.092248 0.002514 0.047909
# 2 -0.014428 0.017316 0.007596 -0.035320 -0.000869 -0.013444
# 3 -0.035532 0.007596 0.034665 -0.080696 -0.000399 -0.032812
# 4 0.092248 -0.035320 -0.080696 0.260643 0.006294 0.103069
# 5 0.002514 -0.000869 -0.000399 0.006294 0.022498 -0.003104
# 6 0.047909 -0.013444 -0.032812 0.103069 -0.003104 0.076231
#
#
# Mechanical properties :
#
#
# Convention : Reuss Voigt Hill
#
# Bulk Modulus (GPa) = 41.70786 70.61765 56.16275
# Shear Modulus (GPa) = 8.91591 35.11878 22.01734
#
# Velocity S-wave (km/s) = 1.86213 3.69571 2.92624
# Velocity P-wave (km/s) = 4.56555 6.75835 5.76713
#
# Compressibility (1/GPa) = 0.02397630
#
# Stress axis : x y z
#
# Youngs Moduli (GPa) = 17.62971 57.75086 28.84715
#
# Poissons Ratio (x) = 0.83324 1.02499
# Poissons Ratio (y) = 0.25436 -0.21913
# Poissons Ratio (z) = 0.62642 -0.43869
#
# Static dielectric constant tensor:
#      x y z
#    x 2.140230 0.037290 -0.022440 
#    y 0.037290 2.060600 0.040080 
#    z -0.022440 0.040080 2.031730 
# 
# From -- ./inp_files/475117.got.cif
#   From: 2010.05.17/outbox.cif.g08.bks.cpg/sg2_238_cif.got.tgz:475117.got - 2010.06.03 11:33:40.
