data_PCOD9076441
_publ_section_title
;
Structure prediction by ZEFSAII (Michael W. Deem and Ramdas Pophale) SiO2 
 PCOD9076441
Probable space group: P -1
;
_chemical_formula_sum "Si O2"
_cell_formula_units_Z 16
_cell_length_a 13.822619
_cell_length_b 13.989333
_cell_length_c 7.418344
_cell_angle_alpha 118.367228
_cell_angle_beta 85.317647
_cell_angle_gamma 43.087029
_cell_volume 604.498230
_symmetry_space_group_name_H-M "P -1"
_symmetry_group_IT_number 2
_symmetry_cell_setting 'triclinic'
loop_
_space_group_symop_operation_xyz
x,y,z
-x,-y,-z
loop_
_atom_site_type_symbol
_atom_site_label
_atom_site_fract_x
_atom_site_fract_y
_atom_site_fract_z
Si Si1 0.517255 0.786145 0.787853
Si Si2 0.407252 0.515176 0.288425
Si Si3 0.719202 0.839645 0.553261
Si Si4 0.627982 0.489536 0.110513
Si Si5 0.870873 0.943916 0.934967
Si Si6 0.036482 0.948279 0.184133
Si Si7 0.875141 0.487636 0.674065
Si Si8 0.435722 0.215348 0.676685
O O1 0.572805 0.613908 0.716339
O O2 0.738437 0.628539 0.639405
O O3 0.393889 0.994488 0.115022
O O4 0.314850 0.941489 0.850125
O O5 0.513441 0.528157 0.306763
O O6 0.175968 0.782893 0.552052
O O7 0.473227 0.415942 0.985804
O O8 0.609854 0.838328 0.499212
O O9 0.953682 0.597987 0.354335
O O10 0.657545 0.981658 0.521831
O O11 0.622310 0.620394 0.278349
O O12 0.847841 0.218775 0.817046
O O13 0.816066 0.103545 0.966150
O O14 0.988213 0.750681 0.606542
O O15 0.006674 0.869145 0.997055
O O16 0.719482 0.631512 0.993416
#
# Coordination Sequence:
#
# PCOD9076441 Si02
#       8
#     2   2   2   2   2   2   2   2
#     4  10  18  35  53  80 109 138 175 221 266 311
#     4  11  21  35  53  81 112 146 171 211 275 326
#     4   9  19  32  55  82 110 133 179 224 268 315
#     4  11  22  35  53  78 117 145 169 214 271 330
#     4  10  21  34  54  76 110 140 188 220 252 313
#     4  11  22  35  51  79 108 149 181 216 256 320
#     4  10  18  33  56  81 104 141 173 225 271 309
#     4  10  19  35  54  84 111 139 172 222 273 320
#
# _framework density 26.468230999999999
#
# number of rings (size 3 to 8) (size 9 to 14) (size 15 to 20)
#    0.000    1.750    5.000    0.750    0.000    2.500 
#    0.000    0.000    0.000    3.000    0.000   12.250 
#    0.000    0.000    0.000    0.000    0.000    0.000 
#
# Total GULP energy -89084.503960 kJ/mol
# GULP energy per Si atom -5567.781497 kJ/mol
# Density = 2.640799 g / cm^3
# Si number density = 26.468231 Si / 1000 Ang^3
#
#
#
# Elastic Constant Matrix: (Units=GPa)
#
#
# Indices 1 2 3 4 5 6 
#
# 1 100.4187 -1.2073 29.5098 18.0364 11.8401 -18.0051
# 2 -1.2073 55.2014 -6.1091 14.2332 2.7295 -1.3687
# 3 29.5098 -6.1091 73.7449 7.5209 0.9536 1.9644
# 4 18.0364 14.2332 7.5209 26.6109 -13.4154 3.4286
# 5 11.8401 2.7295 0.9536 -13.4154 34.9861 2.5698
# 6 -18.0051 -1.3687 1.9644 3.4286 2.5698 37.7412
#
#
#
# Elastic Compliance Matrix: (Units=1/GPa)
#
#
# Indices 1 2 3 4 5 6 
#
# 1 0.022858 0.009750 -0.005181 -0.032359 -0.021936 0.015961
# 2 0.009750 0.028225 0.001787 -0.033031 -0.018941 0.009873
# 3 -0.005181 0.001787 0.015958 -0.001026 0.001022 -0.003214
# 4 -0.032359 -0.033031 -0.001026 0.110799 0.058290 -0.030616
# 5 -0.021936 -0.018941 0.001022 0.058290 0.061326 -0.020676
# 6 0.015961 0.009873 -0.003214 -0.030616 -0.020676 0.038825
#
#
# Mechanical properties :
#
#
# Convention : Reuss Voigt Hill
#
# Bulk Modulus (GPa) = 12.53840 30.41687 21.47764
# Shear Modulus (GPa) = 17.13133 33.67908 25.40520
#
# Velocity S-wave (km/s) = 2.54685 3.57099 3.10149
# Velocity P-wave (km/s) = 3.66006 5.34036 4.57796
#
# Compressibility (1/GPa) = 0.07975496
#
# Stress axis : x y z
#
# Youngs Moduli (GPa) = 43.74782 35.42998 62.66302
#
# Poissons Ratio (x) = -0.34546 0.32464
# Poissons Ratio (y) = -0.42656 -0.11198
# Poissons Ratio (z) = 0.22664 -0.06331
#
# Static dielectric constant tensor:
#      x y z
#    x 2.222360 -0.044720 -0.030810 
#    y -0.044720 2.276180 -0.064620 
#    z -0.030810 -0.064620 2.135760 
# 
# From -- ./inp_files/313911.got.cif
#   From: 2010.05.17/outbox.cif.g08.bks.cpg/sg2_157_cif.got.tgz:313911.got - 2010.06.03 11:33:40.
