data_PCOD9076503
_publ_section_title
;
Structure prediction by ZEFSAII (Michael W. Deem and Ramdas Pophale) SiO2 
 PCOD9076503
Probable space group: P -1
;
_chemical_formula_sum "Si O2"
_cell_formula_units_Z 16
_cell_length_a 7.806058
_cell_length_b 11.632034
_cell_length_c 11.199386
_cell_angle_alpha 95.798853
_cell_angle_beta 122.237276
_cell_angle_gamma 58.749212
_cell_volume 713.308631
_symmetry_space_group_name_H-M "P -1"
_symmetry_group_IT_number 2
_symmetry_cell_setting 'triclinic'
loop_
_space_group_symop_operation_xyz
x,y,z
-x,-y,-z
loop_
_atom_site_type_symbol
_atom_site_label
_atom_site_fract_x
_atom_site_fract_y
_atom_site_fract_z
Si Si1 0.677465 0.031653 0.831886
Si Si2 0.402720 0.654272 0.599919
Si Si3 0.242665 0.649240 0.277233
Si Si4 0.019089 0.638029 0.615777
Si Si5 0.693749 0.057741 0.335663
Si Si6 0.788763 0.931393 0.108485
Si Si7 0.216782 0.057526 0.388764
Si Si8 0.360141 0.339928 0.710323
O O1 0.541293 0.951601 0.758016
O O2 0.466831 0.192446 0.794821
O O3 0.158238 0.030151 0.997060
O O4 0.789324 0.017596 0.740504
O O5 0.329970 0.678686 0.437210
O O6 0.664178 0.511348 0.696970
O O7 0.207296 0.631049 0.587664
O O8 0.837090 0.972625 0.500311
O O9 0.403813 0.660876 0.237772
O O10 0.961923 0.765778 0.167982
O O11 0.167403 0.486947 0.716115
O O12 0.932680 0.777282 0.670016
O O13 0.788823 0.658366 0.461428
O O14 0.819784 0.994245 0.248533
O O15 0.612595 0.214490 0.337906
O O16 0.500000 0.000000 0.000000
O O17 0.500000 0.000000 0.500000
#
# Coordination Sequence:
#
# PCOD9076503 Si02
#       8
#     2   2   2   2   2   2   2   2
#     4  10  21  38  59  87 122 160 203 245 304 361
#     4  10  22  37  62  93 122 154 205 259 305 348
#     4  10  22  39  61  91 122 160 202 254 302 362
#     4  10  20  35  57  87 120 157 194 252 305 355
#     4  10  20  38  59  91 120 157 203 253 303 352
#     4  10  23  42  60  86 126 167 200 241 307 372
#     4  10  18  33  56  90 115 148 204 252 295 341
#     4  10  20  37  57  84 122 157 200 243 304 357
#
# _framework density 22.430685
#
# number of rings (size 3 to 8) (size 9 to 14) (size 15 to 20)
#    0.000    2.000    2.500    1.500    3.500    3.500 
#    0.000    3.750    0.000    3.000    0.000    0.000 
#    0.000    0.000    0.000    0.000    0.000    0.000 
#
# Total GULP energy -89330.975789 kJ/mol
# GULP energy per Si atom -5583.185987 kJ/mol
# Density = 2.237963 g / cm^3
# Si number density = 22.430685 Si / 1000 Ang^3
#
#
#
# Elastic Constant Matrix: (Units=GPa)
#
#
# Indices 1 2 3 4 5 6 
#
# 1 83.1466 24.3977 26.4720 2.0636 -9.7594 -10.1006
# 2 24.3977 182.4666 65.3138 -35.5175 -12.8240 7.5478
# 3 26.4720 65.3138 115.0244 -11.6640 -13.1135 -4.0178
# 4 2.0636 -35.5175 -11.6640 45.3824 -6.9511 0.4094
# 5 -9.7594 -12.8240 -13.1135 -6.9511 35.7954 7.0759
# 6 -10.1006 7.5478 -4.0178 0.4094 7.0759 32.3555
#
#
#
# Elastic Compliance Matrix: (Units=1/GPa)
#
#
# Indices 1 2 3 4 5 6 
#
# 1 0.013917 -0.001606 -0.002254 -0.002339 0.001103 0.004228
# 2 -0.001606 0.008641 -0.003636 0.006444 0.003324 -0.003777
# 3 -0.002254 -0.003636 0.011630 0.000579 0.002240 0.001092
# 4 -0.002339 0.006444 0.000579 0.028645 0.008304 -0.004340
# 5 0.001103 0.003324 0.002240 0.008304 0.033354 -0.007552
# 6 0.004228 -0.003777 0.001092 -0.004340 -0.007552 0.034950
#
#
# Mechanical properties :
#
#
# Convention : Reuss Voigt Hill
#
# Bulk Modulus (GPa) = 52.10171 68.11161 60.10666
# Shear Modulus (GPa) = 32.78068 40.33692 36.55880
#
# Velocity S-wave (km/s) = 3.82700 4.24523 4.04153
# Velocity P-wave (km/s) = 6.54265 7.37974 6.97376
#
# Compressibility (1/GPa) = 0.01919323
#
# Stress axis : x y z
#
# Youngs Moduli (GPa) = 71.85344 115.72482 85.98679
#
# Poissons Ratio (x) = 0.18591 0.19385
# Poissons Ratio (y) = 0.11543 0.31269
# Poissons Ratio (z) = 0.16199 0.42083
#
# Static dielectric constant tensor:
#      x y z
#    x 1.996840 -0.005670 0.009700 
#    y -0.005670 1.828350 -0.009570 
#    z 0.009700 -0.009570 1.802350 
# 
# From -- ./inp_files/301066.got.cif
#   From: 2010.05.17/outbox.cif.g08.bks.cpg/sg2_151_cif.got.tgz:301066.got - 2010.06.03 11:33:40.
