data_PCOD9076147
_publ_section_title
;
Structure prediction by ZEFSAII (Michael W. Deem and Ramdas Pophale) SiO2 
 PCOD9076147
Probable space group: P -1
;
_chemical_formula_sum "Si O2"
_cell_formula_units_Z 12
_cell_length_a 12.149796
_cell_length_b 14.902037
_cell_length_c 5.053829
_cell_angle_alpha 96.651542
_cell_angle_beta 104.739592
_cell_angle_gamma 49.760573
_cell_volume 674.042820
_symmetry_space_group_name_H-M "P -1"
_symmetry_group_IT_number 2
_symmetry_cell_setting 'triclinic'
loop_
_space_group_symop_operation_xyz
x,y,z
-x,-y,-z
loop_
_atom_site_type_symbol
_atom_site_label
_atom_site_fract_x
_atom_site_fract_y
_atom_site_fract_z
Si Si1 0.468124 0.320643 0.042556
Si Si2 0.336510 0.013408 0.688082
Si Si3 0.506873 0.398757 0.597159
Si Si4 0.524367 0.871464 0.259670
Si Si5 0.223754 0.817956 0.038501
Si Si6 0.938107 0.954106 0.641789
O O1 0.434010 0.366652 0.332895
O O2 0.434158 0.418474 0.846450
O O3 0.416243 0.253352 0.860614
O O4 0.648887 0.222071 0.107718
O O5 0.446057 0.906005 0.510016
O O6 0.171923 0.059345 0.568597
O O7 0.356593 0.108451 0.658710
O O8 0.399616 0.966746 0.004246
O O9 0.500000 0.500000 0.500000
O O10 0.679009 0.285250 0.722168
O O11 0.158285 0.942072 0.166583
O O12 0.083864 0.839469 0.832355
O O13 0.000000 0.000000 0.500000
#
# Coordination Sequence:
#
# PCOD9076147 Si02
#       6
#     2   2   2   2   2   2
#     4  10  18  33  50  71 100 127 161 209 251 291
#     4  10  20  29  48  68 101 136 169 198 229 297
#     4  10  20  33  51  75  97 126 167 212 254 291
#     4  10  18  33  46  70  97 135 170 198 240 287
#     4   9  20  28  49  70 101 134 156 197 249 297
#     4  11  19  31  46  75 107 136 163 192 249 301
#
# _framework density 17.803021999999999
#
# number of rings (size 3 to 8) (size 9 to 14) (size 15 to 20)
#    1.000    1.000    1.667    4.500    2.333    0.000 
#    0.000    0.000    0.000    0.000    0.000    2.333 
#    0.000    0.000    0.000    0.000    0.000    0.000 
#
# Total GULP energy -66821.949866 kJ/mol
# GULP energy per Si atom -5568.495822 kJ/mol
# Density = 1.776250 g / cm^3
# Si number density = 17.803022 Si / 1000 Ang^3
#
#
#
# Elastic Constant Matrix: (Units=GPa)
#
#
# Indices 1 2 3 4 5 6 
#
# 1 70.0267 4.5882 27.9248 -1.1846 23.4860 13.3762
# 2 4.5882 35.3422 12.4601 -7.6285 8.0600 18.0640
# 3 27.9248 12.4601 92.0532 -0.0582 9.5467 4.3719
# 4 -1.1846 -7.6285 -0.0582 21.0420 4.0701 -1.9558
# 5 23.4860 8.0600 9.5467 4.0701 36.3671 10.4327
# 6 13.3762 18.0640 4.3719 -1.9558 10.4327 21.3211
#
#
#
# Elastic Compliance Matrix: (Units=1/GPa)
#
#
# Indices 1 2 3 4 5 6 
#
# 1 0.023618 0.012374 -0.006768 0.006479 -0.011928 -0.017482
# 2 0.012374 0.063729 -0.009115 0.019848 -0.006149 -0.055058
# 3 -0.006768 -0.009115 0.013671 -0.002984 0.000681 0.008558
# 4 0.006479 0.019848 -0.002984 0.056391 -0.011377 -0.009528
# 5 -0.011928 -0.006149 0.000681 -0.011377 0.039966 -0.008046
# 6 -0.017482 -0.055058 0.008558 -0.009528 -0.008046 0.105825
#
#
# Mechanical properties :
#
#
# Convention : Reuss Voigt Hill
#
# Bulk Modulus (GPa) = 10.63816 31.92983 21.28400
# Shear Modulus (GPa) = 14.63902 25.90930 20.27416
#
# Velocity S-wave (km/s) = 2.87065 3.81902 3.37828
# Velocity P-wave (km/s) = 4.12019 6.11723 5.21519
#
# Compressibility (1/GPa) = 0.09400119
#
# Stress axis : x y z
#
# Youngs Moduli (GPa) = 42.34055 15.69133 73.14627
#
# Poissons Ratio (x) = -0.19417 0.49507
# Poissons Ratio (y) = -0.52394 0.66672
# Poissons Ratio (z) = 0.28657 0.14303
#
# Static dielectric constant tensor:
#      x y z
#    x 1.640660 0.023500 -0.026190 
#    y 0.023500 1.627600 0.021600 
#    z -0.026190 0.021600 1.670860 
# 
# From -- ./inp_files/21955.got.cif
#   From: 2010.05.17/outbox.cif.g08.bks.cpg/sg2_11_cif.got.tgz:21955.got - 2010.06.03 11:33:40.
