data_PCOD9076388
_publ_section_title
;
Structure prediction by ZEFSAII (Michael W. Deem and Ramdas Pophale) SiO2 
 PCOD9076388
Probable space group: P -1
;
_chemical_formula_sum "Si O2"
_cell_formula_units_Z 14
_cell_length_a 5.517471
_cell_length_b 10.860803
_cell_length_c 9.880384
_cell_angle_alpha 117.246714
_cell_angle_beta 86.175221
_cell_angle_gamma 113.862221
_cell_volume 476.244371
_symmetry_space_group_name_H-M "P -1"
_symmetry_group_IT_number 2
_symmetry_cell_setting 'triclinic'
loop_
_space_group_symop_operation_xyz
x,y,z
-x,-y,-z
loop_
_atom_site_type_symbol
_atom_site_label
_atom_site_fract_x
_atom_site_fract_y
_atom_site_fract_z
Si Si1 0.604523 0.794849 0.604079
Si Si2 0.798747 0.318255 0.779729
Si Si3 0.173856 0.888896 0.522426
Si Si4 0.313466 0.494928 0.357767
Si Si5 0.663089 0.410461 0.089477
Si Si6 0.907461 0.953310 0.166636
Si Si7 0.902231 0.206678 0.128291
O O1 0.394295 0.850194 0.574233
O O2 0.434717 0.612328 0.537152
O O3 0.778696 0.917524 0.770666
O O4 0.851122 0.796132 0.503352
O O5 0.775220 0.153156 0.652714
O O6 0.791421 0.406851 0.687808
O O7 0.095173 0.425473 0.874244
O O8 0.595852 0.330264 0.904107
O O9 0.193462 0.042714 0.674495
O O10 0.494954 0.457306 0.224828
O O11 0.069363 0.329397 0.300102
O O12 0.735747 0.286843 0.104959
O O13 0.778036 0.043433 0.123945
O O14 0.919692 0.817062 0.011801
#
# Coordination Sequence:
#
# PCOD9076388 Si02
#       7
#     2   2   2   2   2   2   2
#     4   9  19  36  62  83 117 150 198 232 300 341
#     4   9  18  33  56  84 118 149 189 235 304 342
#     4   9  18  37  60  86 110 158 193 240 287 355
#     4  10  19  34  56  89 117 147 191 248 284 358
#     4  10  18  33  55  85 117 152 187 243 288 355
#     4   9  21  40  57  80 118 162 190 248 285 352
#     4  10  22  37  56  86 115 151 203 233 300 338
#
# _framework density 29.396671000000001
#
# number of rings (size 3 to 8) (size 9 to 14) (size 15 to 20)
#    0.857    1.714    1.429    0.429    0.000    2.857 
#    0.000   13.571    0.000    4.286    0.000    0.000 
#    0.000    0.000    0.000    0.000    0.000    0.000 
#
# Total GULP energy -78097.666608 kJ/mol
# GULP energy per Si atom -5578.404758 kJ/mol
# Density = 2.932976 g / cm^3
# Si number density = 29.396671 Si / 1000 Ang^3
#
#
#
# Elastic Constant Matrix: (Units=GPa)
#
#
# Indices 1 2 3 4 5 6 
#
# 1 117.6964 37.3865 34.7669 17.3239 -26.5841 -9.6621
# 2 37.3865 78.4205 32.6391 9.0029 -10.7939 -13.8346
# 3 34.7669 32.6391 247.1958 21.2345 -5.7381 25.2814
# 4 17.3239 9.0029 21.2345 41.1857 -0.0534 -8.5318
# 5 -26.5841 -10.7939 -5.7381 -0.0534 34.1398 -6.8167
# 6 -9.6621 -13.8346 25.2814 -8.5318 -6.8167 38.9582
#
#
#
# Elastic Compliance Matrix: (Units=1/GPa)
#
#
# Indices 1 2 3 4 5 6 
#
# 1 0.012839 -0.003238 -0.001269 -0.003236 0.009517 0.003815
# 2 -0.003238 0.017242 -0.002574 0.000545 0.004060 0.007820
# 3 -0.001269 -0.002574 0.005340 -0.002834 -0.002042 -0.005672
# 4 -0.003236 0.000545 -0.002834 0.028480 -0.001335 0.007234
# 5 0.009517 0.004060 -0.002042 -0.001335 0.040003 0.011834
# 6 0.003815 0.007820 -0.005672 0.007234 0.011834 0.036727
#
#
# Mechanical properties :
#
#
# Convention : Reuss Voigt Hill
#
# Bulk Modulus (GPa) = 47.03913 72.54420 59.79166
# Shear Modulus (GPa) = 30.88695 45.42474 38.15584
#
# Velocity S-wave (km/s) = 3.24496 3.93521 3.60664
# Velocity P-wave (km/s) = 5.48415 6.73640 6.14227
#
# Compressibility (1/GPa) = 0.02125890
#
# Stress axis : x y z
#
# Youngs Moduli (GPa) = 77.88716 57.99661 187.27023
#
# Poissons Ratio (x) = 0.18781 0.23774
# Poissons Ratio (y) = 0.25222 0.48194
# Poissons Ratio (z) = 0.09888 0.14926
#
# Static dielectric constant tensor:
#      x y z
#    x 2.371080 0.041090 0.103100 
#    y 0.041090 2.366530 0.009690 
#    z 0.103100 0.009690 2.264450 
# 
# From -- ./inp_files/484937.got.cif
#   From: 2010.05.17/outbox.cif.g08.bks.cpg/sg2_243_cif.got.tgz:484937.got - 2010.06.03 11:33:40.
