data_PCOD9076704
_publ_section_title
;
Structure prediction by ZEFSAII (Michael W. Deem and Ramdas Pophale) SiO2 
 PCOD9076704
Probable space group: P -1
;
_chemical_formula_sum "Si O2"
_cell_formula_units_Z 16
_cell_length_a 7.853151
_cell_length_b 13.716051
_cell_length_c 9.435226
_cell_angle_alpha 106.844225
_cell_angle_beta 134.937014
_cell_angle_gamma 56.861498
_cell_volume 594.401535
_symmetry_space_group_name_H-M "P -1"
_symmetry_group_IT_number 2
_symmetry_cell_setting 'triclinic'
loop_
_space_group_symop_operation_xyz
x,y,z
-x,-y,-z
loop_
_atom_site_type_symbol
_atom_site_label
_atom_site_fract_x
_atom_site_fract_y
_atom_site_fract_z
Si Si1 0.767297 0.493407 0.232562
Si Si2 0.165755 0.910547 0.433515
Si Si3 0.273952 0.983184 0.234002
Si Si4 0.578977 0.745668 0.166692
Si Si5 0.976558 0.236226 0.205246
Si Si6 0.689661 0.268281 0.345123
Si Si7 0.424046 0.519507 0.298871
Si Si8 0.938201 0.753664 0.186287
O O1 0.792498 0.604789 0.248030
O O2 0.993782 0.355107 0.280537
O O3 0.665025 0.518612 0.345821
O O4 0.500000 0.500000 0.000000
O O5 0.251455 0.962601 0.377812
O O6 0.389048 0.800484 0.614582
O O7 0.972819 0.865245 0.223573
O O8 0.000000 0.000000 0.500000
O O9 0.529895 0.860697 0.274395
O O10 0.231320 0.113924 0.249187
O O11 0.000000 0.000000 0.000000
O O12 0.633796 0.777055 0.052313
O O13 0.294336 0.744528 0.032560
O O14 0.870614 0.217808 0.288965
O O15 0.438775 0.398098 0.214918
O O16 0.917711 0.277547 0.585060
O O17 0.500000 0.500000 0.500000
O O18 0.134269 0.640351 0.160171
#
# Coordination Sequence:
#
# PCOD9076704 Si02
#       8
#     2   2   2   2   2   2   2   2
#     4   9  18  33  55  77 104 144 176 212 266 324
#     4  10  18  33  59  75 101 146 184 206 262 331
#     4  10  19  33  57  81 105 140 182 216 263 323
#     4  10  20  33  55  83 110 136 176 232 271 296
#     4   9  17  35  53  77 105 144 179 213 255 330
#     4   8  17  32  57  71 101 138 182 206 256 320
#     4   9  16  32  55  76 102 139 182 213 254 324
#     4   9  19  33  54  83 108 133 178 231 262 303
#
# _framework density 26.917828
#
# number of rings (size 3 to 8) (size 9 to 14) (size 15 to 20)
#    0.750    2.000    1.250    0.750    0.000    0.000 
#    0.000   16.250    2.750    0.000    0.000    0.000 
#    0.000    0.000    0.000    0.000    0.000    0.000 
#
# Total GULP energy -89120.079037 kJ/mol
# GULP energy per Si atom -5570.004940 kJ/mol
# Density = 2.685656 g / cm^3
# Si number density = 26.917828 Si / 1000 Ang^3
#
#
#
# Elastic Constant Matrix: (Units=GPa)
#
#
# Indices 1 2 3 4 5 6 
#
# 1 42.3649 41.1721 1.9739 -6.5816 -7.1888 0.2867
# 2 41.1721 242.0678 5.6736 5.6359 17.9168 -8.1529
# 3 1.9739 5.6736 64.4349 -2.6086 1.2551 -7.5489
# 4 -6.5816 5.6359 -2.6086 23.0265 -0.6415 -9.5479
# 5 -7.1888 17.9168 1.2551 -0.6415 38.2604 3.0007
# 6 0.2867 -8.1529 -7.5489 -9.5479 3.0007 39.9844
#
#
#
# Elastic Compliance Matrix: (Units=1/GPa)
#
#
# Indices 1 2 3 4 5 6 
#
# 1 0.033519 -0.006664 -0.000103 0.011651 0.009583 0.000444
# 2 -0.006664 0.005664 -0.000261 -0.003140 -0.004004 0.000704
# 3 -0.000103 -0.000261 0.016152 0.003451 -0.000673 0.003871
# 4 0.011651 -0.003140 0.003451 0.053138 0.003468 0.012356
# 5 0.009583 -0.004004 -0.000673 0.003468 0.030084 -0.002441
# 6 0.000444 0.000704 0.003871 0.012356 -0.002441 0.029015
#
#
# Mechanical properties :
#
#
# Convention : Reuss Voigt Hill
#
# Bulk Modulus (GPa) = 24.22592 49.61186 36.91889
# Shear Modulus (GPa) = 25.59017 40.25747 32.92382
#
# Velocity S-wave (km/s) = 3.08665 3.87145 3.50111
# Velocity P-wave (km/s) = 4.66076 6.20122 5.48533
#
# Compressibility (1/GPa) = 0.04127810
#
# Stress axis : x y z
#
# Youngs Moduli (GPa) = 29.83393 176.55869 61.91164
#
# Poissons Ratio (x) = 1.17662 0.00637
# Poissons Ratio (y) = 0.19882 0.01617
# Poissons Ratio (z) = 0.00307 0.04612
#
# Static dielectric constant tensor:
#      x y z
#    x 2.118010 -0.007390 0.013170 
#    y -0.007390 2.219430 0.018880 
#    z 0.013170 0.018880 2.283230 
# 
# From -- ./inp_files/397569.got.cif
#   From: 2010.05.17/outbox.cif.g08.bks.cpg/sg2_199_cif.got.tgz:397569.got - 2010.06.03 11:33:40.
