data_PCOD9076888
_publ_section_title
;
Structure prediction by ZEFSAII (Michael W. Deem and Ramdas Pophale) SiO2 
 PCOD9076888
Probable space group: P -1
;
_chemical_formula_sum "Si O2"
_cell_formula_units_Z 16
_cell_length_a 9.341836
_cell_length_b 10.931064
_cell_length_c 10.010541
_cell_angle_alpha 71.507096
_cell_angle_beta 50.030054
_cell_angle_gamma 60.171411
_cell_volume 679.630296
_symmetry_space_group_name_H-M "P -1"
_symmetry_group_IT_number 2
_symmetry_cell_setting 'triclinic'
loop_
_space_group_symop_operation_xyz
x,y,z
-x,-y,-z
loop_
_atom_site_type_symbol
_atom_site_label
_atom_site_fract_x
_atom_site_fract_y
_atom_site_fract_z
Si Si1 0.905385 0.500892 0.856695
Si Si2 0.734064 0.437359 0.425426
Si Si3 0.067950 0.642422 0.394090
Si Si4 0.443487 0.043010 0.674963
Si Si5 0.691541 0.297453 0.119359
Si Si6 0.656712 0.742195 0.775691
Si Si7 0.989729 0.897751 0.182896
Si Si8 0.741750 0.170574 0.405082
O O1 0.928150 0.448683 0.706396
O O2 0.761856 0.668178 0.876437
O O3 0.130609 0.492538 0.756966
O O4 0.802980 0.404683 0.018827
O O5 0.500000 0.500000 0.500000
O O6 0.770859 0.440223 0.560744
O O7 0.825232 0.268772 0.400812
O O8 0.842959 0.710274 0.571184
O O9 0.100994 0.771933 0.264441
O O10 0.200898 0.118272 0.774266
O O11 0.575997 0.132512 0.596480
O O12 0.500000 0.000000 0.500000
O O13 0.521919 0.907923 0.772877
O O14 0.490597 0.338105 0.138538
O O15 0.630640 0.266202 0.312047
O O16 0.845882 0.145499 0.019268
O O17 0.908608 0.033087 0.281282
#
# Coordination Sequence:
#
# PCOD9076888 Si02
#       8
#     2   2   2   2   2   2   2   2
#     4  10  25  41  63  92 122 164 213 254 299 373
#     4  11  26  40  63  94 123 164 205 257 319 354
#     4  10  21  41  67  87 122 155 216 266 287 370
#     4  10  18  33  62  91 118 155 206 259 290 361
#     4  11  22  35  66  91 127 166 201 255 299 377
#     4  11  18  36  60  93 120 154 209 252 303 344
#     4  10  20  37  60  97 119 158 213 245 309 353
#     4  11  22  37  63  89 130 160 198 258 309 366
#
# _framework density 23.542211000000002
#
# number of rings (size 3 to 8) (size 9 to 14) (size 15 to 20)
#    0.000    1.500    5.000    2.250    7.000    1.000 
#    0.000    0.000    0.000    3.000    0.000    0.000 
#    0.000    0.000    0.000    0.000    0.000    0.000 
#
# Total GULP energy -89189.334876 kJ/mol
# GULP energy per Si atom -5574.333430 kJ/mol
# Density = 2.348863 g / cm^3
# Si number density = 23.542211 Si / 1000 Ang^3
#
#
#
# Elastic Constant Matrix: (Units=GPa)
#
#
# Indices 1 2 3 4 5 6 
#
# 1 78.9551 31.4282 26.8546 -1.8838 -30.1218 -2.9925
# 2 31.4282 88.6262 22.6855 -17.4142 -7.9515 1.9444
# 3 26.8546 22.6855 65.3958 -15.0760 -31.9246 1.3372
# 4 -1.8838 -17.4142 -15.0760 45.2355 6.7452 -6.1894
# 5 -30.1218 -7.9515 -31.9246 6.7452 36.9256 0.4675
# 6 -2.9925 1.9444 1.3372 -6.1894 0.4675 43.5551
#
#
#
# Elastic Compliance Matrix: (Units=1/GPa)
#
#
# Indices 1 2 3 4 5 6 
#
# 1 0.022066 -0.007382 0.001585 -0.004013 0.018501 0.001028
# 2 -0.007382 0.015492 -0.005056 0.005132 -0.007992 -0.000229
# 3 0.001585 -0.005056 0.029582 0.004216 0.025013 -0.000243
# 4 -0.004013 0.005132 0.004216 0.026249 -0.003358 0.003132
# 5 0.018501 -0.007992 0.025013 -0.003358 0.062695 -0.000290
# 6 0.001028 -0.000229 -0.000243 0.003132 -0.000290 0.023496
#
#
# Mechanical properties :
#
#
# Convention : Reuss Voigt Hill
#
# Bulk Modulus (GPa) = 22.01011 43.87929 32.94470
# Shear Modulus (GPa) = 23.10204 35.27716 29.18960
#
# Velocity S-wave (km/s) = 3.13597 3.87520 3.52502
# Velocity P-wave (km/s) = 4.74151 6.22109 5.53100
#
# Compressibility (1/GPa) = 0.04543366
#
# Stress axis : x y z
#
# Youngs Moduli (GPa) = 45.31832 64.55099 33.80410
#
# Poissons Ratio (x) = 0.47650 -0.05358
# Poissons Ratio (y) = 0.33453 0.17093
# Poissons Ratio (z) = -0.07183 0.32639
#
# Static dielectric constant tensor:
#      x y z
#    x 1.961950 0.013020 -0.010340 
#    y 0.013020 2.042950 -0.019220 
#    z -0.010340 -0.019220 1.926350 
# 
# From -- ./inp_files/392456.got.cif
#   From: 2010.05.17/outbox.cif.g08.bks.cpg/sg2_197_cif.got.tgz:392456.got - 2010.06.03 11:33:40.
