data_PCOD9076089
_publ_section_title
;
Structure prediction by ZEFSAII (Michael W. Deem and Ramdas Pophale) SiO2 
 PCOD9076089
Probable space group: P -1
;
_chemical_formula_sum "Si O2"
_cell_formula_units_Z 14
_cell_length_a 20.163240
_cell_length_b 9.691426
_cell_length_c 10.567725
_cell_angle_alpha 128.582837
_cell_angle_beta 134.103830
_cell_angle_gamma 26.337579
_cell_volume 657.887397
_symmetry_space_group_name_H-M "P -1"
_symmetry_group_IT_number 2
_symmetry_cell_setting 'triclinic'
loop_
_space_group_symop_operation_xyz
x,y,z
-x,-y,-z
loop_
_atom_site_type_symbol
_atom_site_label
_atom_site_fract_x
_atom_site_fract_y
_atom_site_fract_z
Si Si1 0.426594 0.607691 0.677784
Si Si2 0.192189 0.062494 0.973925
Si Si3 0.035991 0.538025 0.861637
Si Si4 0.505416 0.162272 0.687572
Si Si5 0.266564 0.882455 0.372993
Si Si6 0.380212 0.421021 0.926204
Si Si7 0.185948 0.638384 0.035642
O O1 0.293697 0.873820 0.551115
O O2 0.441515 0.212300 0.770924
O O3 0.400603 0.481207 0.661188
O O4 0.479220 0.694681 0.878553
O O5 0.320325 0.014359 0.157520
O O6 0.056707 0.262698 0.017859
O O7 0.114974 0.229877 0.831621
O O8 0.283534 0.735243 0.914516
O O9 0.175447 0.460660 0.974875
O O10 0.897884 0.774421 0.706117
O O11 0.500000 0.000000 0.500000
O O12 0.583238 0.302146 0.624201
O O13 0.270466 0.662438 0.238352
O O14 0.266664 0.510003 0.931116
O O15 0.000000 0.000000 0.000000
#
# Coordination Sequence:
#
# PCOD9076089 Si02
#       7
#     2   2   2   2   2   2   2
#     4   9  17  33  59  89 117 153 196 244 296 356
#     4  10  19  35  60  92 118 162 195 240 303 359
#     4  10  18  32  60  90 124 159 198 233 297 365
#     4  11  23  38  61  87 118 153 207 260 295 343
#     4   9  16  30  57  91 116 158 198 229 297 361
#     4  10  19  39  63  88 117 158 203 243 304 353
#     4   9  16  32  58  91 119 158 190 239 293 359
#
# _framework density 21.280238000000001
#
# number of rings (size 3 to 8) (size 9 to 14) (size 15 to 20)
#    0.000    2.286    5.714    1.714    2.000    0.000 
#    0.000    0.714    6.286   24.857    0.000    0.000 
#    0.000    0.000    0.000    0.000    0.000    0.000 
#
# Total GULP energy -78074.948172 kJ/mol
# GULP energy per Si atom -5576.782012 kJ/mol
# Density = 2.123180 g / cm^3
# Si number density = 21.280238 Si / 1000 Ang^3
#
#
#
# Elastic Constant Matrix: (Units=GPa)
#
#
# Indices 1 2 3 4 5 6 
#
# 1 151.9271 37.8102 59.1518 1.5678 -11.6482 0.5400
# 2 37.8102 54.6298 32.0726 -12.1334 -13.1747 17.0688
# 3 59.1518 32.0726 51.0048 -3.0026 -17.6493 3.6313
# 4 1.5678 -12.1334 -3.0026 22.2483 4.6266 -18.2354
# 5 -11.6482 -13.1747 -17.6493 4.6266 38.5118 -6.5844
# 6 0.5400 17.0688 3.6313 -18.2354 -6.5844 41.0447
#
#
#
# Elastic Compliance Matrix: (Units=1/GPa)
#
#
# Indices 1 2 3 4 5 6 
#
# 1 0.012525 -0.001248 -0.015009 -0.003093 -0.003180 -0.000202
# 2 -0.001248 0.035681 -0.019757 0.009682 0.000115 -0.008754
# 3 -0.015009 -0.019757 0.054009 -0.000878 0.014511 0.005573
# 4 -0.003093 0.009682 -0.000878 0.074356 -0.002035 0.028801
# 5 -0.003180 0.000115 0.014511 -0.002035 0.032453 0.003013
# 6 -0.000202 -0.008754 0.005573 0.028801 0.003013 0.040793
#
#
# Mechanical properties :
#
#
# Convention : Reuss Voigt Hill
#
# Bulk Modulus (GPa) = 33.12625 57.29233 45.20929
# Shear Modulus (GPa) = 15.06443 28.92943 21.99693
#
# Velocity S-wave (km/s) = 2.66354 3.69107 3.21858
# Velocity P-wave (km/s) = 5.00597 6.71912 5.92479
#
# Compressibility (1/GPa) = 0.03018754
#
# Stress axis : x y z
#
# Youngs Moduli (GPa) = 79.83846 28.02637 18.51535
#
# Poissons Ratio (x) = 0.03497 0.27791
# Poissons Ratio (y) = 0.09962 0.36580
# Poissons Ratio (z) = 1.19833 0.55371
#
# Static dielectric constant tensor:
#      x y z
#    x 1.809190 -0.026250 0.009440 
#    y -0.026250 1.911160 -0.029000 
#    z 0.009440 -0.029000 1.775410 
# 
# From -- ./inp_files/536736.got.cif
#   From: 2010.05.17/outbox.cif.g08.bks.cpg/sg2_269_cif.got.tgz:536736.got - 2010.06.03 11:33:40.
