data_PCOD9076649
_publ_section_title
;
Structure prediction by ZEFSAII (Michael W. Deem and Ramdas Pophale) SiO2 
 PCOD9076649
Probable space group: P -1
;
_chemical_formula_sum "Si O2"
_cell_formula_units_Z 16
_cell_length_a 9.424373
_cell_length_b 8.831418
_cell_length_c 29.062559
_cell_angle_alpha 37.155613
_cell_angle_beta 39.659408
_cell_angle_gamma 31.755757
_cell_volume 735.877772
_symmetry_space_group_name_H-M "P -1"
_symmetry_group_IT_number 2
_symmetry_cell_setting 'triclinic'
loop_
_space_group_symop_operation_xyz
x,y,z
-x,-y,-z
loop_
_atom_site_type_symbol
_atom_site_label
_atom_site_fract_x
_atom_site_fract_y
_atom_site_fract_z
Si Si1 0.187987 0.615106 0.549845
Si Si2 0.304379 0.432991 0.091316
Si Si3 0.897588 0.859137 0.944954
Si Si4 0.724733 0.799063 0.098796
Si Si5 0.284805 0.472171 0.663562
Si Si6 0.691560 0.761555 0.763262
Si Si7 0.547925 0.504581 0.151348
Si Si8 0.290932 0.348064 0.490563
O O1 0.500000 0.500000 0.500000
O O2 0.176499 0.505368 0.630081
O O3 0.185815 0.436591 0.548997
O O4 0.000000 0.000000 0.500000
O O5 0.329274 0.401915 0.147222
O O6 0.980883 0.666196 0.101343
O O7 0.433852 0.084671 0.124206
O O8 0.500000 0.500000 0.000000
O O9 0.188630 0.782449 0.875110
O O10 0.639776 0.143397 0.910509
O O11 0.804410 0.923057 0.005487
O O12 0.000000 0.500000 0.000000
O O13 0.687552 0.543468 0.150810
O O14 0.516744 0.533299 0.591680
O O15 0.985248 0.707867 0.706481
O O16 0.444349 0.129500 0.729186
O O17 0.659134 0.587029 0.771424
O O18 0.000000 0.500000 0.500000
O O19 0.500000 0.000000 0.500000
#
# Coordination Sequence:
#
# PCOD9076649 Si02
#       8
#     2   2   2   2   2   2   2   2
#     4  10  20  40  69  99 132 171 215 258 312 396
#     4  12  25  41  61  88 124 171 224 279 341 396
#     4  10  18  33  58  86 110 142 202 279 338 381
#     4  11  21  38  60  83 111 150 210 280 329 384
#     4  11  24  44  66  95 136 180 217 266 331 402
#     4  12  25  43  62  90 132 178 221 276 342 403
#     4  11  22  38  59  85 115 159 210 264 330 405
#     4  11  22  41  72 108 138 171 216 266 323 399
#
# _framework density 21.742740999999999
#
# number of rings (size 3 to 8) (size 9 to 14) (size 15 to 20)
#    0.000    1.000    0.000   10.875    0.000    0.000 
#    0.000    7.500    0.000    0.000    0.000    0.000 
#    0.000    0.000    0.000    0.000    0.000    0.000 
#
# Total GULP energy -89158.255244 kJ/mol
# GULP energy per Si atom -5572.390953 kJ/mol
# Density = 2.169325 g / cm^3
# Si number density = 21.742741 Si / 1000 Ang^3
#
#
#
# Elastic Constant Matrix: (Units=GPa)
#
#
# Indices 1 2 3 4 5 6 
#
# 1 121.9500 21.5667 26.6026 -4.0791 -0.2507 -6.5569
# 2 21.5667 122.9592 4.1326 -0.0627 8.6471 -16.8009
# 3 26.6026 4.1326 61.9796 10.9358 -6.9657 -8.5955
# 4 -4.0791 -0.0627 10.9358 28.1567 -5.7790 0.8057
# 5 -0.2507 8.6471 -6.9657 -5.7790 34.3006 -2.5985
# 6 -6.5569 -16.8009 -8.5955 0.8057 -2.5985 40.6496
#
#
#
# Elastic Compliance Matrix: (Units=1/GPa)
#
#
# Indices 1 2 3 4 5 6 
#
# 1 0.009571 -0.001544 -0.004576 0.003175 0.000056 -0.000121
# 2 -0.001544 0.009006 0.000469 -0.000911 -0.002078 0.003458
# 3 -0.004576 0.000469 0.020397 -0.008099 0.002938 0.004117
# 4 0.003175 -0.000911 -0.008099 0.040252 0.005235 -0.002040
# 5 0.000056 -0.002078 0.002938 0.005235 0.031283 0.001667
# 6 -0.000121 0.003458 0.004117 -0.002040 0.001667 0.027028
#
#
# Mechanical properties :
#
#
# Convention : Reuss Voigt Hill
#
# Bulk Modulus (GPa) = 36.13690 45.72139 40.92914
# Shear Modulus (GPa) = 31.63295 37.59385 34.61340
#
# Velocity S-wave (km/s) = 3.81842 4.16267 3.99426
# Velocity P-wave (km/s) = 6.00805 6.64664 6.33540
#
# Compressibility (1/GPa) = 0.02767255
#
# Stress axis : x y z
#
# Youngs Moduli (GPa) = 104.48094 111.03814 49.02615
#
# Poissons Ratio (x) = 0.17142 0.22434
# Poissons Ratio (y) = 0.16130 -0.02299
# Poissons Ratio (z) = 0.47810 -0.05206
#
# Static dielectric constant tensor:
#      x y z
#    x 1.902220 0.091210 -0.010260 
#    y 0.091210 1.828840 0.035730 
#    z -0.010260 0.035730 1.928060 
# 
# From -- ./inp_files/622383.got.cif
#   From: 2010.05.17/outbox.cif.g08.bks.cpg/sg2_312_cif.got.tgz:622383.got - 2010.06.03 11:33:40.
