data_PCOD9076796
_publ_section_title
;
Structure prediction by ZEFSAII (Michael W. Deem and Ramdas Pophale) SiO2 
 PCOD9076796
Probable space group: P -1
;
_chemical_formula_sum "Si O2"
_cell_formula_units_Z 16
_cell_length_a 17.034016
_cell_length_b 6.748856
_cell_length_c 10.257301
_cell_angle_alpha 101.015831
_cell_angle_beta 142.269542
_cell_angle_gamma 99.125956
_cell_volume 606.876053
_symmetry_space_group_name_H-M "P -1"
_symmetry_group_IT_number 2
_symmetry_cell_setting 'triclinic'
loop_
_space_group_symop_operation_xyz
x,y,z
-x,-y,-z
loop_
_atom_site_type_symbol
_atom_site_label
_atom_site_fract_x
_atom_site_fract_y
_atom_site_fract_z
Si Si1 0.871720 0.696383 0.314253
Si Si2 0.200461 0.885891 0.346190
Si Si3 0.919658 0.774743 0.092252
Si Si4 0.830538 0.222812 0.203796
Si Si5 0.564228 0.532326 0.940980
Si Si6 0.515417 0.047639 0.685556
Si Si7 0.997448 0.300960 0.185667
Si Si8 0.722380 0.584119 0.558212
O O1 0.849410 0.699023 0.131389
O O2 0.837423 0.449011 0.305910
O O3 0.052431 0.841933 0.589999
O O4 0.740075 0.724474 0.206301
O O5 0.080614 0.791943 0.294972
O O6 0.355211 0.890687 0.528923
O O7 0.246183 0.155728 0.410006
O O8 0.091136 0.735179 0.067281
O O9 0.964736 0.041116 0.150122
O O10 0.795505 0.620916 0.801175
O O11 0.906349 0.340245 0.179957
O O12 0.659167 0.036660 0.922367
O O13 0.556220 0.310092 0.823234
O O14 0.452511 0.579081 0.715802
O O15 0.500000 0.500000 0.000000
O O16 0.500000 0.000000 0.500000
O O17 0.171934 0.457361 0.404100
#
# Coordination Sequence:
#
# PCOD9076796 Si02
#       8
#     2   2   2   2   2   2   2   2
#     4  10  22  36  51  80 117 151 181 228 292 339
#     4   8  15  30  53  83 107 137 183 235 273 323
#     4   9  18  33  54  83 114 139 187 239 278 325
#     4  10  20  34  54  77 109 150 189 228 279 344
#     4  10  20  35  57  83 114 149 188 231 281 341
#     4  10  18  33  60  85 104 145 198 233 267 333
#     4   9  15  30  56  78 105 139 187 228 276 326
#     4   8  16  30  54  81 105 146 186 229 269 329
#
# _framework density 26.364529000000001
#
# number of rings (size 3 to 8) (size 9 to 14) (size 15 to 20)
#    0.000    2.750    1.250    2.250    0.000    1.000 
#    0.000    3.125    0.000    3.000    0.000    0.000 
#    0.000    0.000    0.000    0.000    0.000    0.000 
#
# Total GULP energy -89222.746669 kJ/mol
# GULP energy per Si atom -5576.421667 kJ/mol
# Density = 2.630452 g / cm^3
# Si number density = 26.364529 Si / 1000 Ang^3
#
#
#
# Elastic Constant Matrix: (Units=GPa)
#
#
# Indices 1 2 3 4 5 6 
#
# 1 155.4403 38.4394 93.3305 -11.5391 26.6727 29.5333
# 2 38.4394 77.0671 39.1929 4.9135 13.7215 0.4717
# 3 93.3305 39.1929 194.2345 -8.0024 55.7045 12.7832
# 4 -11.5391 4.9135 -8.0024 35.0023 -2.6115 10.7632
# 5 26.6727 13.7215 55.7045 -2.6115 72.9151 2.6280
# 6 29.5333 0.4717 12.7832 10.7632 2.6280 52.3903
#
#
#
# Elastic Compliance Matrix: (Units=1/GPa)
#
#
# Indices 1 2 3 4 5 6 
#
# 1 0.011520 -0.003985 -0.004103 0.005451 0.000103 -0.006582
# 2 -0.003985 0.016204 -0.001607 -0.005106 -0.000676 0.003575
# 3 -0.004103 -0.001607 0.008864 0.000429 -0.004965 0.000325
# 4 0.005451 -0.005106 0.000429 0.034334 0.000236 -0.010197
# 5 0.000103 -0.000676 -0.004965 0.000236 0.017598 0.000228
# 6 -0.006582 0.003575 0.000325 -0.010197 0.000228 0.024770
#
#
# Mechanical properties :
#
#
# Convention : Reuss Voigt Hill
#
# Bulk Modulus (GPa) = 58.14199 85.40749 71.77474
# Shear Modulus (GPa) = 36.12388 49.11350 42.61869
#
# Velocity S-wave (km/s) = 3.70560 4.32077 4.02495
# Velocity P-wave (km/s) = 6.35685 7.57346 6.99167
#
# Compressibility (1/GPa) = 0.01719927
#
# Stress axis : x y z
#
# Youngs Moduli (GPa) = 86.80684 61.71184 112.81089
#
# Poissons Ratio (x) = 0.24591 0.46287
# Poissons Ratio (y) = 0.34590 0.18127
# Poissons Ratio (z) = 0.35617 0.09916
#
# Static dielectric constant tensor:
#      x y z
#    x 2.121890 -0.143710 -0.023750 
#    y -0.143710 2.215060 0.063960 
#    z -0.023750 0.063960 2.102590 
# 
# From -- ./inp_files/305436.got.cif
#   From: 2010.05.17/outbox.cif.g08.bks.cpg/sg2_153_cif.got.tgz:305436.got - 2010.06.03 11:33:40.
