data_PCOD9076634
_publ_section_title
;
Structure prediction by ZEFSAII (Michael W. Deem and Ramdas Pophale) SiO2 
 PCOD9076634
Probable space group: P -1
;
_chemical_formula_sum "Si O2"
_cell_formula_units_Z 16
_cell_length_a 11.473447
_cell_length_b 22.453151
_cell_length_c 8.762920
_cell_angle_alpha 131.344566
_cell_angle_beta 53.756077
_cell_angle_gamma 153.483827
_cell_volume 756.639322
_symmetry_space_group_name_H-M "P -1"
_symmetry_group_IT_number 2
_symmetry_cell_setting 'triclinic'
loop_
_space_group_symop_operation_xyz
x,y,z
-x,-y,-z
loop_
_atom_site_type_symbol
_atom_site_label
_atom_site_fract_x
_atom_site_fract_y
_atom_site_fract_z
Si Si1 0.897987 0.524978 0.518509
Si Si2 0.515631 0.746845 0.808311
Si Si3 0.270671 0.181122 0.904711
Si Si4 0.685062 0.984048 0.984030
Si Si5 0.009400 0.068337 0.468898
Si Si6 0.319400 0.842218 0.768195
Si Si7 0.925305 0.725919 0.124623
Si Si8 0.580564 0.438204 0.904966
O O1 0.748484 0.418696 0.311727
O O2 0.699575 0.475976 0.709199
O O3 0.000000 0.500000 0.500000
O O4 0.137499 0.693069 0.580740
O O5 0.715260 0.818894 0.638301
O O6 0.641041 0.775718 0.916860
O O7 0.513052 0.841608 0.968319
O O8 0.496312 0.321911 0.864176
O O9 0.211668 0.064827 0.699394
O O10 0.988974 0.097055 0.958762
O O11 0.653907 0.062829 0.181818
O O12 0.580018 0.929029 0.795952
O O13 0.000788 0.158219 0.657293
O O14 0.000000 0.000000 0.500000
O O15 0.156738 0.795434 0.965096
O O16 0.695846 0.645784 0.049253
O O17 0.783307 0.588583 0.089257
#
# Coordination Sequence:
#
# PCOD9076634 Si02
#       8
#     2   2   2   2   2   2   2   2
#     4  11  21  39  62  89 109 148 205 245 281 346
#     4  11  22  37  59  87 120 156 189 243 296 341
#     4  11  22  38  58  89 121 154 191 237 299 350
#     4  10  19  35  54  85 119 151 185 236 290 337
#     4  11  18  33  58  87 112 149 201 237 275 337
#     4  10  20  33  60  88 116 147 195 245 288 327
#     4  10  18  33  58  84 113 144 204 243 277 330
#     4  10  20  36  59  84 114 152 193 245 286 334
#
# _framework density 21.146137
#
# number of rings (size 3 to 8) (size 9 to 14) (size 15 to 20)
#    0.000    1.500    5.000    2.250    0.000    0.000 
#    0.000    4.375    0.000    3.000    0.000    0.000 
#    0.000    0.000    0.000    0.000    0.000    0.000 
#
# Total GULP energy -89197.452576 kJ/mol
# GULP energy per Si atom -5574.840786 kJ/mol
# Density = 2.109801 g / cm^3
# Si number density = 21.146137 Si / 1000 Ang^3
#
#
#
# Elastic Constant Matrix: (Units=GPa)
#
#
# Indices 1 2 3 4 5 6 
#
# 1 77.3229 27.8050 43.2019 26.3641 0.8634 9.7524
# 2 27.8050 79.6453 40.3943 47.9686 -0.5889 -5.6607
# 3 43.2019 40.3943 92.3548 49.3498 -0.5988 0.0142
# 4 26.3641 47.9686 49.3498 49.0089 -3.3098 -10.5698
# 5 0.8634 -0.5889 -0.5988 -3.3098 35.2101 9.4893
# 6 9.7524 -5.6607 0.0142 -10.5698 9.4893 22.8063
#
#
#
# Elastic Compliance Matrix: (Units=1/GPa)
#
#
# Indices 1 2 3 4 5 6 
#
# 1 0.020371 -0.000637 -0.004804 -0.008290 0.002313 -0.013670
# 2 -0.000637 0.034808 0.009831 -0.046331 -0.000229 -0.012471
# 3 -0.004804 0.009831 0.030838 -0.041273 0.000987 -0.015064
# 4 -0.008290 -0.046331 -0.041273 0.122366 -0.003286 0.050149
# 5 0.002313 -0.000229 0.000987 -0.003286 0.032371 -0.016039
# 6 -0.013670 -0.012471 -0.015064 0.050149 -0.016039 0.076522
#
#
# Mechanical properties :
#
#
# Convention : Reuss Voigt Hill
#
# Bulk Modulus (GPa) = 10.54880 52.45839 31.50359
# Shear Modulus (GPa) = 14.70184 30.59985 22.65085
#
# Velocity S-wave (km/s) = 2.63962 3.80816 3.27640
# Velocity P-wave (km/s) = 3.78014 6.64812 5.40772
#
# Compressibility (1/GPa) = 0.09479753
#
# Stress axis : x y z
#
# Youngs Moduli (GPa) = 49.09050 28.72878 32.42785
#
# Poissons Ratio (x) = 0.01830 0.15577
# Poissons Ratio (y) = 0.03127 -0.31880
# Poissons Ratio (z) = 0.23581 -0.28244
#
# Static dielectric constant tensor:
#      x y z
#    x 1.818330 0.023260 -0.108560 
#    y 0.023260 1.864730 -0.012380 
#    z -0.108560 -0.012380 1.898570 
# 
# From -- ./inp_files/284919.got.cif
#   From: 2010.05.17/outbox.cif.g08.bks.cpg/sg2_143_cif.got.tgz:284919.got - 2010.06.03 11:33:40.
