data_PCOD9076567
_publ_section_title
;
Structure prediction by ZEFSAII (Michael W. Deem and Ramdas Pophale) SiO2 
 PCOD9076567
Probable space group: P -1
;
_chemical_formula_sum "Si O2"
_cell_formula_units_Z 16
_cell_length_a 17.087927
_cell_length_b 8.467691
_cell_length_c 20.844358
_cell_angle_alpha 26.975596
_cell_angle_beta 147.099108
_cell_angle_gamma 138.245988
_cell_volume 743.118547
_symmetry_space_group_name_H-M "P -1"
_symmetry_group_IT_number 2
_symmetry_cell_setting 'triclinic'
loop_
_space_group_symop_operation_xyz
x,y,z
-x,-y,-z
loop_
_atom_site_type_symbol
_atom_site_label
_atom_site_fract_x
_atom_site_fract_y
_atom_site_fract_z
Si Si1 0.037402 0.124688 0.133949
Si Si2 0.746163 0.844742 0.178034
Si Si3 0.233926 0.164932 0.021677
Si Si4 0.420984 0.379116 0.737797
Si Si5 0.708710 0.671942 0.851336
Si Si6 0.510132 0.082084 0.165705
Si Si7 0.203590 0.693675 0.704690
Si Si8 0.094070 0.446485 0.491756
O O1 0.188863 0.139265 0.196400
O O2 0.047201 0.840329 0.300221
O O3 0.910887 0.017870 0.036168
O O4 0.000000 0.500000 0.000000
O O5 0.610507 0.736083 0.168742
O O6 0.756152 0.635176 0.194822
O O7 0.875793 0.691015 0.366514
O O8 0.750335 0.259225 0.027125
O O9 0.219827 0.551630 0.839902
O O10 0.257791 0.196086 0.102049
O O11 0.375613 0.986275 0.151990
O O12 0.538462 0.683138 0.713543
O O13 0.256998 0.428128 0.582387
O O14 0.490749 0.104983 0.835600
O O15 0.671862 0.030297 0.323627
O O16 0.500000 0.500000 0.000000
O O17 0.037558 0.776613 0.546279
#
# Coordination Sequence:
#
# PCOD9076567 Si02
#       8
#     2   2   2   2   2   2   2   2
#     4  11  23  43  66  85 116 161 201 244 298 359
#     4  10  20  36  61  93 119 153 198 248 297 348
#     4  10  22  37  57  91 118 151 206 245 288 352
#     4  10  22  36  59  90 125 152 201 244 302 344
#     4  12  21  38  65  88 117 164 199 240 294 360
#     4  10  18  33  57  86 119 157 194 243 292 350
#     4  10  18  35  57  85 125 154 192 243 300 346
#     4   9  23  38  59  91 125 151 199 248 300 347
#
# _framework density 21.530884
#
# number of rings (size 3 to 8) (size 9 to 14) (size 15 to 20)
#    0.750    1.000    0.000    7.125    0.000    1.000 
#    2.250    0.000    2.750    1.500    0.000    0.000 
#    0.000    0.000    0.000    0.000    0.000    0.000 
#
# Total GULP energy -89178.041887 kJ/mol
# GULP energy per Si atom -5573.627618 kJ/mol
# Density = 2.148188 g / cm^3
# Si number density = 21.530884 Si / 1000 Ang^3
#
#
#
# Elastic Constant Matrix: (Units=GPa)
#
#
# Indices 1 2 3 4 5 6 
#
# 1 94.4573 25.0258 18.2443 6.3331 5.9604 7.3547
# 2 25.0258 95.5584 27.2033 29.0685 9.8129 13.9577
# 3 18.2443 27.2033 66.3819 26.2072 11.2255 2.3958
# 4 6.3331 29.0685 26.2072 40.6318 5.7495 17.2258
# 5 5.9604 9.8129 11.2255 5.7495 28.2427 6.6348
# 6 7.3547 13.9577 2.3958 17.2258 6.6348 47.2358
#
#
#
# Elastic Compliance Matrix: (Units=1/GPa)
#
#
# Indices 1 2 3 4 5 6 
#
# 1 0.011925 -0.002831 -0.003202 0.003113 -0.000440 -0.001931
# 2 -0.002831 0.014475 -0.001415 -0.008562 -0.002043 -0.000355
# 3 -0.003202 -0.001415 0.023454 -0.015339 -0.006496 0.006234
# 4 0.003113 -0.008562 -0.015339 0.045836 0.002427 -0.014233
# 5 -0.000440 -0.002043 -0.006496 0.002427 0.039576 -0.005442
# 6 -0.001931 -0.000355 0.006234 -0.014233 -0.005442 0.027215
#
#
# Mechanical properties :
#
#
# Convention : Reuss Voigt Hill
#
# Bulk Modulus (GPa) = 28.60669 44.14936 36.37802
# Shear Modulus (GPa) = 26.45076 35.61701 31.03388
#
# Velocity S-wave (km/s) = 3.50880 4.07163 3.80065
# Velocity P-wave (km/s) = 5.45260 6.53100 6.01601
#
# Compressibility (1/GPa) = 0.03495686
#
# Stress axis : x y z
#
# Youngs Moduli (GPa) = 83.85897 69.08275 42.63684
#
# Poissons Ratio (x) = 0.19558 0.13653
# Poissons Ratio (y) = 0.23742 0.06035
# Poissons Ratio (z) = 0.26852 0.09778
#
# Static dielectric constant tensor:
#      x y z
#    x 1.785710 0.026210 0.055400 
#    y 0.026210 1.800070 0.066520 
#    z 0.055400 0.066520 1.861870 
# 
# From -- ./inp_files/612804.got.cif
#   From: 2010.05.17/outbox.cif.g08.bks.cpg/sg2_307_cif.got.tgz:612804.got - 2010.06.03 11:33:40.
