data_PCOD9076440
_publ_section_title
;
Structure prediction by ZEFSAII (Michael W. Deem and Ramdas Pophale) SiO2 
 PCOD9076440
Probable space group: P -1
;
_chemical_formula_sum "Si O2"
_cell_formula_units_Z 16
_cell_length_a 10.333331
_cell_length_b 13.606428
_cell_length_c 10.094064
_cell_angle_alpha 56.704094
_cell_angle_beta 58.296683
_cell_angle_gamma 107.019785
_cell_volume 581.550279
_symmetry_space_group_name_H-M "P -1"
_symmetry_group_IT_number 2
_symmetry_cell_setting 'triclinic'
loop_
_space_group_symop_operation_xyz
x,y,z
-x,-y,-z
loop_
_atom_site_type_symbol
_atom_site_label
_atom_site_fract_x
_atom_site_fract_y
_atom_site_fract_z
Si Si1 0.157399 0.485819 0.004943
Si Si2 0.707234 0.765708 0.200409
Si Si3 0.612684 0.849749 0.794638
Si Si4 0.725532 0.152678 0.991998
Si Si5 0.869097 0.757955 0.371627
Si Si6 0.139133 0.867138 0.778253
Si Si7 0.319932 0.698759 0.504090
Si Si8 0.203313 0.276923 0.260454
O O1 0.269134 0.447662 0.050823
O O2 0.951237 0.291233 0.157523
O O3 0.984895 0.455617 0.220419
O O4 0.344384 0.671656 0.665114
O O5 0.434016 0.659515 0.390713
O O6 0.673337 0.667487 0.425055
O O7 0.886671 0.793399 0.994294
O O8 0.891011 0.995853 0.959980
O O9 0.372456 0.776939 0.026704
O O10 0.622563 0.716402 0.901864
O O11 0.653157 0.919866 0.569035
O O12 0.893289 0.061825 0.552893
O O13 0.762646 0.130522 0.140884
O O14 0.493019 0.924172 0.224505
O O15 0.996948 0.284332 0.682329
O O16 0.782969 0.723489 0.590766
#
# Coordination Sequence:
#
# PCOD9076440 Si02
#       8
#     2   2   2   2   2   2   2   2
#     4  10  22  36  51  79 108 144 168 214 259 316
#     4   9  18  32  53  78  99 138 174 218 257 299
#     4  10  19  30  50  81 107 133 168 218 262 306
#     4  10  19  33  57  85  97 135 177 223 258 295
#     4   9  18  31  52  78 108 129 171 222 262 304
#     4  10  18  33  56  81 103 128 181 218 259 296
#     4  10  20  36  53  76 110 134 181 210 256 315
#     4  10  19  33  48  75 114 139 165 213 268 312
#
# _framework density 27.512667
#
# number of rings (size 3 to 8) (size 9 to 14) (size 15 to 20)
#    0.000    2.250    3.750    1.125    0.000    1.000 
#    0.000    0.625    0.000    0.000    0.000    8.750 
#    0.000    0.000    0.000    0.000    0.000    0.000 
#
# Total GULP energy -89569.118858 kJ/mol
# GULP energy per Si atom -5598.069929 kJ/mol
# Density = 2.745005 g / cm^3
# Si number density = 27.512667 Si / 1000 Ang^3
#
#
#
# Elastic Constant Matrix: (Units=GPa)
#
#
# Indices 1 2 3 4 5 6 
#
# 1 145.0174 52.3180 42.5134 20.4973 -27.3867 -60.5354
# 2 52.3180 65.3333 22.1978 7.8825 -27.7115 -34.4245
# 3 42.5134 22.1978 49.0936 13.0005 -23.6796 -25.9133
# 4 20.4973 7.8825 13.0005 38.6724 -15.9797 -23.3746
# 5 -27.3867 -27.7115 -23.6796 -15.9797 51.4084 19.5379
# 6 -60.5354 -34.4245 -25.9133 -23.3746 19.5379 56.1363
#
#
#
# Elastic Compliance Matrix: (Units=1/GPa)
#
#
# Indices 1 2 3 4 5 6 
#
# 1 0.014354 -0.004292 -0.005381 0.001524 -0.000981 0.011340
# 2 -0.004292 0.029403 0.000726 0.008938 0.011571 0.013433
# 3 -0.005381 0.000726 0.032997 -0.000453 0.010259 0.006115
# 4 0.001524 0.008938 -0.000453 0.039589 0.010180 0.019857
# 5 -0.000981 0.011571 0.010259 0.010180 0.031520 0.004042
# 6 0.011340 0.013433 0.006115 0.019857 0.004042 0.047963
#
#
# Mechanical properties :
#
#
# Convention : Reuss Voigt Hill
#
# Bulk Modulus (GPa) = 16.98920 54.83365 35.91143
# Shear Modulus (GPa) = 21.42782 38.73776 30.08279
#
# Velocity S-wave (km/s) = 2.79379 3.75640 3.31027
# Velocity P-wave (km/s) = 4.07375 6.22797 5.26228
#
# Compressibility (1/GPa) = 0.05886091
#
# Stress axis : x y z
#
# Youngs Moduli (GPa) = 69.66494 34.00969 30.30597
#
# Poissons Ratio (x) = 0.14595 0.16309
# Poissons Ratio (y) = 0.29897 -0.02200
# Poissons Ratio (z) = 0.37489 -0.02469
#
# Static dielectric constant tensor:
#      x y z
#    x 2.113340 0.010490 -0.040610 
#    y 0.010490 2.126700 -0.006520 
#    z -0.040610 -0.006520 2.154720 
# 
# From -- ./inp_files/252521.got.cif
#   From: 2010.05.17/outbox.cif.g08.bks.cpg/sg2_127_cif.got.tgz:252521.got - 2010.06.03 11:33:40.
