data_PCOD9076760
_publ_section_title
;
Structure prediction by ZEFSAII (Michael W. Deem and Ramdas Pophale) SiO2 
 PCOD9076760
Probable space group: P -1
;
_chemical_formula_sum "Si O2"
_cell_formula_units_Z 14
_cell_length_a 17.346008
_cell_length_b 6.039206
_cell_length_c 9.967096
_cell_angle_alpha 130.962498
_cell_angle_beta 47.917999
_cell_angle_gamma 131.946722
_cell_volume 534.061113
_symmetry_space_group_name_H-M "P -1"
_symmetry_group_IT_number 2
_symmetry_cell_setting 'triclinic'
loop_
_space_group_symop_operation_xyz
x,y,z
-x,-y,-z
loop_
_atom_site_type_symbol
_atom_site_label
_atom_site_fract_x
_atom_site_fract_y
_atom_site_fract_z
Si Si1 0.322896 0.172625 0.078055
Si Si2 0.905385 0.247185 0.676053
Si Si3 0.056935 0.241436 0.725174
Si Si4 0.107734 0.106033 0.013679
Si Si5 0.657381 0.837891 0.363136
Si Si6 0.312049 0.630046 0.662322
Si Si7 0.530738 0.368879 0.102999
O O1 0.420726 0.350160 0.143198
O O2 0.201481 0.028522 0.232883
O O3 0.352536 0.452978 0.046163
O O4 0.339142 0.889590 0.857826
O O5 0.870500 0.541108 0.821018
O O6 0.020056 0.347904 0.671112
O O7 0.927876 0.087680 0.453998
O O8 0.176066 0.467366 0.737769
O O9 0.945400 0.148451 0.908066
O O10 0.218063 0.107337 0.815387
O O11 0.000000 0.000000 0.000000
O O12 0.657348 0.666819 0.439802
O O13 0.560778 0.559208 0.281073
O O14 0.644794 0.157749 0.442675
O O15 0.500000 0.000000 0.000000
#
# Coordination Sequence:
#
# PCOD9076760 Si02
#       7
#     2   2   2   2   2   2   2
#     4  10  20  35  60  88 119 152 208 253 308 357
#     4  11  23  40  55  88 124 165 203 246 308 369
#     4  11  24  37  58  83 127 167 204 244 305 368
#     4  12  21  36  61  89 121 158 205 254 295 359
#     4  11  22  35  64  92 124 150 205 260 308 354
#     4  11  21  39  59  92 117 164 203 255 300 362
#     4  10  18  33  59  91 114 151 195 265 308 355
#
# _framework density 26.214229
#
# number of rings (size 3 to 8) (size 9 to 14) (size 15 to 20)
#    0.000    1.143    4.286    3.000    0.000    1.714 
#    0.000    0.000    0.000    8.571    0.000    0.000 
#    0.000    0.000    0.000    0.000    0.000    0.000 
#
# Total GULP energy -78221.549195 kJ/mol
# GULP energy per Si atom -5587.253514 kJ/mol
# Density = 2.615456 g / cm^3
# Si number density = 26.214229 Si / 1000 Ang^3
#
#
#
# Elastic Constant Matrix: (Units=GPa)
#
#
# Indices 1 2 3 4 5 6 
#
# 1 148.1899 42.4643 25.6027 -2.0243 14.7208 12.8331
# 2 42.4643 169.5898 36.1423 -17.7505 -6.3770 -8.1242
# 3 25.6027 36.1423 51.6702 -6.5922 -15.6501 0.3487
# 4 -2.0243 -17.7505 -6.5922 34.3325 8.8464 -3.2691
# 5 14.7208 -6.3770 -15.6501 8.8464 23.5899 1.4357
# 6 12.8331 -8.1242 0.3487 -3.2691 1.4357 61.3462
#
#
#
# Elastic Compliance Matrix: (Units=1/GPa)
#
#
# Indices 1 2 3 4 5 6 
#
# 1 0.009687 -0.001265 -0.007240 0.001339 -0.011582 -0.001810
# 2 -0.001265 0.007611 -0.004785 0.003538 -0.001748 0.001529
# 3 -0.007240 -0.004785 0.034067 -0.003352 0.027090 -0.000125
# 4 0.001339 0.003538 -0.003352 0.034537 -0.015201 0.002404
# 5 -0.011582 -0.001748 0.027090 -0.015201 0.072848 -0.000478
# 6 -0.001810 0.001529 -0.000125 0.002404 -0.000478 0.017022
#
#
# Mechanical properties :
#
#
# Convention : Reuss Voigt Hill
#
# Bulk Modulus (GPa) = 40.34901 64.20764 52.27832
# Shear Modulus (GPa) = 23.74014 41.53643 32.63829
#
# Velocity S-wave (km/s) = 3.01262 3.98490 3.53237
# Velocity P-wave (km/s) = 5.24658 6.76159 6.05168
#
# Compressibility (1/GPa) = 0.02478376
#
# Stress axis : x y z
#
# Youngs Moduli (GPa) = 103.23091 131.39088 29.35413
#
# Poissons Ratio (x) = 0.16616 0.21254
# Poissons Ratio (y) = 0.13055 0.14047
# Poissons Ratio (z) = 0.74743 0.62876
#
# Static dielectric constant tensor:
#      x y z
#    x 2.240920 -0.148280 0.108970 
#    y -0.148280 2.109280 -0.027120 
#    z 0.108970 -0.027120 2.119400 
# 
# From -- ./inp_files/83485.got.cif
#   From: 2010.05.17/outbox.cif.g08.bks.cpg/sg2_42_cif.got.tgz:83485.got - 2010.06.03 11:33:40.
