data_PCOD9076459
_publ_section_title
;
Structure prediction by ZEFSAII (Michael W. Deem and Ramdas Pophale) SiO2 
 PCOD9076459
Probable space group: P -1
;
_chemical_formula_sum "Si O2"
_cell_formula_units_Z 16
_cell_length_a 21.826363
_cell_length_b 19.257715
_cell_length_c 14.238112
_cell_angle_alpha 153.955108
_cell_angle_beta 36.806809
_cell_angle_gamma 162.923967
_cell_volume 688.566795
_symmetry_space_group_name_H-M "P -1"
_symmetry_group_IT_number 2
_symmetry_cell_setting 'triclinic'
loop_
_space_group_symop_operation_xyz
x,y,z
-x,-y,-z
loop_
_atom_site_type_symbol
_atom_site_label
_atom_site_fract_x
_atom_site_fract_y
_atom_site_fract_z
Si Si1 0.667046 0.495142 0.963963
Si Si2 0.618797 0.510503 0.320207
Si Si3 0.009381 0.696355 0.615024
Si Si4 0.289233 0.120224 0.089687
Si Si5 0.156455 0.285704 0.531454
Si Si6 0.849789 0.638964 0.563908
Si Si7 0.189822 0.637072 0.345175
Si Si8 0.652073 0.562523 0.863556
O O1 0.475681 0.354355 0.062247
O O2 0.658924 0.309433 0.794084
O O3 0.638495 0.429837 0.808784
O O4 0.913988 0.925222 0.201598
O O5 0.500000 0.500000 0.500000
O O6 0.423835 0.207096 0.111343
O O7 0.687959 0.483339 0.284478
O O8 0.878563 0.905219 0.436614
O O9 0.218312 0.857775 0.547031
O O10 0.899798 0.570448 0.494121
O O11 0.853977 0.422140 0.560337
O O12 0.103139 0.997152 0.897150
O O13 0.231819 0.216280 0.314867
O O14 0.049244 0.729322 0.864163
O O15 0.205655 0.471863 0.610843
O O16 0.657347 0.478375 0.657253
O O17 0.500000 0.500000 0.000000
#
# Coordination Sequence:
#
# PCOD9076459 Si02
#       8
#     2   2   2   2   2   2   2   2
#     4  11  19  33  55  76 110 147 183 219 268 322
#     4   9  19  32  54  86 111 133 176 231 281 326
#     4  10  21  35  49  75 111 150 187 225 264 316
#     4  11  19  33  56  83 107 147 183 219 275 325
#     4  10  18  33  56  83 111 137 176 235 277 317
#     4  11  18  35  55  76 112 145 179 229 272 313
#     4  11  20  36  51  73 115 152 185 222 262 321
#     4  11  20  34  54  80 107 148 186 226 269 318
#
# _framework density 23.236673
#
# number of rings (size 3 to 8) (size 9 to 14) (size 15 to 20)
#    0.000    1.500    5.000    2.250    0.000    0.000 
#    2.250    1.875    0.000    0.750    0.000   12.250 
#    0.000    0.000    0.000    0.000    0.000    0.000 
#
# Total GULP energy -89152.070450 kJ/mol
# GULP energy per Si atom -5572.004403 kJ/mol
# Density = 2.318378 g / cm^3
# Si number density = 23.236673 Si / 1000 Ang^3
#
#
#
# Elastic Constant Matrix: (Units=GPa)
#
#
# Indices 1 2 3 4 5 6 
#
# 1 198.2912 35.6437 15.5956 -2.2149 4.6541 -2.8911
# 2 35.6437 125.5078 7.9050 -29.9586 -5.5048 17.8925
# 3 15.5956 7.9050 38.3671 -6.7301 -15.7560 8.7569
# 4 -2.2149 -29.9586 -6.7301 22.1775 11.3152 1.7415
# 5 4.6541 -5.5048 -15.7560 11.3152 45.3827 -9.6724
# 6 -2.8911 17.8925 8.7569 1.7415 -9.6724 47.8997
#
#
#
# Elastic Compliance Matrix: (Units=1/GPa)
#
#
# Indices 1 2 3 4 5 6 
#
# 1 0.005768 -0.002639 -0.003172 -0.003761 -0.000667 0.001916
# 2 -0.002639 0.015299 0.001982 0.024162 -0.004939 -0.008112
# 3 -0.003172 0.001982 0.033319 0.008385 0.008863 -0.005538
# 4 -0.003761 0.024162 0.008385 0.091825 -0.020562 -0.018276
# 5 -0.000667 -0.004939 0.008863 -0.020562 0.031251 0.007243
# 6 0.001916 -0.008112 -0.005538 -0.018276 0.007243 0.027162
#
#
# Mechanical properties :
#
#
# Convention : Reuss Voigt Hill
#
# Bulk Modulus (GPa) = 21.39929 53.38385 37.39157
# Shear Modulus (GPa) = 21.94328 43.29344 32.61836
#
# Velocity S-wave (km/s) = 3.07634 4.32111 3.75072
# Velocity P-wave (km/s) = 4.67416 6.92241 5.90625
#
# Compressibility (1/GPa) = 0.04673052
#
# Stress axis : x y z
#
# Youngs Moduli (GPa) = 173.35768 65.36166 30.01246
#
# Poissons Ratio (x) = 0.17246 0.09520
# Poissons Ratio (y) = 0.45741 -0.05949
# Poissons Ratio (z) = 0.54988 -0.12955
#
# Static dielectric constant tensor:
#      x y z
#    x 2.005190 0.031520 0.005200 
#    y 0.031520 1.988390 0.085400 
#    z 0.005200 0.085400 1.926210 
# 
# From -- ./inp_files/541553.got.cif
#   From: 2010.05.17/outbox.cif.g08.bks.cpg/sg2_271_cif.got.tgz:541553.got - 2010.06.03 11:33:40.
