data_PCOD9076961
_publ_section_title
;
Structure prediction by ZEFSAII (Michael W. Deem and Ramdas Pophale) SiO2 
 PCOD9076961
Probable space group: P -1
;
_chemical_formula_sum "Si O2"
_cell_formula_units_Z 14
_cell_length_a 7.697612
_cell_length_b 24.019507
_cell_length_c 14.479613
_cell_angle_alpha 27.374367
_cell_angle_beta 46.053881
_cell_angle_gamma 31.714643
_cell_volume 625.856751
_symmetry_space_group_name_H-M "P -1"
_symmetry_group_IT_number 2
_symmetry_cell_setting 'triclinic'
loop_
_space_group_symop_operation_xyz
x,y,z
-x,-y,-z
loop_
_atom_site_type_symbol
_atom_site_label
_atom_site_fract_x
_atom_site_fract_y
_atom_site_fract_z
Si Si1 0.845762 0.814920 0.677406
Si Si2 0.350569 0.919034 0.187091
Si Si3 0.271328 0.509847 0.861620
Si Si4 0.599832 0.070430 0.646094
Si Si5 0.285025 0.768217 0.749873
Si Si6 0.542165 0.265084 0.965387
Si Si7 0.592598 0.142894 0.940000
O O1 0.074026 0.703917 0.666978
O O2 0.078188 0.795497 0.697364
O O3 0.500000 0.000000 0.500000
O O4 0.703715 0.746235 0.881389
O O5 0.470131 0.843334 0.356808
O O6 0.937758 0.082033 0.099905
O O7 0.500000 0.000000 0.000000
O O8 0.491388 0.800962 0.218777
O O9 0.456642 0.414964 0.836324
O O10 0.532154 0.401182 0.011225
O O11 0.000000 0.500000 0.000000
O O12 0.477441 0.205220 0.412282
O O13 0.497868 0.964854 0.840015
O O14 0.006970 0.919932 0.699768
O O15 0.469577 0.280934 0.859373
O O16 0.000000 0.000000 0.000000
#
# Coordination Sequence:
#
# PCOD9076961 Si02
#       7
#     2   2   2   2   2   2   2
#     4  11  23  37  60  90 123 161 203 248 312 378
#     4   9  17  31  52  85 117 156 207 247 289 348
#     4  10  23  37  56  87 128 163 200 244 315 369
#     4  10  19  32  56  88 121 160 204 246 300 361
#     4  11  21  36  58  86 131 162 193 251 312 367
#     4  10  18  34  52  84 123 153 201 247 299 363
#     4   9  18  31  54  86 122 159 207 251 293 351
#
# _framework density 22.369337000000002
#
# number of rings (size 3 to 8) (size 9 to 14) (size 15 to 20)
#    0.000    2.000    2.857    1.286    6.000    0.000 
#    0.000    0.000    0.000    0.000    0.000  120.000 
#    0.000    0.000    0.000    0.000    0.000    0.000 
#
# Total GULP energy -78010.029436 kJ/mol
# GULP energy per Si atom -5572.144960 kJ/mol
# Density = 2.231842 g / cm^3
# Si number density = 22.369337 Si / 1000 Ang^3
#
#
#
# Elastic Constant Matrix: (Units=GPa)
#
#
# Indices 1 2 3 4 5 6 
#
# 1 115.7020 51.1496 23.5302 -0.4395 13.4767 32.2292
# 2 51.1496 111.6358 32.5585 10.1652 0.3418 43.1013
# 3 23.5302 32.5585 42.9925 -3.6454 5.9737 20.1924
# 4 -0.4395 10.1652 -3.6454 36.5776 0.4302 -7.5001
# 5 13.4767 0.3418 5.9737 0.4302 19.3454 14.3024
# 6 32.2292 43.1013 20.1924 -7.5001 14.3024 59.5374
#
#
#
# Elastic Compliance Matrix: (Units=1/GPa)
#
#
# Indices 1 2 3 4 5 6 
#
# 1 0.012218 -0.005158 -0.001413 0.001458 -0.007755 -0.000354
# 2 -0.005158 0.020144 -0.009007 -0.009605 0.016520 -0.013915
# 3 -0.001413 -0.009007 0.033059 0.005626 -0.008281 -0.001229
# 4 0.001458 -0.009605 0.005626 0.033020 -0.011600 0.011202
# 5 -0.007755 0.016520 -0.008281 -0.011600 0.078258 -0.025213
# 6 -0.000354 -0.013915 -0.001229 0.011202 -0.025213 0.034946
#
#
# Mechanical properties :
#
#
# Convention : Reuss Voigt Hill
#
# Bulk Modulus (GPa) = 29.18459 53.86744 41.52601
# Shear Modulus (GPa) = 19.66774 33.96489 26.81631
#
# Velocity S-wave (km/s) = 2.96839 3.90085 3.46612
# Velocity P-wave (km/s) = 4.98232 6.66499 5.88411
#
# Compressibility (1/GPa) = 0.03426466
#
# Stress axis : x y z
#
# Youngs Moduli (GPa) = 81.84585 49.64187 30.24895
#
# Poissons Ratio (x) = 0.25607 0.04275
# Poissons Ratio (y) = 0.42220 0.27244
# Poissons Ratio (z) = 0.11567 0.44711
#
# Static dielectric constant tensor:
#      x y z
#    x 1.988370 0.043070 0.014810 
#    y 0.043070 1.846690 0.006380 
#    z 0.014810 0.006380 1.881880 
# 
# From -- ./inp_files/508860.got.cif
#   From: 2010.05.17/outbox.cif.g08.bks.cpg/sg2_255_cif.got.tgz:508860.got - 2010.06.03 11:33:40.
