data_PCOD9076331
_publ_section_title
;
Structure prediction by ZEFSAII (Michael W. Deem and Ramdas Pophale) SiO2 
 PCOD9076331
Probable space group: P -1
;
_chemical_formula_sum "Si O2"
_cell_formula_units_Z 16
_cell_length_a 16.032618
_cell_length_b 5.301670
_cell_length_c 13.123795
_cell_angle_alpha 76.764909
_cell_angle_beta 48.813964
_cell_angle_gamma 105.476560
_cell_volume 671.433164
_symmetry_space_group_name_H-M "P -1"
_symmetry_group_IT_number 2
_symmetry_cell_setting 'triclinic'
loop_
_space_group_symop_operation_xyz
x,y,z
-x,-y,-z
loop_
_atom_site_type_symbol
_atom_site_label
_atom_site_fract_x
_atom_site_fract_y
_atom_site_fract_z
Si Si1 0.655603 0.750432 0.621978
Si Si2 0.641079 0.625893 0.028471
Si Si3 0.638146 0.178093 0.467457
Si Si4 0.117576 0.846344 0.908042
Si Si5 0.357697 0.791824 0.767488
Si Si6 0.659118 0.214242 0.889987
Si Si7 0.075767 0.231367 0.760737
Si Si8 0.194771 0.582928 0.454387
O O1 0.520990 0.576980 0.812824
O O2 0.709201 0.535050 0.584923
O O3 0.621938 0.849875 0.534045
O O4 0.759184 0.078662 0.568324
O O5 0.683841 0.497429 0.099503
O O6 0.682138 0.980721 0.957571
O O7 0.676414 0.501102 0.913044
O O8 0.625667 0.276433 0.356280
O O9 0.794862 0.426236 0.343082
O O10 0.507335 0.099150 0.644300
O O11 0.247961 0.868616 0.838333
O O12 0.131151 0.033550 0.777458
O O13 0.000000 0.500000 0.000000
O O14 0.054980 0.905738 0.051538
O O15 0.771751 0.354977 0.697480
O O16 0.500000 0.000000 0.000000
O O17 0.061394 0.298318 0.647784
#
# Coordination Sequence:
#
# PCOD9076331 Si02
#       8
#     2   2   2   2   2   2   2   2
#     4  10  18  33  54  88 123 160 201 245 317 376
#     4  11  22  36  56  89 126 169 205 256 322 382
#     4   9  19  36  59  96 129 161 201 257 324 386
#     4  11  22  42  63  90 126 169 216 253 309 392
#     4  10  21  37  62  90 134 168 200 265 321 380
#     4  12  21  37  58  88 126 167 212 260 320 376
#     4  10  23  38  64  93 121 165 219 260 310 383
#     4  11  21  33  60  86 121 159 205 266 305 360
#
# _framework density 23.829623000000002
#
# number of rings (size 3 to 8) (size 9 to 14) (size 15 to 20)
#    0.000    1.500    3.750    1.875    1.750    1.500 
#    0.000    2.500    0.000    1.500    0.000    0.000 
#    0.000    0.000    0.000    0.000    0.000    0.000 
#
# Total GULP energy -89123.616120 kJ/mol
# GULP energy per Si atom -5570.226007 kJ/mol
# Density = 2.377539 g / cm^3
# Si number density = 23.829623 Si / 1000 Ang^3
#
#
#
# Elastic Constant Matrix: (Units=GPa)
#
#
# Indices 1 2 3 4 5 6 
#
# 1 40.5022 18.0354 13.4164 -0.9757 2.8146 -22.8495
# 2 18.0354 76.9066 10.1022 -0.6284 -4.9069 -21.0445
# 3 13.4164 10.1022 115.2547 -2.8506 18.5038 -16.2737
# 4 -0.9757 -0.6284 -2.8506 41.4456 -13.6943 7.6893
# 5 2.8146 -4.9069 18.5038 -13.6943 40.2998 -0.5741
# 6 -22.8495 -21.0445 -16.2737 7.6893 -0.5741 34.4847
#
#
#
# Elastic Compliance Matrix: (Units=1/GPa)
#
#
# Indices 1 2 3 4 5 6 
#
# 1 0.041228 -0.002659 -0.000179 -0.005582 -0.004636 0.026778
# 2 -0.002659 0.015998 -0.000328 -0.000606 0.002192 0.008018
# 3 -0.000179 -0.000328 0.010216 -0.001963 -0.005316 0.004852
# 4 -0.005582 -0.000606 -0.001963 0.029649 0.011130 -0.011420
# 5 -0.004636 0.002192 -0.005316 0.011130 0.031539 -0.006199
# 6 0.026778 0.008018 0.004852 -0.011420 -0.006199 0.056367
#
#
# Mechanical properties :
#
#
# Convention : Reuss Voigt Hill
#
# Bulk Modulus (GPa) = 16.36351 35.08572 25.72461
# Shear Modulus (GPa) = 23.61846 35.98666 29.80256
#
# Velocity S-wave (km/s) = 3.15165 3.89030 3.54029
# Velocity P-wave (km/s) = 4.48616 5.91056 5.24692
#
# Compressibility (1/GPa) = 0.06111158
#
# Stress axis : x y z
#
# Youngs Moduli (GPa) = 24.25545 62.50630 97.88607
#
# Poissons Ratio (x) = 0.16619 0.01751
# Poissons Ratio (y) = 0.06449 0.03206
# Poissons Ratio (z) = 0.00434 0.02048
#
# Static dielectric constant tensor:
#      x y z
#    x 2.063550 0.043140 0.093190 
#    y 0.043140 1.995460 0.001610 
#    z 0.093190 0.001610 2.090100 
# 
# From -- ./inp_files/536264.got.cif
#   From: 2010.05.17/outbox.cif.g08.bks.cpg/sg2_269_cif.got.tgz:536264.got - 2010.06.03 11:33:40.
