data_PCOD9076431
_publ_section_title
;
Structure prediction by ZEFSAII (Michael W. Deem and Ramdas Pophale) SiO2 
 PCOD9076431
Probable space group: P -1
;
_chemical_formula_sum "Si O2"
_cell_formula_units_Z 14
_cell_length_a 8.775741
_cell_length_b 14.077743
_cell_length_c 6.555034
_cell_angle_alpha 122.600082
_cell_angle_beta 95.253463
_cell_angle_gamma 75.740742
_cell_volume 660.380306
_symmetry_space_group_name_H-M "P -1"
_symmetry_group_IT_number 2
_symmetry_cell_setting 'triclinic'
loop_
_space_group_symop_operation_xyz
x,y,z
-x,-y,-z
loop_
_atom_site_type_symbol
_atom_site_label
_atom_site_fract_x
_atom_site_fract_y
_atom_site_fract_z
Si Si1 0.753202 0.346372 0.488208
Si Si2 0.947695 0.744536 0.855157
Si Si3 0.874128 0.433567 0.997534
Si Si4 0.807760 0.554918 0.506139
Si Si5 0.603666 0.140220 0.236910
Si Si6 0.379816 0.036511 0.338319
Si Si7 0.847100 0.969604 0.356015
O O1 0.781860 0.377302 0.758156
O O2 0.721814 0.473224 0.527410
O O3 0.628925 0.268378 0.354361
O O4 0.920321 0.274718 0.328472
O O5 0.804355 0.684997 0.715284
O O6 0.886695 0.873262 0.074005
O O7 0.037477 0.671492 0.971416
O O8 0.770420 0.531155 0.242699
O O9 0.000000 0.500000 0.000000
O O10 0.000000 0.500000 0.500000
O O11 0.443344 0.126434 0.309416
O O12 0.733801 0.077273 0.348266
O O13 0.624286 0.068222 0.942266
O O14 0.224942 0.076018 0.501311
O O15 0.500000 0.000000 0.500000
O O16 0.000000 0.000000 0.500000
#
# Coordination Sequence:
#
# PCOD9076431 Si02
#       7
#     2   2   2   2   2   2   2
#     4  10  17  29  50  76 105 135 183 219 258 320
#     4  10  19  28  45  75 113 139 168 220 270 311
#     4  10  14  28  47  71 108 145 175 209 265 320
#     4   8  16  27  41  70 101 137 174 213 258 307
#     4  10  21  37  58  79 105 152 185 220 269 327
#     4   9  21  41  57  74 107 147 194 222 263 327
#     4  11  22  35  52  85 118 141 173 226 280 326
#
# _framework density 21.199905999999999
#
# number of rings (size 3 to 8) (size 9 to 14) (size 15 to 20)
#    0.000    2.571    4.286    1.714    0.000    6.857 
#    0.000    0.000    0.000    0.857    0.000   10.000 
#    0.000    0.000    0.000    0.000    0.000    0.000 
#
# Total GULP energy -77993.141482 kJ/mol
# GULP energy per Si atom -5570.938677 kJ/mol
# Density = 2.115165 g / cm^3
# Si number density = 21.199906 Si / 1000 Ang^3
#
#
#
# Elastic Constant Matrix: (Units=GPa)
#
#
# Indices 1 2 3 4 5 6 
#
# 1 53.6733 23.3826 35.3685 11.7211 14.0048 23.4325
# 2 23.3826 51.8108 28.4300 11.9281 16.9284 17.6953
# 3 35.3685 28.4300 143.5902 -0.0522 19.2276 18.7739
# 4 11.7211 11.9281 -0.0522 34.9744 7.4034 11.6026
# 5 14.0048 16.9284 19.2276 7.4034 27.7735 5.8812
# 6 23.4325 17.6953 18.7739 11.6026 5.8812 31.3936
#
#
#
# Elastic Compliance Matrix: (Units=1/GPa)
#
#
# Indices 1 2 3 4 5 6 
#
# 1 0.033225 -0.003664 -0.004138 -0.002386 -0.007202 -0.018029
# 2 -0.003664 0.030101 -0.002212 -0.003365 -0.012080 -0.009403
# 3 -0.004138 -0.002212 0.009110 0.003460 -0.003424 -0.001750
# 4 -0.002386 -0.003365 0.003460 0.035292 -0.006381 -0.010240
# 5 -0.007202 -0.012080 -0.003424 -0.006381 0.049523 0.007313
# 6 -0.018029 -0.009403 -0.001750 -0.010240 0.007313 0.054072
#
#
# Mechanical properties :
#
#
# Convention : Reuss Voigt Hill
#
# Bulk Modulus (GPa) = 19.08045 47.04849 33.06447
# Shear Modulus (GPa) = 20.09479 29.62119 24.85799
#
# Velocity S-wave (km/s) = 3.08209 3.74201 3.42797
# Velocity P-wave (km/s) = 4.65677 6.39618 5.59449
#
# Compressibility (1/GPa) = 0.05240967
#
# Stress axis : x y z
#
# Youngs Moduli (GPa) = 30.09739 33.22107 109.77077
#
# Poissons Ratio (x) = 0.12173 0.45419
# Poissons Ratio (y) = 0.11029 0.24276
# Poissons Ratio (z) = 0.12453 0.07347
#
# Static dielectric constant tensor:
#      x y z
#    x 1.876220 -0.037530 -0.026480 
#    y -0.037530 1.864400 0.001740 
#    z -0.026480 0.001740 1.797840 
# 
# From -- ./inp_files/36563.got.cif
#   From: 2010.05.17/outbox.cif.g08.bks.cpg/sg2_19_cif.got.tgz:36563.got - 2010.06.03 11:33:40.
