data_PCOD9076358
_publ_section_title
;
Structure prediction by ZEFSAII (Michael W. Deem and Ramdas Pophale) SiO2 
 PCOD9076358
Probable space group: P -1
;
_chemical_formula_sum "Si O2"
_cell_formula_units_Z 16
_cell_length_a 11.263546
_cell_length_b 15.831859
_cell_length_c 9.935296
_cell_angle_alpha 128.049733
_cell_angle_beta 70.345448
_cell_angle_gamma 147.205446
_cell_volume 683.608792
_symmetry_space_group_name_H-M "P -1"
_symmetry_group_IT_number 2
_symmetry_cell_setting 'triclinic'
loop_
_space_group_symop_operation_xyz
x,y,z
-x,-y,-z
loop_
_atom_site_type_symbol
_atom_site_label
_atom_site_fract_x
_atom_site_fract_y
_atom_site_fract_z
Si Si1 0.586387 0.259644 0.277566
Si Si2 0.354509 0.887764 0.695495
Si Si3 0.460489 0.190483 0.979579
Si Si4 0.912662 0.609477 0.112567
Si Si5 0.104233 0.620048 0.278840
Si Si6 0.171559 0.378226 0.327064
Si Si7 0.790770 0.703030 0.058432
Si Si8 0.006396 0.947518 0.799125
O O1 0.552201 0.127160 0.243763
O O2 0.623768 0.387116 0.485566
O O3 0.845195 0.434992 0.273706
O O4 0.398558 0.146615 0.118501
O O5 0.307484 0.791750 0.480304
O O6 0.087418 0.745170 0.692577
O O7 0.528344 0.116694 0.854624
O O8 0.658201 0.423394 0.106152
O O9 0.256476 0.064541 0.826501
O O10 0.887057 0.489099 0.903047
O O11 0.925648 0.726424 0.138777
O O12 0.094122 0.707720 0.258286
O O13 0.197217 0.346328 0.139566
O O14 0.178979 0.286434 0.344414
O O15 0.939563 0.922646 0.203286
O O16 0.500000 0.500000 0.000000
O O17 0.000000 0.000000 0.000000
#
# Coordination Sequence:
#
# PCOD9076358 Si02
#       8
#     2   2   2   2   2   2   2   2
#     4  10  18  33  56  81 109 141 191 225 272 328
#     4  10  18  33  55  81 110 144 187 223 276 326
#     4  10  20  32  52  80 111 142 182 237 271 325
#     4  10  19  33  53  82 112 147 183 215 284 327
#     4   9  19  33  54  79 113 146 176 225 272 340
#     4   9  19  34  57  81 108 144 184 226 274 326
#     4  11  19  33  59  81 110 146 189 225 271 329
#     4   9  19  36  54  78 103 146 186 225 273 314
#
# _framework density 23.405199
#
# number of rings (size 3 to 8) (size 9 to 14) (size 15 to 20)
#    0.000    2.250    1.250    3.375    0.000    0.500 
#    0.000    3.750    2.750   13.500    0.000    0.000 
#    0.000    0.000    0.000    0.000    0.000    0.000 
#
# Total GULP energy -89258.681105 kJ/mol
# GULP energy per Si atom -5578.667569 kJ/mol
# Density = 2.335193 g / cm^3
# Si number density = 23.405199 Si / 1000 Ang^3
#
#
#
# Elastic Constant Matrix: (Units=GPa)
#
#
# Indices 1 2 3 4 5 6 
#
# 1 97.1619 59.9254 14.5924 -8.3862 0.5045 -55.1905
# 2 59.9254 78.6801 0.8490 -5.6389 2.1216 -38.2707
# 3 14.5924 0.8490 54.3549 -5.8516 5.4879 -12.4520
# 4 -8.3862 -5.6389 -5.8516 25.5488 -7.4787 0.1112
# 5 0.5045 2.1216 5.4879 -7.4787 27.0046 -2.4674
# 6 -55.1905 -38.2707 -12.4520 0.1112 -2.4674 64.4662
#
#
#
# Elastic Compliance Matrix: (Units=1/GPa)
#
#
# Indices 1 2 3 4 5 6 
#
# 1 0.029241 -0.013978 -0.003644 0.006986 0.004707 0.016200
# 2 -0.013978 0.025363 0.004603 0.001492 -0.001897 0.003904
# 3 -0.003644 0.004603 0.020822 0.003638 -0.003197 0.003506
# 4 0.006986 0.001492 0.003638 0.046234 0.012545 0.007969
# 5 0.004707 -0.001897 -0.003197 0.012545 0.041568 0.003856
# 6 0.016200 0.003904 0.003506 0.007969 0.003856 0.032509
#
#
# Mechanical properties :
#
#
# Convention : Reuss Voigt Hill
#
# Bulk Modulus (GPa) = 20.24800 42.32563 31.28682
# Shear Modulus (GPa) = 20.98745 33.72592 27.35669
#
# Velocity S-wave (km/s) = 2.99774 3.80011 3.42252
# Velocity P-wave (km/s) = 4.54443 6.11372 5.38653
#
# Compressibility (1/GPa) = 0.04938759
#
# Stress axis : x y z
#
# Youngs Moduli (GPa) = 34.19886 39.42714 48.02706
#
# Poissons Ratio (x) = 0.55111 0.17501
# Poissons Ratio (y) = 0.47803 -0.22107
# Poissons Ratio (z) = 0.12462 -0.18148
#
# Static dielectric constant tensor:
#      x y z
#    x 2.046700 0.123920 0.042230 
#    y 0.123920 1.990550 0.018900 
#    z 0.042230 0.018900 1.904590 
# 
# From -- ./inp_files/186533.got.cif
#   From: 2010.05.17/outbox.cif.g08.bks.cpg/sg2_94_cif.got.tgz:186533.got - 2010.06.03 11:33:40.
