data_PCOD9076008
_publ_section_title
;
Structure prediction by ZEFSAII (Michael W. Deem and Ramdas Pophale) SiO2 
 PCOD9076008
Probable space group: P -1
;
_chemical_formula_sum "Si O2"
_cell_formula_units_Z 12
_cell_length_a 14.654034
_cell_length_b 6.937191
_cell_length_c 11.139947
_cell_angle_alpha 47.310609
_cell_angle_beta 150.967822
_cell_angle_gamma 126.270884
_cell_volume 403.964713
_symmetry_space_group_name_H-M "P -1"
_symmetry_group_IT_number 2
_symmetry_cell_setting 'triclinic'
loop_
_space_group_symop_operation_xyz
x,y,z
-x,-y,-z
loop_
_atom_site_type_symbol
_atom_site_label
_atom_site_fract_x
_atom_site_fract_y
_atom_site_fract_z
Si Si1 0.245089 0.558852 0.862258
Si Si2 0.178167 0.167824 0.269833
Si Si3 0.587921 0.813967 0.078179
Si Si4 0.929854 0.917062 0.280933
Si Si5 0.843661 0.372783 0.679229
Si Si6 0.492918 0.729038 0.529525
O O1 0.391453 0.664990 0.883020
O O2 0.134118 0.304367 0.795770
O O3 0.081790 0.772414 0.603412
O O4 0.384916 0.469797 0.164951
O O5 0.171523 0.890361 0.307401
O O6 0.065076 0.119808 0.281970
O O7 0.396999 0.239042 0.481826
O O8 0.058342 0.372253 0.966230
O O9 0.725513 0.970226 0.080595
O O10 0.736238 0.603153 0.390578
O O11 0.500000 0.000000 0.000000
O O12 0.724169 0.339424 0.679048
O O13 0.500000 0.000000 0.500000
#
# Coordination Sequence:
#
# PCOD9076008 Si02
#       6
#     2   2   2   2   2   2
#     4  10  21  37  60  84 112 146 190 240 278 326
#     4  10  18  32  58  87 111 139 184 242 283 320
#     4  11  24  40  57  80 117 159 189 223 280 345
#     4  11  21  35  58  89 114 140 188 242 285 325
#     4   9  18  34  56  81 112 147 186 228 278 333
#     4   9  17  30  52  84 114 140 175 227 288 332
#
# _framework density 29.705566000000001
#
# number of rings (size 3 to 8) (size 9 to 14) (size 15 to 20)
#    0.000    2.000    0.000    6.500    0.000    4.667 
#    0.000    0.833    0.000    5.000    0.000    0.000 
#    0.000    0.000    0.000    0.000    0.000    0.000 
#
# Total GULP energy -67211.807692 kJ/mol
# GULP energy per Si atom -5600.983974 kJ/mol
# Density = 2.963796 g / cm^3
# Si number density = 29.705566 Si / 1000 Ang^3
#
#
#
# Elastic Constant Matrix: (Units=GPa)
#
#
# Indices 1 2 3 4 5 6 
#
# 1 201.8488 44.9023 54.9350 2.9489 67.7874 49.3881
# 2 44.9023 90.1567 30.0174 0.0383 14.1669 10.4576
# 3 54.9350 30.0174 232.9939 -12.5502 34.0800 15.0606
# 4 2.9489 0.0383 -12.5502 56.7626 5.7205 28.6191
# 5 67.7874 14.1669 34.0800 5.7205 62.2699 16.9874
# 6 49.3881 10.4576 15.0606 28.6191 16.9874 67.4979
#
#
#
# Elastic Compliance Matrix: (Units=1/GPa)
#
#
# Indices 1 2 3 4 5 6 
#
# 1 0.010044 -0.002862 -0.000124 0.003420 -0.008866 -0.006097
# 2 -0.002862 0.012730 -0.001118 -0.000349 0.000775 0.000324
# 3 -0.000124 -0.001118 0.004958 0.001870 -0.002201 -0.001081
# 4 0.003420 -0.000349 0.001870 0.024428 -0.003548 -0.012330
# 5 -0.008866 0.000775 -0.002201 -0.003548 0.026610 0.001665
# 6 -0.006097 0.000324 -0.001081 -0.012330 0.001665 0.024276
#
#
# Mechanical properties :
#
#
# Convention : Reuss Voigt Hill
#
# Bulk Modulus (GPa) = 51.22297 87.18988 69.20643
# Shear Modulus (GPa) = 42.45820 63.64906 53.05363
#
# Velocity S-wave (km/s) = 3.78471 4.63391 4.23067
# Velocity P-wave (km/s) = 6.03156 7.61879 6.87116
#
# Compressibility (1/GPa) = 0.01952249
#
# Stress axis : x y z
#
# Youngs Moduli (GPa) = 99.56331 78.55237 201.70022
#
# Poissons Ratio (x) = 0.22482 0.02507
# Poissons Ratio (y) = 0.28496 0.22558
# Poissons Ratio (z) = 0.01238 0.08785
#
# Static dielectric constant tensor:
#      x y z
#    x 2.443440 0.026660 -0.089050 
#    y 0.026660 2.511840 -0.041490 
#    z -0.089050 -0.041490 2.111500 
# 
# From -- ./inp_files/446859.got.cif
#   From: 2010.05.17/outbox.cif.g08.bks.cpg/sg2_224_cif.got.tgz:446859.got - 2010.06.03 11:33:40.
