data_PCOD9076638
_publ_section_title
;
Structure prediction by ZEFSAII (Michael W. Deem and Ramdas Pophale) SiO2 
 PCOD9076638
Probable space group: P -1
;
_chemical_formula_sum "Si O2"
_cell_formula_units_Z 16
_cell_length_a 9.913878
_cell_length_b 11.539258
_cell_length_c 11.308450
_cell_angle_alpha 107.904603
_cell_angle_beta 54.036917
_cell_angle_gamma 125.154195
_cell_volume 855.187354
_symmetry_space_group_name_H-M "P -1"
_symmetry_group_IT_number 2
_symmetry_cell_setting 'triclinic'
loop_
_space_group_symop_operation_xyz
x,y,z
-x,-y,-z
loop_
_atom_site_type_symbol
_atom_site_label
_atom_site_fract_x
_atom_site_fract_y
_atom_site_fract_z
Si Si1 0.056996 0.334263 0.854128
Si Si2 0.118572 0.093147 0.854959
Si Si3 0.141422 0.822733 0.320839
Si Si4 0.703992 0.347095 0.163546
Si Si5 0.380069 0.079893 0.117623
Si Si6 0.620546 0.153227 0.350298
Si Si7 0.810573 0.071310 0.423868
Si Si8 0.432818 0.113061 0.842575
O O1 0.075674 0.212590 0.872022
O O2 0.240889 0.491431 0.823336
O O3 0.007381 0.295424 0.729097
O O4 0.874931 0.336231 0.006684
O O5 0.343841 0.165618 0.804565
O O6 0.087810 0.988122 0.730281
O O7 0.000000 0.000000 0.000000
O O8 0.079855 0.842900 0.488803
O O9 0.334458 0.810933 0.239305
O O10 0.216635 0.968427 0.253852
O O11 0.509109 0.227453 0.163815
O O12 0.690336 0.297401 0.290551
O O13 0.339782 0.109639 0.015652
O O14 0.500000 0.000000 0.000000
O O15 0.743257 0.158382 0.402447
O O16 0.393382 0.066679 0.473303
O O17 0.634305 0.046592 0.215685
#
# Coordination Sequence:
#
# PCOD9076638 Si02
#       8
#     2   2   2   2   2   2   2   2
#     4  11  23  33  52  84 116 142 169 223 278 314
#     4  11  22  35  52  82 114 137 171 228 279 315
#     4  10  17  33  57  82 101 136 192 220 245 314
#     4  11  19  34  55  80 112 142 181 218 266 312
#     4  10  14  28  58  81  96 135 190 221 243 299
#     4   9  15  31  54  83  99 135 184 226 248 308
#     4   9  18  30  56  80 102 135 188 221 258 311
#     4   9  16  30  56  79  99 134 184 220 251 301
#
# _framework density 18.709349
#
# number of rings (size 3 to 8) (size 9 to 14) (size 15 to 20)
#    0.000    2.000    6.250    3.000    0.000    0.500 
#    0.000    1.875    0.000    0.000    0.000    0.000 
#    0.000    0.000    0.000    0.000    0.000    0.000 
#
# Total GULP energy -89192.735920 kJ/mol
# GULP energy per Si atom -5574.545995 kJ/mol
# Density = 1.866677 g / cm^3
# Si number density = 18.709349 Si / 1000 Ang^3
#
#
#
# Elastic Constant Matrix: (Units=GPa)
#
#
# Indices 1 2 3 4 5 6 
#
# 1 70.2327 24.2207 19.9653 18.1813 17.9437 -3.7530
# 2 24.2207 83.8999 34.2452 7.4857 9.0277 0.5927
# 3 19.9653 34.2452 109.1240 9.5703 24.9642 -4.3182
# 4 18.1813 7.4857 9.5703 15.2857 1.9463 3.7213
# 5 17.9437 9.0277 24.9642 1.9463 29.6963 2.3270
# 6 -3.7530 0.5927 -4.3182 3.7213 2.3270 23.2867
#
#
#
# Elastic Compliance Matrix: (Units=1/GPa)
#
#
# Indices 1 2 3 4 5 6 
#
# 1 0.029637 -0.005108 0.004110 -0.036208 -0.018479 0.013301
# 2 -0.005108 0.014831 -0.004568 0.001993 0.002493 -0.002615
# 3 0.004110 -0.004568 0.013982 -0.011370 -0.012609 0.006449
# 4 -0.036208 0.001993 -0.011370 0.118577 0.025370 -0.029479
# 5 -0.018479 0.002493 -0.012609 0.025370 0.054183 -0.014849
# 6 0.013301 -0.002615 0.006449 -0.029479 -0.014849 0.052544
#
#
# Mechanical properties :
#
#
# Convention : Reuss Voigt Hill
#
# Bulk Modulus (GPa) = 21.13379 46.67988 33.90683
# Shear Modulus (GPa) = 16.09479 25.97543 21.03511
#
# Velocity S-wave (km/s) = 2.93619 3.73012 3.35671
# Velocity P-wave (km/s) = 4.77654 6.59969 5.76070
#
# Compressibility (1/GPa) = 0.04731760
#
# Stress axis : x y z
#
# Youngs Moduli (GPa) = 33.74148 67.42771 71.51844
#
# Poissons Ratio (x) = 0.34445 -0.29395
# Poissons Ratio (y) = 0.17237 0.32670
# Poissons Ratio (z) = -0.13868 0.30801
#
# Static dielectric constant tensor:
#      x y z
#    x 1.739840 0.011320 -0.012680 
#    y 0.011320 1.617980 -0.004890 
#    z -0.012680 -0.004890 1.696580 
# 
# From -- ./inp_files/423905.got.cif
#   From: 2010.05.17/outbox.cif.g08.bks.cpg/sg2_212_cif.got.tgz:423905.got - 2010.06.03 11:33:40.
