data_PCOD9076779
_publ_section_title
;
Structure prediction by ZEFSAII (Michael W. Deem and Ramdas Pophale) SiO2 
 PCOD9076779
Probable space group: P -1
;
_chemical_formula_sum "Si O2"
_cell_formula_units_Z 16
_cell_length_a 6.906550
_cell_length_b 13.919743
_cell_length_c 13.451405
_cell_angle_alpha 36.848720
_cell_angle_beta 116.452503
_cell_angle_gamma 122.173054
_cell_volume 655.962934
_symmetry_space_group_name_H-M "P -1"
_symmetry_group_IT_number 2
_symmetry_cell_setting 'triclinic'
loop_
_space_group_symop_operation_xyz
x,y,z
-x,-y,-z
loop_
_atom_site_type_symbol
_atom_site_label
_atom_site_fract_x
_atom_site_fract_y
_atom_site_fract_z
Si Si1 0.495063 0.302730 0.225978
Si Si2 0.439606 0.542426 0.180803
Si Si3 0.964350 0.339159 0.197370
Si Si4 0.287946 0.857838 0.449767
Si Si5 0.356004 0.072028 0.092357
Si Si6 0.977617 0.901874 0.754602
Si Si7 0.098025 0.484288 0.641928
Si Si8 0.128777 0.870019 0.023563
O O1 0.492189 0.465991 0.151233
O O2 0.495104 0.156199 0.427323
O O3 0.267950 0.242009 0.159232
O O4 0.536826 0.261121 0.980815
O O5 0.191098 0.411211 0.257711
O O6 0.654120 0.538636 0.298363
O O7 0.958318 0.173088 0.270390
O O8 0.726406 0.318022 0.211342
O O9 0.000000 0.500000 0.000000
O O10 0.376786 0.956053 0.285668
O O11 0.147725 0.663443 0.557043
O O12 0.319207 0.979901 0.053087
O O13 0.889723 0.063379 0.603273
O O14 0.106983 0.092558 0.037445
O O15 0.151531 0.910323 0.877701
O O16 0.936060 0.327821 0.798451
O O17 0.000000 0.500000 0.500000
#
# Coordination Sequence:
#
# PCOD9076779 Si02
#       8
#     2   2   2   2   2   2   2   2
#     4  10  23  42  64  91 129 171 208 259 323 368
#     4   9  22  40  66  94 128 161 216 264 305 385
#     4  11  26  39  62  95 123 173 219 255 313 373
#     4  10  20  34  61  93 127 159 203 263 318 373
#     4   9  17  33  62  98 120 160 209 256 317 374
#     4  10  23  41  62  96 127 165 215 262 307 382
#     4  10  18  33  59  98 118 162 209 246 319 382
#     4   9  18  32  61  93 125 160 207 256 311 379
#
# _framework density 24.391621000000001
#
# number of rings (size 3 to 8) (size 9 to 14) (size 15 to 20)
#    0.000    2.250    1.250    0.375   14.000    1.500 
#    0.000    0.000    0.000    5.250    3.250    0.000 
#    0.000    0.000    0.000    0.000    0.000    0.000 
#
# Total GULP energy -89449.458625 kJ/mol
# GULP energy per Si atom -5590.591164 kJ/mol
# Density = 2.433610 g / cm^3
# Si number density = 24.391621 Si / 1000 Ang^3
#
#
#
# Elastic Constant Matrix: (Units=GPa)
#
#
# Indices 1 2 3 4 5 6 
#
# 1 111.6210 38.7223 12.3153 6.0661 6.3679 -10.0542
# 2 38.7223 164.9112 58.6335 -5.3091 7.2237 3.9904
# 3 12.3153 58.6335 108.8321 -4.0195 11.3810 0.1036
# 4 6.0661 -5.3091 -4.0195 44.1942 1.8363 12.5960
# 5 6.3679 7.2237 11.3810 1.8363 29.6803 -1.7694
# 6 -10.0542 3.9904 0.1036 12.5960 -1.7694 30.0269
#
#
#
# Elastic Compliance Matrix: (Units=1/GPa)
#
#
# Indices 1 2 3 4 5 6 
#
# 1 0.010595 -0.002768 0.000296 -0.003186 -0.001207 0.005180
# 2 -0.002768 0.008293 -0.004070 0.001804 -0.000141 -0.002780
# 3 0.000296 -0.004070 0.011750 0.000658 -0.003612 0.000111
# 4 -0.003186 0.001804 0.000658 0.027097 -0.002448 -0.012820
# 5 -0.001207 -0.000141 -0.003612 -0.002448 0.035687 0.002757
# 6 0.005180 -0.002780 0.000111 -0.012820 0.002757 0.040947
#
#
# Mechanical properties :
#
#
# Convention : Reuss Voigt Hill
#
# Bulk Modulus (GPa) = 56.97170 67.18963 62.08067
# Shear Modulus (GPa) = 32.61493 39.15985 35.88739
#
# Velocity S-wave (km/s) = 3.66065 4.01117 3.83991
# Velocity P-wave (km/s) = 6.42456 7.00419 6.72063
#
# Compressibility (1/GPa) = 0.01755257
#
# Stress axis : x y z
#
# Youngs Moduli (GPa) = 94.38338 120.58987 85.10750
#
# Poissons Ratio (x) = 0.33380 -0.02519
# Poissons Ratio (y) = 0.26126 0.34642
# Poissons Ratio (z) = -0.02794 0.49085
#
# Static dielectric constant tensor:
#      x y z
#    x 1.955490 -0.015040 -0.009120 
#    y -0.015040 2.003530 0.055730 
#    z -0.009120 0.055730 2.018500 
# 
# From -- ./inp_files/316978.got.cif
#   From: 2010.05.17/outbox.cif.g08.bks.cpg/sg2_159_cif.got.tgz:316978.got - 2010.06.03 11:33:40.
