data_PCOD9076938
_publ_section_title
;
Structure prediction by ZEFSAII (Michael W. Deem and Ramdas Pophale) SiO2 
 PCOD9076938
Probable space group: P -1
;
_chemical_formula_sum "Si O2"
_cell_formula_units_Z 15
_cell_length_a 11.866515
_cell_length_b 6.720200
_cell_length_c 11.092807
_cell_angle_alpha 112.774221
_cell_angle_beta 99.791032
_cell_angle_gamma 64.743721
_cell_volume 737.653661
_symmetry_space_group_name_H-M "P -1"
_symmetry_group_IT_number 2
_symmetry_cell_setting 'triclinic'
loop_
_space_group_symop_operation_xyz
x,y,z
-x,-y,-z
loop_
_atom_site_type_symbol
_atom_site_label
_atom_site_fract_x
_atom_site_fract_y
_atom_site_fract_z
Si Si1 0.471234 0.270645 0.076833
Si Si2 0.903959 0.189173 0.923582
Si Si3 0.136744 0.983499 0.485451
Si Si4 0.000000 0.500000 0.000000
Si Si5 0.769294 0.500895 0.754842
Si Si6 0.677586 0.432660 0.106961
Si Si7 0.912492 0.736072 0.693990
Si Si8 0.152637 0.324478 0.739949
O O1 0.366663 0.388736 0.186822
O O2 0.595213 0.317642 0.132176
O O3 0.410348 0.394923 0.969708
O O4 0.500000 0.000000 0.000000
O O5 0.015122 0.244585 0.009657
O O6 0.865476 0.409538 0.867744
O O7 0.934743 0.958917 0.800805
O O8 0.790448 0.245805 0.005958
O O9 0.126179 0.177990 0.428248
O O10 0.188913 0.064852 0.631964
O O11 0.207418 0.727614 0.377018
O O12 0.000000 0.000000 0.500000
O O13 0.105657 0.353892 0.876057
O O14 0.804354 0.686474 0.731100
O O15 0.739320 0.578418 0.227864
O O16 0.033882 0.501400 0.684086
#
# Coordination Sequence:
#
# PCOD9076938 Si02
#       8
#     2   2   2   1   2   2   2   2
#     4  10  20  41  61  83 112 156 204 245 299 342
#     4   9  18  33  52  86 116 151 185 238 296 347
#     4  11  22  39  58  88 126 160 189 236 290 359
#     4  10  18  34  50  80 124 146 176 236 296 344
#     4  10  20  36  59  83 113 156 199 238 288 347
#     4   9  21  37  57  83 121 147 192 254 294 342
#     4  11  20  35  60  87 118 160 197 227 287 366
#     4  11  21  37  57  90 123 155 193 240 296 350
#
# _framework density 20.334747
#
# number of rings (size 3 to 8) (size 9 to 14) (size 15 to 20)
#    0.000    1.867    2.667    2.000    0.000    3.200 
#    9.600    0.667    0.000    1.600    0.000    0.000 
#    0.000    0.000    0.000    0.000    0.000    0.000 
#
# Total GULP energy -83525.497666 kJ/mol
# GULP energy per Si atom -5568.366511 kJ/mol
# Density = 2.028846 g / cm^3
# Si number density = 20.334747 Si / 1000 Ang^3
#
#
#
# Elastic Constant Matrix: (Units=GPa)
#
#
# Indices 1 2 3 4 5 6 
#
# 1 136.9661 29.1736 29.5756 12.0852 -17.2671 35.3446
# 2 29.1736 57.0113 35.0064 10.1682 -19.1995 13.0251
# 3 29.5756 35.0064 122.5573 32.4026 -6.0337 17.4018
# 4 12.0852 10.1682 32.4026 40.9178 5.1717 -2.7811
# 5 -17.2671 -19.1995 -6.0337 5.1717 28.7318 -1.2421
# 6 35.3446 13.0251 17.4018 -2.7811 -1.2421 28.5553
#
#
#
# Elastic Compliance Matrix: (Units=1/GPa)
#
#
# Indices 1 2 3 4 5 6 
#
# 1 0.013428 0.001038 0.001702 -0.008063 0.009772 -0.018491
# 2 0.001038 0.031240 -0.004019 -0.008502 0.021624 -0.012972
# 3 0.001702 -0.004019 0.013249 -0.010968 0.002692 -0.009298
# 4 -0.008063 -0.008502 -0.010968 0.041674 -0.019304 0.023761
# 5 0.009772 0.021624 0.002692 -0.019304 0.058176 -0.022949
# 6 -0.018491 -0.012972 -0.009298 0.023761 -0.022949 0.070806
#
#
# Mechanical properties :
#
#
# Convention : Reuss Voigt Hill
#
# Bulk Modulus (GPa) = 18.06465 56.00511 37.03488
# Shear Modulus (GPa) = 20.03330 34.49294 27.26312
#
# Velocity S-wave (km/s) = 3.14216 4.12303 3.66555
# Velocity P-wave (km/s) = 4.69756 7.08994 6.01391
#
# Compressibility (1/GPa) = 0.05535672
#
# Stress axis : x y z
#
# Youngs Moduli (GPa) = 74.47309 32.01065 75.47477
#
# Poissons Ratio (x) = -0.03321 -0.12843
# Poissons Ratio (y) = -0.07727 0.30335
# Poissons Ratio (z) = -0.12673 0.12866
#
# Static dielectric constant tensor:
#      x y z
#    x 1.398160 -0.097690 -0.234480 
#    y -0.097690 1.780200 -0.112310 
#    z -0.234480 -0.112310 1.565310 
# 
# From -- ./inp_files/74495.got.cif
#   From: 2010.05.17/outbox.cif.g08.bks.cpg/sg2_38_cif.got.tgz:74495.got - 2010.06.03 11:33:40.
