data_PCOD9076982
_publ_section_title
;
Structure prediction by ZEFSAII (Michael W. Deem and Ramdas Pophale) SiO2 
 PCOD9076982
Probable space group: P -1
;
_chemical_formula_sum "Si O2"
_cell_formula_units_Z 16
_cell_length_a 14.639718
_cell_length_b 16.063440
_cell_length_c 10.631309
_cell_angle_alpha 144.239737
_cell_angle_beta 149.212569
_cell_angle_gamma 35.548422
_cell_volume 688.779335
_symmetry_space_group_name_H-M "P -1"
_symmetry_group_IT_number 2
_symmetry_cell_setting 'triclinic'
loop_
_space_group_symop_operation_xyz
x,y,z
-x,-y,-z
loop_
_atom_site_type_symbol
_atom_site_label
_atom_site_fract_x
_atom_site_fract_y
_atom_site_fract_z
Si Si1 0.043959 0.366966 0.490913
Si Si2 0.828958 0.858726 0.101309
Si Si3 0.898748 0.504417 0.046036
Si Si4 0.942253 0.092454 0.354839
Si Si5 0.265257 0.562764 0.450052
Si Si6 0.536195 0.892822 0.602716
Si Si7 0.631222 0.542635 0.302082
Si Si8 0.784459 0.984469 0.816371
O O1 0.838709 0.407057 0.363118
O O2 0.000000 0.500000 0.500000
O O3 0.169669 0.403992 0.793014
O O4 0.116366 0.197271 0.315246
O O5 0.871293 0.891894 0.336579
O O6 0.910452 0.959486 0.233878
O O7 0.610035 0.901802 0.843618
O O8 0.963676 0.679254 0.006655
O O9 0.049806 0.568782 0.241385
O O10 0.717289 0.517354 0.761841
O O11 0.768368 0.258992 0.376917
O O12 0.923798 0.052119 0.137101
O O13 0.411480 0.465652 0.611033
O O14 0.631409 0.707752 0.468218
O O15 0.624308 0.991758 0.742176
O O16 0.323761 0.938242 0.345929
O O17 0.500000 0.500000 0.000000
#
# Coordination Sequence:
#
# PCOD9076982 Si02
#       8
#     2   2   2   2   2   2   2   2
#     4  11  19  36  59  85 112 149 192 236 285 341
#     4   9  15  30  52  76 106 144 195 228 269 337
#     4   9  17  31  55  81 104 147 194 229 272 341
#     4   9  17  28  48  81 108 143 186 236 274 330
#     4   9  17  31  52  81 109 143 191 230 275 337
#     4  10  18  34  53  83 109 148 188 230 282 340
#     4  11  21  35  58  85 114 149 190 237 287 341
#     4  10  20  32  55  83 114 142 186 238 286 332
#
# _framework density 23.229500000000002
#
# number of rings (size 3 to 8) (size 9 to 14) (size 15 to 20)
#    0.000    2.250    3.750    1.500    0.000    0.000 
#    0.000    5.625    2.750    1.500    0.000    0.000 
#    0.000    0.000    0.000    0.000    0.000    0.000 
#
# Total GULP energy -89095.037652 kJ/mol
# GULP energy per Si atom -5568.439853 kJ/mol
# Density = 2.317663 g / cm^3
# Si number density = 23.229500 Si / 1000 Ang^3
#
#
#
# Elastic Constant Matrix: (Units=GPa)
#
#
# Indices 1 2 3 4 5 6 
#
# 1 12.2210 5.9666 27.4567 -7.4561 -9.7190 6.5814
# 2 5.9666 81.8954 47.5293 -4.7816 -13.6054 19.8670
# 3 27.4567 47.5293 192.5006 -34.8413 -58.8779 9.6175
# 4 -7.4561 -4.7816 -34.8413 52.5780 20.4706 -4.1768
# 5 -9.7190 -13.6054 -58.8779 20.4706 40.1300 1.4473
# 6 6.5814 19.8670 9.6175 -4.1768 1.4473 26.1194
#
#
#
# Elastic Compliance Matrix: (Units=1/GPa)
#
#
# Indices 1 2 3 4 5 6 
#
# 1 0.150350 0.011693 -0.017117 0.001568 0.015947 -0.041109
# 2 0.011693 0.018450 -0.004603 -0.002637 0.004254 -0.015943
# 3 -0.017117 -0.004603 0.012493 0.000961 0.012036 0.002701
# 4 0.001568 -0.002637 0.000961 0.024756 -0.011944 0.005877
# 5 0.015947 0.004254 0.012036 -0.011944 0.054574 -0.016620
# 6 -0.041109 -0.015943 0.002701 0.005877 -0.016620 0.061637
#
#
# Mechanical properties :
#
#
# Convention : Reuss Voigt Hill
#
# Bulk Modulus (GPa) = 6.20191 49.83579 28.01885
# Shear Modulus (GPa) = 12.62436 37.47644 25.05040
#
# Velocity S-wave (km/s) = 2.33376 4.02096 3.28744
# Velocity P-wave (km/s) = 3.15239 6.56184 5.14759
#
# Compressibility (1/GPa) = 0.16124068
#
# Stress axis : x y z
#
# Youngs Moduli (GPa) = 6.65115 54.19915 80.04548
#
# Poissons Ratio (x) = -0.63377 1.37012
# Poissons Ratio (y) = -0.07777 0.36845
# Poissons Ratio (z) = 0.11385 0.24948
#
# Static dielectric constant tensor:
#      x y z
#    x 2.032950 0.065300 -0.184940 
#    y 0.065300 1.682140 0.233610 
#    z -0.184940 0.233610 1.459380 
# 
# From -- ./inp_files/423021.got.cif
#   From: 2010.05.17/outbox.cif.g08.bks.cpg/sg2_212_cif.got.tgz:423021.got - 2010.06.03 11:33:40.
