data_PCOD9076192
_publ_section_title
;
Structure prediction by ZEFSAII (Michael W. Deem and Ramdas Pophale) SiO2 
 PCOD9076192
Probable space group: P -1
;
_chemical_formula_sum "Si O2"
_cell_formula_units_Z 16
_cell_length_a 14.131860
_cell_length_b 12.394204
_cell_length_c 18.115205
_cell_angle_alpha 97.858762
_cell_angle_beta 22.846385
_cell_angle_gamma 111.236568
_cell_volume 963.086731
_symmetry_space_group_name_H-M "P -1"
_symmetry_group_IT_number 2
_symmetry_cell_setting 'triclinic'
loop_
_space_group_symop_operation_xyz
x,y,z
-x,-y,-z
loop_
_atom_site_type_symbol
_atom_site_label
_atom_site_fract_x
_atom_site_fract_y
_atom_site_fract_z
Si Si1 0.169320 0.332488 0.172342
Si Si2 0.989721 0.447691 0.184005
Si Si3 0.127305 0.508661 0.328100
Si Si4 0.935336 0.859288 0.006854
Si Si5 0.820025 0.060378 0.317136
Si Si6 0.420573 0.804043 0.660111
Si Si7 0.319660 0.597931 0.823839
Si Si8 0.627937 0.449073 0.569352
O O1 0.107939 0.379552 0.297124
O O2 0.152266 0.416748 0.125930
O O3 0.910306 0.174648 0.322838
O O4 0.506268 0.370248 0.931388
O O5 0.788796 0.316450 0.261469
O O6 0.757789 0.460946 0.396111
O O7 0.230230 0.577993 0.972201
O O8 0.000000 0.500000 0.500000
O O9 0.911437 0.515830 0.428214
O O10 0.625837 0.713822 0.243601
O O11 0.934867 0.866911 0.918505
O O12 0.215432 0.855438 0.829378
O O13 0.000000 0.000000 0.000000
O O14 0.500000 0.000000 0.500000
O O15 0.738912 0.926780 0.404070
O O16 0.472270 0.743277 0.688493
O O17 0.489145 0.530372 0.683513
O O18 0.000000 0.500000 0.000000
#
# Coordination Sequence:
#
# PCOD9076192 Si02
#       8
#     2   2   2   2   2   2   2   2
#     4  10  19  35  53  80 110 138 177 222 276 322
#     4  10  18  33  54  74 110 143 175 222 268 311
#     4  10  21  32  54  80 106 139 180 225 271 315
#     4  11  20  30  49  80 112 139 176 217 269 329
#     4  10  18  33  52  74 111 145 167 213 276 325
#     4  10  20  33  50  75 111 151 169 214 269 319
#     4  10  19  35  49  74 110 143 185 219 254 320
#     4  11  21  34  55  80 104 145 181 221 272 320
#
# _framework density 16.613249
#
# number of rings (size 3 to 8) (size 9 to 14) (size 15 to 20)
#    0.000    1.750    5.000    2.250    5.250    2.000 
#    2.250    0.000    0.000    0.750    0.000   12.250 
#    0.000    0.000    0.000    0.000    0.000    0.000 
#
# Total GULP energy -89105.421039 kJ/mol
# GULP energy per Si atom -5569.088815 kJ/mol
# Density = 1.657544 g / cm^3
# Si number density = 16.613249 Si / 1000 Ang^3
#
#
#
# Elastic Constant Matrix: (Units=GPa)
#
#
# Indices 1 2 3 4 5 6 
#
# 1 66.0421 48.6895 42.9100 3.4520 12.3752 -7.7816
# 2 48.6895 84.6990 51.1636 1.7098 17.3929 -0.5825
# 3 42.9100 51.1636 89.4419 18.5656 7.4853 -11.6342
# 4 3.4520 1.7098 18.5656 27.7159 1.6055 5.6009
# 5 12.3752 17.3929 7.4853 1.6055 37.8094 -6.9068
# 6 -7.7816 -0.5825 -11.6342 5.6009 -6.9068 32.9722
#
#
#
# Elastic Compliance Matrix: (Units=1/GPa)
#
#
# Indices 1 2 3 4 5 6 
#
# 1 0.029364 -0.012695 -0.006284 0.000633 -0.001823 0.003999
# 2 -0.012695 0.028752 -0.013452 0.011572 -0.008922 -0.011069
# 3 -0.006284 -0.013452 0.027005 -0.019317 0.005973 0.012341
# 4 0.000633 0.011572 -0.019317 0.052018 -0.006977 -0.016760
# 5 -0.001823 -0.008922 0.005973 -0.006977 0.031981 0.009404
# 6 0.003999 -0.011069 0.012341 -0.016760 0.009404 0.040248
#
#
# Mechanical properties :
#
#
# Convention : Reuss Voigt Hill
#
# Bulk Modulus (GPa) = 49.35988 58.41214 53.88601
# Shear Modulus (GPa) = 17.79462 26.19417 21.99439
#
# Velocity S-wave (km/s) = 3.27633 3.97508 3.64250
# Velocity P-wave (km/s) = 6.63989 7.50364 7.08494
#
# Compressibility (1/GPa) = 0.02025937
#
# Stress axis : x y z
#
# Youngs Moduli (GPa) = 34.05541 34.77979 37.02968
#
# Poissons Ratio (x) = 0.44152 0.23271
# Poissons Ratio (y) = 0.43232 0.49813
# Poissons Ratio (z) = 0.21402 0.46786
#
# Static dielectric constant tensor:
#      x y z
#    x 1.577710 -0.007910 0.031290 
#    y -0.007910 1.592210 -0.001460 
#    z 0.031290 -0.001460 1.612180 
# 
# From -- ./inp_files/542882.got.cif
#   From: 2010.05.17/outbox.cif.g08.bks.cpg/sg2_272_cif.got.tgz:542882.got - 2010.06.03 11:33:40.
