data_PCOD9076405
_publ_section_title
;
Structure prediction by ZEFSAII (Michael W. Deem and Ramdas Pophale) SiO2 
 PCOD9076405
Probable space group: P -1
;
_chemical_formula_sum "Si O2"
_cell_formula_units_Z 16
_cell_length_a 11.238733
_cell_length_b 9.357987
_cell_length_c 17.673583
_cell_angle_alpha 60.608654
_cell_angle_beta 27.801022
_cell_angle_gamma 48.709705
_cell_volume 628.069439
_symmetry_space_group_name_H-M "P -1"
_symmetry_group_IT_number 2
_symmetry_cell_setting 'triclinic'
loop_
_space_group_symop_operation_xyz
x,y,z
-x,-y,-z
loop_
_atom_site_type_symbol
_atom_site_label
_atom_site_fract_x
_atom_site_fract_y
_atom_site_fract_z
Si Si1 0.545010 0.280098 0.610261
Si Si2 0.128166 0.655329 0.477495
Si Si3 0.908486 0.906772 0.316893
Si Si4 0.603506 0.685160 0.025440
Si Si5 0.157436 0.501577 0.223561
Si Si6 0.894332 0.250366 0.272806
Si Si7 0.504938 0.044872 0.326989
Si Si8 0.432392 0.632758 0.821499
O O1 0.702999 0.244249 0.612161
O O2 0.801181 0.211170 0.417836
O O3 0.315369 0.514636 0.676591
O O4 0.376539 0.171070 0.713504
O O5 0.305848 0.492047 0.356001
O O6 0.087403 0.544527 0.599126
O O7 0.796722 0.818947 0.590459
O O8 0.000924 0.736868 0.247807
O O9 0.644377 0.926470 0.513630
O O10 0.233031 0.815608 0.204254
O O11 0.829357 0.122371 0.286530
O O12 0.694300 0.612236 0.906799
O O13 0.770677 0.795382 0.919414
O O14 0.729401 0.486553 0.055244
O O15 0.406303 0.417660 0.173298
O O16 0.699173 0.141024 0.181717
#
# Coordination Sequence:
#
# PCOD9076405 Si02
#       8
#     2   2   2   2   2   2   2   2
#     4  10  22  37  56  77 113 151 189 223 259 329
#     4  11  17  35  58  85 109 141 184 224 277 321
#     4  10  18  34  58  83 112 140 180 230 273 322
#     4  11  20  35  58  85 112 143 180 226 279 322
#     4  10  18  33  55  89 111 136 181 229 275 324
#     4  10  22  39  52  79 115 151 185 223 268 319
#     4  10  18  34  57  86 108 141 183 226 275 322
#     4  10  19  33  57  86 113 136 175 237 279 318
#
# _framework density 25.474889000000001
#
# number of rings (size 3 to 8) (size 9 to 14) (size 15 to 20)
#    0.000    1.750    5.000    3.000    0.000    0.000 
#    0.000    4.375    0.000    0.000    0.000    0.000 
#    0.000    0.000    0.000    0.000    0.000    0.000 
#
# Total GULP energy -89437.441632 kJ/mol
# GULP energy per Si atom -5589.840102 kJ/mol
# Density = 2.541691 g / cm^3
# Si number density = 25.474889 Si / 1000 Ang^3
#
#
#
# Elastic Constant Matrix: (Units=GPa)
#
#
# Indices 1 2 3 4 5 6 
#
# 1 71.9573 18.4069 -1.5118 -6.6257 2.9491 13.2381
# 2 18.4069 163.3943 33.3774 -19.3272 2.7008 25.6709
# 3 -1.5118 33.3774 89.4853 -9.7873 -1.0856 -5.5907
# 4 -6.6257 -19.3272 -9.7873 43.1995 4.4924 -6.9208
# 5 2.9491 2.7008 -1.0856 4.4924 26.9776 0.7868
# 6 13.2381 25.6709 -5.5907 -6.9208 0.7868 24.0413
#
#
#
# Elastic Compliance Matrix: (Units=1/GPa)
#
#
# Indices 1 2 3 4 5 6 
#
# 1 0.015601 -0.000373 0.000021 0.001150 -0.001631 -0.007803
# 2 -0.000373 0.008564 -0.003622 0.001563 -0.000951 -0.009300
# 3 0.000021 -0.003622 0.013294 0.002602 0.000238 0.007689
# 4 0.001150 0.001563 0.002602 0.026055 -0.004690 0.005957
# 5 -0.001631 -0.000951 0.000238 -0.004690 0.038150 -0.000629
# 6 -0.007803 -0.009300 0.007689 0.005957 -0.000629 0.059346
#
#
# Mechanical properties :
#
#
# Convention : Reuss Voigt Hill
#
# Bulk Modulus (GPa) = 33.88514 47.26465 40.57489
# Shear Modulus (GPa) = 27.96477 37.14797 32.55637
#
# Velocity S-wave (km/s) = 3.31681 3.82281 3.57876
# Velocity P-wave (km/s) = 5.29137 6.17081 5.74793
#
# Compressibility (1/GPa) = 0.02951146
#
# Stress axis : x y z
#
# Youngs Moduli (GPa) = 64.09729 116.77010 75.22050
#
# Poissons Ratio (x) = 0.04354 -0.00159
# Poissons Ratio (y) = 0.02390 0.27247
# Poissons Ratio (z) = -0.00136 0.42297
#
# Static dielectric constant tensor:
#      x y z
#    x 2.093960 -0.025210 -0.074000 
#    y -0.025210 2.096600 -0.045750 
#    z -0.074000 -0.045750 2.005890 
# 
# From -- ./inp_files/180296.got.cif
#   From: 2010.05.17/outbox.cif.g08.bks.cpg/sg2_91_cif.got.tgz:180296.got - 2010.06.03 11:33:40.
