data_PCOD9076977
_publ_section_title
;
Structure prediction by ZEFSAII (Michael W. Deem and Ramdas Pophale) SiO2 
 PCOD9076977
Probable space group: P -1
;
_chemical_formula_sum "Si O2"
_cell_formula_units_Z 11
_cell_length_a 12.584632
_cell_length_b 5.342589
_cell_length_c 6.756960
_cell_angle_alpha 105.441426
_cell_angle_beta 120.764488
_cell_angle_gamma 78.920517
_cell_volume 375.418852
_symmetry_space_group_name_H-M "P -1"
_symmetry_group_IT_number 2
_symmetry_cell_setting 'triclinic'
loop_
_space_group_symop_operation_xyz
x,y,z
-x,-y,-z
loop_
_atom_site_type_symbol
_atom_site_label
_atom_site_fract_x
_atom_site_fract_y
_atom_site_fract_z
Si Si1 0.760617 0.894526 0.599869
Si Si2 0.716431 0.748907 0.068637
Si Si3 0.798302 0.266393 0.240945
Si Si4 0.500000 0.000000 0.500000
Si Si5 0.458419 0.588165 0.761936
Si Si6 0.103460 0.616463 0.254722
O O1 0.865676 0.098318 0.728855
O O2 0.729709 0.794085 0.328277
O O3 0.639402 0.058342 0.590910
O O4 0.795648 0.632506 0.699736
O O5 0.772503 0.453109 0.068197
O O6 0.797395 0.970388 0.106907
O O7 0.571974 0.777269 0.858219
O O8 0.676672 0.283913 0.278995
O O9 0.909127 0.332949 0.506626
O O10 0.532360 0.681009 0.403098
O O11 0.500000 0.500000 0.000000
O O12 0.000000 0.500000 0.000000
#
# Coordination Sequence:
#
# PCOD9076977 Si02
#       6
#     2   2   2   1   2   2
#     4  10  21  35  53  89 112 151 193 229 303 341
#     4   9  17  33  51  74 113 143 188 218 277 359
#     4   9  17  31  52  77 105 141 197 220 281 337
#     4  12  20  36  58  88 134 142 186 248 286 378
#     4  10  18  34  53  81 120 154 185 223 299 352
#     4  10  19  36  56  80 114 151 203 244 269 338
#
# _framework density 29.300608
#
# number of rings (size 3 to 8) (size 9 to 14) (size 15 to 20)
#    0.000    2.182    5.455    1.091    0.000    0.727 
#    0.000    0.000    0.000    0.000    0.000   48.364 
#    0.000    0.000    0.000    0.000    0.000    0.000 
#
# Total GULP energy -61322.018826 kJ/mol
# GULP energy per Si atom -5574.728984 kJ/mol
# Density = 2.923392 g / cm^3
# Si number density = 29.300608 Si / 1000 Ang^3
#
#
#
# Elastic Constant Matrix: (Units=GPa)
#
#
# Indices 1 2 3 4 5 6 
#
# 1 50.5565 12.1672 19.9943 4.5367 0.2974 19.2041
# 2 12.1672 139.1464 23.6586 23.6120 -5.1806 26.8799
# 3 19.9943 23.6586 206.0871 32.8949 19.9737 3.4141
# 4 4.5367 23.6120 32.8949 57.6897 1.5546 10.6393
# 5 0.2974 -5.1806 19.9737 1.5546 43.9080 12.0379
# 6 19.2041 26.8799 3.4141 10.6393 12.0379 48.4321
#
#
#
# Elastic Compliance Matrix: (Units=1/GPa)
#
#
# Indices 1 2 3 4 5 6 
#
# 1 0.024982 0.000402 -0.002938 0.001518 0.004263 -0.011315
# 2 0.000402 0.008803 -0.000891 -0.002243 0.002953 -0.005223
# 3 -0.002938 -0.000891 0.006056 -0.003284 -0.003498 0.002823
# 4 0.001518 -0.002243 -0.003284 0.020713 0.001603 -0.004074
# 5 0.004263 0.002953 -0.003498 0.001603 0.027440 -0.010255
# 6 -0.011315 -0.005223 0.002823 -0.004074 -0.010255 0.031278
#
#
# Mechanical properties :
#
#
# Convention : Reuss Voigt Hill
#
# Bulk Modulus (GPa) = 30.31592 56.38111 43.34852
# Shear Modulus (GPa) = 36.46414 52.67061 44.56737
#
# Velocity S-wave (km/s) = 3.53155 4.24440 3.90428
# Velocity P-wave (km/s) = 5.19597 6.58058 5.92883
#
# Compressibility (1/GPa) = 0.03298597
#
# Stress axis : x y z
#
# Youngs Moduli (GPa) = 40.02953 113.60348 165.12422
#
# Poissons Ratio (x) = -0.04566 0.48510
# Poissons Ratio (y) = -0.01609 0.14716
# Poissons Ratio (z) = 0.11760 0.10125
#
# Static dielectric constant tensor:
#      x y z
#    x 1.594930 -0.433000 0.171140 
#    y -0.433000 2.006030 0.177650 
#    z 0.171140 0.177650 2.191030 
# 
# From -- ./inp_files/20308.got.cif
#   From: 2010.05.17/outbox.cif.g08.bks.cpg/sg2_11_cif.got.tgz:20308.got - 2010.06.03 11:33:40.
