data_PCOD9076896
_publ_section_title
;
Structure prediction by ZEFSAII (Michael W. Deem and Ramdas Pophale) SiO2 
 PCOD9076896
Probable space group: P -1
;
_chemical_formula_sum "Si O2"
_cell_formula_units_Z 16
_cell_length_a 8.903827
_cell_length_b 19.862598
_cell_length_c 11.839175
_cell_angle_alpha 29.937454
_cell_angle_beta 118.380418
_cell_angle_gamma 129.166072
_cell_volume 796.003429
_symmetry_space_group_name_H-M "P -1"
_symmetry_group_IT_number 2
_symmetry_cell_setting 'triclinic'
loop_
_space_group_symop_operation_xyz
x,y,z
-x,-y,-z
loop_
_atom_site_type_symbol
_atom_site_label
_atom_site_fract_x
_atom_site_fract_y
_atom_site_fract_z
Si Si1 0.707273 0.039064 0.086557
Si Si2 0.608571 0.211833 0.488207
Si Si3 0.726242 0.357487 0.676857
Si Si4 0.278614 0.161976 0.820173
Si Si5 0.971054 0.951371 0.429811
Si Si6 0.339781 0.325633 0.165344
Si Si7 0.869166 0.534943 0.245261
Si Si8 0.120263 0.918136 0.311300
O O1 0.533156 0.918841 0.281915
O O2 0.704558 0.959051 0.083842
O O3 0.717394 0.202968 0.845165
O O4 0.899400 0.057457 0.188923
O O5 0.464445 0.238648 0.313019
O O6 0.744558 0.374796 0.363805
O O7 0.748188 0.158404 0.558429
O O8 0.501270 0.304714 0.704175
O O9 0.804454 0.490569 0.416605
O O10 0.897658 0.407450 0.759234
O O11 0.106271 0.183298 0.669247
O O12 0.203683 0.075968 0.037870
O O13 0.125384 0.949953 0.400408
O O14 0.793319 0.772113 0.634023
O O15 0.000000 0.000000 0.500000
O O16 0.500000 0.500000 0.000000
O O17 0.198587 0.346340 0.997286
#
# Coordination Sequence:
#
# PCOD9076896 Si02
#       8
#     2   2   2   2   2   2   2   2
#     4  10  18  33  63  87 111 155 200 241 290 348
#     4  10  18  37  60  86 114 158 206 240 282 351
#     4  11  19  32  59  90 121 148 193 250 290 353
#     4  10  19  34  57  92 125 148 189 249 297 357
#     4  10  21  38  61  86 112 149 199 252 296 346
#     4   9  20  38  61  80 114 159 205 235 277 357
#     4  10  21  33  56  90 119 159 199 237 294 346
#     4  10  21  34  60  91 119 151 196 248 301 345
#
# _framework density 20.100415999999999
#
# number of rings (size 3 to 8) (size 9 to 14) (size 15 to 20)
#    0.000    2.000    2.500    1.875    1.750    0.000 
#    0.000    5.625    2.750    0.000    0.000    0.000 
#    0.000    0.000    0.000    0.000    0.000    0.000 
#
# Total GULP energy -89126.480490 kJ/mol
# GULP energy per Si atom -5570.405031 kJ/mol
# Density = 2.005467 g / cm^3
# Si number density = 20.100416 Si / 1000 Ang^3
#
#
#
# Elastic Constant Matrix: (Units=GPa)
#
#
# Indices 1 2 3 4 5 6 
#
# 1 125.4965 28.8638 35.3017 9.3751 1.2289 7.5669
# 2 28.8638 65.3533 9.3326 6.5552 -9.6617 8.6151
# 3 35.3017 9.3326 83.4603 16.5389 6.9194 2.5685
# 4 9.3751 6.5552 16.5389 31.4250 11.0991 -2.6290
# 5 1.2289 -9.6617 6.9194 11.0991 32.6027 1.3030
# 6 7.5669 8.6151 2.5685 -2.6290 1.3030 30.8176
#
#
#
# Elastic Compliance Matrix: (Units=1/GPa)
#
#
# Indices 1 2 3 4 5 6 
#
# 1 0.009959 -0.003822 -0.003680 -0.000095 -0.000653 -0.001051
# 2 -0.003822 0.019552 0.000182 -0.006422 0.008304 -0.005442
# 3 -0.003680 0.000182 0.014916 -0.006628 -0.000680 -0.000927
# 4 -0.000095 -0.006422 -0.006628 0.042628 -0.015271 0.006653
# 5 -0.000653 0.008304 -0.000680 -0.015271 0.038702 -0.005043
# 6 -0.001051 -0.005442 -0.000927 0.006653 -0.005043 0.035086
#
#
# Mechanical properties :
#
#
# Convention : Reuss Voigt Hill
#
# Bulk Modulus (GPa) = 33.57012 46.81181 40.19097
# Shear Modulus (GPa) = 26.96671 32.35652 29.66162
#
# Velocity S-wave (km/s) = 3.66676 4.01651 3.84561
# Velocity P-wave (km/s) = 5.88764 6.69697 6.30530
#
# Compressibility (1/GPa) = 0.02978839
#
# Stress axis : x y z
#
# Youngs Moduli (GPa) = 100.40870 51.14459 67.04078
#
# Poissons Ratio (x) = 0.19545 0.24671
# Poissons Ratio (y) = 0.38372 -0.01219
# Poissons Ratio (z) = 0.36951 -0.00930
#
# Static dielectric constant tensor:
#      x y z
#    x 1.720960 0.058410 0.014220 
#    y 0.058410 1.813930 0.006510 
#    z 0.014220 0.006510 1.712850 
# 
# From -- ./inp_files/271562.got.cif
#   From: 2010.05.17/outbox.cif.g08.bks.cpg/sg2_136_cif.got.tgz:271562.got - 2010.06.03 11:33:40.
