data_PCOD9076668
_publ_section_title
;
Structure prediction by ZEFSAII (Michael W. Deem and Ramdas Pophale) SiO2 
 PCOD9076668
Probable space group: P -1
;
_chemical_formula_sum "Si O2"
_cell_formula_units_Z 16
_cell_length_a 8.353057
_cell_length_b 16.900092
_cell_length_c 14.044783
_cell_angle_alpha 47.070900
_cell_angle_beta 29.337400
_cell_angle_gamma 45.851126
_cell_volume 681.445814
_symmetry_space_group_name_H-M "P -1"
_symmetry_group_IT_number 2
_symmetry_cell_setting 'triclinic'
loop_
_space_group_symop_operation_xyz
x,y,z
-x,-y,-z
loop_
_atom_site_type_symbol
_atom_site_label
_atom_site_fract_x
_atom_site_fract_y
_atom_site_fract_z
Si Si1 0.147859 0.877743 0.980846
Si Si2 0.841791 0.708510 0.739556
Si Si3 0.062913 0.562166 0.565900
Si Si4 0.059560 0.285974 0.664029
Si Si5 0.812854 0.267996 0.271875
Si Si6 0.270023 0.341761 0.716817
Si Si7 0.325172 0.522622 0.942944
Si Si8 0.703008 0.871554 0.027386
O O1 0.531480 0.819962 0.795892
O O2 0.934947 0.877280 0.994514
O O3 0.127628 0.807269 0.146884
O O4 0.000000 0.000000 0.000000
O O5 0.009302 0.658412 0.594176
O O6 0.083379 0.742940 0.662989
O O7 0.701821 0.604445 0.936491
O O8 0.128059 0.610708 0.390364
O O9 0.695796 0.535371 0.769660
O O10 0.356576 0.452287 0.537403
O O11 0.448513 0.246560 0.458444
O O12 0.111831 0.309836 0.727870
O O13 0.766019 0.400011 0.166220
O O14 0.083144 0.187006 0.128052
O O15 0.463086 0.226120 0.766465
O O16 0.964613 0.404393 0.895223
O O17 0.500000 0.000000 0.000000
#
# Coordination Sequence:
#
# PCOD9076668 Si02
#       8
#     2   2   2   2   2   2   2   2
#     4  11  23  41  63  86 109 148 200 242 282 346
#     4  11  20  36  58  86 117 154 197 234 274 344
#     4  10  18  33  58  88 119 152 190 238 288 336
#     4  10  20  37  58  86 118 149 182 237 300 344
#     4  10  21  36  57  87 119 153 189 234 290 339
#     4   9  17  31  56  84 112 149 190 227 276 339
#     4   9  17  33  57  83 117 159 193 228 281 344
#     4  10  20  39  60  82 114 156 195 232 281 342
#
# _framework density 23.479490999999999
#
# number of rings (size 3 to 8) (size 9 to 14) (size 15 to 20)
#    0.000    2.000    0.000    7.500    0.000    1.000 
#    0.000   16.875    0.000    0.000    0.000    0.000 
#    0.000    0.000    0.000    0.000    0.000    0.000 
#
# Total GULP energy -89170.932868 kJ/mol
# GULP energy per Si atom -5573.183304 kJ/mol
# Density = 2.342605 g / cm^3
# Si number density = 23.479491 Si / 1000 Ang^3
#
#
#
# Elastic Constant Matrix: (Units=GPa)
#
#
# Indices 1 2 3 4 5 6 
#
# 1 95.2058 40.4801 17.3335 1.4838 15.9854 -12.2337
# 2 40.4801 181.6966 30.7353 -1.1917 17.5833 -12.1238
# 3 17.3335 30.7353 52.8137 -3.2900 24.0332 -7.8419
# 4 1.4838 -1.1917 -3.2900 23.6045 -4.6785 13.2684
# 5 15.9854 17.5833 24.0332 -4.6785 36.5489 -1.7717
# 6 -12.2337 -12.1238 -7.8419 13.2684 -1.7717 44.1540
#
#
#
# Elastic Compliance Matrix: (Units=1/GPa)
#
#
# Indices 1 2 3 4 5 6 
#
# 1 0.012831 -0.002081 -0.000602 -0.004105 -0.004550 0.003928
# 2 -0.002081 0.006540 -0.002855 -0.000486 -0.000380 0.000843
# 3 -0.000602 -0.002855 0.029339 -0.001828 -0.017690 0.004099
# 4 -0.004105 -0.000486 -0.001828 0.053994 0.009297 -0.017448
# 5 -0.004550 -0.000380 -0.017690 0.009297 0.042084 -0.005612
# 6 0.003928 0.000843 0.004099 -0.017448 -0.005612 0.029714
#
#
# Mechanical properties :
#
#
# Convention : Reuss Voigt Hill
#
# Bulk Modulus (GPa) = 26.57280 56.31263 41.44272
# Shear Modulus (GPa) = 25.23700 36.93929 31.08814
#
# Velocity S-wave (km/s) = 3.28205 3.97073 3.64270
# Velocity P-wave (km/s) = 5.06996 6.71254 5.94822
#
# Compressibility (1/GPa) = 0.03763247
#
# Stress axis : x y z
#
# Youngs Moduli (GPa) = 77.93825 152.90115 34.08480
#
# Poissons Ratio (x) = 0.31823 0.02052
# Poissons Ratio (y) = 0.16221 0.09732
# Poissons Ratio (z) = 0.04692 0.43657
#
# Static dielectric constant tensor:
#      x y z
#    x 1.984260 0.034940 -0.123340 
#    y 0.034940 2.053900 0.011930 
#    z -0.123340 0.011930 2.260190 
# 
# From -- ./inp_files/187434.got.cif
#   From: 2010.05.17/outbox.cif.g08.bks.cpg/sg2_94_cif.got.tgz:187434.got - 2010.06.03 11:33:40.
