data_PCOD9076151
_publ_section_title
;
Structure prediction by ZEFSAII (Michael W. Deem and Ramdas Pophale) SiO2 
 PCOD9076151
Probable space group: P -1
;
_chemical_formula_sum "Si O2"
_cell_formula_units_Z 15
_cell_length_a 11.167059
_cell_length_b 12.436105
_cell_length_c 6.938011
_cell_angle_alpha 72.637640
_cell_angle_beta 83.608639
_cell_angle_gamma 137.900713
_cell_volume 526.611947
_symmetry_space_group_name_H-M "P -1"
_symmetry_group_IT_number 2
_symmetry_cell_setting 'triclinic'
loop_
_space_group_symop_operation_xyz
x,y,z
-x,-y,-z
loop_
_atom_site_type_symbol
_atom_site_label
_atom_site_fract_x
_atom_site_fract_y
_atom_site_fract_z
Si Si1 0.297547 0.739388 0.292558
Si Si2 0.720937 0.504125 0.725972
Si Si3 0.500000 0.500000 0.500000
Si Si4 0.621440 0.938229 0.441838
Si Si5 0.106021 0.183140 0.004491
Si Si6 0.132191 0.859080 0.204178
Si Si7 0.349311 0.221693 0.199299
Si Si8 0.186259 0.682286 0.742770
O O1 0.263557 0.617723 0.210450
O O2 0.520169 0.885989 0.280343
O O3 0.151970 0.606414 0.576365
O O4 0.750492 0.170289 0.801391
O O5 0.564396 0.430851 0.631837
O O6 0.939694 0.711997 0.476391
O O7 0.588569 0.434185 0.981382
O O8 0.318730 0.378166 0.757806
O O9 0.674900 0.851142 0.543466
O O10 0.418192 0.813668 0.678955
O O11 0.785514 0.161218 0.344444
O O12 0.178682 0.188578 0.195698
O O13 0.953679 0.169278 0.977505
O O14 0.000000 0.000000 0.000000
O O15 0.281066 0.068882 0.151367
O O16 0.000000 0.500000 0.000000
#
# Coordination Sequence:
#
# PCOD9076151 Si02
#       8
#     2   2   1   2   2   2   2   2
#     4  10  20  35  49  83 111 138 175 224 265 313
#     4  10  21  33  53  79 109 140 176 224 269 313
#     4   8  16  34  50  68 100 140 178 206 260 318
#     4   9  19  34  51  77 107 138 184 217 251 328
#     4   8  16  28  50  71  96 134 175 212 250 307
#     4  10  18  33  47  77 111 134 175 218 256 320
#     4  10  18  33  54  78 101 144 178 213 271 310
#     4   9  18  34  52  70 108 152 174 205 267 319
#
# _framework density 28.483971
#
# number of rings (size 3 to 8) (size 9 to 14) (size 15 to 20)
#    0.800    1.867    1.333    0.400    1.867    0.533 
#    2.400    0.000    0.000    7.200    0.000   35.467 
#    0.000    0.000    0.000    0.000    0.000    0.000 
#
# Total GULP energy -83591.635362 kJ/mol
# GULP energy per Si atom -5572.775691 kJ/mol
# Density = 2.841914 g / cm^3
# Si number density = 28.483971 Si / 1000 Ang^3
#
#
#
# Elastic Constant Matrix: (Units=GPa)
#
#
# Indices 1 2 3 4 5 6 
#
# 1 195.8235 45.2982 34.1946 3.4983 28.7283 43.3427
# 2 45.2982 86.2819 44.4092 -4.8513 5.0156 -1.5784
# 3 34.1946 44.4092 167.7508 -13.6021 13.2150 6.8587
# 4 3.4983 -4.8513 -13.6021 32.4077 6.4533 11.1967
# 5 28.7283 5.0156 13.2150 6.4533 56.3949 11.0210
# 6 43.3427 -1.5784 6.8587 11.1967 11.0210 35.6864
#
#
#
# Elastic Compliance Matrix: (Units=1/GPa)
#
#
# Indices 1 2 3 4 5 6 
#
# 1 0.008949 -0.004773 0.000313 0.002820 -0.002320 -0.011308
# 2 -0.004773 0.016045 -0.003735 -0.001345 0.000574 0.007469
# 3 0.000313 -0.003735 0.007415 0.003741 -0.001467 -0.002691
# 4 0.002820 -0.001345 0.003741 0.037804 -0.003597 -0.014954
# 5 -0.002320 0.000574 -0.001467 -0.003597 0.019994 -0.001920
# 6 -0.011308 0.007469 -0.002691 -0.014954 -0.001920 0.047889
#
#
# Mechanical properties :
#
#
# Convention : Reuss Voigt Hill
#
# Bulk Modulus (GPa) = 62.41765 77.51781 69.96773
# Shear Modulus (GPa) = 31.28416 46.62809 38.95613
#
# Velocity S-wave (km/s) = 3.31767 4.05037 3.70219
# Velocity P-wave (km/s) = 6.05283 7.01053 6.54921
#
# Compressibility (1/GPa) = 0.01602111
#
# Stress axis : x y z
#
# Youngs Moduli (GPa) = 111.74408 62.32285 134.86136
#
# Poissons Ratio (x) = 0.29746 -0.04223
# Poissons Ratio (y) = 0.53334 0.50364
# Poissons Ratio (z) = -0.03499 0.23274
#
# Static dielectric constant tensor:
#      x y z
#    x 2.290110 0.090190 -0.013660 
#    y 0.090190 2.457000 0.055100 
#    z -0.013660 0.055100 2.245580 
# 
# From -- ./inp_files/316430.got.cif
#   From: 2010.05.17/outbox.cif.g08.bks.cpg/sg2_159_cif.got.tgz:316430.got - 2010.06.03 11:33:40.
