data_PCOD9076962
_publ_section_title
;
Structure prediction by ZEFSAII (Michael W. Deem and Ramdas Pophale) SiO2 
 PCOD9076962
Probable space group: P -1
;
_chemical_formula_sum "Si O2"
_cell_formula_units_Z 15
_cell_length_a 16.609427
_cell_length_b 9.228299
_cell_length_c 7.912514
_cell_angle_alpha 73.982142
_cell_angle_beta 88.779926
_cell_angle_gamma 32.159878
_cell_volume 564.546023
_symmetry_space_group_name_H-M "P -1"
_symmetry_group_IT_number 2
_symmetry_cell_setting 'triclinic'
loop_
_space_group_symop_operation_xyz
x,y,z
-x,-y,-z
loop_
_atom_site_type_symbol
_atom_site_label
_atom_site_fract_x
_atom_site_fract_y
_atom_site_fract_z
Si Si1 0.668533 0.751964 0.673226
Si Si2 0.958549 0.941326 0.881491
Si Si3 0.764148 0.859635 0.436014
Si Si4 0.594873 0.576370 0.906696
Si Si5 0.575047 0.142420 0.830271
Si Si6 0.838644 0.896081 0.095856
Si Si7 0.733658 0.200569 0.528231
Si Si8 0.000000 0.000000 0.500000
O O1 0.781770 0.657178 0.562291
O O2 0.624989 0.930524 0.771183
O O3 0.500000 0.000000 0.500000
O O4 0.694171 0.547074 0.819493
O O5 0.988936 0.735317 0.046894
O O6 0.780274 0.182150 0.720427
O O7 0.046477 0.847018 0.735082
O O8 0.000000 0.000000 0.000000
O O9 0.573005 0.184507 0.269064
O O10 0.773904 0.963054 0.555077
O O11 0.871398 0.743974 0.310104
O O12 0.709813 0.242105 0.039960
O O13 0.525086 0.745465 0.035560
O O14 0.737710 0.956022 0.954691
O O15 0.451069 0.454907 0.632541
O O16 0.858751 0.101673 0.448303
#
# Coordination Sequence:
#
# PCOD9076962 Si02
#       8
#     2   2   2   2   2   2   2   1
#     4  10  23  33  50  81 132 160 190 230 304 364
#     4  10  22  35  54  84 124 152 191 247 302 345
#     4  10  18  34  52  85 119 150 190 242 288 355
#     4  10  20  35  53  89 127 157 189 241 295 370
#     4  11  20  36  59  88 118 155 198 244 304 352
#     4  11  20  35  63  89 119 148 201 248 299 349
#     4  10  19  34  58  85 117 151 195 249 291 348
#     4   8  22  34  50  86 118 146 194 246 302 326
#
# _framework density 26.570024
#
# number of rings (size 3 to 8) (size 9 to 14) (size 15 to 20)
#    0.800    1.067    2.667    2.800    3.733    1.067 
#    0.000    0.000    0.000    0.000    0.000   25.200 
#    0.000    0.000    0.000    0.000    0.000    0.000 
#
# Total GULP energy -83572.425172 kJ/mol
# GULP energy per Si atom -5571.495011 kJ/mol
# Density = 2.650955 g / cm^3
# Si number density = 26.570024 Si / 1000 Ang^3
#
#
#
# Elastic Constant Matrix: (Units=GPa)
#
#
# Indices 1 2 3 4 5 6 
#
# 1 165.1499 31.8652 97.6372 14.6162 -31.5930 25.0918
# 2 31.8652 55.4117 43.6669 13.0193 18.5657 10.6648
# 3 97.6372 43.6669 196.6159 5.9464 -15.1878 10.1516
# 4 14.6162 13.0193 5.9464 40.2860 -2.6082 9.6831
# 5 -31.5930 18.5657 -15.1878 -2.6082 71.2077 10.4681
# 6 25.0918 10.6648 10.1516 9.6831 10.4681 33.2473
#
#
#
# Elastic Compliance Matrix: (Units=1/GPa)
#
#
# Indices 1 2 3 4 5 6 
#
# 1 0.011793 -0.004373 -0.003928 0.000195 0.006790 -0.008493
# 2 -0.004373 0.030279 -0.005247 -0.008469 -0.011449 0.001261
# 3 -0.003928 -0.005247 0.008182 0.001690 0.001246 0.001265
# 4 0.000195 -0.008469 0.001690 0.029502 0.004925 -0.008090
# 5 0.006790 -0.011449 0.001246 0.004925 0.021985 -0.010189
# 6 -0.008493 0.001261 0.001265 -0.008090 -0.010189 0.041261
#
#
# Mechanical properties :
#
#
# Convention : Reuss Voigt Hill
#
# Bulk Modulus (GPa) = 43.17940 84.83513 64.00727
# Shear Modulus (GPa) = 28.11875 45.21543 36.66709
#
# Velocity S-wave (km/s) = 3.25666 4.12970 3.71889
# Velocity P-wave (km/s) = 5.51612 7.39847 6.52553
#
# Compressibility (1/GPa) = 0.02315919
#
# Stress axis : x y z
#
# Youngs Moduli (GPa) = 84.79476 33.02614 122.22215
#
# Poissons Ratio (x) = 0.14441 0.48010
# Poissons Ratio (y) = 0.37077 0.64127
# Poissons Ratio (z) = 0.33308 0.17328
#
# Static dielectric constant tensor:
#      x y z
#    x 2.001370 -0.068730 -0.057060 
#    y -0.068730 2.032440 -0.035270 
#    z -0.057060 -0.035270 2.129050 
# 
# From -- ./inp_files/292105.got.cif
#   From: 2010.05.17/outbox.cif.g08.bks.cpg/sg2_147_cif.got.tgz:292105.got - 2010.06.03 11:33:40.
