data_PCOD9076387
_publ_section_title
;
Structure prediction by ZEFSAII (Michael W. Deem and Ramdas Pophale) SiO2 
 PCOD9076387
Probable space group: P -1
;
_chemical_formula_sum "Si O2"
_cell_formula_units_Z 16
_cell_length_a 10.867824
_cell_length_b 12.230815
_cell_length_c 8.657265
_cell_angle_alpha 64.750191
_cell_angle_beta 57.070430
_cell_angle_gamma 47.205880
_cell_volume 705.681911
_symmetry_space_group_name_H-M "P -1"
_symmetry_group_IT_number 2
_symmetry_cell_setting 'triclinic'
loop_
_space_group_symop_operation_xyz
x,y,z
-x,-y,-z
loop_
_atom_site_type_symbol
_atom_site_label
_atom_site_fract_x
_atom_site_fract_y
_atom_site_fract_z
Si Si1 0.177756 0.808613 0.709184
Si Si2 0.538868 0.572941 0.794374
Si Si3 0.051009 0.231767 0.898201
Si Si4 0.271246 0.198986 0.497149
Si Si5 0.798115 0.581128 0.796361
Si Si6 0.589320 0.086287 0.589898
Si Si7 0.708510 0.694297 0.134004
Si Si8 0.704582 0.437830 0.451894
O O1 0.357379 0.682416 0.757514
O O2 0.235077 0.915196 0.556934
O O3 0.169467 0.724228 0.616191
O O4 0.019318 0.849948 0.911423
O O5 0.608926 0.651887 0.795871
O O6 0.686942 0.457651 0.636341
O O7 0.500000 0.500000 0.000000
O O8 0.166050 0.158549 0.708582
O O9 0.173156 0.253383 0.915201
O O10 0.895914 0.404964 0.852981
O O11 0.128151 0.355222 0.412376
O O12 0.422660 0.183196 0.520304
O O13 0.362066 0.075902 0.374557
O O14 0.760220 0.647267 0.951717
O O15 0.497792 0.170952 0.761961
O O16 0.748444 0.548508 0.284565
O O17 0.500000 0.500000 0.500000
#
# Coordination Sequence:
#
# PCOD9076387 Si02
#       8
#     2   2   2   2   2   2   2   2
#     4  11  20  36  61  86 116 155 193 236 293 356
#     4  11  19  32  55  93 118 144 194 242 296 339
#     4  11  23  38  57  91 121 154 189 240 308 348
#     4  10  23  40  59  84 119 156 197 246 286 341
#     4  12  21  36  61  91 118 148 196 251 291 340
#     4  10  21  41  62  81 114 163 201 232 285 361
#     4  11  21  38  61  88 118 156 197 234 298 355
#     4  10  18  33  55  85 117 150 186 235 294 342
#
# _framework density 22.673103999999999
#
# number of rings (size 3 to 8) (size 9 to 14) (size 15 to 20)
#    0.000    1.250    6.250    2.250    0.000    1.000 
#    0.000    0.000    0.000    0.750    0.000    0.000 
#    0.000    0.000    0.000    0.000    0.000    0.000 
#
# Total GULP energy -89204.587100 kJ/mol
# GULP energy per Si atom -5575.286694 kJ/mol
# Density = 2.262150 g / cm^3
# Si number density = 22.673104 Si / 1000 Ang^3
#
#
#
# Elastic Constant Matrix: (Units=GPa)
#
#
# Indices 1 2 3 4 5 6 
#
# 1 40.5790 0.7346 25.1575 1.5566 -2.2604 16.3379
# 2 0.7346 35.6512 -8.7335 10.8016 7.3645 9.5448
# 3 25.1575 -8.7335 94.0407 3.1447 -7.1967 4.6329
# 4 1.5566 10.8016 3.1447 19.0866 8.7421 4.1962
# 5 -2.2604 7.3645 -7.1967 8.7421 37.6388 0.7604
# 6 16.3379 9.5448 4.6329 4.1962 0.7604 22.4386
#
#
#
# Elastic Compliance Matrix: (Units=1/GPa)
#
#
# Indices 1 2 3 4 5 6 
#
# 1 0.043329 0.004529 -0.009689 0.002564 -0.000087 -0.031951
# 2 0.004529 0.039612 0.003788 -0.018642 -0.002074 -0.017373
# 3 -0.009689 0.003788 0.013782 -0.005565 0.002533 0.003553
# 4 0.002564 -0.018642 -0.005565 0.071152 -0.013675 -0.005630
# 5 -0.000087 -0.002074 0.002533 -0.013675 0.030590 0.001943
# 6 -0.031951 -0.017373 0.003553 -0.005630 0.001943 0.075474
#
#
# Mechanical properties :
#
#
# Convention : Reuss Voigt Hill
#
# Bulk Modulus (GPa) = 10.64068 22.73201 16.68634
# Shear Modulus (GPa) = 16.23327 26.04029 21.13678
#
# Velocity S-wave (km/s) = 2.67867 3.39264 3.05657
# Velocity P-wave (km/s) = 3.77760 5.03929 4.45335
#
# Compressibility (1/GPa) = 0.09397898
#
# Stress axis : x y z
#
# Youngs Moduli (GPa) = 23.07921 25.24499 72.55653
#
# Poissons Ratio (x) = -0.11434 0.70300
# Poissons Ratio (y) = -0.10453 -0.27482
# Poissons Ratio (z) = 0.22361 -0.09562
#
# Static dielectric constant tensor:
#      x y z
#    x 1.908170 0.062690 -0.159040 
#    y 0.062690 2.045830 -0.256940 
#    z -0.159040 -0.256940 2.210910 
# 
# From -- ./inp_files/262278.got.cif
#   From: 2010.05.17/outbox.cif.g08.bks.cpg/sg2_132_cif.got.tgz:262278.got - 2010.06.03 11:33:40.
