data_PCOD9076330
_publ_section_title
;
Structure prediction by ZEFSAII (Michael W. Deem and Ramdas Pophale) SiO2 
 PCOD9076330
Probable space group: P -1
;
_chemical_formula_sum "Si O2"
_cell_formula_units_Z 16
_cell_length_a 18.655666
_cell_length_b 9.037289
_cell_length_c 11.508530
_cell_angle_alpha 41.644701
_cell_angle_beta 152.307666
_cell_angle_gamma 130.858704
_cell_volume 599.013964
_symmetry_space_group_name_H-M "P -1"
_symmetry_group_IT_number 2
_symmetry_cell_setting 'triclinic'
loop_
_space_group_symop_operation_xyz
x,y,z
-x,-y,-z
loop_
_atom_site_type_symbol
_atom_site_label
_atom_site_fract_x
_atom_site_fract_y
_atom_site_fract_z
Si Si1 0.024091 0.369992 0.431602
Si Si2 0.840153 0.773489 0.052068
Si Si3 0.950682 0.801617 0.809332
Si Si4 0.823583 0.334941 0.966918
Si Si5 0.753605 0.039799 0.561843
Si Si6 0.592938 0.416395 0.958967
Si Si7 0.285019 0.281291 0.686202
Si Si8 0.554475 0.187022 0.789404
O O1 0.074556 0.232554 0.697839
O O2 0.177188 0.392523 0.562261
O O3 0.941376 0.597017 0.223077
O O4 0.904281 0.237586 0.256783
O O5 0.682528 0.639474 0.931084
O O6 0.794409 0.991363 0.782595
O O7 0.901742 0.979207 0.731592
O O8 0.824109 0.800410 0.525809
O O9 0.116152 0.781711 0.995042
O O10 0.910784 0.566735 0.948959
O O11 0.643256 0.340737 0.734503
O O12 0.625595 0.853180 0.460479
O O13 0.684482 0.268298 0.274819
O O14 0.417636 0.439656 0.737315
O O15 0.587904 0.269313 0.919593
O O16 0.371445 0.057829 0.985401
#
# Coordination Sequence:
#
# PCOD9076330 Si02
#       8
#     2   2   2   2   2   2   2   2
#     4  10  22  41  58  82 118 162 201 233 280 349
#     4  11  24  41  63  81 117 167 199 231 285 344
#     4  10  18  33  54  88 118 144 187 242 297 346
#     4  10  21  33  59  86 118 153 187 244 294 346
#     4  11  21  38  60  91 119 147 193 247 289 353
#     4  11  21  38  61  90 119 153 191 244 295 347
#     4  10  21  36  61  85 124 145 188 252 291 348
#     4  11  20  36  58  95 116 149 187 240 314 344
#
# _framework density 26.710564000000002
#
# number of rings (size 3 to 8) (size 9 to 14) (size 15 to 20)
#    0.000    1.500    5.000    0.750    1.750    4.500 
#    0.000    5.000   11.000    0.000    0.000    0.000 
#    0.000    0.000    0.000    0.000    0.000    0.000 
#
# Total GULP energy -89638.691146 kJ/mol
# GULP energy per Si atom -5602.418197 kJ/mol
# Density = 2.664977 g / cm^3
# Si number density = 26.710564 Si / 1000 Ang^3
#
#
#
# Elastic Constant Matrix: (Units=GPa)
#
#
# Indices 1 2 3 4 5 6 
#
# 1 167.0969 41.4589 41.3371 8.0284 1.6865 50.0048
# 2 41.4589 72.0660 20.9159 5.1514 -4.3431 17.3271
# 3 41.3371 20.9159 90.9186 0.3659 -18.8035 20.3821
# 4 8.0284 5.1514 0.3659 31.4347 1.8257 2.6528
# 5 1.6865 -4.3431 -18.8035 1.8257 57.7120 9.6467
# 6 50.0048 17.3271 20.3821 2.6528 9.6467 32.1661
#
#
#
# Elastic Compliance Matrix: (Units=1/GPa)
#
#
# Indices 1 2 3 4 5 6 
#
# 1 0.012017 -0.002273 -0.000475 -0.001329 0.002331 -0.017745
# 2 -0.002273 0.017070 -0.001335 -0.001868 0.001847 -0.005215
# 3 -0.000475 -0.001335 0.015143 0.000641 0.006523 -0.010147
# 4 -0.001329 -0.001868 0.000641 0.032483 -0.000967 0.000277
# 5 0.002331 0.001847 0.006523 -0.000967 0.022112 -0.015304
# 6 -0.017745 -0.005215 -0.010147 0.000277 -0.015304 0.072480
#
#
# Mechanical properties :
#
#
# Convention : Reuss Voigt Hill
#
# Bulk Modulus (GPa) = 27.72859 59.72281 43.72570
# Shear Modulus (GPa) = 26.11060 39.35386 32.73223
#
# Velocity S-wave (km/s) = 3.12995 3.84258 3.50443
# Velocity P-wave (km/s) = 4.84415 6.48807 5.72542
#
# Compressibility (1/GPa) = 0.03606386
#
# Stress axis : x y z
#
# Youngs Moduli (GPa) = 83.21776 58.58178 66.03615
#
# Poissons Ratio (x) = 0.13317 0.03137
# Poissons Ratio (y) = 0.18918 0.08814
# Poissons Ratio (z) = 0.03953 0.07819
#
# Static dielectric constant tensor:
#      x y z
#    x 2.043840 0.035960 -0.058050 
#    y 0.035960 2.196630 -0.038930 
#    z -0.058050 -0.038930 2.126150 
# 
# From -- ./inp_files/208406.got.cif
#   From: 2010.05.17/outbox.cif.g08.bks.cpg/sg2_105_cif.got.tgz:208406.got - 2010.06.03 11:33:40.
