data_PCOD9076191
_publ_section_title
;
Structure prediction by ZEFSAII (Michael W. Deem and Ramdas Pophale) SiO2 
 PCOD9076191
Probable space group: P -1
;
_chemical_formula_sum "Si O2"
_cell_formula_units_Z 14
_cell_length_a 7.248232
_cell_length_b 11.903286
_cell_length_c 20.309327
_cell_angle_alpha 37.256762
_cell_angle_beta 39.974953
_cell_angle_gamma 29.710244
_cell_volume 509.039286
_symmetry_space_group_name_H-M "P -1"
_symmetry_group_IT_number 2
_symmetry_cell_setting 'triclinic'
loop_
_space_group_symop_operation_xyz
x,y,z
-x,-y,-z
loop_
_atom_site_type_symbol
_atom_site_label
_atom_site_fract_x
_atom_site_fract_y
_atom_site_fract_z
Si Si1 0.082924 0.066910 0.048518
Si Si2 0.131500 0.198596 0.830423
Si Si3 0.710759 0.000554 0.371158
Si Si4 0.101105 0.603885 0.662173
Si Si5 0.447173 0.313835 0.424650
Si Si6 0.285683 0.456660 0.823007
Si Si7 0.784534 0.332574 0.129849
O O1 0.817088 0.000097 0.137803
O O2 0.451235 0.826595 0.097071
O O3 0.871991 0.302375 0.043401
O O4 0.213268 0.090010 0.931934
O O5 0.670101 0.434899 0.847458
O O6 0.300361 0.330404 0.706535
O O7 0.706385 0.082966 0.407986
O O8 0.905933 0.071918 0.239704
O O9 0.279651 0.190559 0.369848
O O10 0.843018 0.729774 0.457817
O O11 0.339912 0.689604 0.568828
O O12 0.037427 0.565889 0.773496
O O13 0.403736 0.513223 0.297086
O O14 0.057449 0.614145 0.877612
#
# Coordination Sequence:
#
# PCOD9076191 Si02
#       7
#     2   2   2   2   2   2   2
#     4  10  18  33  52  72 102 134 169 205 248 300
#     4   9  19  32  52  75  97 135 170 204 253 293
#     4   9  15  29  53  78  96 135 168 197 254 295
#     4   9  17  31  51  75 104 127 169 210 242 298
#     4   8  16  29  51  77 100 130 168 202 248 298
#     4   8  18  31  47  72 103 128 164 206 247 292
#     4   9  17  32  51  74 101 130 168 209 243 296
#
# _framework density 27.502789
#
# number of rings (size 3 to 8) (size 9 to 14) (size 15 to 20)
#    0.857    2.286    0.000    1.714    0.000    0.571 
#    0.000    4.286    0.000    0.857    0.000    0.000 
#    0.000    0.000    0.000    0.000    0.000    0.000 
#
# Total GULP energy -78115.768010 kJ/mol
# GULP energy per Si atom -5579.697715 kJ/mol
# Density = 2.744019 g / cm^3
# Si number density = 27.502789 Si / 1000 Ang^3
#
#
#
# Elastic Constant Matrix: (Units=GPa)
#
#
# Indices 1 2 3 4 5 6 
#
# 1 131.5303 53.3814 24.0816 -3.6956 1.9887 32.7543
# 2 53.3814 80.7243 36.8129 -8.9528 -8.1591 14.8602
# 3 24.0816 36.8129 103.1213 -29.9040 9.7587 6.8945
# 4 -3.6956 -8.9528 -29.9040 51.6718 16.4848 -4.1148
# 5 1.9887 -8.1591 9.7587 16.4848 58.5289 -15.8506
# 6 32.7543 14.8602 6.8945 -4.1148 -15.8506 43.5777
#
#
#
# Elastic Compliance Matrix: (Units=1/GPa)
#
#
# Indices 1 2 3 4 5 6 
#
# 1 0.012744 -0.007614 0.000944 0.000795 -0.004200 -0.008584
# 2 -0.007614 0.020562 -0.006935 -0.002606 0.005432 0.001538
# 3 0.000944 -0.006935 0.015696 0.010020 -0.007106 -0.002466
# 4 0.000795 -0.002606 0.010020 0.027942 -0.010612 -0.002516
# 5 -0.004200 0.005432 -0.007106 -0.010612 0.025009 0.010524
# 6 -0.008584 0.001538 -0.002466 -0.002516 0.010524 0.032856
#
#
# Mechanical properties :
#
#
# Convention : Reuss Voigt Hill
#
# Bulk Modulus (GPa) = 45.88814 60.43639 53.16226
# Shear Modulus (GPa) = 29.53656 44.16235 36.84945
#
# Velocity S-wave (km/s) = 3.28067 4.01152 3.66436
# Velocity P-wave (km/s) = 5.57418 6.59384 6.10533
#
# Compressibility (1/GPa) = 0.02179212
#
# Stress axis : x y z
#
# Youngs Moduli (GPa) = 78.47134 48.63319 63.71228
#
# Poissons Ratio (x) = 0.37028 -0.06015
# Poissons Ratio (y) = 0.59746 0.44184
# Poissons Ratio (z) = -0.07408 0.33726
#
# Static dielectric constant tensor:
#      x y z
#    x 2.258880 0.033430 -0.171410 
#    y 0.033430 2.175200 0.019570 
#    z -0.171410 0.019570 2.294140 
# 
# From -- ./inp_files/142548.got.cif
#   From: 2010.05.17/outbox.cif.g08.bks.cpg/sg2_72_cif.got.tgz:142548.got - 2010.06.03 11:33:40.
