data_PCOD9076791
_publ_section_title
;
Structure prediction by ZEFSAII (Michael W. Deem and Ramdas Pophale) SiO2 
 PCOD9076791
Probable space group: P -1
;
_chemical_formula_sum "Si O2"
_cell_formula_units_Z 16
_cell_length_a 9.240772
_cell_length_b 11.521882
_cell_length_c 12.982704
_cell_angle_alpha 135.443936
_cell_angle_beta 129.219691
_cell_angle_gamma 67.058745
_cell_volume 746.635550
_symmetry_space_group_name_H-M "P -1"
_symmetry_group_IT_number 2
_symmetry_cell_setting 'triclinic'
loop_
_space_group_symop_operation_xyz
x,y,z
-x,-y,-z
loop_
_atom_site_type_symbol
_atom_site_label
_atom_site_fract_x
_atom_site_fract_y
_atom_site_fract_z
Si Si1 0.798371 0.877036 0.897623
Si Si2 0.909601 0.879733 0.725213
Si Si3 0.738079 0.531668 0.344005
Si Si4 0.504326 0.241525 0.744689
Si Si5 0.128002 0.636384 0.886341
Si Si6 0.548669 0.585174 0.685312
Si Si7 0.747078 0.071091 0.585770
Si Si8 0.911461 0.411616 0.801687
O O1 0.776514 0.895409 0.776267
O O2 0.626356 0.775482 0.814329
O O3 0.969533 0.760382 0.908362
O O4 0.884038 0.048249 0.096523
O O5 0.864431 0.693966 0.545706
O O6 0.858739 0.996710 0.682679
O O7 0.597958 0.604160 0.243274
O O8 0.850124 0.411528 0.251644
O O9 0.621535 0.443006 0.329380
O O10 0.591532 0.170091 0.634682
O O11 0.356902 0.088592 0.620464
O O12 0.674969 0.290357 0.929218
O O13 0.049980 0.470986 0.809045
O O14 0.500000 0.500000 0.500000
O O15 0.717165 0.489796 0.745436
O O16 0.872668 0.213446 0.670619
O O17 0.000000 0.500000 0.000000
#
# Coordination Sequence:
#
# PCOD9076791 Si02
#       8
#     2   2   2   2   2   2   2   2
#     4  10  21  37  61  83 113 153 203 233 281 351
#     4  10  20  37  58  85 110 156 199 235 280 350
#     4  11  22  37  59  88 122 149 188 245 299 344
#     4  10  19  33  56  87 116 150 191 235 292 342
#     4  11  22  37  58  92 119 150 186 246 302 338
#     4  11  21  37  59  90 115 154 200 242 284 350
#     4  10  18  33  60  84 111 148 201 238 273 336
#     4  11  20  37  60  88 117 154 201 240 283 351
#
# _framework density 21.429462999999998
#
# number of rings (size 3 to 8) (size 9 to 14) (size 15 to 20)
#    0.000    1.500    5.000    1.125    0.000    0.500 
#    0.000    3.750    0.000    3.000    3.250    0.000 
#    0.000    0.000    0.000    0.000    0.000    0.000 
#
# Total GULP energy -89429.609254 kJ/mol
# GULP energy per Si atom -5589.350578 kJ/mol
# Density = 2.138069 g / cm^3
# Si number density = 21.429463 Si / 1000 Ang^3
#
#
#
# Elastic Constant Matrix: (Units=GPa)
#
#
# Indices 1 2 3 4 5 6 
#
# 1 72.6934 34.1929 57.7189 12.5447 -3.7791 34.9666
# 2 34.1929 102.3722 34.7368 11.4521 13.4749 34.5856
# 3 57.7189 34.7368 85.8921 15.3657 10.6231 25.4735
# 4 12.5447 11.4521 15.3657 42.0222 7.0620 17.0070
# 5 -3.7791 13.4749 10.6231 7.0620 20.0227 7.4154
# 6 34.9666 34.5856 25.4735 17.0070 7.4154 43.8605
#
#
#
# Elastic Compliance Matrix: (Units=1/GPa)
#
#
# Indices 1 2 3 4 5 6 
#
# 1 0.063984 -0.003021 -0.037318 0.001963 0.046384 -0.035557
# 2 -0.003021 0.014567 -0.000874 0.001750 -0.007576 -0.007969
# 3 -0.037318 -0.000874 0.036848 -0.003208 -0.030597 0.015457
# 4 0.001963 0.001750 -0.003208 0.029490 -0.005196 -0.011638
# 5 0.046384 -0.007576 -0.030597 -0.005196 0.091763 -0.026734
# 6 -0.035557 -0.007969 0.015457 -0.011638 -0.026734 0.057486
#
#
# Mechanical properties :
#
#
# Convention : Reuss Voigt Hill
#
# Bulk Modulus (GPa) = 30.32737 57.13944 43.73341
# Shear Modulus (GPa) = 12.90140 30.13503 21.51821
#
# Velocity S-wave (km/s) = 2.45631 3.75406 3.17226
# Velocity P-wave (km/s) = 4.71461 6.74629 5.81979
#
# Compressibility (1/GPa) = 0.03297352
#
# Stress axis : x y z
#
# Youngs Moduli (GPa) = 15.62893 68.64620 27.13884
#
# Poissons Ratio (x) = 0.20736 1.01276
# Poissons Ratio (y) = 0.04721 0.02372
# Poissons Ratio (z) = 0.58324 0.06001
#
# Static dielectric constant tensor:
#      x y z
#    x 1.764860 0.001260 0.044530 
#    y 0.001260 1.827460 0.007550 
#    z 0.044530 0.007550 1.777590 
# 
# From -- ./inp_files/353805.got.cif
#   From: 2010.05.17/outbox.cif.g08.bks.cpg/sg2_177_cif.got.tgz:353805.got - 2010.06.03 11:33:40.
