data_PCOD9076593
_publ_section_title
;
Structure prediction by ZEFSAII (Michael W. Deem and Ramdas Pophale) SiO2 
 PCOD9076593
Probable space group: P -1
;
_chemical_formula_sum "Si O2"
_cell_formula_units_Z 16
_cell_length_a 14.298872
_cell_length_b 15.421176
_cell_length_c 12.111670
_cell_angle_alpha 70.174202
_cell_angle_beta 149.523381
_cell_angle_gamma 131.074341
_cell_volume 821.495064
_symmetry_space_group_name_H-M "P -1"
_symmetry_group_IT_number 2
_symmetry_cell_setting 'triclinic'
loop_
_space_group_symop_operation_xyz
x,y,z
-x,-y,-z
loop_
_atom_site_type_symbol
_atom_site_label
_atom_site_fract_x
_atom_site_fract_y
_atom_site_fract_z
Si Si1 0.561552 0.799960 0.044980
Si Si2 0.740582 0.472942 0.057522
Si Si3 0.095098 0.401206 0.587919
Si Si4 0.391107 0.558943 0.401991
Si Si5 0.408437 0.375623 0.182623
Si Si6 0.595669 0.946911 0.187032
Si Si7 0.790544 0.360532 0.973247
Si Si8 0.087891 0.188479 0.745399
O O1 0.537430 0.697193 0.136507
O O2 0.728808 0.938511 0.225711
O O3 0.706656 0.817651 0.075821
O O4 0.236851 0.711800 0.733392
O O5 0.669437 0.546811 0.913162
O O6 0.908554 0.476394 0.137434
O O7 0.863849 0.532320 0.280953
O O8 0.322625 0.521353 0.675080
O O9 0.159459 0.317518 0.711651
O O10 0.500000 0.500000 0.500000
O O11 0.523777 0.634782 0.622982
O O12 0.423322 0.655010 0.306553
O O13 0.049975 0.424959 0.134414
O O14 0.143441 0.226799 0.914293
O O15 0.355499 0.784876 0.058895
O O16 0.792406 0.049606 0.445725
O O17 0.500000 0.000000 0.000000
#
# Coordination Sequence:
#
# PCOD9076593 Si02
#       8
#     2   2   2   2   2   2   2   2
#     4  11  20  33  56  82 124 166 192 237 305 370
#     4  10  18  33  57  92 124 151 193 255 313 366
#     4  11  20  34  56  92 131 155 192 253 323 363
#     4  11  23  43  65  92 117 160 214 261 305 345
#     4  11  20  36  62  88 128 159 197 263 304 358
#     4  11  23  42  59  88 130 167 199 248 307 377
#     4  10  24  42  65  90 120 165 208 252 304 371
#     4  11  22  36  53  91 123 159 202 239 304 375
#
# _framework density 19.476683000000001
#
# number of rings (size 3 to 8) (size 9 to 14) (size 15 to 20)
#    0.000    1.250    5.000    3.000    1.750    0.000 
#    2.250    0.625    0.000    0.750    0.000    0.000 
#    0.000    0.000    0.000    0.000    0.000    0.000 
#
# Total GULP energy -89110.361224 kJ/mol
# GULP energy per Si atom -5569.397577 kJ/mol
# Density = 1.943235 g / cm^3
# Si number density = 19.476683 Si / 1000 Ang^3
#
#
#
# Elastic Constant Matrix: (Units=GPa)
#
#
# Indices 1 2 3 4 5 6 
#
# 1 96.0972 40.9026 40.6995 -7.3209 -9.0057 -18.3735
# 2 40.9026 92.0879 43.1838 -12.7869 -11.3713 -17.4285
# 3 40.6995 43.1838 113.4553 -13.8446 -16.6589 -6.4080
# 4 -7.3209 -12.7869 -13.8446 29.3538 -4.2943 -6.5989
# 5 -9.0057 -11.3713 -16.6589 -4.2943 37.6697 -6.5292
# 6 -18.3735 -17.4285 -6.4080 -6.5989 -6.5292 27.3011
#
#
#
# Elastic Compliance Matrix: (Units=1/GPa)
#
#
# Indices 1 2 3 4 5 6 
#
# 1 0.015264 -0.002503 -0.002903 0.004128 0.003796 0.009899
# 2 -0.002503 0.018110 -0.003035 0.009813 0.006932 0.013194
# 3 -0.002903 -0.003035 0.012332 0.004723 0.004598 0.001245
# 4 0.004128 0.009813 0.004723 0.049838 0.016240 0.026082
# 5 0.003796 0.006932 0.004598 0.016240 0.037044 0.020844
# 6 0.009899 0.013194 0.001245 0.026082 0.020844 0.063294
#
#
# Mechanical properties :
#
#
# Convention : Reuss Voigt Hill
#
# Bulk Modulus (GPa) = 34.69184 61.24579 47.96881
# Shear Modulus (GPa) = 22.48490 30.65523 26.57006
#
# Velocity S-wave (km/s) = 3.40141 3.97160 3.69751
# Velocity P-wave (km/s) = 5.76860 7.24882 6.55066
#
# Compressibility (1/GPa) = 0.02882522
#
# Stress axis : x y z
#
# Youngs Moduli (GPa) = 65.51483 55.21898 81.08924
#
# Poissons Ratio (x) = 0.13822 0.23536
# Poissons Ratio (y) = 0.16399 0.24607
# Poissons Ratio (z) = 0.19016 0.16756
#
# Static dielectric constant tensor:
#      x y z
#    x 1.767980 -0.007730 0.004250 
#    y -0.007730 1.682300 -0.015370 
#    z 0.004250 -0.015370 1.761440 
# 
# From -- ./inp_files/455721.got.cif
#   From: 2010.05.17/outbox.cif.g08.bks.cpg/sg2_228_cif.got.tgz:455721.got - 2010.06.03 11:33:40.
