data_PCOD9076905
_publ_section_title
;
Structure prediction by ZEFSAII (Michael W. Deem and Ramdas Pophale) SiO2 
 PCOD9076905
Probable space group: P -1
;
_chemical_formula_sum "Si O2"
_cell_formula_units_Z 16
_cell_length_a 20.789603
_cell_length_b 9.040909
_cell_length_c 8.938196
_cell_angle_alpha 99.563669
_cell_angle_beta 141.395010
_cell_angle_gamma 61.827236
_cell_volume 858.932280
_symmetry_space_group_name_H-M "P -1"
_symmetry_group_IT_number 2
_symmetry_cell_setting 'triclinic'
loop_
_space_group_symop_operation_xyz
x,y,z
-x,-y,-z
loop_
_atom_site_type_symbol
_atom_site_label
_atom_site_fract_x
_atom_site_fract_y
_atom_site_fract_z
Si Si1 0.855242 0.657439 0.298485
Si Si2 0.815635 0.982033 0.483206
Si Si3 0.239586 0.569687 0.941435
Si Si4 0.640280 0.955245 0.742788
Si Si5 0.961398 0.049356 0.266551
Si Si6 0.239189 0.967214 0.266495
Si Si7 0.629857 0.265485 0.973604
Si Si8 0.595035 0.463422 0.533550
O O1 0.844951 0.805142 0.417367
O O2 0.795633 0.550275 0.230426
O O3 0.000000 0.500000 0.500000
O O4 0.758708 0.778354 0.008297
O O5 0.923867 0.011073 0.641865
O O6 0.804553 0.964541 0.635033
O O7 0.691422 0.156872 0.218050
O O8 0.121107 0.734862 0.836578
O O9 0.294285 0.656162 0.948149
O O10 0.329179 0.470283 0.230200
O O11 0.500000 0.000000 0.500000
O O12 0.681083 0.965044 0.650725
O O13 0.636212 0.119898 0.847128
O O14 0.876963 0.982358 0.042414
O O15 0.000000 0.000000 0.500000
O O16 0.320716 0.748537 0.380216
O O17 0.485834 0.426824 0.737273
O O18 0.500000 0.500000 0.500000
#
# Coordination Sequence:
#
# PCOD9076905 Si02
#       8
#     2   2   2   2   2   2   2   2
#     4  11  23  37  62  89 122 166 212 247 298 373
#     4  11  23  38  58  95 127 156 194 255 323 349
#     4  10  18  33  64  86 111 151 211 249 277 349
#     4  11  22  39  65  89 117 166 213 250 302 369
#     4  11  18  37  66  88 113 158 207 240 294 372
#     4  11  23  38  61  93 126 153 196 267 306 360
#     4  10  19  37  63  89 113 160 205 243 294 379
#     4   9  17  34  63  87 110 150 210 244 295 350
#
# _framework density 18.627779
#
# number of rings (size 3 to 8) (size 9 to 14) (size 15 to 20)
#    0.000    1.500    6.250    1.875    1.750    0.500 
#    0.000    3.125    8.250    0.000    0.000    0.000 
#    0.000    0.000    0.000    0.000    0.000    0.000 
#
# Total GULP energy -89077.496465 kJ/mol
# GULP energy per Si atom -5567.343529 kJ/mol
# Density = 1.858538 g / cm^3
# Si number density = 18.627779 Si / 1000 Ang^3
#
#
#
# Elastic Constant Matrix: (Units=GPa)
#
#
# Indices 1 2 3 4 5 6 
#
# 1 109.5821 24.2441 57.6135 13.1312 0.0445 3.8680
# 2 24.2441 69.1653 39.5636 4.4600 8.7355 10.6113
# 3 57.6135 39.5636 133.0259 -8.6381 6.4256 1.5532
# 4 13.1312 4.4600 -8.6381 27.4044 3.0818 6.3008
# 5 0.0445 8.7355 6.4256 3.0818 24.2908 7.0373
# 6 3.8680 10.6113 1.5532 6.3008 7.0373 26.0699
#
#
#
# Elastic Compliance Matrix: (Units=1/GPa)
#
#
# Indices 1 2 3 4 5 6 
#
# 1 0.013755 -0.001004 -0.006382 -0.008798 0.003132 0.000029
# 2 -0.001004 0.019312 -0.005237 -0.002576 -0.003545 -0.005820
# 3 -0.006382 -0.005237 0.012469 0.007880 -0.002742 0.001172
# 4 -0.008798 -0.002576 0.007880 0.045965 -0.004666 -0.007965
# 5 0.003132 -0.003545 -0.002742 -0.004666 0.046753 -0.010351
# 6 0.000029 -0.005820 0.001172 -0.007965 -0.010351 0.045373
#
#
# Mechanical properties :
#
#
# Convention : Reuss Voigt Hill
#
# Bulk Modulus (GPa) = 49.28140 61.62397 55.45269
# Shear Modulus (GPa) = 23.18722 28.24317 25.71520
#
# Velocity S-wave (km/s) = 3.53195 3.89805 3.71951
# Velocity P-wave (km/s) = 6.56858 7.30844 6.94836
#
# Compressibility (1/GPa) = 0.02029163
#
# Stress axis : x y z
#
# Youngs Moduli (GPa) = 72.70238 51.78011 80.19735
#
# Poissons Ratio (x) = 0.05197 0.51178
# Poissons Ratio (y) = 0.07297 0.42001
# Poissons Ratio (z) = 0.46395 0.27118
#
# Static dielectric constant tensor:
#      x y z
#    x 1.671540 0.045640 0.056350 
#    y 0.045640 1.668930 -0.018140 
#    z 0.056350 -0.018140 1.842280 
# 
# From -- ./inp_files/208397.got.cif
#   From: 2010.05.17/outbox.cif.g08.bks.cpg/sg2_105_cif.got.tgz:208397.got - 2010.06.03 11:33:40.
