data_PCOD9076100
_publ_section_title
;
Structure prediction by ZEFSAII (Michael W. Deem and Ramdas Pophale) SiO2 
 PCOD9076100
Probable space group: P -1
;
_chemical_formula_sum "Si O2"
_cell_formula_units_Z 16
_cell_length_a 11.832618
_cell_length_b 7.290635
_cell_length_c 11.764108
_cell_angle_alpha 33.705631
_cell_angle_beta 70.220113
_cell_angle_gamma 69.550468
_cell_volume 525.449830
_symmetry_space_group_name_H-M "P -1"
_symmetry_group_IT_number 2
_symmetry_cell_setting 'triclinic'
loop_
_space_group_symop_operation_xyz
x,y,z
-x,-y,-z
loop_
_atom_site_type_symbol
_atom_site_label
_atom_site_fract_x
_atom_site_fract_y
_atom_site_fract_z
Si Si1 0.931026 0.612208 0.157804
Si Si2 0.525869 0.940288 0.307441
Si Si3 0.640212 0.986305 0.880649
Si Si4 0.624402 0.578725 0.754959
Si Si5 0.318367 0.500210 0.667757
Si Si6 0.108481 0.901757 0.296583
Si Si7 0.176169 0.761844 0.976085
Si Si8 0.153225 0.153060 0.557533
O O1 0.825689 0.380679 0.334341
O O2 0.887113 0.902806 0.113862
O O3 0.075262 0.513592 0.163807
O O4 0.916932 0.816652 0.938424
O O5 0.465216 0.062581 0.144871
O O6 0.429876 0.704884 0.507114
O O7 0.652914 0.737583 0.332684
O O8 0.502441 0.230653 0.257544
O O9 0.616248 0.331350 0.780810
O O10 0.760542 0.017388 0.749267
O O11 0.661335 0.715840 0.112185
O O12 0.721633 0.828016 0.560067
O O13 0.698120 0.377737 0.936248
O O14 0.130270 0.533408 0.421384
O O15 0.983273 0.901551 0.406525
O O16 0.183268 0.864966 0.790685
#
# Coordination Sequence:
#
# PCOD9076100 Si02
#       8
#     2   2   2   2   2   2   2   2
#     4   9  17  33  61  92 123 162 207 253 307 375
#     4  11  26  42  65  90 128 165 212 260 308 362
#     4  10  21  41  65  89 123 166 207 254 318 363
#     4  11  23  40  60 100 127 157 212 259 302 378
#     4  10  22  45  63  90 123 169 211 258 309 369
#     4   8  15  30  53  88 119 158 203 243 298 372
#     4  10  18  32  60  98 124 158 207 251 313 376
#     4   9  17  29  54  86 128 157 194 252 302 361
#
# _framework density 30.450101
#
# number of rings (size 3 to 8) (size 9 to 14) (size 15 to 20)
#    0.000    2.250    3.750    0.375    5.250    1.500 
#    0.000    5.000    0.000    4.500    0.000    0.000 
#    0.000    0.000    0.000    0.000    0.000    0.000 
#
# Total GULP energy -89708.551047 kJ/mol
# GULP energy per Si atom -5606.784440 kJ/mol
# Density = 3.038080 g / cm^3
# Si number density = 30.450101 Si / 1000 Ang^3
#
#
#
# Elastic Constant Matrix: (Units=GPa)
#
#
# Indices 1 2 3 4 5 6 
#
# 1 147.1647 39.2578 12.0209 2.7640 -8.6716 -30.0031
# 2 39.2578 175.1719 25.7784 2.8003 -10.5728 -44.9982
# 3 12.0209 25.7784 145.6359 37.8237 -31.4833 -3.7014
# 4 2.7640 2.8003 37.8237 34.7493 1.0145 -13.8961
# 5 -8.6716 -10.5728 -31.4833 1.0145 59.0845 9.2675
# 6 -30.0031 -44.9982 -3.7014 -13.8961 9.2675 59.3454
#
#
#
# Elastic Compliance Matrix: (Units=1/GPa)
#
#
# Indices 1 2 3 4 5 6 
#
# 1 0.007796 -0.000636 -0.001011 0.002101 -0.000158 0.003913
# 2 -0.000636 0.007887 -0.002852 0.005338 -0.001383 0.006946
# 3 -0.001011 -0.002852 0.013561 -0.017558 0.007996 -0.007188
# 4 0.002101 0.005338 -0.017558 0.055161 -0.011989 0.018803
# 5 -0.000158 -0.001383 0.007996 -0.011989 0.022204 -0.006905
# 6 0.003913 0.006946 -0.007188 0.018803 -0.006905 0.029128
#
#
# Mechanical properties :
#
#
# Convention : Reuss Voigt Hill
#
# Bulk Modulus (GPa) = 49.39813 69.12074 59.25943
# Shear Modulus (GPa) = 33.00657 56.69686 44.85171
#
# Velocity S-wave (km/s) = 3.29592 4.31972 3.84208
# Velocity P-wave (km/s) = 5.54455 6.90137 6.25983
#
# Compressibility (1/GPa) = 0.02024368
#
# Stress axis : x y z
#
# Youngs Moduli (GPa) = 128.26419 126.79828 73.74204
#
# Poissons Ratio (x) = 0.08070 0.07458
# Poissons Ratio (y) = 0.08164 0.21032
# Poissons Ratio (z) = 0.12973 0.36165
#
# Static dielectric constant tensor:
#      x y z
#    x 2.407260 0.112500 -0.006770 
#    y 0.112500 2.436660 -0.098470 
#    z -0.006770 -0.098470 2.508150 
# 
# From -- ./inp_files/529223.got.cif
#   From: 2010.05.17/outbox.cif.g08.bks.cpg/sg2_265_cif.got.tgz:529223.got - 2010.06.03 11:33:40.
