data_PCOD9076239
_publ_section_title
;
Structure prediction by ZEFSAII (Michael W. Deem and Ramdas Pophale) SiO2 
 PCOD9076239
Probable space group: P -1
;
_chemical_formula_sum "Si O2"
_cell_formula_units_Z 16
_cell_length_a 20.957135
_cell_length_b 8.548718
_cell_length_c 11.067433
_cell_angle_alpha 57.275659
_cell_angle_beta 64.004242
_cell_angle_gamma 28.152746
_cell_volume 783.367864
_symmetry_space_group_name_H-M "P -1"
_symmetry_group_IT_number 2
_symmetry_cell_setting 'triclinic'
loop_
_space_group_symop_operation_xyz
x,y,z
-x,-y,-z
loop_
_atom_site_type_symbol
_atom_site_label
_atom_site_fract_x
_atom_site_fract_y
_atom_site_fract_z
Si Si1 0.684331 0.159235 0.865038
Si Si2 0.441708 0.148010 0.349833
Si Si3 0.879977 0.132607 0.400779
Si Si4 0.039981 0.309276 0.167998
Si Si5 0.527902 0.412951 0.314380
Si Si6 0.639701 0.436237 0.404053
Si Si7 0.845200 0.325906 0.629922
Si Si8 0.239276 0.208817 0.795281
O O1 0.613536 0.522349 0.769579
O O2 0.582401 0.266027 0.824486
O O3 0.834826 0.856592 0.810135
O O4 0.706761 0.024347 0.035591
O O5 0.313192 0.296655 0.374697
O O6 0.500000 0.000000 0.500000
O O7 0.559885 0.810342 0.307811
O O8 0.793819 0.148090 0.425611
O O9 0.857654 0.224305 0.523642
O O10 0.816180 0.463934 0.258823
O O11 0.042508 0.768705 0.400260
O O12 0.895923 0.588273 0.233297
O O13 0.103628 0.969637 0.218379
O O14 0.000000 0.500000 0.000000
O O15 0.609619 0.383021 0.334276
O O16 0.434907 0.504218 0.447737
O O17 0.641952 0.049446 0.293931
#
# Coordination Sequence:
#
# PCOD9076239 Si02
#       8
#     2   2   2   2   2   2   2   2
#     4  10  19  35  58  82 106 139 182 219 263 323
#     4  11  17  33  58  80 100 140 182 217 260 316
#     4  10  18  33  53  78 102 139 179 223 263 312
#     4   8  16  31  54  81 105 130 173 226 269 307
#     4  11  22  35  51  78 110 142 178 223 275 318
#     4  11  22  35  52  76 110 144 177 225 273 316
#     4   9  17  28  54  80 101 129 184 224 254 311
#     4  10  20  35  56  82 107 139 180 224 265 318
#
# _framework density 20.424631000000002
#
# number of rings (size 3 to 8) (size 9 to 14) (size 15 to 20)
#    0.000    2.000    2.500    2.625    0.000    0.000 
#    0.000    3.750    0.000    9.750    0.000   10.500 
#    0.000    0.000    0.000    0.000    0.000    0.000 
#
# Total GULP energy -89122.772597 kJ/mol
# GULP energy per Si atom -5570.173287 kJ/mol
# Density = 2.037814 g / cm^3
# Si number density = 20.424631 Si / 1000 Ang^3
#
#
#
# Elastic Constant Matrix: (Units=GPa)
#
#
# Indices 1 2 3 4 5 6 
#
# 1 130.3645 35.2556 19.2200 0.3507 16.5887 -45.7603
# 2 35.2556 62.2164 12.7179 -3.2071 10.7151 -41.0245
# 3 19.2200 12.7179 95.0342 -21.5321 -6.7576 1.0985
# 4 0.3507 -3.2071 -21.5321 22.9774 -3.6614 -3.1189
# 5 16.5887 10.7151 -6.7576 -3.6614 21.5925 -3.3773
# 6 -45.7603 -41.0245 1.0985 -3.1189 -3.3773 42.9752
#
#
#
# Elastic Compliance Matrix: (Units=1/GPa)
#
#
# Indices 1 2 3 4 5 6 
#
# 1 0.020322 0.019583 -0.010104 -0.005576 -0.023440 0.038344
# 2 0.019583 0.075744 -0.018856 -0.002337 -0.044861 0.089945
# 3 -0.010104 -0.018856 0.020856 0.017072 0.022430 -0.026290
# 4 -0.005576 -0.002337 0.017072 0.062289 0.020968 -0.002436
# 5 -0.023440 -0.044861 0.022430 0.020968 0.087783 -0.059937
# 6 0.038344 0.089945 -0.026290 -0.002436 -0.059937 0.145745
#
#
# Mechanical properties :
#
#
# Convention : Reuss Voigt Hill
#
# Bulk Modulus (GPa) = 10.18658 46.88913 28.53785
# Shear Modulus (GPa) = 10.77085 32.20380 21.48733
#
# Velocity S-wave (km/s) = 2.29889 3.97509 3.24702
# Velocity P-wave (km/s) = 3.47056 6.63894 5.29718
#
# Compressibility (1/GPa) = 0.09816837
#
# Stress axis : x y z
#
# Youngs Moduli (GPa) = 49.20844 13.20232 47.94723
#
# Poissons Ratio (x) = -0.25854 0.48445
# Poissons Ratio (y) = -0.96364 0.90409
# Poissons Ratio (z) = 0.49720 0.24894
#
# Static dielectric constant tensor:
#      x y z
#    x 1.819300 -0.064600 -0.041360 
#    y -0.064600 1.753710 -0.016270 
#    z -0.041360 -0.016270 1.778750 
# 
# From -- ./inp_files/469288.got.cif
#   From: 2010.05.17/outbox.cif.g08.bks.cpg/sg2_235_cif.got.tgz:469288.got - 2010.06.03 11:33:40.
