data_PCOD9076473
_publ_section_title
;
Structure prediction by ZEFSAII (Michael W. Deem and Ramdas Pophale) SiO2 
 PCOD9076473
Probable space group: P -1
;
_chemical_formula_sum "Si O2"
_cell_formula_units_Z 14
_cell_length_a 16.426990
_cell_length_b 15.457055
_cell_length_c 10.031095
_cell_angle_alpha 143.686944
_cell_angle_beta 154.745052
_cell_angle_gamma 33.380937
_cell_volume 583.852381
_symmetry_space_group_name_H-M "P -1"
_symmetry_group_IT_number 2
_symmetry_cell_setting 'triclinic'
loop_
_space_group_symop_operation_xyz
x,y,z
-x,-y,-z
loop_
_atom_site_type_symbol
_atom_site_label
_atom_site_fract_x
_atom_site_fract_y
_atom_site_fract_z
Si Si1 0.204248 0.009506 0.155733
Si Si2 0.208636 0.419518 0.614461
Si Si3 0.018036 0.320324 0.967942
Si Si4 0.452867 0.887797 0.125315
Si Si5 0.228357 0.301515 0.991825
Si Si6 0.052667 0.754168 0.721546
Si Si7 0.388170 0.696973 0.553458
O O1 0.253159 0.983818 0.040656
O O2 0.410829 0.009229 0.533159
O O3 0.146047 0.866885 0.934848
O O4 0.030545 0.170572 0.163029
O O5 0.403118 0.286134 0.810598
O O6 0.228428 0.575707 0.782004
O O7 0.000000 0.500000 0.500000
O O8 0.166140 0.333393 0.318161
O O9 0.852774 0.269029 0.734117
O O10 0.148541 0.240015 0.927846
O O11 0.884124 0.504700 0.949157
O O12 0.408525 0.826544 0.845926
O O13 0.134952 0.248278 0.655024
O O14 0.474402 0.271684 0.322538
O O15 0.500000 0.500000 0.500000
#
# Coordination Sequence:
#
# PCOD9076473 Si02
#       7
#     2   2   2   2   2   2   2
#     4  10  21  35  57  87 117 159 187 234 289 367
#     4  11  20  37  58  90 118 146 189 256 291 328
#     4   9  19  31  55  81 113 146 187 239 293 327
#     4  11  21  37  60  90 118 145 197 243 295 337
#     4   9  16  32  52  80 110 146 196 233 271 349
#     4  10  19  36  59  85 114 155 197 234 290 343
#     4  10  18  33  56  85 109 151 194 240 278 346
#
# _framework density 23.978666
#
# number of rings (size 3 to 8) (size 9 to 14) (size 15 to 20)
#    0.000    2.000    2.857    2.571    0.000    1.714 
#    0.000    1.429    0.000    8.571    0.000    0.000 
#    0.000    0.000    0.000    0.000    0.000    0.000 
#
# Total GULP energy -78049.956672 kJ/mol
# GULP energy per Si atom -5574.996905 kJ/mol
# Density = 2.392409 g / cm^3
# Si number density = 23.978666 Si / 1000 Ang^3
#
#
#
# Elastic Constant Matrix: (Units=GPa)
#
#
# Indices 1 2 3 4 5 6 
#
# 1 94.5976 32.4205 3.0890 26.5651 -1.0749 -5.7709
# 2 32.4205 84.6472 42.7027 2.2076 23.6005 -19.3348
# 3 3.0890 42.7027 23.5865 56.0704 8.2352 16.4783
# 4 26.5651 2.2076 56.0704 9.4311 13.3022 -11.9792
# 5 -1.0749 23.6005 8.2352 13.3022 35.0313 14.5408
# 6 -5.7709 -19.3348 16.4783 -11.9792 14.5408 16.0453
#
#
#
# Elastic Compliance Matrix: (Units=1/GPa)
#
#
# Indices 1 2 3 4 5 6 
#
# 1 0.011548 -0.000614 -0.003419 -0.000751 -0.001258 0.007504
# 2 -0.000614 0.013657 0.005760 -0.013813 -0.008546 0.007752
# 3 -0.003419 0.005760 0.007768 0.007475 -0.016071 0.017878
# 4 -0.000751 -0.013813 0.007475 0.013348 0.013670 -0.027014
# 5 -0.001258 -0.008546 -0.016071 0.013670 0.042042 -0.022140
# 6 0.007504 0.007752 0.017878 -0.027014 -0.022140 0.055899
#
#
# Mechanical properties :
#
#
# Convention : Reuss Voigt Hill
#
# Bulk Modulus (GPa) = 27.45189 39.91731 33.68460
# Shear Modulus (GPa) = 32.69089 20.40946 26.55018
#
# Velocity S-wave (km/s) = 3.69634 2.92061 3.33113
# Velocity P-wave (km/s) = 5.44890 5.29684 5.37341
#
# Compressibility (1/GPa) = 0.03642737
#
# Stress axis : x y z
#
# Youngs Moduli (GPa) = 86.59878 73.22466 128.73379
#
# Poissons Ratio (x) = 0.04494 0.44011
# Poissons Ratio (y) = 0.05314 -0.74152
# Poissons Ratio (z) = 0.29606 -0.42178
#
# Static dielectric constant tensor:
#      x y z
#    x 2.040120 0.031180 0.020130 
#    y 0.031180 1.963580 -0.048470 
#    z 0.020130 -0.048470 1.916820 
# 
# From -- ./inp_files/201383.got.cif
#   From: 2010.05.17/outbox.cif.g08.bks.cpg/sg2_101_cif.got.tgz:201383.got - 2010.06.03 11:33:40.
