data_PCOD9076636
_publ_section_title
;
Structure prediction by ZEFSAII (Michael W. Deem and Ramdas Pophale) SiO2 
 PCOD9076636
Probable space group: P -1
;
_chemical_formula_sum "Si O2"
_cell_formula_units_Z 16
_cell_length_a 11.953721
_cell_length_b 13.465857
_cell_length_c 13.727546
_cell_angle_alpha 33.865280
_cell_angle_beta 54.346781
_cell_angle_gamma 77.482752
_cell_volume 807.648920
_symmetry_space_group_name_H-M "P -1"
_symmetry_group_IT_number 2
_symmetry_cell_setting 'triclinic'
loop_
_space_group_symop_operation_xyz
x,y,z
-x,-y,-z
loop_
_atom_site_type_symbol
_atom_site_label
_atom_site_fract_x
_atom_site_fract_y
_atom_site_fract_z
Si Si1 0.755968 0.984915 0.145897
Si Si2 0.750051 0.223087 0.763701
Si Si3 0.303754 0.357853 0.686765
Si Si4 0.393129 0.068295 0.121556
Si Si5 0.616655 0.211557 0.465877
Si Si6 0.971095 0.596729 0.227528
Si Si7 0.909231 0.297939 0.135134
Si Si8 0.804339 0.738439 0.971877
O O1 0.732338 0.769824 0.290979
O O2 0.583542 0.911595 0.347259
O O3 0.767562 0.108179 0.940853
O O4 0.916902 0.155199 0.990951
O O5 0.674563 0.060661 0.841285
O O6 0.938400 0.429277 0.464946
O O7 0.598155 0.242334 0.861047
O O8 0.500000 0.500000 0.500000
O O9 0.207207 0.211936 0.949806
O O10 0.224876 0.492603 0.612134
O O11 0.363152 0.898709 0.359192
O O12 0.288534 0.171282 0.110618
O O13 0.712897 0.179876 0.356779
O O14 0.698232 0.471591 0.229278
O O15 0.044321 0.609049 0.074401
O O16 0.000000 0.500000 0.000000
O O17 0.999924 0.176853 0.209915
#
# Coordination Sequence:
#
# PCOD9076636 Si02
#       8
#     2   2   2   2   2   2   2   2
#     4  11  22  35  55  86 119 149 184 234 300 352
#     4  10  20  33  53  85 121 143 189 231 291 354
#     4  11  19  34  57  84 112 146 193 234 280 352
#     4  10  19  33  58  91 111 150 191 242 285 335
#     4  10  21  36  56  84 116 149 201 238 278 337
#     4  11  23  36  57  82 117 155 182 239 299 337
#     4   9  20  37  57  82 109 149 205 242 271 335
#     4  10  18  33  58  84 115 146 189 244 284 326
#
# _framework density 19.810587999999999
#
# number of rings (size 3 to 8) (size 9 to 14) (size 15 to 20)
#    0.000    1.750    2.500    3.750    1.750    1.000 
#    0.000    0.000    0.000    0.000    0.000    8.750 
#    0.000    0.000    0.000    0.000    0.000    0.000 
#
# Total GULP energy -89074.294516 kJ/mol
# GULP energy per Si atom -5567.143407 kJ/mol
# Density = 1.976550 g / cm^3
# Si number density = 19.810588 Si / 1000 Ang^3
#
#
#
# Elastic Constant Matrix: (Units=GPa)
#
#
# Indices 1 2 3 4 5 6 
#
# 1 40.5822 27.6726 19.0761 5.0512 -4.1818 -17.7143
# 2 27.6726 105.8453 43.4653 22.0652 -10.4607 -16.7678
# 3 19.0761 43.4653 75.7109 17.0112 -2.2228 -6.5359
# 4 5.0512 22.0652 17.0112 35.5587 -4.4828 -3.5468
# 5 -4.1818 -10.4607 -2.2228 -4.4828 22.3676 -2.0875
# 6 -17.7143 -16.7678 -6.5359 -3.5468 -2.0875 38.4798
#
#
#
# Elastic Compliance Matrix: (Units=1/GPa)
#
#
# Indices 1 2 3 4 5 6 
#
# 1 0.037466 -0.005139 -0.005680 0.002794 0.005961 0.014624
# 2 -0.005139 0.015225 -0.005923 -0.004965 0.004862 0.003069
# 3 -0.005680 -0.005923 0.018890 -0.005229 -0.003249 -0.002645
# 4 0.002794 -0.004965 -0.005229 0.034057 0.004658 0.001627
# 5 0.005961 0.004862 -0.003249 0.004658 0.049399 0.007420
# 6 0.014624 0.003069 -0.002645 0.001627 0.007420 0.034160
#
#
# Mechanical properties :
#
#
# Convention : Reuss Voigt Hill
#
# Bulk Modulus (GPa) = 26.24813 44.72958 35.48886
# Shear Modulus (GPa) = 21.24214 28.07617 24.65916
#
# Velocity S-wave (km/s) = 3.27809 3.76870 3.53192
# Velocity P-wave (km/s) = 5.25416 6.44710 5.88095
#
# Compressibility (1/GPa) = 0.03809795
#
# Stress axis : x y z
#
# Youngs Moduli (GPa) = 26.69108 65.68014 52.93711
#
# Poissons Ratio (x) = 0.33756 0.30067
# Poissons Ratio (y) = 0.13718 0.31352
# Poissons Ratio (z) = 0.15160 0.38899
#
# Static dielectric constant tensor:
#      x y z
#    x 1.832520 -0.075090 0.033570 
#    y -0.075090 1.743080 -0.011680 
#    z 0.033570 -0.011680 1.817580 
# 
# From -- ./inp_files/177813.got.cif
#   From: 2010.05.17/outbox.cif.g08.bks.cpg/sg2_89_cif.got.tgz:177813.got - 2010.06.03 11:33:40.
