data_PCOD9076763
_publ_section_title
;
Structure prediction by ZEFSAII (Michael W. Deem and Ramdas Pophale) SiO2 
 PCOD9076763
Probable space group: P -1
;
_chemical_formula_sum "Si O2"
_cell_formula_units_Z 14
_cell_length_a 7.487781
_cell_length_b 15.776867
_cell_length_c 10.727565
_cell_angle_alpha 39.016919
_cell_angle_beta 99.402578
_cell_angle_gamma 125.457269
_cell_volume 538.258342
_symmetry_space_group_name_H-M "P -1"
_symmetry_group_IT_number 2
_symmetry_cell_setting 'triclinic'
loop_
_space_group_symop_operation_xyz
x,y,z
-x,-y,-z
loop_
_atom_site_type_symbol
_atom_site_label
_atom_site_fract_x
_atom_site_fract_y
_atom_site_fract_z
Si Si1 0.813463 0.117795 0.819845
Si Si2 0.293666 0.602547 0.916543
Si Si3 0.727612 0.289812 0.810495
Si Si4 0.893302 0.916854 0.252839
Si Si5 0.537450 0.644696 0.153628
Si Si6 0.220453 0.044541 0.556065
Si Si7 0.147998 0.392220 0.896107
O O1 0.822300 0.264870 0.723982
O O2 0.061792 0.205140 0.664188
O O3 0.527524 0.946066 0.917371
O O4 0.808601 0.990400 0.065114
O O5 0.517642 0.829870 0.639126
O O6 0.372597 0.586508 0.076763
O O7 0.290952 0.496371 0.923412
O O8 0.000000 0.500000 0.000000
O O9 0.606215 0.372532 0.721789
O O10 0.973000 0.414123 0.791031
O O11 0.725621 0.838286 0.447672
O O12 0.193315 0.119728 0.092429
O O13 0.663535 0.566759 0.236403
O O14 0.000000 0.000000 0.500000
O O15 0.081464 0.837405 0.829324
#
# Coordination Sequence:
#
# PCOD9076763 Si02
#       7
#     2   2   2   2   2   2   2
#     4   9  17  31  59  94 119 159 214 260 305 368
#     4  12  24  40  61  93 131 169 205 259 319 378
#     4  10  18  33  59  92 121 157 213 260 305 370
#     4   9  17  34  60  91 122 163 209 256 313 367
#     4  10  19  35  57  87 122 159 207 249 308 374
#     4  11  22  39  64  94 128 165 214 256 307 390
#     4  11  22  40  63  90 127 167 206 254 320 367
#
# _framework density 26.009813000000001
#
# number of rings (size 3 to 8) (size 9 to 14) (size 15 to 20)
#    0.000    1.714    7.143    0.429    0.000    0.571 
#    0.000    0.000    0.000    1.714    0.000    0.000 
#    0.000    0.000    0.000    0.000    0.000    0.000 
#
# Total GULP energy -78193.676217 kJ/mol
# GULP energy per Si atom -5585.262587 kJ/mol
# Density = 2.595061 g / cm^3
# Si number density = 26.009813 Si / 1000 Ang^3
#
#
#
# Elastic Constant Matrix: (Units=GPa)
#
#
# Indices 1 2 3 4 5 6 
#
# 1 125.3166 35.9171 40.9288 7.3730 -23.5054 -3.7428
# 2 35.9171 121.5015 9.2886 -0.7593 8.9561 -0.8235
# 3 40.9288 9.2886 96.8675 11.2339 -14.3014 1.5890
# 4 7.3730 -0.7593 11.2339 34.0962 -4.7947 -3.8845
# 5 -23.5054 8.9561 -14.3014 -4.7947 26.6030 -6.3635
# 6 -3.7428 -0.8235 1.5890 -3.8845 -6.3635 59.1661
#
#
#
# Elastic Compliance Matrix: (Units=1/GPa)
#
#
# Indices 1 2 3 4 5 6 
#
# 1 0.012386 -0.004221 -0.003229 0.000086 0.011126 0.002014
# 2 -0.004221 0.010043 -0.000275 0.000073 -0.007465 -0.000918
# 3 -0.003229 -0.000275 0.012567 -0.003019 0.003360 -0.000382
# 4 0.000086 0.000073 -0.003019 0.031269 0.004696 0.002646
# 5 0.011126 -0.007465 0.003360 0.004696 0.054175 0.006645
# 6 0.002014 -0.000918 -0.000382 0.002646 0.006645 0.017915
#
#
# Mechanical properties :
#
#
# Convention : Reuss Voigt Hill
#
# Bulk Modulus (GPa) = 51.16008 57.32826 54.24417
# Shear Modulus (GPa) = 31.18768 41.14314 36.16541
#
# Velocity S-wave (km/s) = 3.46652 3.98154 3.73292
# Velocity P-wave (km/s) = 5.97784 6.57463 6.28332
#
# Compressibility (1/GPa) = 0.01954649
#
# Stress axis : x y z
#
# Youngs Moduli (GPa) = 80.73610 99.56693 79.57636
#
# Poissons Ratio (x) = 0.42022 0.25695
# Poissons Ratio (y) = 0.34075 0.02190
# Poissons Ratio (z) = 0.26070 0.02741
#
# Static dielectric constant tensor:
#      x y z
#    x 2.081750 -0.079250 -0.058240 
#    y -0.079250 2.105030 -0.044840 
#    z -0.058240 -0.044840 2.085880 
# 
# From -- ./inp_files/250745.got.cif
#   From: 2010.05.17/outbox.cif.g08.bks.cpg/sg2_126_cif.got.tgz:250745.got - 2010.06.03 11:33:40.
