data_PCOD9076577
_publ_section_title
;
Structure prediction by ZEFSAII (Michael W. Deem and Ramdas Pophale) SiO2 
 PCOD9076577
Probable space group: P -1
;
_chemical_formula_sum "Si O2"
_cell_formula_units_Z 14
_cell_length_a 5.381788
_cell_length_b 10.175088
_cell_length_c 14.534796
_cell_angle_alpha 65.999966
_cell_angle_beta 106.768024
_cell_angle_gamma 84.163092
_cell_volume 674.017403
_symmetry_space_group_name_H-M "P -1"
_symmetry_group_IT_number 2
_symmetry_cell_setting 'triclinic'
loop_
_space_group_symop_operation_xyz
x,y,z
-x,-y,-z
loop_
_atom_site_type_symbol
_atom_site_label
_atom_site_fract_x
_atom_site_fract_y
_atom_site_fract_z
Si Si1 0.435829 0.962052 0.899419
Si Si2 0.996875 0.640065 0.527512
Si Si3 0.164414 0.874249 0.187697
Si Si4 0.698042 0.336476 0.072431
Si Si5 0.581466 0.319964 0.563024
Si Si6 0.239188 0.533907 0.780900
Si Si7 0.865648 0.356035 0.894846
O O1 0.638045 0.020780 0.839343
O O2 0.124685 0.045453 0.826379
O O3 0.447686 0.790063 0.934370
O O4 0.500000 0.000000 0.000000
O O5 0.688458 0.727123 0.475499
O O6 0.000000 0.500000 0.500000
O O7 0.186954 0.728259 0.473529
O O8 0.113704 0.580337 0.655188
O O9 0.307452 0.741797 0.308859
O O10 0.118857 0.800915 0.106605
O O11 0.792227 0.329475 0.189680
O O12 0.500000 0.500000 0.000000
O O13 0.913276 0.335691 0.015002
O O14 0.500000 0.500000 0.500000
O O15 0.554429 0.451404 0.825438
O O16 0.068992 0.430650 0.841282
#
# Coordination Sequence:
#
# PCOD9076577 Si02
#       7
#     2   2   2   2   2   2   2
#     4  12  26  45  65  97 138 177 216 266 326 398
#     4  10  18  33  57  87 127 154 210 268 318 364
#     4  12  24  40  70  95 136 173 217 270 336 378
#     4  10  25  43  65  93 134 175 221 266 321 396
#     4  10  20  36  59  95 125 161 213 275 317 374
#     4  11  22  37  61  95 131 169 211 271 329 377
#     4  11  21  37  61  94 130 170 214 261 324 387
#
# _framework density 20.770973999999999
#
# number of rings (size 3 to 8) (size 9 to 14) (size 15 to 20)
#    0.000    1.143    1.429    6.857    2.000    2.286 
#    0.000    0.000    0.000    5.143    0.000    0.000 
#    0.000    0.000    0.000    0.000    0.000    0.000 
#
# Total GULP energy -78235.608869 kJ/mol
# GULP energy per Si atom -5588.257776 kJ/mol
# Density = 2.072370 g / cm^3
# Si number density = 20.770974 Si / 1000 Ang^3
#
#
#
# Elastic Constant Matrix: (Units=GPa)
#
#
# Indices 1 2 3 4 5 6 
#
# 1 168.1951 17.2121 28.7213 -1.8019 -0.8259 10.0601
# 2 17.2121 110.6895 34.3510 7.8985 -5.2562 9.7882
# 3 28.7213 34.3510 105.3906 18.1880 -2.4561 -4.5962
# 4 -1.8019 7.8985 18.1880 36.2235 -2.9867 -4.5925
# 5 -0.8259 -5.2562 -2.4561 -2.9867 36.7873 -5.3408
# 6 10.0601 9.7882 -4.5962 -4.5925 -5.3408 24.0762
#
#
#
# Elastic Compliance Matrix: (Units=1/GPa)
#
#
# Indices 1 2 3 4 5 6 
#
# 1 0.006492 -0.000219 -0.002001 0.000978 -0.000361 -0.002899
# 2 -0.000219 0.010684 -0.003421 -0.001223 0.000463 -0.005036
# 3 -0.002001 -0.003421 0.012177 -0.004965 0.000413 0.003696
# 4 0.000978 -0.001223 -0.004965 0.031386 0.002902 0.005771
# 5 -0.000361 0.000463 0.000413 0.002902 0.028509 0.006919
# 6 -0.002899 -0.005036 0.003696 0.005771 0.006919 0.048135
#
#
# Mechanical properties :
#
#
# Convention : Reuss Voigt Hill
#
# Bulk Modulus (GPa) = 55.33761 60.53822 57.93791
# Shear Modulus (GPa) = 32.32320 39.68344 36.00332
#
# Velocity S-wave (km/s) = 3.94911 4.37570 4.16787
# Velocity P-wave (km/s) = 6.89156 7.39850 7.14953
#
# Compressibility (1/GPa) = 0.01807089
#
# Stress axis : x y z
#
# Youngs Moduli (GPa) = 154.04139 93.59399 82.12540
#
# Poissons Ratio (x) = 0.02049 0.16437
# Poissons Ratio (y) = 0.03372 0.28091
# Poissons Ratio (z) = 0.30831 0.32014
#
# Static dielectric constant tensor:
#      x y z
#    x 1.742590 0.010090 0.028250 
#    y 0.010090 1.727390 0.006750 
#    z 0.028250 0.006750 1.763920 
# 
# From -- ./inp_files/36261.got.cif
#   From: 2010.05.17/outbox.cif.g08.bks.cpg/sg2_19_cif.got.tgz:36261.got - 2010.06.03 11:33:40.
