data_PCOD9076946
_publ_section_title
;
Structure prediction by ZEFSAII (Michael W. Deem and Ramdas Pophale) SiO2 
 PCOD9076946
Probable space group: P -1
;
_chemical_formula_sum "Si O2"
_cell_formula_units_Z 14
_cell_length_a 8.065676
_cell_length_b 17.570623
_cell_length_c 5.005385
_cell_angle_alpha 90.506248
_cell_angle_beta 85.888887
_cell_angle_gamma 45.604705
_cell_volume 503.818610
_symmetry_space_group_name_H-M "P -1"
_symmetry_group_IT_number 2
_symmetry_cell_setting 'triclinic'
loop_
_space_group_symop_operation_xyz
x,y,z
-x,-y,-z
loop_
_atom_site_type_symbol
_atom_site_label
_atom_site_fract_x
_atom_site_fract_y
_atom_site_fract_z
Si Si1 0.874362 0.624969 0.087188
Si Si2 0.831565 0.462355 0.437487
Si Si3 0.388974 0.600278 0.818487
Si Si4 0.683725 0.983907 0.668150
Si Si5 0.332614 0.768244 0.106666
Si Si6 0.297815 0.877140 0.624766
Si Si7 0.309109 0.170056 0.128617
O O1 0.074245 0.534499 0.850999
O O2 0.230280 0.604947 0.629000
O O3 0.614691 0.681400 0.055540
O O4 0.846540 0.724220 0.023024
O O5 0.596762 0.567637 0.607766
O O6 0.500000 0.500000 0.000000
O O7 0.034329 0.406956 0.625191
O O8 0.278697 0.700660 0.017499
O O9 0.804293 0.012157 0.487793
O O10 0.500000 0.000000 0.500000
O O11 0.813321 0.868609 0.766748
O O12 0.532578 0.071983 0.921203
O O13 0.221704 0.863826 0.911309
O O14 0.288523 0.813405 0.407496
O O15 0.565016 0.820888 0.652678
#
# Coordination Sequence:
#
# PCOD9076946 Si02
#       7
#     2   2   2   2   2   2   2
#     4  11  21  39  60  98 120 151 198 261 304 343
#     4  11  25  42  64  83 125 156 204 252 307 366
#     4  11  26  49  61  85 117 168 210 245 303 385
#     4   9  16  29  52  84 133 166 184 230 301 366
#     4  11  24  36  66  86 125 154 206 256 302 351
#     4  10  18  34  51  91 119 159 195 242 292 350
#     4   9  18  31  53  87 134 158 190 236 306 355
#
# _framework density 27.787777999999999
#
# number of rings (size 3 to 8) (size 9 to 14) (size 15 to 20)
#    0.000    1.714    4.286    1.714    6.000    1.143 
#    0.000    0.000    0.000    0.000    0.000    6.000 
#    0.000    0.000    0.000    0.000    0.000    0.000 
#
# Total GULP energy -78423.129124 kJ/mol
# GULP energy per Si atom -5601.652080 kJ/mol
# Density = 2.772453 g / cm^3
# Si number density = 27.787778 Si / 1000 Ang^3
#
#
#
# Elastic Constant Matrix: (Units=GPa)
#
#
# Indices 1 2 3 4 5 6 
#
# 1 131.8669 25.8630 40.8016 3.9026 26.6630 11.9033
# 2 25.8630 87.4284 30.9524 -8.7003 12.8126 17.6500
# 3 40.8016 30.9524 161.3224 -5.6991 20.9148 2.8120
# 4 3.9026 -8.7003 -5.6991 41.1525 18.2640 -12.2422
# 5 26.6630 12.8126 20.9148 18.2640 54.9129 17.5687
# 6 11.9033 17.6500 2.8120 -12.2422 17.5687 39.9329
#
#
#
# Elastic Compliance Matrix: (Units=1/GPa)
#
#
# Indices 1 2 3 4 5 6 
#
# 1 0.009082 -0.001563 -0.001573 -0.000128 -0.003237 -0.000521
# 2 -0.001563 0.013840 -0.002008 0.001802 -0.000837 -0.004589
# 3 -0.001573 -0.002008 0.007577 0.003707 -0.004089 0.003758
# 4 -0.000128 0.001802 0.003707 0.041674 -0.022569 0.021686
# 5 -0.003237 -0.000837 -0.004089 -0.022569 0.035771 -0.021034
# 6 -0.000521 -0.004589 0.003758 0.021686 -0.021034 0.042863
#
#
# Mechanical properties :
#
#
# Convention : Reuss Voigt Hill
#
# Bulk Modulus (GPa) = 49.47743 63.98352 56.73048
# Shear Modulus (GPa) = 29.79174 46.06636 37.92905
#
# Velocity S-wave (km/s) = 3.27787 4.07602 3.69854
# Velocity P-wave (km/s) = 5.67186 6.72515 6.22084
#
# Compressibility (1/GPa) = 0.02021124
#
# Stress axis : x y z
#
# Youngs Moduli (GPa) = 110.10913 72.25664 131.97123
#
# Poissons Ratio (x) = 0.11294 0.20758
# Poissons Ratio (y) = 0.17210 0.26499
# Poissons Ratio (z) = 0.17319 0.14509
#
# Static dielectric constant tensor:
#      x y z
#    x 2.214610 0.053330 -0.049560 
#    y 0.053330 2.287300 -0.031290 
#    z -0.049560 -0.031290 2.129430 
# 
# From -- ./inp_files/54506.got.cif
#   From: 2010.05.17/outbox.cif.g08.bks.cpg/sg2_28_cif.got.tgz:54506.got - 2010.06.03 11:33:40.
