data_PCOD9076603
_publ_section_title
;
Structure prediction by ZEFSAII (Michael W. Deem and Ramdas Pophale) SiO2 
 PCOD9076603
Probable space group: P -1
;
_chemical_formula_sum "Si O2"
_cell_formula_units_Z 16
_cell_length_a 14.516639
_cell_length_b 15.490145
_cell_length_c 10.306912
_cell_angle_alpha 115.376106
_cell_angle_beta 50.033577
_cell_angle_gamma 153.453376
_cell_volume 718.085954
_symmetry_space_group_name_H-M "P -1"
_symmetry_group_IT_number 2
_symmetry_cell_setting 'triclinic'
loop_
_space_group_symop_operation_xyz
x,y,z
-x,-y,-z
loop_
_atom_site_type_symbol
_atom_site_label
_atom_site_fract_x
_atom_site_fract_y
_atom_site_fract_z
Si Si1 0.523235 0.245727 0.131158
Si Si2 0.313101 0.238190 0.844319
Si Si3 0.687574 0.080432 0.279852
Si Si4 0.983809 0.463944 0.262248
Si Si5 0.696141 0.361513 0.671567
Si Si6 0.471992 0.323607 0.471611
Si Si7 0.089039 0.217848 0.687214
Si Si8 0.774131 0.618675 0.040432
O O1 0.539542 0.282913 0.292643
O O2 0.603435 0.402623 0.086459
O O3 0.748745 0.331549 0.932350
O O4 0.218557 0.003650 0.217574
O O5 0.512078 0.323502 0.813056
O O6 0.359177 0.226331 0.652610
O O7 0.372994 0.393730 0.889924
O O8 0.000000 0.000000 0.000000
O O9 0.812877 0.261495 0.209636
O O10 0.500000 0.000000 0.500000
O O11 0.493307 0.861898 0.258576
O O12 0.949274 0.208106 0.172338
O O13 0.076428 0.477670 0.322162
O O14 0.815572 0.428123 0.460800
O O15 0.247829 0.230115 0.540525
O O16 0.732841 0.576490 0.414367
O O17 0.118551 0.269072 0.843662
#
# Coordination Sequence:
#
# PCOD9076603 Si02
#       8
#     2   2   2   2   2   2   2   2
#     4  10  18  33  58  79 105 134 182 232 257 298
#     4  11  21  35  56  75 115 151 166 209 284 328
#     4   9  16  30  50  74 106 135 175 221 251 302
#     4   9  20  33  56  82  99 137 193 219 258 308
#     4  10  19  36  53  75 111 146 173 220 263 320
#     4   9  20  33  50  81 105 137 183 211 263 326
#     4   9  17  33  55  74 106 139 174 227 259 298
#     4   9  18  32  50  82 104 137 183 209 266 324
#
# _framework density 22.281455000000001
#
# number of rings (size 3 to 8) (size 9 to 14) (size 15 to 20)
#    0.000    2.500    1.250    1.875    1.750    0.000 
#    0.000    6.875    0.000    0.750    0.000    0.000 
#    0.000    0.000    0.000    0.000    0.000    0.000 
#
# Total GULP energy -89186.529076 kJ/mol
# GULP energy per Si atom -5574.158067 kJ/mol
# Density = 2.223074 g / cm^3
# Si number density = 22.281455 Si / 1000 Ang^3
#
#
#
# Elastic Constant Matrix: (Units=GPa)
#
#
# Indices 1 2 3 4 5 6 
#
# 1 38.9052 3.3334 23.5874 1.4366 -9.5831 -2.1382
# 2 3.3334 59.7732 22.3039 -13.3903 -3.0909 5.6717
# 3 23.5874 22.3039 149.7835 -8.9244 -11.2097 7.0685
# 4 1.4366 -13.3903 -8.9244 41.0150 3.6193 -8.5866
# 5 -9.5831 -3.0909 -11.2097 3.6193 31.9741 2.1036
# 6 -2.1382 5.6717 7.0685 -8.5866 2.1036 12.7230
#
#
#
# Elastic Compliance Matrix: (Units=1/GPa)
#
#
# Indices 1 2 3 4 5 6 
#
# 1 0.030706 -0.000542 -0.004568 -0.001736 0.007381 0.005547
# 2 -0.000542 0.019106 -0.002225 0.004834 0.000634 -0.004214
# 3 -0.004568 -0.002225 0.008056 0.000128 0.001516 -0.004416
# 4 -0.001736 0.004834 0.000128 0.030390 -0.004683 0.018766
# 5 0.007381 0.000634 0.001516 -0.004683 0.035194 -0.008864
# 6 0.005547 -0.004214 -0.004416 0.018766 -0.008864 0.097993
#
#
# Mechanical properties :
#
#
# Convention : Reuss Voigt Hill
#
# Bulk Modulus (GPa) = 23.14848 38.54569 30.84709
# Shear Modulus (GPa) = 19.95892 30.42492 25.19192
#
# Velocity S-wave (km/s) = 2.99618 3.69925 3.36612
# Velocity P-wave (km/s) = 4.73087 5.96514 5.38350
#
# Compressibility (1/GPa) = 0.04319937
#
# Stress axis : x y z
#
# Youngs Moduli (GPa) = 32.56668 52.33926 124.12357
#
# Poissons Ratio (x) = 0.02835 0.56696
# Poissons Ratio (y) = 0.01764 0.27622
# Poissons Ratio (z) = 0.14875 0.11647
#
# Static dielectric constant tensor:
#      x y z
#    x 1.836990 -0.022320 -0.029540 
#    y -0.022320 1.857250 0.030350 
#    z -0.029540 0.030350 1.897910 
# 
# From -- ./inp_files/454840.got.cif
#   From: 2010.05.17/outbox.cif.g08.bks.cpg/sg2_228_cif.got.tgz:454840.got - 2010.06.03 11:33:40.
