data_PCOD9076866
_publ_section_title
;
Structure prediction by ZEFSAII (Michael W. Deem and Ramdas Pophale) SiO2 
 PCOD9076866
Probable space group: P -1
;
_chemical_formula_sum "Si O2"
_cell_formula_units_Z 16
_cell_length_a 7.273442
_cell_length_b 19.115930
_cell_length_c 13.465458
_cell_angle_alpha 156.622611
_cell_angle_beta 69.264569
_cell_angle_gamma 110.193086
_cell_volume 693.720695
_symmetry_space_group_name_H-M "P -1"
_symmetry_group_IT_number 2
_symmetry_cell_setting 'triclinic'
loop_
_space_group_symop_operation_xyz
x,y,z
-x,-y,-z
loop_
_atom_site_type_symbol
_atom_site_label
_atom_site_fract_x
_atom_site_fract_y
_atom_site_fract_z
Si Si1 0.275503 0.878800 0.673607
Si Si2 0.757853 0.113848 0.986409
Si Si3 0.399955 0.059170 0.693787
Si Si4 0.568508 0.575573 0.775647
Si Si5 0.566723 0.788988 0.681408
Si Si6 0.124098 0.267449 0.228706
Si Si7 0.017275 0.870615 0.231953
Si Si8 0.069241 0.530371 0.294714
O O1 0.411314 0.831383 0.678862
O O2 0.140196 0.703894 0.444673
O O3 0.397150 0.929817 0.618450
O O4 0.174568 0.061062 0.960159
O O5 0.804970 0.093290 0.834682
O O6 0.747967 0.923711 0.796641
O O7 0.551006 0.182228 0.155598
O O8 0.928539 0.247334 0.171270
O O9 0.174178 0.093357 0.753112
O O10 0.500000 0.000000 0.500000
O O11 0.512067 0.242442 0.939079
O O12 0.407291 0.417163 0.595233
O O13 0.694968 0.626703 0.720680
O O14 0.733435 0.522120 0.752987
O O15 0.066214 0.378440 0.479103
O O16 0.007006 0.659200 0.982041
O O17 0.000000 0.000000 0.500000
#
# Coordination Sequence:
#
# PCOD9076866 Si02
#       8
#     2   2   2   2   2   2   2   2
#     4  10  20  35  60  93 116 148 199 253 299 353
#     4  11  20  37  60  90 126 153 189 251 301 353
#     4  10  22  40  61  80 115 161 206 247 289 347
#     4   9  17  35  56  86 110 156 200 234 284 366
#     4  10  22  34  61  94 123 148 192 247 318 343
#     4  11  17  33  67  86 120 150 199 243 305 349
#     4  11  24  42  60  83 120 167 205 236 295 358
#     4  10  18  33  61  91 108 151 206 242 281 366
#
# _framework density 23.064039000000001
#
# number of rings (size 3 to 8) (size 9 to 14) (size 15 to 20)
#    0.000    1.750    6.250    1.500    1.750    0.000 
#    2.250    3.750    0.000    3.750    0.000    0.000 
#    0.000    0.000    0.000    0.000    0.000    0.000 
#
# Total GULP energy -89316.160237 kJ/mol
# GULP energy per Si atom -5582.260015 kJ/mol
# Density = 2.301154 g / cm^3
# Si number density = 23.064039 Si / 1000 Ang^3
#
#
#
# Elastic Constant Matrix: (Units=GPa)
#
#
# Indices 1 2 3 4 5 6 
#
# 1 59.9953 1.7129 10.8885 1.6597 7.8094 -9.0783
# 2 1.7129 108.5921 105.2707 -0.0742 2.3024 7.3330
# 3 10.8885 105.2707 184.9825 7.9446 20.5832 9.0009
# 4 1.6597 -0.0742 7.9446 50.1985 3.6595 0.7748
# 5 7.8094 2.3024 20.5832 3.6595 29.1747 1.4313
# 6 -9.0783 7.3330 9.0009 0.7748 1.4313 9.9938
#
#
#
# Elastic Compliance Matrix: (Units=1/GPa)
#
#
# Indices 1 2 3 4 5 6 
#
# 1 0.020904 -0.000137 -0.001564 -0.000373 -0.005480 0.021312
# 2 -0.000137 0.022458 -0.013434 0.001683 0.007814 -0.005753
# 3 -0.001564 -0.013434 0.014280 -0.001579 -0.008245 -0.003121
# 4 -0.000373 0.001683 -0.001579 0.020311 -0.001392 -0.001527
# 5 -0.005480 0.007814 -0.008245 -0.001392 0.041566 -0.009131
# 6 0.021312 -0.005753 -0.003121 -0.001527 -0.009131 0.127880
#
#
# Mechanical properties :
#
#
# Convention : Reuss Voigt Hill
#
# Bulk Modulus (GPa) = 36.53282 65.47932 51.00607
# Shear Modulus (GPa) = 17.43410 33.58660 25.51035
#
# Velocity S-wave (km/s) = 2.75235 3.82020 3.32937
# Velocity P-wave (km/s) = 5.09653 6.92174 6.07804
#
# Compressibility (1/GPa) = 0.02737264
#
# Stress axis : x y z
#
# Youngs Moduli (GPa) = 47.83732 44.52662 70.02586
#
# Poissons Ratio (x) = 0.00611 0.10949
# Poissons Ratio (y) = 0.00656 0.94076
# Poissons Ratio (z) = 0.07480 0.59819
#
# Static dielectric constant tensor:
#      x y z
#    x 1.998280 -0.020280 -0.005310 
#    y -0.020280 2.079640 -0.071160 
#    z -0.005310 -0.071160 1.955700 
# 
# From -- ./inp_files/508179.got.cif
#   From: 2010.05.17/outbox.cif.g08.bks.cpg/sg2_255_cif.got.tgz:508179.got - 2010.06.03 11:33:40.
