data_PCOD9076773
_publ_section_title
;
Structure prediction by ZEFSAII (Michael W. Deem and Ramdas Pophale) SiO2 
 PCOD9076773
Probable space group: P -1
;
_chemical_formula_sum "Si O2"
_cell_formula_units_Z 14
_cell_length_a 11.898207
_cell_length_b 7.569574
_cell_length_c 17.090109
_cell_angle_alpha 127.227579
_cell_angle_beta 30.304045
_cell_angle_gamma 132.534456
_cell_volume 571.361988
_symmetry_space_group_name_H-M "P -1"
_symmetry_group_IT_number 2
_symmetry_cell_setting 'triclinic'
loop_
_space_group_symop_operation_xyz
x,y,z
-x,-y,-z
loop_
_atom_site_type_symbol
_atom_site_label
_atom_site_fract_x
_atom_site_fract_y
_atom_site_fract_z
Si Si1 0.991485 0.888049 0.389148
Si Si2 0.966780 0.746791 0.105865
Si Si3 0.516050 0.963643 0.835716
Si Si4 0.621020 0.761930 0.459290
Si Si5 0.516773 0.549732 0.246364
Si Si6 0.190326 0.651381 0.591851
Si Si7 0.340265 0.523380 0.173965
O O1 0.798982 0.935207 0.462497
O O2 0.897999 0.605237 0.381368
O O3 0.000000 0.000000 0.500000
O O4 0.264500 0.961842 0.213292
O O5 0.801115 0.744481 0.278774
O O6 0.787627 0.750289 0.144021
O O7 0.000000 0.500000 0.000000
O O8 0.239573 0.930323 0.004199
O O9 0.495824 0.688883 0.761009
O O10 0.622927 0.192971 0.774797
O O11 0.500000 0.500000 0.500000
O O12 0.399950 0.815659 0.568739
O O13 0.325955 0.632349 0.426362
O O14 0.440834 0.482639 0.185393
O O15 0.935116 0.659319 0.724705
O O16 0.500000 0.500000 0.000000
#
# Coordination Sequence:
#
# PCOD9076773 Si02
#       7
#     2   2   2   2   2   2   2
#     4  10  18  33  59  95 123 157 211 257 308 369
#     4   9  20  36  61  93 123 166 207 255 326 370
#     4  10  22  39  63  91 126 160 212 253 316 375
#     4   9  19  33  58  88 126 161 205 259 306 377
#     4  10  20  40  66  86 121 166 210 256 312 374
#     4   9  19  39  60  86 121 164 210 257 311 374
#     4  11  25  39  59  93 126 162 210 259 317 374
#
# _framework density 24.502856999999999
#
# number of rings (size 3 to 8) (size 9 to 14) (size 15 to 20)
#    0.000    2.286    1.429    0.429    2.000    9.714 
#    0.000    0.000    0.000    2.571    0.000    0.000 
#    0.000    0.000    0.000    0.000    0.000    0.000 
#
# Total GULP energy -77972.358398 kJ/mol
# GULP energy per Si atom -5569.454171 kJ/mol
# Density = 2.444709 g / cm^3
# Si number density = 24.502857 Si / 1000 Ang^3
#
#
#
# Elastic Constant Matrix: (Units=GPa)
#
#
# Indices 1 2 3 4 5 6 
#
# 1 168.4292 34.6323 86.1501 -19.3368 -31.1999 46.8103
# 2 34.6323 96.1489 32.1677 -11.6487 -10.4153 -9.6773
# 3 86.1501 32.1677 168.2389 -22.6871 -49.1262 34.4631
# 4 -19.3368 -11.6487 -22.6871 42.5272 17.2564 -7.6459
# 5 -31.1999 -10.4153 -49.1262 17.2564 37.1129 -15.3597
# 6 46.8103 -9.6773 34.4631 -7.6459 -15.3597 45.4038
#
#
#
# Elastic Compliance Matrix: (Units=1/GPa)
#
#
# Indices 1 2 3 4 5 6 
#
# 1 0.011016 -0.003978 -0.002710 0.000623 0.000128 -0.009999
# 2 -0.003978 0.013757 -0.001974 0.002299 0.000611 0.009126
# 3 -0.002710 -0.001974 0.011569 -0.000858 0.011824 -0.002552
# 4 0.000623 0.002299 -0.000858 0.029541 -0.013299 0.000974
# 5 0.000128 0.000611 0.011824 -0.013299 0.051648 0.006256
# 6 -0.009999 0.009126 -0.002552 0.000974 0.006256 0.038496
#
#
# Mechanical properties :
#
#
# Convention : Reuss Voigt Hill
#
# Bulk Modulus (GPa) = 52.58560 82.07971 67.33266
# Shear Modulus (GPa) = 27.82523 43.66657 35.74590
#
# Velocity S-wave (km/s) = 3.37351 4.22607 3.82363
# Velocity P-wave (km/s) = 6.05654 7.57520 6.85804
#
# Compressibility (1/GPa) = 0.01901661
#
# Stress axis : x y z
#
# Youngs Moduli (GPa) = 90.77746 72.68932 86.43704
#
# Poissons Ratio (x) = 0.28916 0.23428
# Poissons Ratio (y) = 0.36112 0.17065
# Poissons Ratio (z) = 0.24605 0.14351
#
# Static dielectric constant tensor:
#      x y z
#    x 2.013060 0.020880 -0.078340 
#    y 0.020880 2.065260 -0.006970 
#    z -0.078340 -0.006970 1.987440 
# 
# From -- ./inp_files/448180.got.cif
#   From: 2010.05.17/outbox.cif.g08.bks.cpg/sg2_225_cif.got.tgz:448180.got - 2010.06.03 11:33:40.
