data_PCOD9076990
_publ_section_title
;
Structure prediction by ZEFSAII (Michael W. Deem and Ramdas Pophale) SiO2 
 PCOD9076990
Probable space group: P -1
;
_chemical_formula_sum "Si O2"
_cell_formula_units_Z 16
_cell_length_a 13.776318
_cell_length_b 8.778957
_cell_length_c 10.644264
_cell_angle_alpha 56.803640
_cell_angle_beta 44.879055
_cell_angle_gamma 81.050994
_cell_volume 698.756688
_symmetry_space_group_name_H-M "P -1"
_symmetry_group_IT_number 2
_symmetry_cell_setting 'triclinic'
loop_
_space_group_symop_operation_xyz
x,y,z
-x,-y,-z
loop_
_atom_site_type_symbol
_atom_site_label
_atom_site_fract_x
_atom_site_fract_y
_atom_site_fract_z
Si Si1 0.235683 0.137338 0.176489
Si Si2 0.022582 0.324728 0.736623
Si Si3 0.655660 0.482547 0.564172
Si Si4 0.028115 0.277740 0.456922
Si Si5 0.708985 0.052892 0.256482
Si Si6 0.538002 0.189165 0.008622
Si Si7 0.420746 0.196396 0.753152
Si Si8 0.502402 0.271459 0.269727
O O1 0.167894 0.266535 0.259755
O O2 0.374428 0.130129 0.129526
O O3 0.296984 0.223647 0.943543
O O4 0.111310 0.918826 0.368242
O O5 0.992842 0.524647 0.654270
O O6 0.173910 0.366502 0.656891
O O7 0.040779 0.267338 0.601472
O O8 0.880212 0.165783 0.010737
O O9 0.576837 0.380470 0.553412
O O10 0.543462 0.565315 0.697966
O O11 0.650626 0.309266 0.742944
O O12 0.626068 0.204782 0.250490
O O13 0.636079 0.875383 0.300924
O O14 0.650728 0.931978 0.493056
O O15 0.555930 0.320231 0.056627
O O16 0.563834 0.998573 0.116045
#
# Coordination Sequence:
#
# PCOD9076990 Si02
#       8
#     2   2   2   2   2   2   2   2
#     4  10  18  34  53  90 117 155 180 242 290 348
#     4  11  22  36  58  90 117 153 184 248 287 342
#     4  11  22  35  63  91 115 144 198 242 296 334
#     4  10  21  31  56  86 126 143 191 234 301 336
#     4  10  23  42  61  79 122 159 195 230 290 342
#     4  10  20  35  61  85 121 146 193 236 298 336
#     4  10  20  37  59  85 118 158 186 235 294 350
#     4  10  23  40  60  86 111 162 199 237 272 354
#
# _framework density 22.897812999999999
#
# number of rings (size 3 to 8) (size 9 to 14) (size 15 to 20)
#    0.000    1.750    1.250    4.125    8.750    1.000 
#    0.000    0.000    0.000    7.500    0.000    0.000 
#    0.000    0.000    0.000    0.000    0.000    0.000 
#
# Total GULP energy -89462.066726 kJ/mol
# GULP energy per Si atom -5591.379170 kJ/mol
# Density = 2.284570 g / cm^3
# Si number density = 22.897813 Si / 1000 Ang^3
#
#
#
# Elastic Constant Matrix: (Units=GPa)
#
#
# Indices 1 2 3 4 5 6 
#
# 1 49.6403 14.1904 30.5001 -4.4811 -8.8842 3.2518
# 2 14.1904 102.0411 19.8634 13.6145 -14.6808 5.5151
# 3 30.5001 19.8634 102.7482 11.5933 -23.4874 10.1118
# 4 -4.4811 13.6145 11.5933 32.9844 -3.0778 -10.7914
# 5 -8.8842 -14.6808 -23.4874 -3.0778 36.6375 -8.5550
# 6 3.2518 5.5151 10.1118 -10.7914 -8.5550 19.4455
#
#
#
# Elastic Compliance Matrix: (Units=1/GPa)
#
#
# Indices 1 2 3 4 5 6 
#
# 1 0.027719 -0.003749 -0.009117 0.011558 0.002359 0.008620
# 2 -0.003749 0.011836 0.000814 -0.007554 0.002236 -0.006362
# 3 -0.009117 0.000814 0.015502 -0.009877 0.004863 -0.010109
# 4 0.011558 -0.007554 -0.009877 0.050950 0.006213 0.036354
# 5 0.002359 0.002236 0.004863 0.006213 0.036083 0.015765
# 6 0.008620 -0.006362 -0.010109 0.036354 0.015765 0.084156
#
#
# Mechanical properties :
#
#
# Convention : Reuss Voigt Hill
#
# Bulk Modulus (GPa) = 32.30543 42.61529 37.46036
# Shear Modulus (GPa) = 19.18147 30.47186 24.82666
#
# Velocity S-wave (km/s) = 2.89744 3.65194 3.29635
# Velocity P-wave (km/s) = 5.03316 6.03603 5.55727
#
# Compressibility (1/GPa) = 0.03095455
#
# Stress axis : x y z
#
# Youngs Moduli (GPa) = 36.07646 84.48728 64.50590
#
# Poissons Ratio (x) = 0.31672 0.58808
# Poissons Ratio (y) = 0.13524 -0.05251
# Poissons Ratio (z) = 0.32890 -0.06877
#
# Static dielectric constant tensor:
#      x y z
#    x 1.868960 0.003730 0.025700 
#    y 0.003730 1.897860 -0.010590 
#    z 0.025700 -0.010590 1.903340 
# 
# From -- ./inp_files/218971.got.cif
#   From: 2010.05.17/outbox.cif.g08.bks.cpg/sg2_110_cif.got.tgz:218971.got - 2010.06.03 11:33:40.
