data_PCOD9076661
_publ_section_title
;
Structure prediction by ZEFSAII (Michael W. Deem and Ramdas Pophale) SiO2 
 PCOD9076661
Probable space group: P -1
;
_chemical_formula_sum "Si O2"
_cell_formula_units_Z 16
_cell_length_a 11.273815
_cell_length_b 15.226756
_cell_length_c 9.732479
_cell_angle_alpha 82.071108
_cell_angle_beta 152.466772
_cell_angle_gamma 95.350365
_cell_volume 763.381367
_symmetry_space_group_name_H-M "P -1"
_symmetry_group_IT_number 2
_symmetry_cell_setting 'triclinic'
loop_
_space_group_symop_operation_xyz
x,y,z
-x,-y,-z
loop_
_atom_site_type_symbol
_atom_site_label
_atom_site_fract_x
_atom_site_fract_y
_atom_site_fract_z
Si Si1 0.830653 0.577998 0.655990
Si Si2 0.712374 0.803928 0.005606
Si Si3 0.780023 0.748354 0.374749
Si Si4 0.764535 0.462668 0.353445
Si Si5 0.216261 0.718721 0.444690
Si Si6 0.328395 0.647506 0.275953
Si Si7 0.277526 0.819611 0.992290
Si Si8 0.743105 0.991940 0.146549
O O1 0.813058 0.658681 0.511821
O O2 0.792930 0.497709 0.531465
O O3 0.103536 0.586061 0.007849
O O4 0.598993 0.599491 0.519328
O O5 0.424707 0.791386 0.665740
O O6 0.756580 0.736583 0.193019
O O7 0.747219 0.900538 0.085064
O O8 0.934045 0.768948 0.136235
O O9 0.022171 0.802887 0.649070
O O10 0.521388 0.798809 0.150774
O O11 0.768798 0.356158 0.403066
O O12 0.000000 0.500000 0.500000
O O13 0.500000 0.500000 0.000000
O O14 0.295912 0.670127 0.395992
O O15 0.297221 0.743902 0.145991
O O16 0.274248 0.924229 0.994367
O O17 0.000000 0.000000 0.500000
O O18 0.500000 0.000000 0.000000
#
# Coordination Sequence:
#
# PCOD9076661 Si02
#       8
#     2   2   2   2   2   2   2   2
#     4  10  21  38  64  89 116 165 207 254 295 356
#     4  12  23  38  61  91 127 163 202 251 328 358
#     4  10  18  33  58  87 117 149 196 252 310 358
#     4  12  25  43  65  97 129 155 202 258 323 365
#     4  12  26  42  60  88 129 168 203 255 301 375
#     4  10  23  41  62  87 122 168 217 238 295 359
#     4  10  19  36  58  87 120 151 197 257 292 359
#     4  12  21  37  60  96 124 153 204 259 310 368
#
# _framework density 20.959378999999998
#
# number of rings (size 3 to 8) (size 9 to 14) (size 15 to 20)
#    0.000    1.000    2.500    5.250    0.000    3.000 
#    0.000    1.250    0.000    0.000    0.000    0.000 
#    0.000    0.000    0.000    0.000    0.000    0.000 
#
# Total GULP energy -89395.949099 kJ/mol
# GULP energy per Si atom -5587.246819 kJ/mol
# Density = 2.091167 g / cm^3
# Si number density = 20.959379 Si / 1000 Ang^3
#
#
#
# Elastic Constant Matrix: (Units=GPa)
#
#
# Indices 1 2 3 4 5 6 
#
# 1 94.0411 21.2307 23.8316 8.2394 22.6265 -5.4182
# 2 21.2307 116.3994 31.4432 15.4399 13.9890 2.2049
# 3 23.8316 31.4432 121.8016 15.2416 30.2404 5.5640
# 4 8.2394 15.4399 15.2416 26.0512 1.0137 -3.9842
# 5 22.6265 13.9890 30.2404 1.0137 34.7917 -1.2929
# 6 -5.4182 2.2049 5.5640 -3.9842 -1.2929 28.8246
#
#
#
# Elastic Compliance Matrix: (Units=1/GPa)
#
#
# Indices 1 2 3 4 5 6 
#
# 1 0.013156 -0.001083 -0.000044 -0.002908 -0.007930 0.001807
# 2 -0.001083 0.010073 -0.001105 -0.005133 -0.002295 -0.001573
# 3 -0.000044 -0.001105 0.011915 -0.006464 -0.009828 -0.003558
# 4 -0.002908 -0.005133 -0.006464 0.047019 0.008500 0.007974
# 5 -0.007930 -0.002295 -0.009828 0.008500 0.043254 0.003697
# 6 0.001807 -0.001573 -0.003558 0.007974 0.003697 0.037107
#
#
# Mechanical properties :
#
#
# Convention : Reuss Voigt Hill
#
# Bulk Modulus (GPa) = 32.59336 53.91700 43.25518
# Shear Modulus (GPa) = 28.21409 34.98260 31.59835
#
# Velocity S-wave (km/s) = 3.67295 4.08985 3.88699
# Velocity P-wave (km/s) = 5.79412 6.93418 6.38963
#
# Compressibility (1/GPa) = 0.03068110
#
# Stress axis : x y z
#
# Youngs Moduli (GPa) = 76.00899 99.27048 83.92578
#
# Poissons Ratio (x) = 0.10752 0.00371
# Poissons Ratio (y) = 0.08232 0.09271
# Poissons Ratio (z) = 0.00336 0.10966
#
# Static dielectric constant tensor:
#      x y z
#    x 1.745420 0.043010 0.002510 
#    y 0.043010 1.829610 0.006250 
#    z 0.002510 0.006250 1.739020 
# 
# From -- ./inp_files/434093.got.cif
#   From: 2010.05.17/outbox.cif.g08.bks.cpg/sg2_218_cif.got.tgz:434093.got - 2010.06.03 11:33:40.
