data_PCOD9076957
_publ_section_title
;
Structure prediction by ZEFSAII (Michael W. Deem and Ramdas Pophale) SiO2 
 PCOD9076957
Probable space group: P -1
;
_chemical_formula_sum "Si O2"
_cell_formula_units_Z 15
_cell_length_a 14.703364
_cell_length_b 14.445544
_cell_length_c 12.032950
_cell_angle_alpha 147.709672
_cell_angle_beta 28.113586
_cell_angle_gamma 139.500639
_cell_volume 642.254627
_symmetry_space_group_name_H-M "P -1"
_symmetry_group_IT_number 2
_symmetry_cell_setting 'triclinic'
loop_
_space_group_symop_operation_xyz
x,y,z
-x,-y,-z
loop_
_atom_site_type_symbol
_atom_site_label
_atom_site_fract_x
_atom_site_fract_y
_atom_site_fract_z
Si Si1 0.785080 0.539244 0.727942
Si Si2 0.895676 0.074840 0.861011
Si Si3 0.963530 0.875649 0.807548
Si Si4 0.433483 0.173330 0.123695
Si Si5 0.649636 0.298320 0.810996
Si Si6 0.593036 0.293245 0.503221
Si Si7 0.500000 0.000000 0.500000
Si Si8 0.659637 0.821322 0.531931
O O1 0.792552 0.742271 0.898588
O O2 0.655940 0.468206 0.898156
O O3 0.715787 0.439444 0.590815
O O4 0.000000 0.500000 0.500000
O O5 0.110185 0.144092 0.669438
O O6 0.911319 0.998761 0.890577
O O7 0.779810 0.918267 0.761920
O O8 0.752289 0.228429 0.178491
O O9 0.130602 0.756776 0.461462
O O10 0.000000 0.000000 0.000000
O O11 0.427765 0.251876 0.332261
O O12 0.515073 0.297401 0.063037
O O13 0.574822 0.012738 0.805624
O O14 0.579908 0.140003 0.647602
O O15 0.406530 0.289236 0.617283
O O16 0.545546 0.144874 0.495737
#
# Coordination Sequence:
#
# PCOD9076957 Si02
#       8
#     2   2   2   2   2   2   1   2
#     4   9  20  36  61  88 122 161 192 241 310 367
#     4  11  19  34  60  90 118 158 204 252 286 350
#     4  11  21  35  59  93 118 150 202 246 301 374
#     4  10  20  35  57  89 123 161 204 250 294 342
#     4  10  18  34  58  82 126 161 190 243 298 358
#     4  10  20  35  62  85 127 158 196 243 304 353
#     4  10  14  30  52  82 110 156 188 224 290 352
#     4  10  20  35  58  93 117 159 210 248 290 348
#
# _framework density 23.355224
#
# number of rings (size 3 to 8) (size 9 to 14) (size 15 to 20)
#    0.000    1.867    4.000    2.800    0.000    0.000 
#    0.000    0.667    5.867    4.000    3.467    1.867 
#    0.000    0.000    0.000    0.000    0.000    0.000 
#
# Total GULP energy -83548.416270 kJ/mol
# GULP energy per Si atom -5569.894418 kJ/mol
# Density = 2.330207 g / cm^3
# Si number density = 23.355224 Si / 1000 Ang^3
#
#
#
# Elastic Constant Matrix: (Units=GPa)
#
#
# Indices 1 2 3 4 5 6 
#
# 1 75.7852 34.9396 22.5401 -6.7994 22.8748 0.5721
# 2 34.9396 87.9396 27.7198 -47.5600 53.4360 24.5383
# 3 22.5401 27.7198 62.6209 -22.4306 -3.4369 8.5904
# 4 -6.7994 -47.5600 -22.4306 7.3193 19.0299 16.0762
# 5 22.8748 53.4360 -3.4369 19.0299 45.5939 -15.7666
# 6 0.5721 24.5383 8.5904 16.0762 -15.7666 28.9351
#
#
#
# Elastic Compliance Matrix: (Units=1/GPa)
#
#
# Indices 1 2 3 4 5 6 
#
# 1 0.017827 -0.002071 -0.006361 -0.001230 -0.006293 0.000547
# 2 -0.002071 0.004451 -0.006227 -0.011997 0.002480 0.006131
# 3 -0.006361 -0.006227 0.024293 0.007381 0.008868 -0.001075
# 4 -0.001230 -0.011997 0.007381 0.007049 0.016888 0.013292
# 5 -0.006293 0.002480 0.008868 0.016888 0.013510 -0.006633
# 6 0.000547 0.006131 -0.001075 0.013292 -0.006633 0.018670
#
#
# Mechanical properties :
#
#
# Convention : Reuss Voigt Hill
#
# Bulk Modulus (GPa) = 57.95918 44.08276 51.02097
# Shear Modulus (GPa) = 41.36673 25.77941 33.57307
#
# Velocity S-wave (km/s) = 4.21313 3.32595 3.79555
# Velocity P-wave (km/s) = 6.96689 5.80216 6.41103
#
# Compressibility (1/GPa) = 0.01725352
#
# Stress axis : x y z
#
# Youngs Moduli (GPa) = 56.09422 224.64383 41.16372
#
# Poissons Ratio (x) = 0.46533 0.26183
# Poissons Ratio (y) = 0.11619 0.25633
# Poissons Ratio (z) = 0.35680 1.39885
#
# Static dielectric constant tensor:
#      x y z
#    x 1.871820 0.016960 -0.048180 
#    y 0.016960 1.920600 0.032540 
#    z -0.048180 0.032540 2.058420 
# 
# From -- ./inp_files/454043.got.cif
#   From: 2010.05.17/outbox.cif.g08.bks.cpg/sg2_228_cif.got.tgz:454043.got - 2010.06.03 11:33:40.
