data_PCOD9076277
_publ_section_title
;
Structure prediction by ZEFSAII (Michael W. Deem and Ramdas Pophale) SiO2 
 PCOD9076277
Probable space group: P -1
;
_chemical_formula_sum "Si O2"
_cell_formula_units_Z 14
_cell_length_a 17.582765
_cell_length_b 11.023542
_cell_length_c 14.737906
_cell_angle_alpha 45.017415
_cell_angle_beta 148.673637
_cell_angle_gamma 154.956673
_cell_volume 598.814592
_symmetry_space_group_name_H-M "P -1"
_symmetry_group_IT_number 2
_symmetry_cell_setting 'triclinic'
loop_
_space_group_symop_operation_xyz
x,y,z
-x,-y,-z
loop_
_atom_site_type_symbol
_atom_site_label
_atom_site_fract_x
_atom_site_fract_y
_atom_site_fract_z
Si Si1 0.652236 0.852536 0.716498
Si Si2 0.683840 0.875722 0.931872
Si Si3 0.179890 0.556033 0.931909
Si Si4 0.219405 0.636261 0.283602
Si Si5 0.874992 0.969972 0.702102
Si Si6 0.470810 0.767970 0.297874
Si Si7 0.319871 0.659893 0.819900
O O1 0.563705 0.698177 0.806085
O O2 0.443344 0.783821 0.500062
O O3 0.928055 0.203017 0.834884
O O4 0.722210 0.798536 0.732057
O O5 0.510181 0.718710 0.927152
O O6 0.741435 0.131529 0.834693
O O7 0.928957 0.993493 0.133532
O O8 0.344142 0.708372 0.927204
O O9 0.048290 0.607625 0.805995
O O10 0.338100 0.640092 0.133513
O O11 0.258142 0.566652 0.267918
O O12 0.045597 0.307577 0.708857
O O13 0.673513 0.815407 0.499976
O O14 0.627974 0.098859 0.291149
#
# Coordination Sequence:
#
# PCOD9076277 Si02
#       7
#     2   2   2   2   2   2   2
#     4   9  19  35  56  79  99 128 172 212 248 297
#     4  10  18  33  54  77 102 131 167 211 251 295
#     4  10  18  33  54  77 102 131 167 211 251 295
#     4   9  19  35  56  79  99 128 172 212 248 297
#     4  10  20  34  53  76 102 134 170 208 251 297
#     4  10  20  34  53  76 102 134 170 208 251 297
#     4  10  21  34  51  74 102 136 173 208 245 296
#
# _framework density 23.379524
#
# number of rings (size 3 to 8) (size 9 to 14) (size 15 to 20)
#    0.000    2.286    0.000    3.857    0.000    3.429 
#    0.000    3.571    0.000   13.714    0.000    0.000 
#    0.000    0.000    0.000    0.000    0.000    0.000 
#
# Total GULP energy -78103.583794 kJ/mol
# GULP energy per Si atom -5578.827414 kJ/mol
# Density = 2.332631 g / cm^3
# Si number density = 23.379524 Si / 1000 Ang^3
#
#
#
# Elastic Constant Matrix: (Units=GPa)
#
#
# Indices 1 2 3 4 5 6 
#
# 1 187.8932 25.6798 123.5271 -0.9208 0.0100 44.2561
# 2 25.6798 76.7125 28.2922 -0.1245 -0.6062 -10.2166
# 3 123.5271 28.2922 243.0005 -1.1242 2.9038 0.9148
# 4 -0.9208 -0.1245 -1.1242 25.9492 23.8755 -0.4306
# 5 0.0100 -0.6062 2.9038 23.8755 99.0217 -0.7234
# 6 44.2561 -10.2166 0.9148 -0.4306 -0.7234 32.2594
#
#
#
# Elastic Compliance Matrix: (Units=1/GPa)
#
#
# Indices 1 2 3 4 5 6 
#
# 1 0.017697 -0.006388 -0.008156 -0.000252 0.000069 -0.026072
# 2 -0.006388 0.016571 0.001263 -0.000018 0.000172 0.013980
# 3 -0.008156 0.001263 0.008077 0.000500 -0.000266 0.011361
# 4 -0.000252 -0.000018 0.000500 0.049566 -0.011961 0.000719
# 5 0.000069 0.000172 -0.000266 -0.011961 0.012992 0.000100
# 6 -0.026072 0.013980 0.011361 0.000719 0.000100 0.070884
#
#
# Mechanical properties :
#
#
# Convention : Reuss Voigt Hill
#
# Bulk Modulus (GPa) = 63.35875 95.84492 79.60183
# Shear Modulus (GPa) = 24.08341 53.45322 38.76832
#
# Velocity S-wave (km/s) = 3.21301 4.78674 4.07654
# Velocity P-wave (km/s) = 6.39715 8.46373 7.50194
#
# Compressibility (1/GPa) = 0.01578314
#
# Stress axis : x y z
#
# Youngs Moduli (GPa) = 56.50580 60.34463 123.80775
#
# Poissons Ratio (x) = 0.38550 1.00981
# Poissons Ratio (y) = 0.36098 -0.15640
# Poissons Ratio (z) = 0.46088 -0.07623
#
# Static dielectric constant tensor:
#      x y z
#    x 1.975090 0.011910 0.002160 
#    y 0.011910 2.044840 0.003060 
#    z 0.002160 0.003060 1.825380 
# 
# From -- ./inp_files/308213.got.cif
#   From: 2010.05.17/outbox.cif.g08.bks.cpg/sg2_155_cif.got.tgz:308213.got - 2010.06.03 11:33:40.
