data_PCOD9076575
_publ_section_title
;
Structure prediction by ZEFSAII (Michael W. Deem and Ramdas Pophale) SiO2 
 PCOD9076575
Probable space group: P -1
;
_chemical_formula_sum "Si O2"
_cell_formula_units_Z 16
_cell_length_a 14.374645
_cell_length_b 12.907719
_cell_length_c 12.060167
_cell_angle_alpha 144.822369
_cell_angle_beta 40.965166
_cell_angle_gamma 118.258068
_cell_volume 781.561235
_symmetry_space_group_name_H-M "P -1"
_symmetry_group_IT_number 2
_symmetry_cell_setting 'triclinic'
loop_
_space_group_symop_operation_xyz
x,y,z
-x,-y,-z
loop_
_atom_site_type_symbol
_atom_site_label
_atom_site_fract_x
_atom_site_fract_y
_atom_site_fract_z
Si Si1 0.747199 0.644629 0.055417
Si Si2 0.171185 0.961364 0.353617
Si Si3 0.842294 0.666737 0.415043
Si Si4 0.211648 0.400391 0.341773
Si Si5 0.946364 0.285234 0.407183
Si Si6 0.792274 0.454504 0.067737
Si Si7 0.505115 0.709957 0.153723
Si Si8 0.169086 0.013397 0.664951
O O1 0.703573 0.601182 0.179232
O O2 0.598164 0.749823 0.207296
O O3 0.846191 0.776603 0.095941
O O4 0.844690 0.441089 0.728426
O O5 0.226077 0.107368 0.362933
O O6 0.161549 0.011529 0.536580
O O7 0.253770 0.731676 0.059266
O O8 0.000000 0.000000 0.500000
O O9 0.808880 0.623140 0.531226
O O10 0.782803 0.547784 0.277768
O O11 0.026906 0.603549 0.178860
O O12 0.137498 0.617313 0.545720
O O13 0.113633 0.292501 0.272379
O O14 0.386914 0.311132 0.068105
O O15 0.943657 0.078531 0.260201
O O16 0.337415 0.865320 0.420214
O O17 0.500000 0.500000 0.000000
#
# Coordination Sequence:
#
# PCOD9076575 Si02
#       8
#     2   2   2   2   2   2   2   2
#     4  11  20  36  64  91 119 154 210 246 294 359
#     4  10  19  32  58  88 116 153 200 244 289 352
#     4  10  19  33  55  86 119 153 191 245 303 347
#     4  10  20  38  62  86 126 157 196 251 313 347
#     4  10  20  38  61  89 122 154 195 264 300 348
#     4  10  18  33  57  87 117 153 196 246 293 352
#     4  11  22  41  64  85 120 170 199 246 303 365
#     4  12  21  38  64  92 119 162 207 242 300 365
#
# _framework density 20.471844000000001
#
# number of rings (size 3 to 8) (size 9 to 14) (size 15 to 20)
#    0.000    1.500    6.250    1.125    0.000    0.000 
#    0.000    8.750    0.000    1.500    0.000    0.000 
#    0.000    0.000    0.000    0.000    0.000    0.000 
#
# Total GULP energy -89379.649314 kJ/mol
# GULP energy per Si atom -5586.228082 kJ/mol
# Density = 2.042525 g / cm^3
# Si number density = 20.471844 Si / 1000 Ang^3
#
#
#
# Elastic Constant Matrix: (Units=GPa)
#
#
# Indices 1 2 3 4 5 6 
#
# 1 92.6064 34.7692 13.6516 1.9870 28.6408 -18.6312
# 2 34.7692 124.4737 17.3161 8.4201 30.7854 -18.2403
# 3 13.6516 17.3161 28.3716 1.2375 8.3456 -1.6802
# 4 1.9870 8.4201 1.2375 28.4242 6.2800 5.8375
# 5 28.6408 30.7854 8.3456 6.2800 31.4075 -5.9743
# 6 -18.6312 -18.2403 -1.6802 5.8375 -5.9743 40.4920
#
#
#
# Elastic Compliance Matrix: (Units=1/GPa)
#
#
# Indices 1 2 3 4 5 6 
#
# 1 0.016496 -0.000131 -0.003732 0.000844 -0.013079 0.005325
# 2 -0.000131 0.011574 -0.004033 -0.002071 -0.008987 0.003959
# 3 -0.003732 -0.004033 0.040515 0.001146 -0.004139 -0.002628
# 4 0.000844 -0.002071 0.001146 0.039014 -0.008240 -0.007337
# 5 -0.013079 -0.008987 -0.004139 -0.008240 0.055149 -0.000913
# 6 0.005325 0.003959 -0.002628 -0.007337 -0.000913 0.029744
#
#
# Mechanical properties :
#
#
# Convention : Reuss Voigt Hill
#
# Bulk Modulus (GPa) = 18.94135 41.88061 30.41098
# Shear Modulus (GPa) = 22.13559 32.04572 27.09065
#
# Velocity S-wave (km/s) = 3.29183 3.96075 3.64168
# Velocity P-wave (km/s) = 4.87039 6.43574 5.70699
#
# Compressibility (1/GPa) = 0.05279455
#
# Stress axis : x y z
#
# Youngs Moduli (GPa) = 60.62190 86.39780 24.68201
#
# Poissons Ratio (x) = 0.01129 0.09211
# Poissons Ratio (y) = 0.00792 0.09954
# Poissons Ratio (z) = 0.22623 0.34844
#
# Static dielectric constant tensor:
#      x y z
#    x 1.738550 -0.015080 -0.012990 
#    y -0.015080 1.779450 0.040770 
#    z -0.012990 0.040770 1.765930 
# 
# From -- ./inp_files/223021.got.cif
#   From: 2010.05.17/outbox.cif.g08.bks.cpg/sg2_112_cif.got.tgz:223021.got - 2010.06.03 11:33:40.
