data_PCOD9076182
_publ_section_title
;
Structure prediction by ZEFSAII (Michael W. Deem and Ramdas Pophale) SiO2 
 PCOD9076182
Probable space group: P -1
;
_chemical_formula_sum "Si O2"
_cell_formula_units_Z 16
_cell_length_a 16.891056
_cell_length_b 13.457658
_cell_length_c 12.489297
_cell_angle_alpha 31.481038
_cell_angle_beta 69.653475
_cell_angle_gamma 45.651668
_cell_volume 791.546518
_symmetry_space_group_name_H-M "P -1"
_symmetry_group_IT_number 2
_symmetry_cell_setting 'triclinic'
loop_
_space_group_symop_operation_xyz
x,y,z
-x,-y,-z
loop_
_atom_site_type_symbol
_atom_site_label
_atom_site_fract_x
_atom_site_fract_y
_atom_site_fract_z
Si Si1 0.358132 0.900224 0.055172
Si Si2 0.334985 0.336316 0.719183
Si Si3 0.688059 0.220207 0.610189
Si Si4 0.415556 0.605496 0.097829
Si Si5 0.861259 0.858743 0.640585
Si Si6 0.350258 0.536094 0.975482
Si Si7 0.874957 0.377681 0.256197
Si Si8 0.684079 0.824168 0.739326
O O1 0.529812 0.529382 0.340015
O O2 0.293029 0.986233 0.125538
O O3 0.316097 0.851396 0.018604
O O4 0.332140 0.169243 0.790658
O O5 0.318225 0.591160 0.476620
O O6 0.198079 0.557110 0.660964
O O7 0.500000 0.000000 0.000000
O O8 0.795810 0.021382 0.640569
O O9 0.502730 0.633446 0.987918
O O10 0.540496 0.223585 0.429652
O O11 0.336163 0.654150 0.990640
O O12 0.817855 0.726715 0.742670
O O13 0.030845 0.604194 0.795784
O O14 0.779547 0.151501 0.327940
O O15 0.344973 0.316805 0.181501
O O16 0.734785 0.660669 0.982844
O O17 0.000000 0.000000 0.500000
#
# Coordination Sequence:
#
# PCOD9076182 Si02
#       8
#     2   2   2   2   2   2   2   2
#     4  10  20  33  52  80 120 151 190 239 299 351
#     4  10  22  34  55  83 120 157 188 233 300 360
#     4  10  18  33  51  79 117 151 186 234 292 354
#     4  10  22  36  56  85 120 162 200 252 295 344
#     4  11  21  38  57  87 119 155 195 248 299 356
#     4  10  20  37  57  83 121 155 208 250 293 344
#     4  12  22  37  60  90 122 161 193 244 306 357
#     4  11  21  34  57  85 119 153 196 250 299 351
#
# _framework density 20.213595000000002
#
# number of rings (size 3 to 8) (size 9 to 14) (size 15 to 20)
#    0.000    1.500    5.000    1.500    5.250    0.000 
#    0.000    0.000    0.000    0.750    0.000    4.375 
#    0.000    0.000    0.000    0.000    0.000    0.000 
#
# Total GULP energy -89111.694791 kJ/mol
# GULP energy per Si atom -5569.480924 kJ/mol
# Density = 2.016759 g / cm^3
# Si number density = 20.213595 Si / 1000 Ang^3
#
#
#
# Elastic Constant Matrix: (Units=GPa)
#
#
# Indices 1 2 3 4 5 6 
#
# 1 113.5605 38.5185 27.0082 -10.1999 -22.4235 24.5421
# 2 38.5185 87.1375 16.1111 -10.7215 8.5097 11.3189
# 3 27.0082 16.1111 56.3658 -5.3030 -14.8341 12.2641
# 4 -10.1999 -10.7215 -5.3030 18.8371 3.8031 5.6592
# 5 -22.4235 8.5097 -14.8341 3.8031 35.0961 -5.9590
# 6 24.5421 11.3189 12.2641 5.6592 -5.9590 32.9461
#
#
#
# Elastic Compliance Matrix: (Units=1/GPa)
#
#
# Indices 1 2 3 4 5 6 
#
# 1 0.014805 -0.005440 -0.001051 0.005395 0.008360 -0.008183
# 2 -0.005440 0.017258 -0.003381 0.009365 -0.010814 -0.004183
# 3 -0.001051 -0.003381 0.023088 0.004039 0.008483 -0.005809
# 4 0.005395 0.009365 0.004039 0.070974 -0.008626 -0.022491
# 5 0.008360 -0.010814 0.008483 -0.008626 0.041541 0.003326
# 6 -0.008183 -0.004183 -0.005809 -0.022491 0.003326 0.044513
#
#
# Mechanical properties :
#
#
# Convention : Reuss Voigt Hill
#
# Bulk Modulus (GPa) = 28.24333 46.70437 37.47385
# Shear Modulus (GPa) = 20.51511 29.07094 24.79302
#
# Velocity S-wave (km/s) = 3.18923 3.79646 3.50602
# Velocity P-wave (km/s) = 5.25018 6.50946 5.91343
#
# Compressibility (1/GPa) = 0.03540659
#
# Stress axis : x y z
#
# Youngs Moduli (GPa) = 67.54672 57.94571 43.31319
#
# Poissons Ratio (x) = 0.31520 0.04552
# Poissons Ratio (y) = 0.36743 0.14645
# Poissons Ratio (z) = 0.07098 0.19592
#
# Static dielectric constant tensor:
#      x y z
#    x 1.797920 0.008060 -0.084100 
#    y 0.008060 1.731530 -0.005990 
#    z -0.084100 -0.005990 1.755150 
# 
# From -- ./inp_files/463493.got.cif
#   From: 2010.05.17/outbox.cif.g08.bks.cpg/sg2_232_cif.got.tgz:463493.got - 2010.06.03 11:33:40.
