data_PCOD9076531
_publ_section_title
;
Structure prediction by ZEFSAII (Michael W. Deem and Ramdas Pophale) SiO2 
 PCOD9076531
Probable space group: P -1
;
_chemical_formula_sum "Si O2"
_cell_formula_units_Z 16
_cell_length_a 15.726313
_cell_length_b 7.331796
_cell_length_c 7.327809
_cell_angle_alpha 120.962968
_cell_angle_beta 80.667860
_cell_angle_gamma 125.029686
_cell_volume 582.504780
_symmetry_space_group_name_H-M "P -1"
_symmetry_group_IT_number 2
_symmetry_cell_setting 'triclinic'
loop_
_space_group_symop_operation_xyz
x,y,z
-x,-y,-z
loop_
_atom_site_type_symbol
_atom_site_label
_atom_site_fract_x
_atom_site_fract_y
_atom_site_fract_z
Si Si1 0.437760 0.254316 0.029630
Si Si2 0.611680 0.886479 0.651173
Si Si3 0.146566 0.739278 0.592713
Si Si4 0.012498 0.272588 0.134725
Si Si5 0.744372 0.702500 0.815243
Si Si6 0.794848 0.472873 0.017594
Si Si7 0.207918 0.176436 0.518171
Si Si8 0.619869 0.135165 0.426773
O O1 0.436307 0.022675 0.817807
O O2 0.500000 0.500000 0.000000
O O3 0.467683 0.282821 0.245536
O O4 0.320841 0.186129 0.047027
O O5 0.678856 0.780158 0.506629
O O6 0.566507 0.944257 0.522370
O O7 0.702125 0.173021 0.854266
O O8 0.078429 0.451547 0.380444
O O9 0.264912 0.820561 0.597769
O O10 0.097188 0.760488 0.807188
O O11 0.141707 0.926943 0.544590
O O12 0.087855 0.442303 0.026408
O O13 0.000000 0.000000 0.000000
O O14 0.824586 0.858698 0.700885
O O15 0.656649 0.422629 0.608366
O O16 0.778869 0.629438 0.946143
O O17 0.787685 0.586292 0.268465
#
# Coordination Sequence:
#
# PCOD9076531 Si02
#       8
#     2   2   2   2   2   2   2   2
#     4  11  24  39  61  91 118 147 192 247 295 346
#     4   9  20  38  58  84 117 153 193 233 293 354
#     4  10  20  35  57  86 117 159 192 240 290 335
#     4  11  20  32  61  87 118 154 199 241 284 333
#     4  10  21  37  61  85 111 151 198 233 285 354
#     4  11  19  37  61  84 112 162 195 229 290 342
#     4  10  18  33  57  82 112 150 195 236 282 340
#     4  10  20  40  62  83 117 160 193 233 290 353
#
# _framework density 27.467585
#
# number of rings (size 3 to 8) (size 9 to 14) (size 15 to 20)
#    0.000    1.750    5.000    2.250    0.000    1.000 
#    0.000    3.125    0.000    3.750    0.000    0.000 
#    0.000    0.000    0.000    0.000    0.000    0.000 
#
# Total GULP energy -89651.494985 kJ/mol
# GULP energy per Si atom -5603.218437 kJ/mol
# Density = 2.740507 g / cm^3
# Si number density = 27.467585 Si / 1000 Ang^3
#
#
#
# Elastic Constant Matrix: (Units=GPa)
#
#
# Indices 1 2 3 4 5 6 
#
# 1 50.8416 23.0221 17.9679 -11.1824 -9.8414 -9.8699
# 2 23.0221 124.7910 44.3816 -23.2485 12.0766 -7.9499
# 3 17.9679 44.3816 182.8838 -15.3303 -31.4369 19.7213
# 4 -11.1824 -23.2485 -15.3303 58.1625 -2.6226 5.7356
# 5 -9.8414 12.0766 -31.4369 -2.6226 38.5127 -0.6360
# 6 -9.8699 -7.9499 19.7213 5.7356 -0.6360 35.1225
#
#
#
# Elastic Compliance Matrix: (Units=1/GPa)
#
#
# Indices 1 2 3 4 5 6 
#
# 1 0.025034 -0.004263 -0.000552 0.002705 0.007568 0.006075
# 2 -0.004263 0.011492 -0.003835 0.002116 -0.007629 0.003073
# 3 -0.000552 -0.003835 0.008625 0.001590 0.008112 -0.005979
# 4 0.002705 0.002116 0.001590 0.019368 0.002599 -0.002769
# 5 0.007568 -0.007629 0.008112 0.002599 0.037025 -0.003909
# 6 0.006075 0.003073 -0.005979 -0.002769 -0.003909 0.034613
#
#
# Mechanical properties :
#
#
# Convention : Reuss Voigt Hill
#
# Bulk Modulus (GPa) = 35.90750 58.80663 47.35706
# Shear Modulus (GPa) = 30.72310 44.56921 37.64615
#
# Velocity S-wave (km/s) = 3.34806 4.03253 3.70613
# Velocity P-wave (km/s) = 5.29595 6.56793 5.96594
#
# Compressibility (1/GPa) = 0.02784934
#
# Stress axis : x y z
#
# Youngs Moduli (GPa) = 39.94579 87.01515 115.93680
#
# Poissons Ratio (x) = 0.37096 0.06405
# Poissons Ratio (y) = 0.17030 0.44467
# Poissons Ratio (z) = 0.02207 0.33374
#
# Static dielectric constant tensor:
#      x y z
#    x 2.232210 0.062380 0.009900 
#    y 0.062380 2.174470 -0.021780 
#    z 0.009900 -0.021780 2.097710 
# 
# From -- ./inp_files/212382.got.cif
#   From: 2010.05.17/outbox.cif.g08.bks.cpg/sg2_107_cif.got.tgz:212382.got - 2010.06.03 11:33:40.
