data_PCOD9076878
_publ_section_title
;
Structure prediction by ZEFSAII (Michael W. Deem and Ramdas Pophale) SiO2 
 PCOD9076878
Probable space group: P -1
;
_chemical_formula_sum "Si O2"
_cell_formula_units_Z 14
_cell_length_a 9.517117
_cell_length_b 15.587462
_cell_length_c 13.557231
_cell_angle_alpha 26.097584
_cell_angle_beta 134.377470
_cell_angle_gamma 118.077006
_cell_volume 547.389416
_symmetry_space_group_name_H-M "P -1"
_symmetry_group_IT_number 2
_symmetry_cell_setting 'triclinic'
loop_
_space_group_symop_operation_xyz
x,y,z
-x,-y,-z
loop_
_atom_site_type_symbol
_atom_site_label
_atom_site_fract_x
_atom_site_fract_y
_atom_site_fract_z
Si Si1 0.163780 0.448442 0.042891
Si Si2 0.155409 0.340556 0.607922
Si Si3 0.551149 0.362782 0.065288
Si Si4 0.448744 0.663969 0.535265
Si Si5 0.204764 0.584499 0.215977
Si Si6 0.279472 0.172364 0.058626
Si Si7 0.955811 0.023907 0.124290
O O1 0.209136 0.655088 0.828328
O O2 0.406912 0.261064 0.400471
O O3 0.000000 0.500000 0.000000
O O4 0.039198 0.390451 0.957898
O O5 0.300811 0.394389 0.545392
O O6 0.287013 0.200109 0.914657
O O7 0.951161 0.587539 0.278675
O O8 0.053313 0.202926 0.645187
O O9 0.400586 0.517646 0.740011
O O10 0.487303 0.168961 0.224661
O O11 0.500000 0.500000 0.000000
O O12 0.625888 0.510615 0.695201
O O13 0.219641 0.836208 0.193616
O O14 0.145570 0.822324 0.987394
O O15 0.193755 0.005283 0.231149
#
# Coordination Sequence:
#
# PCOD9076878 Si02
#       7
#     2   2   2   2   2   2   2
#     4   8  18  35  59  83 114 159 196 236 294 348
#     4  10  21  35  60  87 120 154 197 241 300 351
#     4  10  18  33  62  88 110 155 203 236 292 358
#     4   9  20  34  58  88 119 153 194 247 293 348
#     4  10  19  38  61  84 117 158 198 242 298 348
#     4  10  21  37  57  87 120 154 193 247 300 344
#     4  11  21  35  60  89 121 152 199 245 291 356
#
# _framework density 25.575939999999999
#
# number of rings (size 3 to 8) (size 9 to 14) (size 15 to 20)
#    0.857    1.429    0.000    5.143    0.000    0.571 
#    0.000    0.000    6.286    9.429    0.000    0.000 
#    0.000    0.000    0.000    0.000    0.000    0.000 
#
# Total GULP energy -78145.094018 kJ/mol
# GULP energy per Si atom -5581.792430 kJ/mol
# Density = 2.551773 g / cm^3
# Si number density = 25.575940 Si / 1000 Ang^3
#
#
#
# Elastic Constant Matrix: (Units=GPa)
#
#
# Indices 1 2 3 4 5 6 
#
# 1 137.8586 39.6036 9.6656 -5.3145 -1.2911 -13.7244
# 2 39.6036 194.9507 24.6675 -2.3500 -4.0522 16.3897
# 3 9.6656 24.6675 61.6618 6.8404 -2.4773 -1.4895
# 4 -5.3145 -2.3500 6.8404 49.2857 9.0383 -3.6106
# 5 -1.2911 -4.0522 -2.4773 9.0383 27.8264 14.1857
# 6 -13.7244 16.3897 -1.4895 -3.6106 14.1857 46.0578
#
#
#
# Elastic Compliance Matrix: (Units=1/GPa)
#
#
# Indices 1 2 3 4 5 6 
#
# 1 0.008319 -0.001979 -0.000704 0.001676 -0.002595 0.004091
# 2 -0.001979 0.006156 -0.002094 -0.000380 0.002620 -0.003685
# 3 -0.000704 -0.002094 0.017585 -0.002981 0.002079 0.000230
# 4 0.001676 -0.000380 -0.002981 0.023236 -0.010668 0.005645
# 5 -0.002595 0.002620 0.002079 -0.010668 0.048767 -0.017495
# 6 0.004091 -0.003685 0.000230 0.005645 -0.017495 0.030080
#
#
# Mechanical properties :
#
#
# Convention : Reuss Voigt Hill
#
# Bulk Modulus (GPa) = 44.43011 60.26050 52.34531
# Shear Modulus (GPa) = 33.06878 46.00294 39.53586
#
# Velocity S-wave (km/s) = 3.59968 4.24569 3.93596
# Velocity P-wave (km/s) = 5.88952 6.90268 6.41613
#
# Compressibility (1/GPa) = 0.02250726
#
# Stress axis : x y z
#
# Youngs Moduli (GPa) = 120.20496 162.44095 56.86555
#
# Poissons Ratio (x) = 0.32140 0.04002
# Poissons Ratio (y) = 0.23784 0.11909
# Poissons Ratio (z) = 0.08461 0.34018
#
# Static dielectric constant tensor:
#      x y z
#    x 2.039140 0.001940 0.064910 
#    y 0.001940 2.119210 -0.025700 
#    z 0.064910 -0.025700 2.237530 
# 
# From -- ./inp_files/521357.got.cif
#   From: 2010.05.17/outbox.cif.g08.bks.cpg/sg2_261_cif.got.tgz:521357.got - 2010.06.03 11:33:40.
