data_PCOD9076893
_publ_section_title
;
Structure prediction by ZEFSAII (Michael W. Deem and Ramdas Pophale) SiO2 
 PCOD9076893
Probable space group: P -1
;
_chemical_formula_sum "Si O2"
_cell_formula_units_Z 16
_cell_length_a 13.995031
_cell_length_b 14.074096
_cell_length_c 14.306609
_cell_angle_alpha 36.504434
_cell_angle_beta 147.047981
_cell_angle_gamma 152.156359
_cell_volume 694.371318
_symmetry_space_group_name_H-M "P -1"
_symmetry_group_IT_number 2
_symmetry_cell_setting 'triclinic'
loop_
_space_group_symop_operation_xyz
x,y,z
-x,-y,-z
loop_
_atom_site_type_symbol
_atom_site_label
_atom_site_fract_x
_atom_site_fract_y
_atom_site_fract_z
Si Si1 0.386826 0.769189 0.057565
Si Si2 0.842343 0.805972 0.095927
Si Si3 0.256461 0.280177 0.578770
Si Si4 0.667321 0.776782 0.517098
Si Si5 0.896068 0.313135 0.295186
Si Si6 0.705909 0.466625 0.126671
Si Si7 0.956286 0.841145 0.880189
Si Si8 0.279125 0.743266 0.192206
O O1 0.591136 0.764451 0.209759
O O2 0.259010 0.652308 0.143410
O O3 0.228715 0.709634 0.886382
O O4 0.500000 0.000000 0.000000
O O5 0.835879 0.618807 0.203307
O O6 0.569933 0.686166 0.966669
O O7 0.949918 0.937700 0.174955
O O8 0.000000 0.000000 0.000000
O O9 0.439794 0.530761 0.524389
O O10 0.219165 0.193337 0.512413
O O11 0.016479 0.210160 0.474953
O O12 0.811877 0.798724 0.704214
O O13 0.545592 0.879834 0.333766
O O14 0.758619 0.313979 0.265733
O O15 0.121928 0.560542 0.281836
O O16 0.795849 0.640515 0.979098
O O17 0.171711 0.855570 0.017766
#
# Coordination Sequence:
#
# PCOD9076893 Si02
#       8
#     2   2   2   2   2   2   2   2
#     4  11  22  32  51  83 123 155 194 236 276 339
#     4   9  19  36  61  90 116 146 188 244 301 357
#     4   9  18  34  53  80 119 160 197 232 280 332
#     4   9  17  32  57  84 112 156 201 233 271 340
#     4  10  19  34  58  78 108 157 196 236 283 338
#     4   9  19  35  58  90 115 146 199 238 294 360
#     4  10  18  33  63  85 114 155 192 238 294 338
#     4   9  19  34  54  81 116 155 196 231 279 334
#
# _framework density 23.042425000000001
#
# number of rings (size 3 to 8) (size 9 to 14) (size 15 to 20)
#    0.000    2.500    0.000    3.375    1.750    0.500 
#    0.000    0.000    5.500   20.250    0.000   66.500 
#    0.000    0.000    0.000    0.000    0.000    0.000 
#
# Total GULP energy -89235.954187 kJ/mol
# GULP energy per Si atom -5577.247137 kJ/mol
# Density = 2.298998 g / cm^3
# Si number density = 23.042425 Si / 1000 Ang^3
#
#
#
# Elastic Constant Matrix: (Units=GPa)
#
#
# Indices 1 2 3 4 5 6 
#
# 1 96.9431 25.7825 55.8442 8.2908 40.5856 -3.5342
# 2 25.7825 64.1839 20.5965 18.0497 7.8328 8.7984
# 3 55.8442 20.5965 122.6104 13.3204 26.4787 1.0485
# 4 8.2908 18.0497 13.3204 34.2363 2.2604 -1.8449
# 5 40.5856 7.8328 26.4787 2.2604 30.5837 -0.6674
# 6 -3.5342 8.7984 1.0485 -1.8449 -0.6674 40.7313
#
#
#
# Elastic Compliance Matrix: (Units=1/GPa)
#
#
# Indices 1 2 3 4 5 6 
#
# 1 0.028114 -0.006587 -0.005086 0.000894 -0.031207 0.003522
# 2 -0.006587 0.021451 -0.000356 -0.010153 0.004184 -0.005587
# 3 -0.005086 -0.000356 0.011482 -0.002901 -0.002904 -0.000839
# 4 0.000894 -0.010153 -0.002901 0.035597 0.001382 0.003980
# 5 -0.031207 0.004184 -0.002904 0.001382 0.075401 -0.002239
# 6 0.003522 -0.005587 -0.000839 0.003980 -0.002239 0.026229
#
#
# Mechanical properties :
#
#
# Convention : Reuss Voigt Hill
#
# Bulk Modulus (GPa) = 27.03561 54.24267 40.63914
# Shear Modulus (GPa) = 21.30733 33.21121 27.25927
#
# Velocity S-wave (km/s) = 3.04419 3.80057 3.44321
# Velocity P-wave (km/s) = 4.91066 6.54604 5.78641
#
# Compressibility (1/GPa) = 0.03698826
#
# Stress axis : x y z
#
# Youngs Moduli (GPa) = 35.56974 46.61813 87.09479
#
# Poissons Ratio (x) = 0.30707 0.44297
# Poissons Ratio (y) = 0.23429 0.03102
# Poissons Ratio (z) = 0.18091 0.01660
#
# Static dielectric constant tensor:
#      x y z
#    x 1.944480 0.018450 0.007110 
#    y 0.018450 1.982580 -0.078490 
#    z 0.007110 -0.078490 1.910440 
# 
# From -- ./inp_files/534281.got.cif
#   From: 2010.05.17/outbox.cif.g08.bks.cpg/sg2_268_cif.got.tgz:534281.got - 2010.06.03 11:33:40.
