data_PCOD9076665
_publ_section_title
;
Structure prediction by ZEFSAII (Michael W. Deem and Ramdas Pophale) SiO2 
 PCOD9076665
Probable space group: P -1
;
_chemical_formula_sum "Si O2"
_cell_formula_units_Z 16
_cell_length_a 13.879701
_cell_length_b 7.468951
_cell_length_c 11.189880
_cell_angle_alpha 113.895452
_cell_angle_beta 64.987306
_cell_angle_gamma 63.614973
_cell_volume 643.183143
_symmetry_space_group_name_H-M "P -1"
_symmetry_group_IT_number 2
_symmetry_cell_setting 'triclinic'
loop_
_space_group_symop_operation_xyz
x,y,z
-x,-y,-z
loop_
_atom_site_type_symbol
_atom_site_label
_atom_site_fract_x
_atom_site_fract_y
_atom_site_fract_z
Si Si1 0.712542 0.718882 0.688547
Si Si2 0.090321 0.542353 0.716907
Si Si3 0.263819 0.075789 0.030514
Si Si4 0.553534 0.604648 0.606813
Si Si5 0.793452 0.438196 0.955450
Si Si6 0.847029 0.948186 0.354855
Si Si7 0.813151 0.215424 0.659629
Si Si8 0.369772 0.349512 0.651261
O O1 0.851377 0.571076 0.481100
O O2 0.697102 0.909669 0.849031
O O3 0.582495 0.796229 0.689473
O O4 0.743468 0.487879 0.693059
O O5 0.205877 0.545800 0.713601
O O6 0.901407 0.813248 0.873483
O O7 0.126746 0.318379 0.733772
O O8 0.238730 0.311963 0.029858
O O9 0.404919 0.761544 0.811440
O O10 0.707894 0.260488 0.453551
O O11 0.532847 0.642515 0.485987
O O12 0.754469 0.317353 0.850895
O O13 0.694304 0.539089 0.152264
O O14 0.984867 0.183769 0.803746
O O15 0.798400 0.040379 0.545651
O O16 0.000000 0.000000 0.500000
O O17 0.500000 0.000000 0.500000
#
# Coordination Sequence:
#
# PCOD9076665 Si02
#       8
#     2   2   2   2   2   2   2   2
#     4   9  18  33  58  85 115 154 194 229 275 350
#     4  10  22  37  61  84 118 150 192 238 287 336
#     4  10  18  33  58  88 112 149 192 237 284 336
#     4  10  20  36  59  84 117 150 191 237 282 337
#     4   9  18  34  60  83 110 155 196 225 277 340
#     4   9  19  36  58  87 120 142 182 240 301 337
#     4   8  15  31  58  87 113 145 184 234 282 340
#     4  11  22  40  62  82 110 153 208 237 263 344
#
# _framework density 24.876273999999999
#
# number of rings (size 3 to 8) (size 9 to 14) (size 15 to 20)
#    0.000    2.500    1.250    1.500    0.000    2.500 
#    0.000    1.250   11.000    1.500    0.000    0.000 
#    0.000    0.000    0.000    0.000    0.000    0.000 
#
# Total GULP energy -89175.362777 kJ/mol
# GULP energy per Si atom -5573.460174 kJ/mol
# Density = 2.481965 g / cm^3
# Si number density = 24.876274 Si / 1000 Ang^3
#
#
#
# Elastic Constant Matrix: (Units=GPa)
#
#
# Indices 1 2 3 4 5 6 
#
# 1 37.2917 16.0828 9.1563 -11.3167 -0.5461 -4.7579
# 2 16.0828 56.3043 50.8156 -3.1369 -7.5866 -12.1254
# 3 9.1563 50.8156 170.8393 -23.2371 8.3365 -18.4376
# 4 -11.3167 -3.1369 -23.2371 43.2786 -13.7006 0.0559
# 5 -0.5461 -7.5866 8.3365 -13.7006 39.9226 -9.9202
# 6 -4.7579 -12.1254 -18.4376 0.0559 -9.9202 24.8242
#
#
#
# Elastic Compliance Matrix: (Units=1/GPa)
#
#
# Indices 1 2 3 4 5 6 
#
# 1 0.034620 -0.010801 0.003217 0.010832 0.002656 0.004787
# 2 -0.010801 0.032193 -0.008528 -0.001957 0.009881 0.011273
# 3 0.003217 -0.008528 0.009235 0.004815 -0.001147 0.002841
# 4 0.010832 -0.001957 0.004815 0.032229 0.012191 0.009496
# 5 0.002656 0.009881 -0.001147 0.012191 0.036075 0.018872
# 6 0.004787 0.011273 0.002841 0.009496 0.018872 0.056337
#
#
# Mechanical properties :
#
#
# Convention : Reuss Voigt Hill
#
# Bulk Modulus (GPa) = 22.81790 46.28272 34.55031
# Shear Modulus (GPa) = 20.20029 34.16382 27.18205
#
# Velocity S-wave (km/s) = 2.85271 3.70989 3.30917
# Velocity P-wave (km/s) = 4.47695 6.08249 5.34040
#
# Compressibility (1/GPa) = 0.04382524
#
# Stress axis : x y z
#
# Youngs Moduli (GPa) = 28.88477 31.06292 108.28057
#
# Poissons Ratio (x) = 0.33550 -0.34838
# Poissons Ratio (y) = 0.31197 0.92346
# Poissons Ratio (z) = -0.09293 0.26492
#
# Static dielectric constant tensor:
#      x y z
#    x 2.109440 0.007200 0.058640 
#    y 0.007200 1.962980 -0.017900 
#    z 0.058640 -0.017900 1.960580 
# 
# From -- ./inp_files/461370.got.cif
#   From: 2010.05.17/outbox.cif.g08.bks.cpg/sg2_231_cif.got.tgz:461370.got - 2010.06.03 11:33:40.
