data_PCOD9076138
_publ_section_title
;
Structure prediction by ZEFSAII (Michael W. Deem and Ramdas Pophale) SiO2 
 PCOD9076138
Probable space group: P -1
;
_chemical_formula_sum "Si O2"
_cell_formula_units_Z 15
_cell_length_a 19.534404
_cell_length_b 11.728525
_cell_length_c 8.140488
_cell_angle_alpha 141.716296
_cell_angle_beta 143.889389
_cell_angle_gamma 39.194822
_cell_volume 628.286713
_symmetry_space_group_name_H-M "P -1"
_symmetry_group_IT_number 2
_symmetry_cell_setting 'triclinic'
loop_
_space_group_symop_operation_xyz
x,y,z
-x,-y,-z
loop_
_atom_site_type_symbol
_atom_site_label
_atom_site_fract_x
_atom_site_fract_y
_atom_site_fract_z
Si Si1 0.644632 0.539626 0.375747
Si Si2 0.753473 0.024864 0.245103
Si Si3 0.349497 0.589631 0.312597
Si Si4 0.315764 0.159741 0.410804
Si Si5 0.024720 0.389826 0.100588
Si Si6 0.632291 0.240471 0.792295
Si Si7 0.000000 0.000000 0.500000
Si Si8 0.784202 0.652262 0.064915
O O1 0.617003 0.691768 0.338592
O O2 0.513275 0.612282 0.299833
O O3 0.742154 0.580094 0.729184
O O4 0.696401 0.316361 0.151717
O O5 0.696615 0.251001 0.449849
O O6 0.892439 0.967064 0.375845
O O7 0.678645 0.966572 0.888442
O O8 0.750930 0.884394 0.234526
O O9 0.500000 0.500000 0.500000
O O10 0.310168 0.712373 0.206758
O O11 0.290812 0.422734 0.033029
O O12 0.172247 0.305412 0.330261
O O13 0.359785 0.983769 0.429790
O O14 0.000000 0.500000 0.000000
O O15 0.933926 0.539137 0.226461
O O16 0.989592 0.197649 0.806078
#
# Coordination Sequence:
#
# PCOD9076138 Si02
#       8
#     2   2   2   2   2   2   1   2
#     4  10  21  40  64  85 124 160 211 255 302 364
#     4  10  22  37  66  95 118 157 209 259 306 358
#     4  12  25  41  61  89 131 167 205 252 311 376
#     4  10  22  38  64  97 118 156 208 262 306 359
#     4  11  19  34  65  98 117 151 209 263 304 350
#     4  11  24  39  58  90 125 168 200 251 313 367
#     4  10  18  32  64  94 114 152 200 264 292 348
#     4  11  21  41  63  96 121 159 214 256 301 368
#
# _framework density 23.874451000000001
#
# number of rings (size 3 to 8) (size 9 to 14) (size 15 to 20)
#    0.000    1.333    6.667    1.200    3.733    1.600 
#    0.000    0.667    0.000    1.600    0.000    0.000 
#    0.000    0.000    0.000    0.000    0.000    0.000 
#
# Total GULP energy -83610.506787 kJ/mol
# GULP energy per Si atom -5574.033786 kJ/mol
# Density = 2.382011 g / cm^3
# Si number density = 23.874451 Si / 1000 Ang^3
#
#
#
# Elastic Constant Matrix: (Units=GPa)
#
#
# Indices 1 2 3 4 5 6 
#
# 1 123.9064 35.6156 5.5368 1.2675 28.9465 15.2863
# 2 35.6156 81.9981 9.5052 16.0450 12.2754 5.4333
# 3 5.5368 9.5052 48.0165 15.7303 11.5126 2.1508
# 4 1.2675 16.0450 15.7303 30.6735 11.4807 13.5867
# 5 28.9465 12.2754 11.5126 11.4807 39.8716 9.3236
# 6 15.2863 5.4333 2.1508 13.5867 9.3236 38.1703
#
#
#
# Elastic Compliance Matrix: (Units=1/GPa)
#
#
# Indices 1 2 3 4 5 6 
#
# 1 0.011942 -0.005088 -0.000754 0.007663 -0.007970 -0.004796
# 2 -0.005088 0.015996 0.000370 -0.010033 0.000824 0.003110
# 3 -0.000754 0.000370 0.026288 -0.014224 -0.004197 0.004856
# 4 0.007663 -0.010033 -0.014224 0.056953 -0.010425 -0.018565
# 5 -0.007970 0.000824 -0.004197 -0.010425 0.035195 -0.001575
# 6 -0.004796 0.003110 0.004856 -0.018565 -0.001575 0.034396
#
#
# Mechanical properties :
#
#
# Convention : Reuss Voigt Hill
#
# Bulk Modulus (GPa) = 23.10399 39.47068 31.28734
# Shear Modulus (GPa) = 24.25508 35.29396 29.77452
#
# Velocity S-wave (km/s) = 3.19084 3.84906 3.53530
# Velocity P-wave (km/s) = 4.82427 6.02679 5.45874
#
# Compressibility (1/GPa) = 0.04328257
#
# Stress axis : x y z
#
# Youngs Moduli (GPa) = 83.73682 62.51479 38.03946
#
# Poissons Ratio (x) = 0.31807 0.02869
# Poissons Ratio (y) = 0.42605 -0.01408
# Poissons Ratio (z) = 0.06316 -0.02313
#
# Static dielectric constant tensor:
#      x y z
#    x 1.957080 0.070980 -0.030000 
#    y 0.070980 1.962020 -0.059780 
#    z -0.030000 -0.059780 1.959270 
# 
# From -- ./inp_files/284766.got.cif
#   From: 2010.05.17/outbox.cif.g08.bks.cpg/sg2_143_cif.got.tgz:284766.got - 2010.06.03 11:33:40.
