data_PCOD9076730
_publ_section_title
;
Structure prediction by ZEFSAII (Michael W. Deem and Ramdas Pophale) SiO2 
 PCOD9076730
Probable space group: P -1
;
_chemical_formula_sum "Si O2"
_cell_formula_units_Z 16
_cell_length_a 21.412891
_cell_length_b 13.870058
_cell_length_c 11.876036
_cell_angle_alpha 40.395315
_cell_angle_beta 26.892706
_cell_angle_gamma 25.409901
_cell_volume 666.763241
_symmetry_space_group_name_H-M "P -1"
_symmetry_group_IT_number 2
_symmetry_cell_setting 'triclinic'
loop_
_space_group_symop_operation_xyz
x,y,z
-x,-y,-z
loop_
_atom_site_type_symbol
_atom_site_label
_atom_site_fract_x
_atom_site_fract_y
_atom_site_fract_z
Si Si1 0.531225 0.052466 0.785022
Si Si2 0.376244 0.468919 0.291223
Si Si3 0.454950 0.593441 0.266584
Si Si4 0.222499 0.430270 0.258390
Si Si5 0.007482 0.053890 0.567830
Si Si6 0.235920 0.005319 0.853625
Si Si7 0.077896 0.499842 0.176088
Si Si8 0.238036 0.868296 0.726088
O O1 0.695816 0.053173 0.530994
O O2 0.634015 0.838854 0.733111
O O3 0.287898 0.308080 0.930955
O O4 0.500000 0.000000 0.000000
O O5 0.371337 0.535295 0.368118
O O6 0.136301 0.679427 0.443511
O O7 0.529702 0.198203 0.282903
O O8 0.500000 0.500000 0.000000
O O9 0.584831 0.406221 0.322582
O O10 0.252815 0.861631 0.381234
O O11 0.631449 0.551539 0.960608
O O12 0.146228 0.519517 0.170767
O O13 0.032570 0.552520 0.541402
O O14 0.902281 0.010553 0.850477
O O15 0.000000 0.000000 0.500000
O O16 0.094940 0.267710 0.827061
O O17 0.272749 0.917883 0.746254
O O18 0.000000 0.000000 0.000000
#
# Coordination Sequence:
#
# PCOD9076730 Si02
#       8
#     2   2   2   2   2   2   2   2
#     4  10  22  38  56  79 120 176 203 234 299 350
#     4   8  17  34  55  84 112 146 189 259 317 355
#     4  10  20  33  59  88 114 155 201 254 302 358
#     4  10  21  38  56  85 128 161 203 246 295 361
#     4   9  18  35  56  83 113 146 196 260 314 355
#     4  10  18  33  59  86 111 159 197 241 308 360
#     4  10  20  36  60  79 122 171 199 232 298 364
#     4  11  22  35  56  91 129 154 209 254 285 363
#
# _framework density 23.996524999999998
#
# number of rings (size 3 to 8) (size 9 to 14) (size 15 to 20)
#    0.000    2.250    1.250    1.500    3.500    2.000 
#    4.500    4.375    0.000    7.500    0.000    0.000 
#    0.000    0.000    0.000    0.000    0.000    0.000 
#
# Total GULP energy -89196.644689 kJ/mol
# GULP energy per Si atom -5574.790293 kJ/mol
# Density = 2.394191 g / cm^3
# Si number density = 23.996525 Si / 1000 Ang^3
#
#
#
# Elastic Constant Matrix: (Units=GPa)
#
#
# Indices 1 2 3 4 5 6 
#
# 1 54.6311 11.8765 8.9541 -1.3855 5.8022 4.3166
# 2 11.8765 204.7047 39.4003 20.8458 -6.6061 -37.0519
# 3 8.9541 39.4003 113.6717 -1.4429 2.8391 -10.6546
# 4 -1.3855 20.8458 -1.4429 37.7228 -0.9819 3.0409
# 5 5.8022 -6.6061 2.8391 -0.9819 21.7761 -4.4588
# 6 4.3166 -37.0519 -10.6546 3.0409 -4.4588 18.7532
#
#
#
# Elastic Compliance Matrix: (Units=1/GPa)
#
#
# Indices 1 2 3 4 5 6 
#
# 1 0.022881 -0.005846 -0.001409 0.005427 -0.011804 -0.021304
# 2 -0.005846 0.011719 -0.001385 -0.008696 0.010559 0.027633
# 3 -0.001409 -0.001385 0.009677 0.000842 -0.000699 0.002783
# 4 0.005427 -0.008696 0.000842 0.033376 -0.007855 -0.025232
# 5 -0.011804 0.010559 -0.000699 -0.007855 0.059932 0.038705
# 6 -0.021304 0.027633 0.002783 -0.025232 0.038705 0.127698
#
#
# Mechanical properties :
#
#
# Convention : Reuss Voigt Hill
#
# Bulk Modulus (GPa) = 37.04248 54.82992 45.93620
# Shear Modulus (GPa) = 17.14895 36.50220 26.82558
#
# Velocity S-wave (km/s) = 2.67618 3.90442 3.34712
# Velocity P-wave (km/s) = 5.00194 6.57455 5.84141
#
# Compressibility (1/GPa) = 0.02699603
#
# Stress axis : x y z
#
# Youngs Moduli (GPa) = 43.70451 85.33324 103.33286
#
# Poissons Ratio (x) = 0.49884 0.14562
# Poissons Ratio (y) = 0.25549 0.14317
# Poissons Ratio (z) = 0.06159 0.11823
#
# Static dielectric constant tensor:
#      x y z
#    x 1.944340 -0.009450 0.007880 
#    y -0.009450 2.099070 0.079490 
#    z 0.007880 0.079490 1.934630 
# 
# From -- ./inp_files/332200.got.cif
#   From: 2010.05.17/outbox.cif.g08.bks.cpg/sg2_167_cif.got.tgz:332200.got - 2010.06.03 11:33:40.
