data_PCOD9076901
_publ_section_title
;
Structure prediction by ZEFSAII (Michael W. Deem and Ramdas Pophale) SiO2 
 PCOD9076901
Probable space group: P -1
;
_chemical_formula_sum "Si O2"
_cell_formula_units_Z 16
_cell_length_a 20.352702
_cell_length_b 9.107471
_cell_length_c 5.228326
_cell_angle_alpha 80.669909
_cell_angle_beta 69.323982
_cell_angle_gamma 122.127369
_cell_volume 688.935957
_symmetry_space_group_name_H-M "P -1"
_symmetry_group_IT_number 2
_symmetry_cell_setting 'triclinic'
loop_
_space_group_symop_operation_xyz
x,y,z
-x,-y,-z
loop_
_atom_site_type_symbol
_atom_site_label
_atom_site_fract_x
_atom_site_fract_y
_atom_site_fract_z
Si Si1 0.797255 0.102835 0.750417
Si Si2 0.079506 0.135131 0.558688
Si Si3 0.770621 0.406687 0.240691
Si Si4 0.460070 0.827736 0.814407
Si Si5 0.368077 0.975621 0.195539
Si Si6 0.929602 0.548093 0.294714
Si Si7 0.728353 0.516769 0.787200
Si Si8 0.880550 0.094361 0.134496
O O1 0.690808 0.007269 0.925442
O O2 0.869736 0.339747 0.571399
O O3 0.817071 0.050539 0.469746
O O4 0.826749 0.039627 0.962071
O O5 0.073175 0.300430 0.589108
O O6 0.187488 0.267336 0.298047
O O7 0.076781 0.009198 0.825581
O O8 0.000000 0.000000 0.500000
O O9 0.710790 0.184563 0.460968
O O10 0.875133 0.514260 0.120375
O O11 0.744067 0.496176 0.470411
O O12 0.747048 0.405262 0.984230
O O13 0.500000 0.000000 0.500000
O O14 0.544124 0.852724 0.817257
O O15 0.409213 0.878470 0.051677
O O16 0.376939 0.597561 0.958093
O O17 0.035904 0.675142 0.057980
#
# Coordination Sequence:
#
# PCOD9076901 Si02
#       8
#     2   2   2   2   2   2   2   2
#     4  11  26  42  65  94 136 172 212 269 333 391
#     4  11  24  43  68  95 133 177 224 267 314 380
#     4   9  18  32  54  87 121 152 193 259 315 362
#     4  10  18  33  63  94 125 151 214 277 327 367
#     4   9  20  34  56  92 127 160 198 264 336 380
#     4  10  22  41  66  93 126 172 229 272 311 371
#     4  10  20  34  55  89 121 155 199 260 317 364
#     4  12  25  42  62  94 133 179 217 261 327 393
#
# _framework density 23.224219999999999
#
# number of rings (size 3 to 8) (size 9 to 14) (size 15 to 20)
#    0.000    1.750    1.250    3.375    1.750   10.000 
#    0.000    0.000    0.000    1.500    0.000    0.000 
#    0.000    0.000    0.000    0.000    0.000    0.000 
#
# Total GULP energy -89125.090174 kJ/mol
# GULP energy per Si atom -5570.318136 kJ/mol
# Density = 2.317136 g / cm^3
# Si number density = 23.224220 Si / 1000 Ang^3
#
#
#
# Elastic Constant Matrix: (Units=GPa)
#
#
# Indices 1 2 3 4 5 6 
#
# 1 160.5877 29.0624 39.4422 -6.4071 0.2407 34.7723
# 2 29.0624 57.0375 16.2399 -6.6351 -1.9819 8.7562
# 3 39.4422 16.2399 73.2875 -4.0175 6.6027 13.1156
# 4 -6.4071 -6.6351 -4.0175 34.2339 9.2855 -10.5808
# 5 0.2407 -1.9819 6.6027 9.2855 41.7933 -12.2737
# 6 34.7723 8.7562 13.1156 -10.5808 -12.2737 49.5471
#
#
#
# Elastic Compliance Matrix: (Units=1/GPa)
#
#
# Indices 1 2 3 4 5 6 
#
# 1 0.008560 -0.002829 -0.003001 -0.000584 -0.001079 -0.005105
# 2 -0.002829 0.020145 -0.002854 0.002819 0.000790 -0.000022
# 3 -0.003001 -0.002854 0.016740 0.001087 -0.003743 -0.002515
# 4 -0.000584 0.002819 0.001087 0.032970 -0.005827 0.005221
# 5 -0.001079 0.000790 -0.003743 -0.005827 0.028001 0.007300
# 6 -0.005105 -0.000022 -0.002515 0.005221 0.007300 0.027358
#
#
# Mechanical properties :
#
#
# Convention : Reuss Voigt Hill
#
# Bulk Modulus (GPa) = 35.61761 51.15575 43.38668
# Shear Modulus (GPa) = 31.15253 38.85940 35.00596
#
# Velocity S-wave (km/s) = 3.66646 4.09495 3.88661
# Velocity P-wave (km/s) = 5.77006 6.66580 6.23404
#
# Compressibility (1/GPa) = 0.02807600
#
# Stress axis : x y z
#
# Youngs Moduli (GPa) = 116.82401 49.63994 59.73862
#
# Poissons Ratio (x) = 0.14042 0.17929
# Poissons Ratio (y) = 0.33046 0.17052
# Poissons Ratio (z) = 0.35061 0.14169
#
# Static dielectric constant tensor:
#      x y z
#    x 1.992310 0.026370 -0.051190 
#    y 0.026370 1.995690 -0.034830 
#    z -0.051190 -0.034830 1.986810 
# 
# From -- ./inp_files/106491.got.cif
#   From: 2010.05.17/outbox.cif.g08.bks.cpg/sg2_54_cif.got.tgz:106491.got - 2010.06.03 11:33:40.
