data_PCOD9076380
_publ_section_title
;
Structure prediction by ZEFSAII (Michael W. Deem and Ramdas Pophale) SiO2 
 PCOD9076380
Probable space group: P -1
;
_chemical_formula_sum "Si O2"
_cell_formula_units_Z 14
_cell_length_a 10.365961
_cell_length_b 11.047709
_cell_length_c 8.124017
_cell_angle_alpha 110.560891
_cell_angle_beta 86.972495
_cell_angle_gamma 127.562402
_cell_volume 674.009728
_symmetry_space_group_name_H-M "P -1"
_symmetry_group_IT_number 2
_symmetry_cell_setting 'triclinic'
loop_
_space_group_symop_operation_xyz
x,y,z
-x,-y,-z
loop_
_atom_site_type_symbol
_atom_site_label
_atom_site_fract_x
_atom_site_fract_y
_atom_site_fract_z
Si Si1 0.251641 0.355716 0.911471
Si Si2 0.502307 0.681970 0.245095
Si Si3 0.904293 0.147728 0.702442
Si Si4 0.593180 0.239768 0.223447
Si Si5 0.674871 0.768030 0.610581
Si Si6 0.811615 0.600204 0.421744
Si Si7 0.408307 0.880758 0.193667
O O1 0.341915 0.274600 0.852245
O O2 0.283292 0.434805 0.764194
O O3 0.052179 0.231914 0.868883
O O4 0.343500 0.501865 0.106149
O O5 0.542300 0.679366 0.429281
O O6 0.474269 0.814815 0.281495
O O7 0.763317 0.161790 0.760045
O O8 0.000314 0.250213 0.577915
O O9 0.817426 0.953199 0.618448
O O10 0.428230 0.227638 0.237224
O O11 0.749987 0.417016 0.373010
O O12 0.540312 0.079009 0.250930
O O13 0.621947 0.210332 0.021935
O O14 0.750691 0.674193 0.582758
#
# Coordination Sequence:
#
# PCOD9076380 Si02
#       7
#     2   2   2   2   2   2   2
#     4   8  18  32  56  83 102 137 184 225 255 312
#     4  10  18  33  55  85 107 137 183 227 263 310
#     4   9  19  34  57  86 102 141 187 222 261 316
#     4  10  20  33  51  83 111 145 177 214 271 331
#     4  10  20  33  59  84 107 137 182 233 265 309
#     4   9  17  33  56  81 102 138 184 226 252 316
#     4  10  20  35  57  79 110 146 181 218 262 332
#
# _framework density 20.771211999999998
#
# number of rings (size 3 to 8) (size 9 to 14) (size 15 to 20)
#    0.857    1.714    1.429    0.857    0.000    4.571 
#    0.000    0.000    0.000   18.857    7.429    0.000 
#    0.000    0.000    0.000    0.000    0.000    0.000 
#
# Total GULP energy -78003.252421 kJ/mol
# GULP energy per Si atom -5571.660887 kJ/mol
# Density = 2.072394 g / cm^3
# Si number density = 20.771212 Si / 1000 Ang^3
#
#
#
# Elastic Constant Matrix: (Units=GPa)
#
#
# Indices 1 2 3 4 5 6 
#
# 1 67.3727 33.5352 11.3400 3.9113 -17.7153 -2.9011
# 2 33.5352 91.1626 7.4166 19.6825 -26.9736 13.9592
# 3 11.3400 7.4166 27.2503 7.4827 -17.3421 -8.5119
# 4 3.9113 19.6825 7.4827 24.6822 -3.9679 -2.5378
# 5 -17.7153 -26.9736 -17.3421 -3.9679 32.4366 7.9051
# 6 -2.9011 13.9592 -8.5119 -2.5378 7.9051 15.9228
#
#
#
# Elastic Compliance Matrix: (Units=1/GPa)
#
#
# Indices 1 2 3 4 5 6 
#
# 1 0.021640 -0.015012 -0.006968 0.011380 -0.007623 0.018977
# 2 -0.015012 0.054329 0.017482 -0.044629 0.059837 -0.077839
# 3 -0.006968 0.017482 0.069683 -0.027206 0.046283 -0.006659
# 4 0.011380 -0.044629 -0.027206 0.080977 -0.051397 0.065078
# 5 -0.007623 0.059837 0.046283 -0.051397 0.118284 -0.096021
# 6 0.018977 -0.077839 -0.006659 0.065078 -0.096021 0.188983
#
#
# Mechanical properties :
#
#
# Convention : Reuss Voigt Hill
#
# Bulk Modulus (GPa) = 7.31765 32.26324 19.79044
# Shear Modulus (GPa) = 8.49698 23.50793 16.00245
#
# Velocity S-wave (km/s) = 2.02475 3.36781 2.77865
# Velocity P-wave (km/s) = 2.99947 5.53978 4.45455
#
# Compressibility (1/GPa) = 0.13665595
#
# Stress axis : x y z
#
# Youngs Moduli (GPa) = 46.21067 18.40638 14.35063
#
# Poissons Ratio (x) = 0.27632 0.10000
# Poissons Ratio (y) = 0.69372 -0.25088
# Poissons Ratio (z) = 0.32201 -0.32178
#
# Static dielectric constant tensor:
#      x y z
#    x 1.751660 -0.005470 -0.021340 
#    y -0.005470 1.791650 0.006870 
#    z -0.021340 0.006870 1.760260 
# 
# From -- ./inp_files/254931.got.cif
#   From: 2010.05.17/outbox.cif.g08.bks.cpg/sg2_128_cif.got.tgz:254931.got - 2010.06.03 11:33:40.
