data_PCOD9076193
_publ_section_title
;
Structure prediction by ZEFSAII (Michael W. Deem and Ramdas Pophale) SiO2 
 PCOD9076193
Probable space group: P -1
;
_chemical_formula_sum "Si O2"
_cell_formula_units_Z 16
_cell_length_a 6.674542
_cell_length_b 8.281800
_cell_length_c 21.674680
_cell_angle_alpha 44.038098
_cell_angle_beta 68.171522
_cell_angle_gamma 52.929938
_cell_volume 660.435357
_symmetry_space_group_name_H-M "P -1"
_symmetry_group_IT_number 2
_symmetry_cell_setting 'triclinic'
loop_
_space_group_symop_operation_xyz
x,y,z
-x,-y,-z
loop_
_atom_site_type_symbol
_atom_site_label
_atom_site_fract_x
_atom_site_fract_y
_atom_site_fract_z
Si Si1 0.690041 0.967808 0.071396
Si Si2 0.467797 0.426217 0.808615
Si Si3 0.147839 0.666655 0.006582
Si Si4 0.978840 0.774710 0.856099
Si Si5 0.245798 0.922193 0.613314
Si Si6 0.991029 0.632592 0.246582
Si Si7 0.072853 0.753551 0.326814
Si Si8 0.236349 0.175192 0.425169
O O1 0.492111 0.873886 0.106645
O O2 0.820374 0.785236 0.167212
O O3 0.648388 0.262643 0.009903
O O4 0.898047 0.849006 0.026535
O O5 0.350371 0.615291 0.708800
O O6 0.734603 0.407597 0.790662
O O7 0.240645 0.605394 0.833693
O O8 0.072490 0.757712 0.919720
O O9 0.180105 0.373027 0.089984
O O10 0.816219 0.071163 0.762111
O O11 0.475007 0.975347 0.587289
O O12 0.184398 0.002014 0.526933
O O13 0.026798 0.126180 0.628295
O O14 0.885399 0.804011 0.275694
O O15 0.061372 0.332848 0.343398
O O16 0.216495 0.429493 0.397458
#
# Coordination Sequence:
#
# PCOD9076193 Si02
#       8
#     2   2   2   2   2   2   2   2
#     4  10  18  33  52  74  99 138 169 212 265 306
#     4   9  19  32  53  73 104 136 170 210 260 306
#     4   9  17  30  53  72  98 133 174 212 261 308
#     4   9  16  31  52  73  97 138 169 213 262 301
#     4   9  15  29  49  79 104 131 174 211 249 302
#     4   9  18  32  50  74 101 137 168 206 254 311
#     4   9  16  27  51  74 101 138 170 209 256 307
#     4   8  16  27  49  80 101 133 173 209 248 312
#
# _framework density 24.226444999999998
#
# number of rings (size 3 to 8) (size 9 to 14) (size 15 to 20)
#    0.750    2.250    1.250    0.375    0.000    0.000 
#    0.000    6.875    8.250    0.000    0.000    5.250 
#    0.000    0.000    0.000    0.000    0.000    0.000 
#
# Total GULP energy -89130.512210 kJ/mol
# GULP energy per Si atom -5570.657013 kJ/mol
# Density = 2.417130 g / cm^3
# Si number density = 24.226445 Si / 1000 Ang^3
#
#
#
# Elastic Constant Matrix: (Units=GPa)
#
#
# Indices 1 2 3 4 5 6 
#
# 1 40.0868 -0.0416 14.4870 -2.1389 -8.5899 3.7257
# 2 -0.0416 58.5167 17.0182 -11.4291 -17.1813 5.6516
# 3 14.4870 17.0182 141.0073 -2.2375 -11.8593 11.0664
# 4 -2.1389 -11.4291 -2.2375 44.4118 4.6694 -7.9636
# 5 -8.5899 -17.1813 -11.8593 4.6694 50.5276 -6.6155
# 6 3.7257 5.6516 11.0664 -7.9636 -6.6155 18.7377
#
#
#
# Elastic Compliance Matrix: (Units=1/GPa)
#
#
# Indices 1 2 3 4 5 6 
#
# 1 0.027094 0.002473 -0.002481 0.000860 0.004427 -0.002740
# 2 0.002473 0.020531 -0.002020 0.004385 0.006340 -0.001389
# 3 -0.002481 -0.002020 0.007906 -0.000968 0.000331 -0.003861
# 4 0.000860 0.004385 -0.000968 0.025392 0.000373 0.010001
# 5 0.004427 0.006340 0.000331 0.000373 0.023457 0.005452
# 6 -0.002740 -0.001389 -0.003861 0.010001 0.005452 0.062788
#
#
# Mechanical properties :
#
#
# Convention : Reuss Voigt Hill
#
# Bulk Modulus (GPa) = 19.42718 33.61534 26.52126
# Shear Modulus (GPa) = 26.54184 36.61191 31.57688
#
# Velocity S-wave (km/s) = 3.31354 3.89168 3.61419
# Velocity P-wave (km/s) = 4.76191 5.83945 5.32799
#
# Compressibility (1/GPa) = 0.05147428
#
# Stress axis : x y z
#
# Youngs Moduli (GPa) = 36.90841 48.70776 126.48548
#
# Poissons Ratio (x) = -0.12045 0.31383
# Poissons Ratio (y) = -0.09127 0.25551
# Poissons Ratio (z) = 0.09158 0.09839
#
# Static dielectric constant tensor:
#      x y z
#    x 1.959920 0.041740 -0.035290 
#    y 0.041740 2.015370 -0.030430 
#    z -0.035290 -0.030430 1.941780 
# 
# From -- ./inp_files/587223.got.cif
#   From: 2010.05.17/outbox.cif.g08.bks.cpg/sg2_294_cif.got.tgz:587223.got - 2010.06.03 11:33:40.
