data_PCOD9076873
_publ_section_title
;
Structure prediction by ZEFSAII (Michael W. Deem and Ramdas Pophale) SiO2 
 PCOD9076873
Probable space group: P -1
;
_chemical_formula_sum "Si O2"
_cell_formula_units_Z 16
_cell_length_a 5.179939
_cell_length_b 15.842868
_cell_length_c 8.472468
_cell_angle_alpha 91.141269
_cell_angle_beta 103.009564
_cell_angle_gamma 71.095284
_cell_volume 639.843979
_symmetry_space_group_name_H-M "P -1"
_symmetry_group_IT_number 2
_symmetry_cell_setting 'triclinic'
loop_
_space_group_symop_operation_xyz
x,y,z
-x,-y,-z
loop_
_atom_site_type_symbol
_atom_site_label
_atom_site_fract_x
_atom_site_fract_y
_atom_site_fract_z
Si Si1 0.767645 0.645572 0.060932
Si Si2 0.279323 0.979717 0.647168
Si Si3 0.492370 0.817757 0.886679
Si Si4 0.403253 0.336649 0.626407
Si Si5 0.775209 0.401053 0.438141
Si Si6 0.360887 0.496188 0.149897
Si Si7 0.682164 0.852094 0.441144
Si Si8 0.006096 0.757355 0.740109
O O1 0.575427 0.642950 0.185232
O O2 0.080109 0.580195 0.136152
O O3 0.712731 0.752098 0.038636
O O4 0.709117 0.596588 0.893003
O O5 0.348668 0.921535 0.817149
O O6 0.499942 0.918615 0.551036
O O7 0.306150 0.077341 0.687760
O O8 0.000000 0.000000 0.500000
O O9 0.220496 0.787872 0.873437
O O10 0.696454 0.778711 0.764498
O O11 0.623182 0.352343 0.534666
O O12 0.413485 0.232494 0.613956
O O13 0.080772 0.396062 0.540894
O O14 0.543021 0.486210 0.333638
O O15 0.863347 0.344538 0.286371
O O16 0.500000 0.500000 0.000000
O O17 0.977068 0.808960 0.570922
#
# Coordination Sequence:
#
# PCOD9076873 Si02
#       8
#     2   2   2   2   2   2   2   2
#     4  11  27  45  65  98 136 176 219 276 335 400
#     4  10  18  33  61  97 125 164 226 275 312 383
#     4  11  21  36  63  92 128 171 215 267 328 379
#     4  11  27  43  67 100 138 178 215 270 341 391
#     4  11  23  43  70  96 132 175 221 269 328 393
#     4  11  26  45  73  98 130 173 230 276 324 396
#     4   9  20  34  58  94 133 161 215 274 320 381
#     4  10  18  34  61  94 122 162 218 265 312 379
#
# _framework density 25.006094000000001
#
# number of rings (size 3 to 8) (size 9 to 14) (size 15 to 20)
#    0.000    1.500    2.500    3.000    7.000    1.000 
#    0.000    0.625    0.000    0.750    0.000    0.000 
#    0.000    0.000    0.000    0.000    0.000    0.000 
#
# Total GULP energy -89077.014571 kJ/mol
# GULP energy per Si atom -5567.313411 kJ/mol
# Density = 2.494918 g / cm^3
# Si number density = 25.006094 Si / 1000 Ang^3
#
#
#
# Elastic Constant Matrix: (Units=GPa)
#
#
# Indices 1 2 3 4 5 6 
#
# 1 93.4414 23.4896 20.9262 -4.7674 -3.6501 -7.7930
# 2 23.4896 122.4218 34.9957 -27.2454 -1.3115 0.1290
# 3 20.9262 34.9957 62.7924 -16.5765 -12.5253 -3.0860
# 4 -4.7674 -27.2454 -16.5765 43.4940 3.5175 3.3192
# 5 -3.6501 -1.3115 -12.5253 3.5175 38.4364 -10.9064
# 6 -7.7930 0.1290 -3.0860 3.3192 -10.9064 31.7060
#
#
#
# Elastic Compliance Matrix: (Units=1/GPa)
#
#
# Indices 1 2 3 4 5 6 
#
# 1 0.012054 -0.001721 -0.003003 -0.001236 0.001127 0.003195
# 2 -0.001721 0.011015 -0.004788 0.005267 -0.002495 -0.002343
# 3 -0.003003 -0.004788 0.022405 0.004333 0.007471 0.003579
# 4 -0.001236 0.005267 0.004333 0.028254 -0.002131 -0.003594
# 5 0.001127 -0.002495 0.007471 -0.002131 0.032159 0.012300
# 6 0.003195 -0.002343 0.003579 -0.003594 0.012300 0.037290
#
#
# Mechanical properties :
#
#
# Convention : Reuss Voigt Hill
#
# Bulk Modulus (GPa) = 37.80491 48.60873 43.20682
# Shear Modulus (GPa) = 29.23686 36.01023 32.62354
#
# Velocity S-wave (km/s) = 3.42305 3.79893 3.61588
# Velocity P-wave (km/s) = 5.54744 6.22281 5.89481
#
# Compressibility (1/GPa) = 0.02645159
#
# Stress axis : x y z
#
# Youngs Moduli (GPa) = 82.95763 90.78213 44.63366
#
# Poissons Ratio (x) = 0.15623 0.13401
# Poissons Ratio (y) = 0.14277 0.21370
# Poissons Ratio (z) = 0.24908 0.43465
#
# Static dielectric constant tensor:
#      x y z
#    x 2.103920 0.059120 0.017580 
#    y 0.059120 2.167860 -0.120110 
#    z 0.017580 -0.120110 2.103790 
# 
# From -- ./inp_files/139088.got.cif
#   From: 2010.05.17/outbox.cif.g08.bks.cpg/sg2_70_cif.got.tgz:139088.got - 2010.06.03 11:33:40.
