data_PCOD9076701
_publ_section_title
;
Structure prediction by ZEFSAII (Michael W. Deem and Ramdas Pophale) SiO2 
 PCOD9076701
Probable space group: P -1
;
_chemical_formula_sum "Si O2"
_cell_formula_units_Z 16
_cell_length_a 13.868427
_cell_length_b 8.796502
_cell_length_c 11.397921
_cell_angle_alpha 145.199460
_cell_angle_beta 53.136334
_cell_angle_gamma 120.717236
_cell_volume 634.406458
_symmetry_space_group_name_H-M "P -1"
_symmetry_group_IT_number 2
_symmetry_cell_setting 'triclinic'
loop_
_space_group_symop_operation_xyz
x,y,z
-x,-y,-z
loop_
_atom_site_type_symbol
_atom_site_label
_atom_site_fract_x
_atom_site_fract_y
_atom_site_fract_z
Si Si1 0.680831 0.398804 0.849252
Si Si2 0.901300 0.486084 0.398042
Si Si3 0.325104 0.161871 0.177591
Si Si4 0.036416 0.253416 0.721566
Si Si5 0.526396 0.539571 0.369235
Si Si6 0.116703 0.843352 0.587464
Si Si7 0.774462 0.370825 0.999711
Si Si8 0.559021 0.923219 0.193198
O O1 0.754934 0.277922 0.613179
O O2 0.777145 0.450777 0.913709
O O3 0.572179 0.188526 0.823512
O O4 0.617720 0.676551 0.056062
O O5 0.778634 0.627368 0.613456
O O6 0.899781 0.199980 0.286805
O O7 0.911111 0.533027 0.279446
O O8 0.010925 0.657731 0.487220
O O9 0.450298 0.305969 0.213213
O O10 0.278696 0.932543 0.152123
O O11 0.351155 0.020954 0.945619
O O12 0.910080 0.347751 0.927639
O O13 0.000000 0.000000 0.500000
O O14 0.108521 0.117112 0.691014
O O15 0.500000 0.500000 0.500000
O O16 0.467943 0.814592 0.549174
O O17 0.668451 0.530919 0.238014
#
# Coordination Sequence:
#
# PCOD9076701 Si02
#       8
#     2   2   2   2   2   2   2   2
#     4  11  21  40  66  93 131 170 214 270 333 392
#     4  10  19  33  62  99 125 167 222 266 324 393
#     4  12  21  41  69  93 131 171 218 267 327 397
#     4  10  18  33  58  99 122 165 226 264 316 396
#     4  12  26  41  65  99 130 173 219 270 328 392
#     4  10  18  33  62  99 124 170 221 262 331 395
#     4  12  21  39  64  94 128 172 215 266 326 390
#     4  11  25  42  63  99 129 167 220 270 326 394
#
# _framework density 25.220426
#
# number of rings (size 3 to 8) (size 9 to 14) (size 15 to 20)
#    0.000    1.000    8.750    1.125    0.000    0.500 
#    0.000    0.000    0.000    5.250    0.000    0.000 
#    0.000    0.000    0.000    0.000    0.000    0.000 
#
# Total GULP energy -89403.009377 kJ/mol
# GULP energy per Si atom -5587.688086 kJ/mol
# Density = 2.516302 g / cm^3
# Si number density = 25.220426 Si / 1000 Ang^3
#
#
#
# Elastic Constant Matrix: (Units=GPa)
#
#
# Indices 1 2 3 4 5 6 
#
# 1 78.7294 43.4965 30.5744 -3.6378 -31.5109 9.9687
# 2 43.4965 142.5128 59.7143 -7.6354 -15.3585 -28.7076
# 3 30.5744 59.7143 131.3262 -8.9206 -31.2196 -0.8391
# 4 -3.6378 -7.6354 -8.9206 45.0147 4.3071 -3.3613
# 5 -31.5109 -15.3585 -31.2196 4.3071 32.5567 -7.6409
# 6 9.9687 -28.7076 -0.8391 -3.3613 -7.6409 41.0163
#
#
#
# Elastic Compliance Matrix: (Units=1/GPa)
#
#
# Indices 1 2 3 4 5 6 
#
# 1 0.026269 -0.008590 0.002981 -0.001513 0.022491 -0.008270
# 2 -0.008590 0.013530 -0.005018 0.001837 -0.004458 0.010775
# 3 0.002981 -0.005018 0.011958 0.000525 0.011491 -0.001808
# 4 -0.001513 0.001837 0.000525 0.022970 -0.002406 0.003099
# 5 0.022491 -0.004458 0.011491 -0.002406 0.062442 0.003084
# 6 -0.008270 0.010775 -0.001808 0.003099 0.003084 0.034723
#
#
# Mechanical properties :
#
#
# Convention : Reuss Voigt Hill
#
# Bulk Modulus (GPa) = 32.78370 68.90432 50.84401
# Shear Modulus (GPa) = 24.59257 38.30309 31.44783
#
# Velocity S-wave (km/s) = 3.12606 3.90132 3.53501
# Velocity P-wave (km/s) = 5.10458 6.90463 6.07168
#
# Compressibility (1/GPa) = 0.03050296
#
# Stress axis : x y z
#
# Youngs Moduli (GPa) = 38.06837 73.91113 83.62409
#
# Poissons Ratio (x) = 0.63487 -0.24929
# Poissons Ratio (y) = 0.32699 0.41965
# Poissons Ratio (z) = -0.11348 0.37091
#
# Static dielectric constant tensor:
#      x y z
#    x 2.057010 -0.022910 0.084090 
#    y -0.022910 2.058510 0.049970 
#    z 0.084090 0.049970 2.034400 
# 
# From -- ./inp_files/448299.got.cif
#   From: 2010.05.17/outbox.cif.g08.bks.cpg/sg2_225_cif.got.tgz:448299.got - 2010.06.03 11:33:40.
