data_PCOD9076516
_publ_section_title
;
Structure prediction by ZEFSAII (Michael W. Deem and Ramdas Pophale) SiO2 
 PCOD9076516
Probable space group: P -1
;
_chemical_formula_sum "Si O2"
_cell_formula_units_Z 16
_cell_length_a 16.532688
_cell_length_b 16.546882
_cell_length_c 12.239491
_cell_angle_alpha 52.485181
_cell_angle_beta 151.239300
_cell_angle_gamma 146.500552
_cell_volume 789.700992
_symmetry_space_group_name_H-M "P -1"
_symmetry_group_IT_number 2
_symmetry_cell_setting 'triclinic'
loop_
_space_group_symop_operation_xyz
x,y,z
-x,-y,-z
loop_
_atom_site_type_symbol
_atom_site_label
_atom_site_fract_x
_atom_site_fract_y
_atom_site_fract_z
Si Si1 0.719019 0.760775 0.535000
Si Si2 0.316123 0.337691 0.845781
Si Si3 0.621579 0.906644 0.579714
Si Si4 0.138460 0.041850 0.961410
Si Si5 0.323125 0.919471 0.680784
Si Si6 0.241679 0.570255 0.299512
Si Si7 0.813080 0.680855 0.518972
Si Si8 0.365707 0.069165 0.816039
O O1 0.487142 0.659384 0.434571
O O2 0.709831 0.656206 0.537625
O O3 0.678884 0.834695 0.341200
O O4 0.004148 0.915080 0.808161
O O5 0.316859 0.221322 0.981726
O O6 0.380168 0.376535 0.761325
O O7 0.002241 0.225666 0.578341
O O8 0.500000 0.500000 0.000000
O O9 0.365233 0.711600 0.413020
O O10 0.587928 0.996781 0.400894
O O11 0.703518 0.947826 0.769315
O O12 0.879683 0.973888 0.770382
O O13 0.443757 0.057081 0.800417
O O14 0.429782 0.863936 0.900443
O O15 0.144755 0.419108 0.363267
O O16 0.000000 0.500000 0.000000
O O17 0.085167 0.877849 0.668786
#
# Coordination Sequence:
#
# PCOD9076516 Si02
#       8
#     2   2   2   2   2   2   2   2
#     4  11  21  38  55  83 114 148 186 231 283 336
#     4  10  19  32  52  84 110 143 190 232 275 328
#     4   9  16  32  52  78 107 142 182 227 278 318
#     4   9  17  31  52  76 108 142 183 228 270 330
#     4   9  17  31  54  82 106 142 190 231 272 324
#     4  11  22  35  55  84 116 146 185 233 283 332
#     4  11  22  34  58  85 110 147 187 235 284 327
#     4  10  18  33  57  79 111 140 189 234 273 328
#
# _framework density 20.260833000000002
#
# number of rings (size 3 to 8) (size 9 to 14) (size 15 to 20)
#    0.000    2.000    5.000    2.250    3.500    1.000 
#    0.000    0.000    0.000    5.250    0.000    0.000 
#    0.000    0.000    0.000    0.000    0.000    0.000 
#
# Total GULP energy -89269.613748 kJ/mol
# GULP energy per Si atom -5579.350859 kJ/mol
# Density = 2.021472 g / cm^3
# Si number density = 20.260833 Si / 1000 Ang^3
#
#
#
# Elastic Constant Matrix: (Units=GPa)
#
#
# Indices 1 2 3 4 5 6 
#
# 1 43.2820 8.3020 23.3311 2.2519 -27.7846 -3.5931
# 2 8.3020 86.4426 38.1043 -10.6750 -18.6016 0.5790
# 3 23.3311 38.1043 117.0781 -15.3781 -40.8490 -5.3594
# 4 2.2519 -10.6750 -15.3781 35.5694 6.8119 -8.1946
# 5 -27.7846 -18.6016 -40.8490 6.8119 28.8596 1.7711
# 6 -3.5931 0.5790 -5.3594 -8.1946 1.7711 15.9693
#
#
#
# Elastic Compliance Matrix: (Units=1/GPa)
#
#
# Indices 1 2 3 4 5 6 
#
# 1 0.097961 0.007231 0.023410 -0.018896 0.136272 0.004826
# 2 0.007231 0.014567 -0.000923 0.000510 0.014962 -0.000609
# 3 0.023410 -0.000923 0.023659 -0.000506 0.055129 0.006867
# 4 -0.018896 0.000510 -0.000506 0.039138 -0.028975 0.018857
# 5 0.136272 0.014962 0.055129 -0.028975 0.260059 0.004911
# 6 0.004826 -0.000609 0.006867 0.018857 0.004911 0.075165
#
#
# Mechanical properties :
#
#
# Convention : Reuss Voigt Hill
#
# Bulk Modulus (GPa) = 5.11185 42.91971 24.01578
# Shear Modulus (GPa) = 9.68390 27.88403 18.78397
#
# Velocity S-wave (km/s) = 2.18861 3.71381 3.04815
# Velocity P-wave (km/s) = 2.98583 6.29440 4.92619
#
# Compressibility (1/GPa) = 0.19562387
#
# Stress axis : x y z
#
# Youngs Moduli (GPa) = 10.20815 68.64674 42.26692
#
# Poissons Ratio (x) = -0.49640 -0.98945
# Poissons Ratio (y) = -0.07382 0.03899
# Poissons Ratio (z) = -0.23897 0.06333
#
# Static dielectric constant tensor:
#      x y z
#    x 1.767710 0.034450 0.013240 
#    y 0.034450 1.727570 -0.023370 
#    z 0.013240 -0.023370 1.731340 
# 
# From -- ./inp_files/176280.got.cif
#   From: 2010.05.17/outbox.cif.g08.bks.cpg/sg2_89_cif.got.tgz:176280.got - 2010.06.03 11:33:40.
