data_PCOD9076921
_publ_section_title
;
Structure prediction by ZEFSAII (Michael W. Deem and Ramdas Pophale) SiO2 
 PCOD9076921
Probable space group: P -1
;
_chemical_formula_sum "Si O2"
_cell_formula_units_Z 14
_cell_length_a 8.393376
_cell_length_b 9.205553
_cell_length_c 9.418685
_cell_angle_alpha 62.251229
_cell_angle_beta 67.423542
_cell_angle_gamma 66.863923
_cell_volume 573.907346
_symmetry_space_group_name_H-M "P -1"
_symmetry_group_IT_number 2
_symmetry_cell_setting 'triclinic'
loop_
_space_group_symop_operation_xyz
x,y,z
-x,-y,-z
loop_
_atom_site_type_symbol
_atom_site_label
_atom_site_fract_x
_atom_site_fract_y
_atom_site_fract_z
Si Si1 0.473010 0.280096 0.705124
Si Si2 0.123845 0.946199 0.344356
Si Si3 0.173341 0.565677 0.118795
Si Si4 0.596366 0.599707 0.623621
Si Si5 0.728329 0.763598 0.937417
Si Si6 0.073047 0.130137 0.817056
Si Si7 0.605413 0.172330 0.183690
O O1 0.671633 0.163825 0.652500
O O2 0.507790 0.445328 0.696218
O O3 0.362467 0.343588 0.571674
O O4 0.367846 0.203766 0.893226
O O5 0.034382 0.847424 0.305279
O O6 0.137882 0.120421 0.185592
O O7 0.000000 0.000000 0.500000
O O8 0.250293 0.463925 0.282606
O O9 0.184270 0.430674 0.051051
O O10 0.983191 0.691588 0.162893
O O11 0.299285 0.690229 0.979630
O O12 0.456479 0.756743 0.672965
O O13 0.566354 0.822220 0.854234
O O14 0.269421 0.016165 0.768096
O O15 0.000000 0.000000 0.000000
#
# Coordination Sequence:
#
# PCOD9076921 Si02
#       7
#     2   2   2   2   2   2   2
#     4  11  20  36  66  99 129 171 219 271 323 391
#     4  12  26  45  65  98 139 173 216 283 336 381
#     4  10  18  39  65 100 130 178 216 273 328 396
#     4  10  18  33  65  97 127 166 219 266 324 382
#     4  11  22  42  73  99 127 172 232 271 318 393
#     4  10  21  40  66  92 138 178 208 264 346 389
#     4  10  18  38  67  96 130 177 220 268 324 397
#
# _framework density 24.394181
#
# number of rings (size 3 to 8) (size 9 to 14) (size 15 to 20)
#    0.000    1.429    4.286    3.000    0.000    0.000 
#    0.000   12.857    9.429    0.000    0.000    0.000 
#    0.000    0.000    0.000    0.000    0.000    0.000 
#
# Total GULP energy -78400.645948 kJ/mol
# GULP energy per Si atom -5600.046139 kJ/mol
# Density = 2.433866 g / cm^3
# Si number density = 24.394181 Si / 1000 Ang^3
#
#
#
# Elastic Constant Matrix: (Units=GPa)
#
#
# Indices 1 2 3 4 5 6 
#
# 1 71.1058 33.3638 28.2132 12.0490 2.9465 -17.2506
# 2 33.3638 159.7147 22.9007 26.3246 -14.3408 -20.0668
# 3 28.2132 22.9007 137.7026 30.4291 -2.1772 -5.5481
# 4 12.0490 26.3246 30.4291 39.8427 -0.9138 -7.7534
# 5 2.9465 -14.3408 -2.1772 -0.9138 36.0842 -0.9823
# 6 -17.2506 -20.0668 -5.5481 -7.7534 -0.9823 35.8689
#
#
#
# Elastic Compliance Matrix: (Units=1/GPa)
#
#
# Indices 1 2 3 4 5 6 
#
# 1 0.018318 -0.002758 -0.003031 -0.000160 -0.002597 0.006693
# 2 -0.002758 0.008099 0.000297 -0.004191 0.003422 0.002438
# 3 -0.003031 0.000297 0.009246 -0.006570 0.000722 -0.001262
# 4 -0.000160 -0.004191 -0.006570 0.033649 -0.001093 0.003806
# 5 -0.002597 0.003422 0.000722 -0.001093 0.029338 0.001345
# 6 0.006693 0.002438 -0.001262 0.003806 0.001345 0.033126
#
#
# Mechanical properties :
#
#
# Convention : Reuss Voigt Hill
#
# Bulk Modulus (GPa) = 40.51939 59.71984 50.11961
# Shear Modulus (GPa) = 33.11541 41.29554 37.20548
#
# Velocity S-wave (km/s) = 3.68844 4.11888 3.90959
# Velocity P-wave (km/s) = 5.89795 6.86692 6.40080
#
# Compressibility (1/GPa) = 0.02467954
#
# Stress axis : x y z
#
# Youngs Moduli (GPa) = 54.58972 123.47014 108.15497
#
# Poissons Ratio (x) = 0.34053 0.32777
# Poissons Ratio (y) = 0.15056 -0.03207
# Poissons Ratio (z) = 0.16544 -0.03661
#
# Static dielectric constant tensor:
#      x y z
#    x 1.983380 -0.001520 -0.028920 
#    y -0.001520 1.924800 -0.017300 
#    z -0.028920 -0.017300 1.927100 
# 
# From -- ./inp_files/157130.got.cif
#   From: 2010.05.17/outbox.cif.g08.bks.cpg/sg2_79_cif.got.tgz:157130.got - 2010.06.03 11:33:40.
