data_PCOD9076771
_publ_section_title
;
Structure prediction by ZEFSAII (Michael W. Deem and Ramdas Pophale) SiO2 
 PCOD9076771
Probable space group: P -1
;
_chemical_formula_sum "Si O2"
_cell_formula_units_Z 14
_cell_length_a 5.350364
_cell_length_b 14.519294
_cell_length_c 9.430573
_cell_angle_alpha 120.917009
_cell_angle_beta 111.186890
_cell_angle_gamma 92.208622
_cell_volume 562.528997
_symmetry_space_group_name_H-M "P -1"
_symmetry_group_IT_number 2
_symmetry_cell_setting 'triclinic'
loop_
_space_group_symop_operation_xyz
x,y,z
-x,-y,-z
loop_
_atom_site_type_symbol
_atom_site_label
_atom_site_fract_x
_atom_site_fract_y
_atom_site_fract_z
Si Si1 0.886959 0.904652 0.197876
Si Si2 0.443289 0.850332 0.306810
Si Si3 0.848727 0.858798 0.661457
Si Si4 0.313505 0.417472 0.777491
Si Si5 0.840549 0.372226 0.832072
Si Si6 0.974923 0.355643 0.413497
Si Si7 0.661930 0.722202 0.779107
O O1 0.650279 0.901204 0.262349
O O2 0.190722 0.904559 0.320599
O O3 0.783204 0.791049 0.997473
O O4 0.946924 0.016638 0.204706
O O5 0.629359 0.852911 0.485813
O O6 0.285492 0.718061 0.144550
O O7 0.012837 0.764186 0.609950
O O8 0.687662 0.819983 0.744113
O O9 0.551392 0.380169 0.709193
O O10 0.126038 0.445380 0.634970
O O11 0.072554 0.335575 0.760101
O O12 0.500000 0.500000 0.000000
O O13 0.000000 0.500000 0.000000
O O14 0.153027 0.353830 0.306827
O O15 0.655231 0.346510 0.320494
#
# Coordination Sequence:
#
# PCOD9076771 Si02
#       7
#     2   2   2   2   2   2   2
#     4  12  26  39  57  93 130 173 195 254 312 363
#     4  12  24  39  61  92 130 153 205 262 321 349
#     4  10  24  38  65  84 128 164 222 243 297 361
#     4  10  18  33  59  95 116 137 196 268 308 334
#     4  10  20  36  60  89 120 148 195 251 311 364
#     4  10  20  35  63  85 120 157 215 251 290 347
#     4  10  23  39  61  82 126 173 217 235 294 373
#
# _framework density 24.887606999999999
#
# number of rings (size 3 to 8) (size 9 to 14) (size 15 to 20)
#    0.857    0.571    1.429    4.714    4.000    0.571 
#    0.000    0.000    0.000    0.000    0.000  106.000 
#    0.000    0.000    0.000    0.000    0.000    0.000 
#
# Total GULP energy -78057.443718 kJ/mol
# GULP energy per Si atom -5575.531694 kJ/mol
# Density = 2.483096 g / cm^3
# Si number density = 24.887607 Si / 1000 Ang^3
#
#
#
# Elastic Constant Matrix: (Units=GPa)
#
#
# Indices 1 2 3 4 5 6 
#
# 1 175.0198 46.8934 37.7644 12.9922 24.7853 46.6700
# 2 46.8934 100.3229 2.1209 17.8616 7.9095 7.5485
# 3 37.7644 2.1209 125.1866 8.7305 -0.1206 12.7444
# 4 12.9922 17.8616 8.7305 21.2065 2.4447 -6.8416
# 5 24.7853 7.9095 -0.1206 2.4447 26.9844 7.8779
# 6 46.6700 7.5485 12.7444 -6.8416 7.8779 31.3906
#
#
#
# Elastic Compliance Matrix: (Units=1/GPa)
#
#
# Indices 1 2 3 4 5 6 
#
# 1 0.013691 -0.002266 -0.001127 -0.012187 -0.004733 -0.020821
# 2 -0.002266 0.013229 0.001551 -0.011352 0.000098 -0.002940
# 3 -0.001127 0.001551 0.009172 -0.006080 0.002445 -0.004360
# 4 -0.012187 -0.011352 -0.006080 0.080913 -0.005171 0.042250
# 5 -0.004733 0.000098 0.002445 -0.005171 0.043624 -0.006054
# 6 -0.020821 -0.002940 -0.004360 0.042250 -0.006054 0.076017
#
#
# Mechanical properties :
#
#
# Convention : Reuss Voigt Hill
#
# Bulk Modulus (GPa) = 30.85722 63.78742 47.32232
# Shear Modulus (GPa) = 19.90981 36.83300 28.37140
#
# Velocity S-wave (km/s) = 2.83148 3.85122 3.38002
# Velocity P-wave (km/s) = 4.80783 6.74253 5.85563
#
# Compressibility (1/GPa) = 0.03240733
#
# Stress axis : x y z
#
# Youngs Moduli (GPa) = 73.04179 75.59155 109.02745
#
# Poissons Ratio (x) = 0.17130 0.12284
# Poissons Ratio (y) = 0.16552 -0.16906
# Poissons Ratio (z) = 0.08230 -0.11721
#
# Static dielectric constant tensor:
#      x y z
#    x 2.066190 -0.110380 -0.170640 
#    y -0.110380 2.049780 0.118200 
#    z -0.170640 0.118200 2.224850 
# 
# From -- ./inp_files/139256.got.cif
#   From: 2010.05.17/outbox.cif.g08.bks.cpg/sg2_70_cif.got.tgz:139256.got - 2010.06.03 11:33:40.
