data_PCOD9076340
_publ_section_title
;
Structure prediction by ZEFSAII (Michael W. Deem and Ramdas Pophale) SiO2 
 PCOD9076340
Probable space group: P -1
;
_chemical_formula_sum "Si O2"
_cell_formula_units_Z 14
_cell_length_a 12.496855
_cell_length_b 9.686183
_cell_length_c 22.247513
_cell_angle_alpha 152.099207
_cell_angle_beta 28.165688
_cell_angle_gamma 136.352842
_cell_volume 575.738413
_symmetry_space_group_name_H-M "P -1"
_symmetry_group_IT_number 2
_symmetry_cell_setting 'triclinic'
loop_
_space_group_symop_operation_xyz
x,y,z
-x,-y,-z
loop_
_atom_site_type_symbol
_atom_site_label
_atom_site_fract_x
_atom_site_fract_y
_atom_site_fract_z
Si Si1 0.452419 0.712143 0.880341
Si Si2 0.139880 0.143689 0.671357
Si Si3 0.471744 0.165305 0.869135
Si Si4 0.568997 0.872399 0.266348
Si Si5 0.757570 0.282359 0.136640
Si Si6 0.162483 0.269155 0.392623
Si Si7 0.752196 0.216940 0.399748
O O1 0.394954 0.473113 0.862332
O O2 0.256370 0.767702 0.947074
O O3 0.693494 0.600711 0.680276
O O4 0.500000 0.000000 0.000000
O O5 0.070363 0.512440 0.849011
O O6 0.335934 0.034906 0.481493
O O7 0.226735 0.028602 0.651322
O O8 0.956558 0.957886 0.670822
O O9 0.478449 0.108498 0.773029
O O10 0.252602 0.034517 0.949706
O O11 0.681468 0.951944 0.720960
O O12 0.500000 0.500000 0.000000
O O13 0.753799 0.044895 0.269523
O O14 0.504248 0.533569 0.373504
O O15 0.063433 0.578427 0.599273
#
# Coordination Sequence:
#
# PCOD9076340 Si02
#       7
#     2   2   2   2   2   2   2
#     4  10  18  33  55  77 101 146 192 207 249 325
#     4  11  18  34  57  84 116 128 172 237 279 312
#     4  10  22  39  54  75 108 147 191 215 250 327
#     4  11  18  32  60  79 104 145 179 221 269 313
#     4   9  18  34  55  79 105 143 179 218 265 311
#     4  10  22  34  55  83 111 139 171 230 278 306
#     4   9  17  32  55  84 107 133 177 220 268 318
#
# _framework density 24.316597999999999
#
# number of rings (size 3 to 8) (size 9 to 14) (size 15 to 20)
#    0.000    2.286    4.286    3.000    0.000    5.714 
#    0.000    1.429    0.000    0.000    0.000    0.000 
#    0.000    0.000    0.000    0.000    0.000    0.000 
#
# Total GULP energy -78086.945583 kJ/mol
# GULP energy per Si atom -5577.638970 kJ/mol
# Density = 2.426125 g / cm^3
# Si number density = 24.316598 Si / 1000 Ang^3
#
#
#
# Elastic Constant Matrix: (Units=GPa)
#
#
# Indices 1 2 3 4 5 6 
#
# 1 146.1625 60.8224 40.0127 16.1698 35.1328 -0.4637
# 2 60.8224 147.8651 39.8530 37.2904 16.1561 9.4659
# 3 40.0127 39.8530 89.4638 32.9228 33.6165 2.8934
# 4 16.1698 37.2904 32.9228 45.9255 12.0261 10.6792
# 5 35.1328 16.1561 33.6165 12.0261 35.3448 14.1372
# 6 -0.4637 9.4659 2.8934 10.6792 14.1372 57.8355
#
#
#
# Elastic Compliance Matrix: (Units=1/GPa)
#
#
# Indices 1 2 3 4 5 6 
#
# 1 0.010906 -0.003897 0.000594 0.001101 -0.011300 0.003254
# 2 -0.003897 0.010099 -0.001791 -0.006175 0.003596 -0.001333
# 3 0.000594 -0.001791 0.023643 -0.011735 -0.020814 0.006370
# 4 0.001101 -0.006175 -0.011735 0.035311 0.003148 -0.005683
# 5 -0.011300 0.003596 -0.020814 0.003148 0.062838 -0.015579
# 6 0.003254 -0.001333 0.006370 -0.005683 -0.015579 0.022073
#
#
# Mechanical properties :
#
#
# Convention : Reuss Voigt Hill
#
# Bulk Modulus (GPa) = 29.01980 73.87417 51.44699
# Shear Modulus (GPa) = 26.80334 44.00805 35.40570
#
# Velocity S-wave (km/s) = 3.32364 4.25878 3.81994
# Velocity P-wave (km/s) = 5.16612 7.39115 6.37644
#
# Compressibility (1/GPa) = 0.03445923
#
# Stress axis : x y z
#
# Youngs Moduli (GPa) = 91.69644 99.02379 42.29550
#
# Poissons Ratio (x) = 0.38593 -0.02514
# Poissons Ratio (y) = 0.35738 0.07575
# Poissons Ratio (z) = -0.05449 0.17735
#
# Static dielectric constant tensor:
#      x y z
#    x 2.023500 0.176330 -0.083550 
#    y 0.176330 2.035530 -0.081560 
#    z -0.083550 -0.081560 2.114430 
# 
# From -- ./inp_files/169789.got.cif
#   From: 2010.05.17/outbox.cif.g08.bks.cpg/sg2_85_cif.got.tgz:169789.got - 2010.06.03 11:33:40.
