data_PCOD9076359
_publ_section_title
;
Structure prediction by ZEFSAII (Michael W. Deem and Ramdas Pophale) SiO2 
 PCOD9076359
Probable space group: P -1
;
_chemical_formula_sum "Si O2"
_cell_formula_units_Z 16
_cell_length_a 8.572943
_cell_length_b 7.054185
_cell_length_c 17.151517
_cell_angle_alpha 84.111653
_cell_angle_beta 50.883918
_cell_angle_gamma 112.575568
_cell_volume 651.377835
_symmetry_space_group_name_H-M "P -1"
_symmetry_group_IT_number 2
_symmetry_cell_setting 'triclinic'
loop_
_space_group_symop_operation_xyz
x,y,z
-x,-y,-z
loop_
_atom_site_type_symbol
_atom_site_label
_atom_site_fract_x
_atom_site_fract_y
_atom_site_fract_z
Si Si1 0.193290 0.907130 0.364781
Si Si2 0.215318 0.343706 0.791498
Si Si3 0.531775 0.689775 0.040505
Si Si4 0.163534 0.971006 0.199503
Si Si5 0.694811 0.157090 0.263334
Si Si6 0.049208 0.335707 0.276473
Si Si7 0.223525 0.371656 0.382974
Si Si8 0.042292 0.291555 0.007135
O O1 0.237387 0.907058 0.258805
O O2 0.928967 0.690813 0.486969
O O3 0.417663 0.944944 0.341889
O O4 0.209709 0.139739 0.373665
O O5 0.268873 0.597867 0.772080
O O6 0.490668 0.412054 0.711510
O O7 0.021907 0.199378 0.929610
O O8 0.092177 0.230436 0.752373
O O9 0.256546 0.585298 0.160880
O O10 0.698901 0.669871 0.052749
O O11 0.500000 0.500000 0.000000
O O12 0.650104 0.912041 0.937003
O O13 0.134646 0.169473 0.233768
O O14 0.789852 0.195140 0.319977
O O15 0.869518 0.154218 0.142620
O O16 0.074834 0.382707 0.357706
O O17 0.000000 0.500000 0.000000
#
# Coordination Sequence:
#
# PCOD9076359 Si02
#       8
#     2   2   2   2   2   2   2   2
#     4   9  20  36  58  80 109 150 191 224 266 333
#     4  10  21  35  56  85 113 144 181 231 280 327
#     4  10  18  33  55  81 110 147 179 221 268 336
#     4  10  21  35  55  84 115 143 183 229 277 327
#     4  10  20  35  57  81 112 147 186 224 273 328
#     4  10  19  36  60  81 109 146 189 226 268 331
#     4   9  18  37  60  80 105 150 193 224 266 332
#     4  10  19  32  56  82 111 146 181 220 272 333
#
# _framework density 24.563317000000001
#
# number of rings (size 3 to 8) (size 9 to 14) (size 15 to 20)
#    0.000    2.250    3.750    0.000    5.250    1.500 
#    0.000    3.750    0.000    1.500    0.000    0.000 
#    0.000    0.000    0.000    0.000    0.000    0.000 
#
# Total GULP energy -89179.349161 kJ/mol
# GULP energy per Si atom -5573.709323 kJ/mol
# Density = 2.450741 g / cm^3
# Si number density = 24.563317 Si / 1000 Ang^3
#
#
#
# Elastic Constant Matrix: (Units=GPa)
#
#
# Indices 1 2 3 4 5 6 
#
# 1 118.9784 24.2662 33.6738 1.4023 -2.5523 30.8743
# 2 24.2662 90.3501 33.0473 8.2052 -6.4352 0.5987
# 3 33.6738 33.0473 60.9489 -11.0245 -4.6088 17.0071
# 4 1.4023 8.2052 -11.0245 22.0042 2.6059 -4.7360
# 5 -2.5523 -6.4352 -4.6088 2.6059 20.1088 -1.9723
# 6 30.8743 0.5987 17.0071 -4.7360 -1.9723 43.4128
#
#
#
# Elastic Compliance Matrix: (Units=1/GPa)
#
#
# Indices 1 2 3 4 5 6 
#
# 1 0.011836 -0.000969 -0.004852 -0.004321 -0.000044 -0.006977
# 2 -0.000969 0.016884 -0.011472 -0.011685 0.004546 0.003882
# 3 -0.004852 -0.011472 0.030384 0.018496 -0.000337 -0.006292
# 4 -0.004321 -0.011685 0.018496 0.060744 -0.007698 0.002265
# 5 -0.000044 0.004546 -0.000337 -0.007698 0.052259 0.001635
# 6 -0.006977 0.003882 -0.006292 0.002265 0.001635 0.030729
#
#
# Mechanical properties :
#
#
# Convention : Reuss Voigt Hill
#
# Bulk Modulus (GPa) = 40.78753 50.25023 45.51888
# Shear Modulus (GPa) = 20.35865 29.05783 24.70824
#
# Velocity S-wave (km/s) = 2.88205 3.44317 3.17503
# Velocity P-wave (km/s) = 5.26461 6.02570 5.65797
#
# Compressibility (1/GPa) = 0.02451730
#
# Stress axis : x y z
#
# Youngs Moduli (GPa) = 84.48688 59.22871 32.91185
#
# Poissons Ratio (x) = 0.05738 0.15969
# Poissons Ratio (y) = 0.08184 0.37758
# Poissons Ratio (z) = 0.40995 0.67950
#
# Static dielectric constant tensor:
#      x y z
#    x 4.007220 0.568530 0.047330 
#    y 0.568530 2.179800 -0.025800 
#    z 0.047330 -0.025800 1.941270 
# 
# From -- ./inp_files/557232.got.cif
#   From: 2010.05.17/outbox.cif.g08.bks.cpg/sg2_279_cif.got.tgz:557232.got - 2010.06.03 11:33:40.
