data_PCOD9076130
_publ_section_title
;
Structure prediction by ZEFSAII (Michael W. Deem and Ramdas Pophale) SiO2 
 PCOD9076130
Probable space group: P -1
;
_chemical_formula_sum "Si O2"
_cell_formula_units_Z 12
_cell_length_a 4.996799
_cell_length_b 17.570945
_cell_length_c 17.601896
_cell_angle_alpha 156.871149
_cell_angle_beta 106.482576
_cell_angle_gamma 79.930279
_cell_volume 566.693293
_symmetry_space_group_name_H-M "P -1"
_symmetry_group_IT_number 2
_symmetry_cell_setting 'triclinic'
loop_
_space_group_symop_operation_xyz
x,y,z
-x,-y,-z
loop_
_atom_site_type_symbol
_atom_site_label
_atom_site_fract_x
_atom_site_fract_y
_atom_site_fract_z
Si Si1 0.310435 0.007932 0.065360
Si Si2 0.818920 0.042316 0.595083
Si Si3 0.272601 0.153659 0.349158
Si Si4 0.694803 0.654805 0.322685
Si Si5 0.343984 0.104889 0.890503
Si Si6 0.102172 0.412282 0.054212
O O1 0.351593 0.185562 0.295431
O O2 0.403723 0.845602 0.980118
O O3 0.500000 0.000000 0.000000
O O4 0.000000 0.000000 0.000000
O O5 0.938981 0.260310 0.838937
O O6 0.500000 0.000000 0.500000
O O7 0.824582 0.878512 0.510192
O O8 0.000000 0.000000 0.500000
O O9 0.303944 0.332834 0.574435
O O10 0.506067 0.025827 0.274699
O O11 0.945144 0.025985 0.213811
O O12 0.369269 0.579031 0.198565
O O13 0.883794 0.512771 0.174100
O O14 0.251173 0.281042 0.001978
#
# Coordination Sequence:
#
# PCOD9076130 Si02
#       6
#     2   2   2   2   2   2
#     4  10  18  32  62  98 128 174 220 262 334 396
#     4  12  28  46  70  98 140 170 214 280 336 398
#     4  10  20  37  65  92 128 172 225 263 326 382
#     4  12  26  43  71  99 131 176 228 273 327 395
#     4  10  20  37  65  92 128 172 225 263 326 382
#     4  12  26  43  71  99 131 176 228 273 327 395
#
# _framework density 21.175477000000001
#
# number of rings (size 3 to 8) (size 9 to 14) (size 15 to 20)
#    1.000    0.000    3.333    4.000    2.333    4.000 
#    0.000    0.000    0.000    6.000    0.000    0.000 
#    0.000    0.000    0.000    0.000    0.000    0.000 
#
# Total GULP energy -66886.549154 kJ/mol
# GULP energy per Si atom -5573.879096 kJ/mol
# Density = 2.112728 g / cm^3
# Si number density = 21.175477 Si / 1000 Ang^3
#
#
#
# Elastic Constant Matrix: (Units=GPa)
#
#
# Indices 1 2 3 4 5 6 
#
# 1 187.1888 32.0571 59.9845 -25.2025 -19.4483 12.1042
# 2 32.0571 59.3473 27.5738 -24.9956 -4.7240 -3.8854
# 3 59.9845 27.5738 118.5071 -27.0039 -12.1077 15.5566
# 4 -25.2025 -24.9956 -27.0039 23.4522 9.5837 1.7032
# 5 -19.4483 -4.7240 -12.1077 9.5837 43.6107 -10.6859
# 6 12.1042 -3.8854 15.5566 1.7032 -10.6859 34.6080
#
#
#
# Elastic Compliance Matrix: (Units=1/GPa)
#
#
# Indices 1 2 3 4 5 6 
#
# 1 0.006910 -0.001491 -0.002187 0.002859 0.001361 -0.001322
# 2 -0.001491 0.031638 0.000788 0.034830 -0.004524 0.000608
# 3 -0.002187 0.000788 0.013533 0.015436 -0.002156 -0.006655
# 4 0.002859 0.034830 0.015436 0.109204 -0.018358 -0.015071
# 5 0.001361 -0.004524 -0.002156 -0.018358 0.028886 0.009808
# 6 -0.001322 0.000608 -0.006655 -0.015071 0.009808 0.036187
#
#
# Mechanical properties :
#
#
# Convention : Reuss Voigt Hill
#
# Bulk Modulus (GPa) = 21.59765 67.14157 44.36961
# Shear Modulus (GPa) = 20.19619 36.69604 28.44612
#
# Velocity S-wave (km/s) = 3.09164 4.16739 3.66915
# Velocity P-wave (km/s) = 4.79227 7.41163 6.24092
#
# Compressibility (1/GPa) = 0.04630133
#
# Stress axis : x y z
#
# Youngs Moduli (GPa) = 144.71796 31.60709 73.89556
#
# Poissons Ratio (x) = 0.04711 0.16160
# Poissons Ratio (y) = 0.21571 -0.05819
# Poissons Ratio (z) = 0.31647 -0.02489
#
# Static dielectric constant tensor:
#      x y z
#    x 1.766790 0.002700 0.019300 
#    y 0.002700 1.827400 0.005200 
#    z 0.019300 0.005200 1.794460 
# 
# From -- ./inp_files/484653.got.cif
#   From: 2010.05.17/outbox.cif.g08.bks.cpg/sg2_243_cif.got.tgz:484653.got - 2010.06.03 11:33:40.
