data_PCOD9076911
_publ_section_title
;
Structure prediction by ZEFSAII (Michael W. Deem and Ramdas Pophale) SiO2 
 PCOD9076911
Probable space group: P -1
;
_chemical_formula_sum "Si O2"
_cell_formula_units_Z 16
_cell_length_a 11.714418
_cell_length_b 9.158394
_cell_length_c 11.590258
_cell_angle_alpha 84.305331
_cell_angle_beta 60.762350
_cell_angle_gamma 50.751740
_cell_volume 798.752638
_symmetry_space_group_name_H-M "P -1"
_symmetry_group_IT_number 2
_symmetry_cell_setting 'triclinic'
loop_
_space_group_symop_operation_xyz
x,y,z
-x,-y,-z
loop_
_atom_site_type_symbol
_atom_site_label
_atom_site_fract_x
_atom_site_fract_y
_atom_site_fract_z
Si Si1 0.498655 0.337819 0.288150
Si Si2 0.540132 0.645508 0.250201
Si Si3 0.462894 0.975109 0.148633
Si Si4 0.774598 0.934808 0.085771
Si Si5 0.928644 0.432454 0.132550
Si Si6 0.596114 0.078856 0.482444
Si Si7 0.827293 0.593608 0.655402
Si Si8 0.069510 0.301400 0.739344
O O1 0.478596 0.526013 0.289304
O O2 0.561042 0.221242 0.387208
O O3 0.316827 0.395192 0.340593
O O4 0.656797 0.168960 0.136119
O O5 0.751829 0.491134 0.170756
O O6 0.464664 0.797704 0.381652
O O7 0.479088 0.788508 0.161187
O O8 0.280946 0.180456 0.269003
O O9 0.623594 0.922566 0.150603
O O10 0.500000 0.000000 0.000000
O O11 0.890686 0.821479 0.153990
O O12 0.911294 0.804641 0.924457
O O13 0.888077 0.561815 0.254433
O O14 0.000000 0.500000 0.000000
O O15 0.500000 0.000000 0.500000
O O16 0.797779 0.873537 0.402044
O O17 0.000000 0.500000 0.500000
O O18 0.885817 0.460612 0.752241
#
# Coordination Sequence:
#
# PCOD9076911 Si02
#       8
#     2   2   2   2   2   2   2   2
#     4  10  24  40  59  95 128 158 198 258 325 355
#     4  12  22  38  64  92 128 159 198 266 311 362
#     4  11  22  39  64  91 121 166 214 251 306 373
#     4   9  19  39  61  86 116 160 208 245 290 380
#     4  10  18  33  64  90 111 153 215 246 295 355
#     4  11  19  39  66  91 117 161 209 243 305 381
#     4  11  23  38  62  89 123 166 213 251 302 377
#     4  10  18  34  63  87 112 150 211 253 284 351
#
# _framework density 20.031234000000001
#
# number of rings (size 3 to 8) (size 9 to 14) (size 15 to 20)
#    0.000    1.500    3.750    4.125    1.750    0.500 
#    0.000    5.000    8.250    0.000    0.000    0.000 
#    0.000    0.000    0.000    0.000    0.000    0.000 
#
# Total GULP energy -89210.066563 kJ/mol
# GULP energy per Si atom -5575.629160 kJ/mol
# Density = 1.998564 g / cm^3
# Si number density = 20.031234 Si / 1000 Ang^3
#
#
#
# Elastic Constant Matrix: (Units=GPa)
#
#
# Indices 1 2 3 4 5 6 
#
# 1 53.5091 43.1568 26.3066 6.2164 -3.0655 0.4947
# 2 43.1568 133.9530 51.3866 12.9938 -4.2945 8.2152
# 3 26.3066 51.3866 75.7682 21.4992 -2.0836 7.9034
# 4 6.2164 12.9938 21.4992 42.3204 -7.1292 -1.3098
# 5 -3.0655 -4.2945 -2.0836 -7.1292 18.3470 2.5620
# 6 0.4947 8.2152 7.9034 -1.3098 2.5620 43.4392
#
#
#
# Elastic Compliance Matrix: (Units=1/GPa)
#
#
# Indices 1 2 3 4 5 6 
#
# 1 0.026655 -0.006768 -0.005139 0.001254 0.002522 0.001800
# 2 -0.006768 0.011900 -0.005675 0.000411 0.001339 -0.001207
# 3 -0.005139 -0.005675 0.021627 -0.009059 -0.002845 -0.002908
# 4 0.001254 0.000411 -0.009059 0.029761 0.010586 0.001829
# 5 0.002522 0.001339 -0.002845 0.010586 0.059442 -0.002951
# 6 0.001800 -0.001207 -0.002908 0.001829 -0.002951 0.023987
#
#
# Mechanical properties :
#
#
# Convention : Reuss Voigt Hill
#
# Bulk Modulus (GPa) = 39.96983 56.10335 48.03659
# Shear Modulus (GPa) = 23.05493 30.31335 26.68414
#
# Velocity S-wave (km/s) = 3.39624 3.89434 3.65379
# Velocity P-wave (km/s) = 5.94780 6.94910 6.46786
#
# Compressibility (1/GPa) = 0.02501887
#
# Stress axis : x y z
#
# Youngs Moduli (GPa) = 37.51593 84.03619 46.23929
#
# Poissons Ratio (x) = 0.56872 0.23763
# Poissons Ratio (y) = 0.25389 0.26240
# Poissons Ratio (z) = 0.19280 0.47688
#
# Static dielectric constant tensor:
#      x y z
#    x 1.702030 -0.017190 0.026300 
#    y -0.017190 1.732930 0.011990 
#    z 0.026300 0.011990 1.811720 
# 
# From -- ./inp_files/268691.got.cif
#   From: 2010.05.17/outbox.cif.g08.bks.cpg/sg2_135_cif.got.tgz:268691.got - 2010.06.03 11:33:40.
