data_PCOD9076366
_publ_section_title
;
Structure prediction by ZEFSAII (Michael W. Deem and Ramdas Pophale) SiO2 
 PCOD9076366
Probable space group: P -1
;
_chemical_formula_sum "Si O2"
_cell_formula_units_Z 14
_cell_length_a 16.436023
_cell_length_b 10.740111
_cell_length_c 16.870196
_cell_angle_alpha 144.286920
_cell_angle_beta 154.527126
_cell_angle_gamma 34.470120
_cell_volume 696.321945
_symmetry_space_group_name_H-M "P -1"
_symmetry_group_IT_number 2
_symmetry_cell_setting 'triclinic'
loop_
_space_group_symop_operation_xyz
x,y,z
-x,-y,-z
loop_
_atom_site_type_symbol
_atom_site_label
_atom_site_fract_x
_atom_site_fract_y
_atom_site_fract_z
Si Si1 0.634784 0.318062 0.961911
Si Si2 0.101820 0.866624 0.630861
Si Si3 0.235381 0.919074 0.268804
Si Si4 0.189509 0.150586 0.183003
Si Si5 0.995060 0.746648 0.645506
Si Si6 0.041086 0.335572 0.741676
Si Si7 0.556237 0.550310 0.841769
O O1 0.578048 0.428701 0.883738
O O2 0.654426 0.052175 0.838355
O O3 0.500000 0.500000 0.000000
O O4 0.858457 0.297239 0.172811
O O5 0.075500 0.837166 0.685857
O O6 0.335912 0.745323 0.747030
O O7 0.982921 0.738386 0.408039
O O8 0.026642 0.130768 0.676511
O O9 0.405840 0.666655 0.294644
O O10 0.256272 0.067246 0.288529
O O11 0.206357 0.064438 0.398519
O O12 0.031222 0.867020 0.039615
O O13 0.134491 0.420623 0.267275
O O14 0.000000 0.500000 0.500000
O O15 0.260424 0.356684 0.956941
#
# Coordination Sequence:
#
# PCOD9076366 Si02
#       7
#     2   2   2   2   2   2   2
#     4  10  18  33  55  82 111 132 181 232 267 326
#     4  11  22  35  59  82 108 147 192 219 265 334
#     4   8  16  31  55  78 107 137 179 224 276 327
#     4   8  15  32  54  73 105 149 170 217 277 313
#     4  11  20  34  54  84 113 141 174 235 285 313
#     4  10  21  38  56  77 112 151 186 220 265 329
#     4  10  19  38  59  80 110 145 180 229 273 320
#
# _framework density 20.105642
#
# number of rings (size 3 to 8) (size 9 to 14) (size 15 to 20)
#    0.000    2.286    1.429    4.714    0.000    0.000 
#    2.571    8.571    0.000    1.714    0.000    0.000 
#    0.000    0.000    0.000    0.000    0.000    0.000 
#
# Total GULP energy -78030.726445 kJ/mol
# GULP energy per Si atom -5573.623318 kJ/mol
# Density = 2.005988 g / cm^3
# Si number density = 20.105642 Si / 1000 Ang^3
#
#
#
# Elastic Constant Matrix: (Units=GPa)
#
#
# Indices 1 2 3 4 5 6 
#
# 1 61.6442 38.5104 6.8507 21.8899 -11.0708 -30.1473
# 2 38.5104 146.6823 37.9925 38.7044 -9.2125 -22.7790
# 3 6.8507 37.9925 60.7431 10.5321 -0.5001 -13.4047
# 4 21.8899 38.7044 10.5321 35.5984 -8.0187 -11.3988
# 5 -11.0708 -9.2125 -0.5001 -8.0187 15.7205 8.4495
# 6 -30.1473 -22.7790 -13.4047 -11.3988 8.4495 30.8649
#
#
#
# Elastic Compliance Matrix: (Units=1/GPa)
#
#
# Indices 1 2 3 4 5 6 
#
# 1 0.038019 -0.003890 0.007264 -0.010310 0.001643 0.033162
# 2 -0.003890 0.011378 -0.005365 -0.008727 -0.000211 -0.000897
# 3 0.007264 -0.005365 0.022331 -0.002179 -0.005739 0.013601
# 4 -0.010310 -0.008727 -0.002179 0.046279 0.013318 -0.004011
# 5 0.001643 -0.000211 -0.005739 0.013318 0.081106 -0.018329
# 6 0.033162 -0.000897 0.013601 -0.004011 -0.018329 0.073571
#
#
# Mechanical properties :
#
#
# Convention : Reuss Voigt Hill
#
# Bulk Modulus (GPa) = 14.76062 48.41963 31.59012
# Shear Modulus (GPa) = 16.70862 28.81784 22.76323
#
# Velocity S-wave (km/s) = 2.88591 3.79003 3.36844
# Velocity P-wave (km/s) = 4.29675 6.57931 5.55650
#
# Compressibility (1/GPa) = 0.06774784
#
# Stress axis : x y z
#
# Youngs Moduli (GPa) = 26.30290 87.88634 44.78128
#
# Poissons Ratio (x) = 0.34185 -0.32530
# Poissons Ratio (y) = 0.10231 0.24023
# Poissons Ratio (z) = -0.19107 0.47147
#
# Static dielectric constant tensor:
#      x y z
#    x 1.769640 -0.129960 0.031740 
#    y -0.129960 1.869110 -0.049910 
#    z 0.031740 -0.049910 1.782480 
# 
# From -- ./inp_files/185318.got.cif
#   From: 2010.05.17/outbox.cif.g08.bks.cpg/sg2_93_cif.got.tgz:185318.got - 2010.06.03 11:33:40.
