data_PCOD9076996
_publ_section_title
;
Structure prediction by ZEFSAII (Michael W. Deem and Ramdas Pophale) SiO2 
 PCOD9076996
Probable space group: P -1
;
_chemical_formula_sum "Si O2"
_cell_formula_units_Z 16
_cell_length_a 8.131317
_cell_length_b 12.214032
_cell_length_c 12.296537
_cell_angle_alpha 98.630306
_cell_angle_beta 97.871929
_cell_angle_gamma 31.052006
_cell_volume 622.720265
_symmetry_space_group_name_H-M "P -1"
_symmetry_group_IT_number 2
_symmetry_cell_setting 'triclinic'
loop_
_space_group_symop_operation_xyz
x,y,z
-x,-y,-z
loop_
_atom_site_type_symbol
_atom_site_label
_atom_site_fract_x
_atom_site_fract_y
_atom_site_fract_z
Si Si1 0.137313 0.504446 0.600847
Si Si2 0.342510 0.025313 0.120952
Si Si3 0.132815 0.737529 0.531441
Si Si4 0.074404 0.162697 0.894836
Si Si5 0.591428 0.621490 0.955353
Si Si6 0.250059 0.731277 0.319140
Si Si7 0.034684 0.530965 0.843819
Si Si8 0.825866 0.222744 0.241293
O O1 0.008122 0.698273 0.575451
O O2 0.519467 0.303906 0.619088
O O3 0.000000 0.500000 0.500000
O O4 0.047439 0.512213 0.713517
O O5 0.140873 0.253144 0.124539
O O6 0.174265 0.065418 0.213119
O O7 0.696599 0.872112 0.141002
O O8 0.269592 0.010219 0.995114
O O9 0.500000 0.500000 0.500000
O O10 0.020904 0.825102 0.412334
O O11 0.137349 0.831490 0.636654
O O12 0.760485 0.404430 0.943440
O O13 0.964442 0.140185 0.789036
O O14 0.820164 0.564649 0.890712
O O15 0.284532 0.778101 0.876931
O O16 0.633770 0.646336 0.085049
O O17 0.530952 0.481131 0.269969
#
# Coordination Sequence:
#
# PCOD9076996 Si02
#       8
#     2   2   2   2   2   2   2   2
#     4  10  19  27  50  76 100 131 168 211 248 294
#     4  10  18  34  54  77 101 132 171 206 258 303
#     4   8  16  30  45  73  98 127 168 211 247 285
#     4   9  20  32  55  74 105 134 164 210 258 302
#     4   9  20  31  52  77 104 130 163 217 250 298
#     4   9  18  32  49  75  99 132 173 211 242 293
#     4  10  19  32  50  77 104 130 170 207 257 292
#     4   9  16  30  54  72  98 128 175 205 247 299
#
# _framework density 25.693721
#
# number of rings (size 3 to 8) (size 9 to 14) (size 15 to 20)
#    0.000    3.000    2.500    0.000    8.750    1.500 
#    0.000    0.625    2.750    3.750    0.000    0.000 
#    0.000    0.000    0.000    0.000    0.000    0.000 
#
# Total GULP energy -89159.796965 kJ/mol
# GULP energy per Si atom -5572.487310 kJ/mol
# Density = 2.563524 g / cm^3
# Si number density = 25.693721 Si / 1000 Ang^3
#
#
#
# Elastic Constant Matrix: (Units=GPa)
#
#
# Indices 1 2 3 4 5 6 
#
# 1 57.0924 19.4156 64.3925 -0.5026 13.1803 -20.2094
# 2 19.4156 67.6683 51.8336 -9.3929 -7.7837 -5.3067
# 3 64.3925 51.8336 226.3387 -3.2314 15.3349 -29.6453
# 4 -0.5026 -9.3929 -3.2314 37.5544 -10.5979 -6.3448
# 5 13.1803 -7.7837 15.3349 -10.5979 48.2755 -6.9455
# 6 -20.2094 -5.3067 -29.6453 -6.3448 -6.9455 31.8184
#
#
#
# Elastic Compliance Matrix: (Units=1/GPa)
#
#
# Indices 1 2 3 4 5 6 
#
# 1 0.031329 -0.004214 -0.005965 -0.000695 -0.005729 0.012249
# 2 -0.004214 0.020813 -0.003953 0.006876 0.007282 0.000072
# 3 -0.005965 -0.003953 0.007365 -0.000403 -0.001137 0.002085
# 4 -0.000695 0.006876 -0.000403 0.032610 0.009879 0.008988
# 5 -0.005729 0.007282 -0.001137 0.009879 0.026600 0.004293
# 6 0.012249 0.000072 0.002085 0.008988 0.004293 0.043892
#
#
# Mechanical properties :
#
#
# Convention : Reuss Voigt Hill
#
# Bulk Modulus (GPa) = 32.00918 69.15365 50.58142
# Shear Modulus (GPa) = 24.83989 37.89350 31.36670
#
# Velocity S-wave (km/s) = 3.11266 3.84450 3.49777
# Velocity P-wave (km/s) = 5.04016 6.83227 6.00347
#
# Compressibility (1/GPa) = 0.03124104
#
# Stress axis : x y z
#
# Youngs Moduli (GPa) = 31.91943 48.04680 135.77825
#
# Poissons Ratio (x) = 0.20249 0.80996
# Poissons Ratio (y) = 0.13452 0.53675
# Poissons Ratio (z) = 0.19041 0.18994
#
# Static dielectric constant tensor:
#      x y z
#    x 2.160240 0.090930 -0.001020 
#    y 0.090930 2.116470 -0.005890 
#    z -0.001020 -0.005890 2.083130 
# 
# From -- ./inp_files/402084.got.cif
#   From: 2010.05.17/outbox.cif.g08.bks.cpg/sg2_202_cif.got.tgz:402084.got - 2010.06.03 11:33:40.
