data_PCOD9076660
_publ_section_title
;
Structure prediction by ZEFSAII (Michael W. Deem and Ramdas Pophale) SiO2 
 PCOD9076660
Probable space group: P -1
;
_chemical_formula_sum "Si O2"
_cell_formula_units_Z 14
_cell_length_a 12.371996
_cell_length_b 9.498890
_cell_length_c 12.734978
_cell_angle_alpha 46.037433
_cell_angle_beta 35.815984
_cell_angle_gamma 70.042674
_cell_volume 536.101963
_symmetry_space_group_name_H-M "P -1"
_symmetry_group_IT_number 2
_symmetry_cell_setting 'triclinic'
loop_
_space_group_symop_operation_xyz
x,y,z
-x,-y,-z
loop_
_atom_site_type_symbol
_atom_site_label
_atom_site_fract_x
_atom_site_fract_y
_atom_site_fract_z
Si Si1 0.578066 0.115996 0.540893
Si Si2 0.302011 0.219742 0.193185
Si Si3 0.744247 0.437884 0.643210
Si Si4 0.696622 0.341560 0.115403
Si Si5 0.080893 0.859986 0.069333
Si Si6 0.897821 0.083011 0.693451
Si Si7 0.491414 0.683798 0.334027
O O1 0.682918 0.301654 0.270834
O O2 0.652728 0.224163 0.541207
O O3 0.521779 0.876772 0.653259
O O4 0.331164 0.044514 0.793582
O O5 0.141577 0.134306 0.462834
O O6 0.205929 0.019830 0.286710
O O7 0.561813 0.330121 0.934553
O O8 0.282643 0.426943 0.054824
O O9 0.860414 0.293568 0.627361
O O10 0.623560 0.411421 0.640422
O O11 0.922813 0.708687 0.365448
O O12 0.893581 0.320172 0.928475
O O13 0.000000 0.000000 0.000000
O O14 0.735355 0.876852 0.004457
O O15 0.500000 0.500000 0.500000
#
# Coordination Sequence:
#
# PCOD9076660 Si02
#       7
#     2   2   2   2   2   2   2
#     4   9  19  34  56  80 121 152 193 239 301 339
#     4  10  18  35  61  83 112 155 206 236 282 352
#     4  11  22  38  66  88 117 158 204 242 292 356
#     4   9  18  34  58  82 115 156 203 228 293 355
#     4  10  18  33  58  87 116 156 202 236 287 358
#     4  10  21  38  63  85 120 160 199 237 299 360
#     4  11  21  36  61  91 120 151 194 252 303 340
#
# _framework density 26.114432999999998
#
# number of rings (size 3 to 8) (size 9 to 14) (size 15 to 20)
#    0.857    1.143    1.429    5.143    0.000    0.000 
#    0.000    3.571   15.714    4.286    0.000    0.000 
#    0.000    0.000    0.000    0.000    0.000    0.000 
#
# Total GULP energy -78180.423439 kJ/mol
# GULP energy per Si atom -5584.315960 kJ/mol
# Density = 2.605500 g / cm^3
# Si number density = 26.114433 Si / 1000 Ang^3
#
#
#
# Elastic Constant Matrix: (Units=GPa)
#
#
# Indices 1 2 3 4 5 6 
#
# 1 78.2291 18.3613 20.6717 2.3262 28.6060 -11.6605
# 2 18.3613 105.6273 29.7938 5.2468 16.2271 -6.5374
# 3 20.6717 29.7938 169.0731 17.8215 26.3950 -1.0989
# 4 2.3262 5.2468 17.8215 58.3364 3.5901 7.7927
# 5 28.6060 16.2271 26.3950 3.5901 38.5384 5.5350
# 6 -11.6605 -6.5374 -1.0989 7.7927 5.5350 28.4678
#
#
#
# Elastic Compliance Matrix: (Units=1/GPa)
#
#
# Indices 1 2 3 4 5 6 
#
# 1 0.020972 -0.000258 0.000437 -0.001526 -0.017389 0.012347
# 2 -0.000258 0.010678 -0.001131 -0.000802 -0.003927 0.003286
# 3 0.000437 -0.001131 0.007015 -0.001990 -0.004704 0.001649
# 4 -0.001526 -0.000802 -0.001990 0.018610 0.002014 -0.006372
# 5 -0.017389 -0.003927 -0.004704 0.002014 0.046089 -0.017719
# 6 0.012347 0.003286 0.001649 -0.006372 -0.017719 0.046192
#
#
# Mechanical properties :
#
#
# Convention : Reuss Voigt Hill
#
# Bulk Modulus (GPa) = 27.20195 54.50922 40.85559
# Shear Modulus (GPa) = 30.54121 44.00870 37.27495
#
# Velocity S-wave (km/s) = 3.42353 4.10960 3.78215
# Velocity P-wave (km/s) = 5.10553 6.59067 5.89506
#
# Compressibility (1/GPa) = 0.03676207
#
# Stress axis : x y z
#
# Youngs Moduli (GPa) = 47.68185 93.65395 142.54392
#
# Poissons Ratio (x) = 0.02412 -0.06229
# Poissons Ratio (y) = 0.01228 0.16123
# Poissons Ratio (z) = -0.02084 0.10593
#
# Static dielectric constant tensor:
#      x y z
#    x 2.003950 -0.181360 0.026810 
#    y -0.181360 1.412940 0.184130 
#    z 0.026810 0.184130 1.984990 
# 
# From -- ./inp_files/532322.got.cif
#   From: 2010.05.17/outbox.cif.g08.bks.cpg/sg2_267_cif.got.tgz:532322.got - 2010.06.03 11:33:40.
