data_PCOD9076699
_publ_section_title
;
Structure prediction by ZEFSAII (Michael W. Deem and Ramdas Pophale) SiO2 
 PCOD9076699
Probable space group: P -1
;
_chemical_formula_sum "Si O2"
_cell_formula_units_Z 16
_cell_length_a 23.425910
_cell_length_b 10.016343
_cell_length_c 9.969051
_cell_angle_alpha 150.747981
_cell_angle_beta 120.016675
_cell_angle_gamma 51.351983
_cell_volume 886.578218
_symmetry_space_group_name_H-M "P -1"
_symmetry_group_IT_number 2
_symmetry_cell_setting 'triclinic'
loop_
_space_group_symop_operation_xyz
x,y,z
-x,-y,-z
loop_
_atom_site_type_symbol
_atom_site_label
_atom_site_fract_x
_atom_site_fract_y
_atom_site_fract_z
Si Si1 0.988338 0.911768 0.060258
Si Si2 0.220011 0.420119 0.258168
Si Si3 0.798788 0.858379 0.514946
Si Si4 0.846862 0.352174 0.910376
Si Si5 0.666397 0.221815 0.846722
Si Si6 0.585624 0.788650 0.399186
Si Si7 0.700992 0.253458 0.200771
Si Si8 0.110982 0.439467 0.375596
O O1 0.068874 0.705262 0.032555
O O2 0.947019 0.213634 0.363529
O O3 0.935541 0.750198 0.851803
O O4 0.000000 0.000000 0.000000
O O5 0.186518 0.558771 0.197991
O O6 0.250739 0.624771 0.552797
O O7 0.158058 0.402439 0.265249
O O8 0.284564 0.075055 0.016094
O O9 0.836346 0.668090 0.526113
O O10 0.842508 0.046147 0.684015
O O11 0.716675 0.104831 0.673675
O O12 0.802000 0.623075 0.199027
O O13 0.629103 0.996110 0.631227
O O14 0.606448 0.572774 0.101499
O O15 0.719876 0.198186 0.015121
O O16 0.619514 0.533498 0.333556
O O17 0.500000 0.000000 0.500000
#
# Coordination Sequence:
#
# PCOD9076699 Si02
#       8
#     2   2   2   2   2   2   2   2
#     4  12  23  39  57  85 108 149 198 249 300 357
#     4  12  24  40  56  89 114 157 193 245 291 348
#     4  12  21  40  60  86 109 159 190 252 282 342
#     4  12  27  38  58  83 120 147 203 243 300 347
#     4  10  20  33  60  92 117 147 198 225 282 340
#     4  10  18  33  58  98 129 143 178 243 285 325
#     4  10  19  36  59  84 123 146 189 230 282 345
#     4  12  22  37  66  75 112 151 195 248 306 341
#
# _framework density 18.046913
#
# number of rings (size 3 to 8) (size 9 to 14) (size 15 to 20)
#    0.750    0.000    5.000    3.750    1.750    1.000 
#    0.000    0.000    0.000    0.000    0.000   17.500 
#    0.000    0.000    0.000    0.000    0.000    0.000 
#
# Total GULP energy -89261.539188 kJ/mol
# GULP energy per Si atom -5578.846199 kJ/mol
# Density = 1.800584 g / cm^3
# Si number density = 18.046913 Si / 1000 Ang^3
#
#
#
# Elastic Constant Matrix: (Units=GPa)
#
#
# Indices 1 2 3 4 5 6 
#
# 1 51.0775 24.7724 29.8767 -5.8545 -10.6517 -9.7875
# 2 24.7724 74.5444 25.8734 -11.6270 -16.2200 -1.8055
# 3 29.8767 25.8734 122.7909 4.9171 2.5588 -6.9734
# 4 -5.8545 -11.6270 4.9171 20.7069 -7.7346 -3.2578
# 5 -10.6517 -16.2200 2.5588 -7.7346 30.6895 8.8967
# 6 -9.7875 -1.8055 -6.9734 -3.2578 8.8967 21.1037
#
#
#
# Elastic Compliance Matrix: (Units=1/GPa)
#
#
# Indices 1 2 3 4 5 6 
#
# 1 0.030830 -0.003080 -0.007098 0.014071 0.010472 0.009447
# 2 -0.003080 0.023291 -0.005664 0.019463 0.018371 -0.006048
# 3 -0.007098 -0.005664 0.011879 -0.011356 -0.010076 0.002644
# 4 0.014071 0.019463 -0.011356 0.079481 0.035663 0.001674
# 5 0.010472 0.018371 -0.010076 0.035663 0.060678 -0.016975
# 6 0.009447 -0.006048 0.002644 0.001674 -0.016975 0.059537
#
#
# Mechanical properties :
#
#
# Convention : Reuss Voigt Hill
#
# Bulk Modulus (GPa) = 29.13966 45.49530 37.31748
# Shear Modulus (GPa) = 16.19074 25.69270 20.94172
#
# Velocity S-wave (km/s) = 2.99849 3.77724 3.41017
# Velocity P-wave (km/s) = 5.30750 6.65489 6.01902
#
# Compressibility (1/GPa) = 0.03431749
#
# Stress axis : x y z
#
# Youngs Moduli (GPa) = 32.43559 42.93547 84.18112
#
# Poissons Ratio (x) = 0.13223 0.59749
# Poissons Ratio (y) = 0.09990 0.47679
# Poissons Ratio (z) = 0.23022 0.24318
#
# Static dielectric constant tensor:
#      x y z
#    x 1.614320 -0.010020 -0.015570 
#    y -0.010020 1.616920 0.025640 
#    z -0.015570 0.025640 1.641200 
# 
# From -- ./inp_files/138939.got.cif
#   From: 2010.05.17/outbox.cif.g08.bks.cpg/sg2_70_cif.got.tgz:138939.got - 2010.06.03 11:33:40.
