data_PCOD9076717
_publ_section_title
;
Structure prediction by ZEFSAII (Michael W. Deem and Ramdas Pophale) SiO2 
 PCOD9076717
Probable space group: P -1
;
_chemical_formula_sum "Si O2"
_cell_formula_units_Z 16
_cell_length_a 13.507672
_cell_length_b 11.916664
_cell_length_c 9.030287
_cell_angle_alpha 131.366284
_cell_angle_beta 137.769104
_cell_angle_gamma 46.439911
_cell_volume 673.263417
_symmetry_space_group_name_H-M "P -1"
_symmetry_group_IT_number 2
_symmetry_cell_setting 'triclinic'
loop_
_space_group_symop_operation_xyz
x,y,z
-x,-y,-z
loop_
_atom_site_type_symbol
_atom_site_label
_atom_site_fract_x
_atom_site_fract_y
_atom_site_fract_z
Si Si1 0.844999 0.051453 0.267215
Si Si2 0.327222 0.341013 0.322201
Si Si3 0.085424 0.653486 0.444637
Si Si4 0.851358 0.824116 0.822096
Si Si5 0.559289 0.329245 0.826451
Si Si6 0.708475 0.857515 0.136499
Si Si7 0.841395 0.416635 0.194957
Si Si8 0.359228 0.197727 0.681287
O O1 0.811347 0.235596 0.353589
O O2 0.718273 0.004373 0.178306
O O3 0.000000 0.000000 0.500000
O O4 0.885049 0.955004 0.072008
O O5 0.174883 0.511923 0.304085
O O6 0.262275 0.228585 0.246882
O O7 0.466244 0.354164 0.589046
O O8 0.360897 0.256629 0.128243
O O9 0.103647 0.592127 0.580599
O O10 0.898353 0.749707 0.285363
O O11 0.752064 0.865835 0.596434
O O12 0.012300 0.669237 0.827695
O O13 0.509422 0.204579 0.761043
O O14 0.500000 0.500000 0.000000
O O15 0.740247 0.303399 0.974431
O O16 0.616404 0.901378 0.227499
O O17 0.740067 0.608775 0.222842
#
# Coordination Sequence:
#
# PCOD9076717 Si02
#       8
#     2   2   2   2   2   2   2   2
#     4   9  22  36  50  83 118 148 173 226 283 328
#     4  10  19  34  60  83 112 144 184 226 276 325
#     4  11  18  33  56  85 113 142 180 230 278 319
#     4  10  18  34  58  85 107 141 186 229 268 324
#     4   9  18  34  54  84 114 143 176 232 278 322
#     4  10  20  34  55  83 112 145 184 226 274 324
#     4  11  19  32  59  90 111 136 186 236 275 316
#     4  10  18  33  59  84 108 140 188 231 270 319
#
# _framework density 23.764844
#
# number of rings (size 3 to 8) (size 9 to 14) (size 15 to 20)
#    0.000    2.000    5.000    1.500    0.000    2.500 
#    0.000    2.500    8.250    7.500    0.000    0.000 
#    0.000    0.000    0.000    0.000    0.000    0.000 
#
# Total GULP energy -89401.318164 kJ/mol
# GULP energy per Si atom -5587.582385 kJ/mol
# Density = 2.371075 g / cm^3
# Si number density = 23.764844 Si / 1000 Ang^3
#
#
#
# Elastic Constant Matrix: (Units=GPa)
#
#
# Indices 1 2 3 4 5 6 
#
# 1 73.4282 17.3936 44.3684 -8.6745 -2.5607 5.1956
# 2 17.3936 42.9034 17.3981 5.1072 -4.3836 5.7228
# 3 44.3684 17.3981 150.4424 11.8275 7.9915 -6.5345
# 4 -8.6745 5.1072 11.8275 24.2187 -7.4975 8.1666
# 5 -2.5607 -4.3836 7.9915 -7.4975 29.9386 -2.9839
# 6 5.1956 5.7228 -6.5345 8.1666 -2.9839 26.6867
#
#
#
# Elastic Compliance Matrix: (Units=1/GPa)
#
#
# Indices 1 2 3 4 5 6 
#
# 1 0.023735 -0.006294 -0.008696 0.019958 0.007363 -0.010685
# 2 -0.006294 0.027611 -0.001106 -0.005923 0.002025 -0.002927
# 3 -0.008696 -0.001106 0.011027 -0.012865 -0.006287 0.007864
# 4 0.019958 -0.005923 -0.012865 0.070463 0.019412 -0.025158
# 5 0.007363 0.002025 -0.006287 0.019412 0.040386 -0.004832
# 6 -0.010685 -0.002927 0.007864 -0.025158 -0.004832 0.049264
#
#
# Mechanical properties :
#
#
# Convention : Reuss Voigt Hill
#
# Bulk Modulus (GPa) = 33.13487 47.23266 40.18376
# Shear Modulus (GPa) = 18.88660 28.67640 23.78150
#
# Velocity S-wave (km/s) = 2.82215 3.47749 3.16682
# Velocity P-wave (km/s) = 4.95908 6.00350 5.50611
#
# Compressibility (1/GPa) = 0.03017969
#
# Stress axis : x y z
#
# Youngs Moduli (GPa) = 42.13204 36.21772 90.68993
#
# Poissons Ratio (x) = 0.22796 0.78866
# Poissons Ratio (y) = 0.26519 0.10029
# Poissons Ratio (z) = 0.36639 0.04005
#
# Static dielectric constant tensor:
#      x y z
#    x 1.930860 0.011510 -0.001670 
#    y 0.011510 1.952870 -0.010760 
#    z -0.001670 -0.010760 1.996250 
# 
# From -- ./inp_files/283037.got.cif
#   From: 2010.05.17/outbox.cif.g08.bks.cpg/sg2_142_cif.got.tgz:283037.got - 2010.06.03 11:33:40.
