data_PCOD9076121
_publ_section_title
;
Structure prediction by ZEFSAII (Michael W. Deem and Ramdas Pophale) SiO2 
 PCOD9076121
Probable space group: P -1
;
_chemical_formula_sum "Si O2"
_cell_formula_units_Z 16
_cell_length_a 10.424831
_cell_length_b 12.357156
_cell_length_c 14.469881
_cell_angle_alpha 43.933816
_cell_angle_beta 125.372422
_cell_angle_gamma 143.337864
_cell_volume 772.227719
_symmetry_space_group_name_H-M "P -1"
_symmetry_group_IT_number 2
_symmetry_cell_setting 'triclinic'
loop_
_space_group_symop_operation_xyz
x,y,z
-x,-y,-z
loop_
_atom_site_type_symbol
_atom_site_label
_atom_site_fract_x
_atom_site_fract_y
_atom_site_fract_z
Si Si1 0.029504 0.841799 0.942683
Si Si2 0.453777 0.719128 0.668847
Si Si3 0.936099 0.955914 0.658405
Si Si4 0.456344 0.929534 0.374141
Si Si5 0.134909 0.585955 0.912069
Si Si6 0.687901 0.668549 0.047555
Si Si7 0.383968 0.032323 0.101309
Si Si8 0.062660 0.815709 0.629071
O O1 0.862462 0.592699 0.000957
O O2 0.907708 0.839644 0.977849
O O3 0.244346 0.907016 0.030169
O O4 0.061968 0.975924 0.787024
O O5 0.692142 0.817317 0.678859
O O6 0.481769 0.867399 0.670830
O O7 0.314448 0.480035 0.792847
O O8 0.363472 0.752216 0.522360
O O9 0.965107 0.850279 0.651978
O O10 0.016379 0.168679 0.511113
O O11 0.319675 0.889405 0.253129
O O12 0.677542 0.997251 0.389548
O O13 0.361261 0.815552 0.890589
O O14 0.032253 0.616431 0.767436
O O15 0.000000 0.500000 0.000000
O O16 0.500000 0.500000 0.000000
O O17 0.638859 0.798556 0.994710
#
# Coordination Sequence:
#
# PCOD9076121 Si02
#       8
#     2   2   2   2   2   2   2   2
#     4  12  23  37  61  88 118 152 192 240 296 341
#     4  10  18  32  62  80 113 155 197 232 289 344
#     4  10  18  34  55  87 112 154 192 237 287 347
#     4   9  18  35  53  86 114 152 190 239 286 345
#     4  11  21  39  60  83 112 156 196 232 286 345
#     4  12  19  36  59  87 116 150 194 238 286 349
#     4  11  23  38  58  89 121 146 192 245 288 346
#     4   9  19  33  58  82 115 148 198 234 284 348
#
# _framework density 20.719277999999999
#
# number of rings (size 3 to 8) (size 9 to 14) (size 15 to 20)
#    0.000    1.500    5.000    1.125    0.000    0.500 
#    0.000    1.875    0.000    0.750    0.000    0.000 
#    0.000    0.000    0.000    0.000    0.000    0.000 
#
# Total GULP energy -89159.913110 kJ/mol
# GULP energy per Si atom -5572.494569 kJ/mol
# Density = 2.067212 g / cm^3
# Si number density = 20.719278 Si / 1000 Ang^3
#
#
#
# Elastic Constant Matrix: (Units=GPa)
#
#
# Indices 1 2 3 4 5 6 
#
# 1 81.8130 0.3827 6.7830 -0.9304 -5.4555 8.6394
# 2 0.3827 32.4827 25.7881 13.9075 -8.7940 7.6499
# 3 6.7830 25.7881 217.6247 -0.9561 -21.2408 5.9099
# 4 -0.9304 13.9075 -0.9561 24.4144 -0.9220 2.0860
# 5 -5.4555 -8.7940 -21.2408 -0.9220 28.8345 -2.5101
# 6 8.6394 7.6499 5.9099 2.0860 -2.5101 8.4688
#
#
#
# Elastic Compliance Matrix: (Units=1/GPa)
#
#
# Indices 1 2 3 4 5 6 
#
# 1 0.014324 0.005535 -0.000363 -0.000956 0.002500 -0.018383
# 2 0.005535 0.062414 -0.005342 -0.031088 0.011029 -0.047371
# 3 -0.000363 -0.005342 0.005466 0.003225 0.002548 0.001343
# 4 -0.000956 -0.031088 0.003225 0.057625 -0.004461 0.011291
# 5 0.002500 0.011029 0.002548 -0.004461 0.040139 -0.001295
# 6 -0.018383 -0.047371 0.001343 0.011291 -0.001295 0.175520
#
#
# Mechanical properties :
#
#
# Convention : Reuss Voigt Hill
#
# Bulk Modulus (GPa) = 12.21546 44.20310 28.20928
# Shear Modulus (GPa) = 13.05083 32.27466 22.66275
#
# Velocity S-wave (km/s) = 2.51248 3.95107 3.31085
# Velocity P-wave (km/s) = 3.78487 6.49578 5.31603
#
# Compressibility (1/GPa) = 0.08186350
#
# Stress axis : x y z
#
# Youngs Moduli (GPa) = 69.81174 16.02202 182.95402
#
# Poissons Ratio (x) = -0.08869 0.06648
# Poissons Ratio (y) = -0.38642 0.97737
# Poissons Ratio (z) = 0.02537 0.08559
#
# Static dielectric constant tensor:
#      x y z
#    x 1.678390 0.003980 0.017980 
#    y 0.003980 1.774370 0.014020 
#    z 0.017980 0.014020 1.815910 
# 
# From -- ./inp_files/311920.got.cif
#   From: 2010.05.17/outbox.cif.g08.bks.cpg/sg2_156_cif.got.tgz:311920.got - 2010.06.03 11:33:40.
