data_PCOD9076032
_publ_section_title
;
Structure prediction by ZEFSAII (Michael W. Deem and Ramdas Pophale) SiO2 
 PCOD9076032
Probable space group: P -1
;
_chemical_formula_sum "Si O2"
_cell_formula_units_Z 16
_cell_length_a 20.441611
_cell_length_b 13.591973
_cell_length_c 12.450693
_cell_angle_alpha 30.755753
_cell_angle_beta 22.772729
_cell_angle_gamma 31.438692
_cell_volume 651.610697
_symmetry_space_group_name_H-M "P -1"
_symmetry_group_IT_number 2
_symmetry_cell_setting 'triclinic'
loop_
_space_group_symop_operation_xyz
x,y,z
-x,-y,-z
loop_
_atom_site_type_symbol
_atom_site_label
_atom_site_fract_x
_atom_site_fract_y
_atom_site_fract_z
Si Si1 0.598141 0.180051 0.070229
Si Si2 0.721836 0.555140 0.594016
Si Si3 0.153791 0.594027 0.215064
Si Si4 0.250612 0.682793 0.646787
Si Si5 0.128301 0.071768 0.578679
Si Si6 0.567242 0.744562 0.983287
Si Si7 0.108716 0.357460 0.138952
Si Si8 0.930240 0.848164 0.819045
O O1 0.439373 0.237507 0.344819
O O2 0.657488 0.383350 0.795110
O O3 0.525026 0.169569 0.070962
O O4 0.770687 0.986490 0.004006
O O5 0.770054 0.491397 0.704012
O O6 0.913962 0.527487 0.279434
O O7 0.000000 0.500000 0.500000
O O8 0.046833 0.825957 0.181579
O O9 0.318384 0.491185 0.986497
O O10 0.419072 0.742626 0.295688
O O11 0.110258 0.732968 0.714922
O O12 0.165069 0.835474 0.728481
O O13 0.257293 0.451885 0.870217
O O14 0.098185 0.182673 0.402628
O O15 0.297430 0.130372 0.311971
O O16 0.140496 0.276567 0.046133
O O17 0.000000 0.000000 0.500000
#
# Coordination Sequence:
#
# PCOD9076032 Si02
#       8
#     2   2   2   2   2   2   2   2
#     4  10  18  32  59  82 106 146 186 223 273 321
#     4   9  17  32  54  83 110 140 181 228 268 323
#     4   8  16  31  56  80 105 144 185 222 270 323
#     4  12  23  35  57  84 110 147 182 225 278 326
#     4  10  20  38  58  78 109 148 183 226 275 325
#     4  10  19  34  56  83 109 144 189 225 271 329
#     4  11  22  37  56  83 114 141 182 228 274 329
#     4  12  19  36  56  80 112 144 179 222 276 326
#
# _framework density 24.554538000000001
#
# number of rings (size 3 to 8) (size 9 to 14) (size 15 to 20)
#    0.000    1.750    3.750    1.500    0.000    0.500 
#    0.000    1.875    0.000   25.500    0.000    0.000 
#    0.000    0.000    0.000    0.000    0.000    0.000 
#
# Total GULP energy -89401.704502 kJ/mol
# GULP energy per Si atom -5587.606531 kJ/mol
# Density = 2.449865 g / cm^3
# Si number density = 24.554538 Si / 1000 Ang^3
#
#
#
# Elastic Constant Matrix: (Units=GPa)
#
#
# Indices 1 2 3 4 5 6 
#
# 1 86.5757 10.8471 -12.3254 -3.1958 -25.9531 5.6322
# 2 10.8471 115.4356 5.3786 17.9111 -4.9579 22.5241
# 3 -12.3254 5.3786 47.7306 7.4134 -10.8879 -0.1914
# 4 -3.1958 17.9111 7.4134 40.3658 2.7527 -2.0275
# 5 -25.9531 -4.9579 -10.8879 2.7527 31.3714 -0.8250
# 6 5.6322 22.5241 -0.1914 -2.0275 -0.8250 43.0083
#
#
#
# Elastic Compliance Matrix: (Units=1/GPa)
#
#
# Indices 1 2 3 4 5 6 
#
# 1 0.018611 -0.000882 0.009316 -0.001193 0.018552 -0.001634
# 2 -0.000882 0.010723 -0.000408 -0.005117 0.001122 -0.005722
# 3 0.009316 -0.000408 0.028357 -0.005553 0.017951 -0.000797
# 4 -0.001193 -0.005117 -0.005553 0.028590 -0.006126 0.004042
# 5 0.018552 0.001122 0.017951 -0.006126 0.054112 -0.002188
# 6 -0.001634 -0.005722 -0.000797 0.004042 -0.002188 0.026607
#
#
# Mechanical properties :
#
#
# Convention : Reuss Voigt Hill
#
# Bulk Modulus (GPa) = 13.56069 28.61584 21.08827
# Shear Modulus (GPa) = 28.48523 39.33852 33.91188
#
# Velocity S-wave (km/s) = 3.40969 4.00695 3.72033
# Velocity P-wave (km/s) = 4.58650 5.75212 5.20206
#
# Compressibility (1/GPa) = 0.07374254
#
# Stress axis : x y z
#
# Youngs Moduli (GPa) = 53.73120 93.25424 35.26504
#
# Poissons Ratio (x) = 0.08225 -0.32853
# Poissons Ratio (y) = 0.04739 0.01440
# Poissons Ratio (z) = -0.50057 0.03809
#
# Static dielectric constant tensor:
#      x y z
#    x 1.944320 -0.051070 0.042720 
#    y -0.051070 2.009650 -0.017920 
#    z 0.042720 -0.017920 1.983210 
# 
# From -- ./inp_files/345127.got.cif
#   From: 2010.05.17/outbox.cif.g08.bks.cpg/sg2_173_cif.got.tgz:345127.got - 2010.06.03 11:33:40.
