data_PCOD9076013
_publ_section_title
;
Structure prediction by ZEFSAII (Michael W. Deem and Ramdas Pophale) SiO2 
 PCOD9076013
Probable space group: P -1
;
_chemical_formula_sum "Si O2"
_cell_formula_units_Z 15
_cell_length_a 15.036224
_cell_length_b 9.169469
_cell_length_c 6.984469
_cell_angle_alpha 49.861666
_cell_angle_beta 121.280632
_cell_angle_gamma 107.499765
_cell_volume 628.317909
_symmetry_space_group_name_H-M "P -1"
_symmetry_group_IT_number 2
_symmetry_cell_setting 'triclinic'
loop_
_space_group_symop_operation_xyz
x,y,z
-x,-y,-z
loop_
_atom_site_type_symbol
_atom_site_label
_atom_site_fract_x
_atom_site_fract_y
_atom_site_fract_z
Si Si1 0.842108 0.709963 0.203742
Si Si2 0.500000 0.000000 0.500000
Si Si3 0.520806 0.572200 0.748799
Si Si4 0.971628 0.711452 0.717093
Si Si5 0.704283 0.497271 0.505461
Si Si6 0.171262 0.943792 0.678768
Si Si7 0.757060 0.436935 0.042340
Si Si8 0.732598 0.073961 0.798059
O O1 0.938126 0.693737 0.471070
O O2 0.744070 0.658399 0.274981
O O3 0.832437 0.563199 0.144401
O O4 0.823377 0.930773 0.938200
O O5 0.487500 0.199351 0.449985
O O6 0.625547 0.007369 0.651919
O O7 0.419417 0.493589 0.596460
O O8 0.636286 0.491404 0.902664
O O9 0.500000 0.500000 0.000000
O O10 0.073555 0.832977 0.746654
O O11 0.879231 0.846236 0.597463
O O12 0.000000 0.500000 0.000000
O O13 0.763912 0.483859 0.784071
O O14 0.733286 0.301436 0.588849
O O15 0.219020 0.790384 0.711570
O O16 0.255597 0.953440 0.934463
#
# Coordination Sequence:
#
# PCOD9076013 Si02
#       8
#     2   1   2   2   2   2   2   2
#     4  11  21  39  63  88 122 159 200 252 300 354
#     4  10  18  32  58  88 114 160 204 230 288 360
#     4  11  20  37  59  85 125 166 200 241 296 350
#     4  10  20  40  66  85 115 160 199 246 314 363
#     4  10  21  37  59  86 125 166 198 243 297 351
#     4   9  21  38  58  88 121 153 196 254 302 350
#     4  11  21  38  61  92 121 158 205 248 297 357
#     4   9  18  35  57  84 122 157 196 240 293 353
#
# _framework density 23.873263999999999
#
# number of rings (size 3 to 8) (size 9 to 14) (size 15 to 20)
#    0.000    1.867    2.667    2.000    0.000    0.533 
#    0.000   11.333    0.000   13.600    0.000    0.000 
#    0.000    0.000    0.000    0.000    0.000    0.000 
#
# Total GULP energy -83511.069980 kJ/mol
# GULP energy per Si atom -5567.404665 kJ/mol
# Density = 2.381893 g / cm^3
# Si number density = 23.873264 Si / 1000 Ang^3
#
#
#
# Elastic Constant Matrix: (Units=GPa)
#
#
# Indices 1 2 3 4 5 6 
#
# 1 40.1554 3.2904 6.9743 -10.0036 9.7994 -3.1100
# 2 3.2904 110.8382 23.8396 4.8293 -7.7672 -2.3150
# 3 6.9743 23.8396 91.8512 -27.5069 11.2763 -5.4990
# 4 -10.0036 4.8293 -27.5069 53.2965 -8.9830 5.6401
# 5 9.7994 -7.7672 11.2763 -8.9830 30.5933 -5.1630
# 6 -3.1100 -2.3150 -5.4990 5.6401 -5.1630 37.8981
#
#
#
# Elastic Compliance Matrix: (Units=1/GPa)
#
#
# Indices 1 2 3 4 5 6 
#
# 1 0.028076 -0.001737 0.000663 0.004311 -0.008325 0.000518
# 2 -0.001737 0.010289 -0.003755 -0.002626 0.003928 0.000867
# 3 0.000663 -0.003755 0.014517 0.007194 -0.004359 0.000267
# 4 0.004311 -0.002626 0.007194 0.024083 0.002022 -0.002071
# 5 -0.008325 0.003928 -0.004359 0.002022 0.039221 0.003966
# 6 0.000518 0.000867 0.000267 -0.002071 0.003966 0.027369
#
#
# Mechanical properties :
#
#
# Convention : Reuss Voigt Hill
#
# Bulk Modulus (GPa) = 23.13488 34.56150 28.84819
# Shear Modulus (GPa) = 29.82900 38.27361 34.05130
#
# Velocity S-wave (km/s) = 3.53862 4.00834 3.78078
# Velocity P-wave (km/s) = 5.13883 5.99424 5.58294
#
# Compressibility (1/GPa) = 0.04322478
#
# Stress axis : x y z
#
# Youngs Moduli (GPa) = 35.61739 97.18882 68.88392
#
# Poissons Ratio (x) = 0.16877 -0.04568
# Poissons Ratio (y) = 0.06185 0.25869
# Poissons Ratio (z) = -0.02362 0.36499
#
# Static dielectric constant tensor:
#      x y z
#    x 1.941730 -0.023040 -0.000810 
#    y -0.023040 1.985160 0.020410 
#    z -0.000810 0.020410 1.941130 
# 
# From -- ./inp_files/327208.got.cif
#   From: 2010.05.17/outbox.cif.g08.bks.cpg/sg2_164_cif.got.tgz:327208.got - 2010.06.03 11:33:40.
