data_PCOD9076514
_publ_section_title
;
Structure prediction by ZEFSAII (Michael W. Deem and Ramdas Pophale) SiO2 
 PCOD9076514
Probable space group: P -1
;
_chemical_formula_sum "Si O2"
_cell_formula_units_Z 14
_cell_length_a 7.598169
_cell_length_b 14.162065
_cell_length_c 13.194787
_cell_angle_alpha 139.308606
_cell_angle_beta 42.973205
_cell_angle_gamma 118.833530
_cell_volume 622.560928
_symmetry_space_group_name_H-M "P -1"
_symmetry_group_IT_number 2
_symmetry_cell_setting 'triclinic'
loop_
_space_group_symop_operation_xyz
x,y,z
-x,-y,-z
loop_
_atom_site_type_symbol
_atom_site_label
_atom_site_fract_x
_atom_site_fract_y
_atom_site_fract_z
Si Si1 0.053863 0.370218 0.567270
Si Si2 0.666267 0.668412 0.951927
Si Si3 0.510912 0.970252 0.350432
Si Si4 0.598461 0.280972 0.561082
Si Si5 0.948557 0.649440 0.077975
Si Si6 0.893317 0.217328 0.690279
Si Si7 0.512245 0.582597 0.727285
O O1 0.876744 0.531111 0.784123
O O2 0.873521 0.286207 0.502796
O O3 0.086335 0.273801 0.576170
O O4 0.319946 0.390015 0.417502
O O5 0.629313 0.661495 0.839458
O O6 0.706073 0.825645 0.109422
O O7 0.370508 0.658760 0.103752
O O8 0.234597 0.923991 0.397073
O O9 0.500000 0.000000 0.500000
O O10 0.579478 0.119827 0.397738
O O11 0.364869 0.319365 0.775621
O O12 0.557181 0.412044 0.603883
O O13 0.999874 0.775416 0.237013
O O14 0.000000 0.500000 0.000000
O O15 0.201525 0.634470 0.887563
#
# Coordination Sequence:
#
# PCOD9076514 Si02
#       7
#     2   2   2   2   2   2   2
#     4  11  18  34  60  82 109 137 182 236 272 305
#     4   8  17  30  50  81 102 138 181 216 267 310
#     4  10  19  32  53  86 110 136 188 229 261 312
#     4  10  18  33  57  79 106 143 183 223 259 324
#     4   9  19  36  56  80 106 145 187 219 264 327
#     4   9  19  32  54  80 112 138 180 223 274 309
#     4   9  19  35  54  83 108 143 177 229 275 316
#
# _framework density 22.487757999999999
#
# number of rings (size 3 to 8) (size 9 to 14) (size 15 to 20)
#    0.857    1.714    1.429    3.000    0.000    2.857 
#    0.000    5.714    0.000    6.000    0.000    0.000 
#    0.000    0.000    0.000    0.000    0.000    0.000 
#
# Total GULP energy -78056.610590 kJ/mol
# GULP energy per Si atom -5575.472185 kJ/mol
# Density = 2.243657 g / cm^3
# Si number density = 22.487758 Si / 1000 Ang^3
#
#
#
# Elastic Constant Matrix: (Units=GPa)
#
#
# Indices 1 2 3 4 5 6 
#
# 1 74.6779 10.9186 -3.5013 1.0159 11.1463 26.9028
# 2 10.9186 110.8949 67.2493 -6.3134 7.2063 23.8218
# 3 -3.5013 67.2493 80.2055 9.7205 6.2170 24.1601
# 4 1.0159 -6.3134 9.7205 51.9704 20.2730 1.9600
# 5 11.1463 7.2063 6.2170 20.2730 32.5965 2.9853
# 6 26.9028 23.8218 24.1601 1.9600 2.9853 24.5955
#
#
#
# Elastic Compliance Matrix: (Units=1/GPa)
#
#
# Indices 1 2 3 4 5 6 
#
# 1 0.039340 -0.005315 0.025561 0.000816 -0.012018 -0.061598
# 2 -0.005315 0.021724 -0.020548 0.008202 -0.004613 0.004864
# 3 0.025561 -0.020548 0.048605 -0.008878 -0.002933 -0.054738
# 4 0.000816 0.008202 -0.008878 0.029098 -0.018479 -0.000191
# 5 -0.012018 -0.004613 -0.002933 -0.018479 0.046363 0.016340
# 6 -0.061598 0.004864 -0.054738 -0.000191 0.016340 0.155124
#
#
# Mechanical properties :
#
#
# Convention : Reuss Voigt Hill
#
# Bulk Modulus (GPa) = 9.16888 46.12349 27.64619
# Shear Modulus (GPa) = 13.25517 34.57327 23.91422
#
# Velocity S-wave (km/s) = 2.43047 3.92526 3.26457
# Velocity P-wave (km/s) = 3.45867 6.41081 5.15077
#
# Compressibility (1/GPa) = 0.10906456
#
# Stress axis : x y z
#
# Youngs Moduli (GPa) = 25.41964 46.03305 20.57420
#
# Poissons Ratio (x) = 0.24466 -0.52590
# Poissons Ratio (y) = 0.13510 0.42276
# Poissons Ratio (z) = -0.64976 0.94589
#
# Static dielectric constant tensor:
#      x y z
#    x 1.923700 -0.031890 0.025030 
#    y -0.031890 1.833890 0.037880 
#    z 0.025030 0.037880 1.904630 
# 
# From -- ./inp_files/504316.got.cif
#   From: 2010.05.17/outbox.cif.g08.bks.cpg/sg2_253_cif.got.tgz:504316.got - 2010.06.03 11:33:40.
