data_PCOD9076109
_publ_section_title
;
Structure prediction by ZEFSAII (Michael W. Deem and Ramdas Pophale) SiO2 
 PCOD9076109
Probable space group: P -1
;
_chemical_formula_sum "Si O2"
_cell_formula_units_Z 16
_cell_length_a 19.922095
_cell_length_b 8.862245
_cell_length_c 9.176298
_cell_angle_alpha 83.008989
_cell_angle_beta 123.384119
_cell_angle_gamma 51.423287
_cell_volume 742.534277
_symmetry_space_group_name_H-M "P -1"
_symmetry_group_IT_number 2
_symmetry_cell_setting 'triclinic'
loop_
_space_group_symop_operation_xyz
x,y,z
-x,-y,-z
loop_
_atom_site_type_symbol
_atom_site_label
_atom_site_fract_x
_atom_site_fract_y
_atom_site_fract_z
Si Si1 0.405630 0.007901 0.340024
Si Si2 0.171384 0.040045 0.664779
Si Si3 0.020438 0.065434 0.712370
Si Si4 0.725935 0.407360 0.351673
Si Si5 0.875572 0.010670 0.838429
Si Si6 0.076505 0.627578 0.861150
Si Si7 0.417157 0.687547 0.522996
Si Si8 0.557702 0.202353 0.907153
O O1 0.500000 0.000000 0.500000
O O2 0.436200 0.835557 0.521901
O O3 0.442052 0.883886 0.237731
O O4 0.238052 0.316610 0.098333
O O5 0.111757 0.044967 0.734493
O O6 0.027882 0.310034 0.371177
O O7 0.248234 0.786436 0.689265
O O8 0.280779 0.006249 0.826455
O O9 0.844924 0.342746 0.447121
O O10 0.066030 0.817948 0.764064
O O11 0.061119 0.024550 0.934079
O O12 0.554509 0.704911 0.129273
O O13 0.786306 0.272592 0.602372
O O14 0.001630 0.751707 0.915146
O O15 0.753049 0.079880 0.719251
O O16 0.500000 0.500000 0.500000
O O17 0.485043 0.483547 0.757960
#
# Coordination Sequence:
#
# PCOD9076109 Si02
#       8
#     2   2   2   2   2   2   2   2
#     4  11  25  36  57  88 125 157 188 250 307 342
#     4  10  20  37  61  88 114 160 198 242 287 356
#     4  10  18  32  61  89 118 154 197 244 293 346
#     4   9  18  33  56  91 115 147 200 249 287 340
#     4   9  18  33  60  84 115 156 199 244 284 344
#     4  10  22  36  56  88 123 151 199 242 296 351
#     4   9  19  36  55  86 113 152 196 235 286 347
#     4  10  21  37  62  84 117 158 202 236 293 358
#
# _framework density 21.547826000000001
#
# number of rings (size 3 to 8) (size 9 to 14) (size 15 to 20)
#    0.000    2.500    0.000    4.875    8.750    1.000 
#    0.000    0.000    0.000    4.500    0.000    0.000 
#    0.000    0.000    0.000    0.000    0.000    0.000 
#
# Total GULP energy -89279.385621 kJ/mol
# GULP energy per Si atom -5579.961601 kJ/mol
# Density = 2.149878 g / cm^3
# Si number density = 21.547826 Si / 1000 Ang^3
#
#
#
# Elastic Constant Matrix: (Units=GPa)
#
#
# Indices 1 2 3 4 5 6 
#
# 1 76.8519 31.4902 34.4514 -2.8840 27.7713 -17.0242
# 2 31.4902 50.3859 50.3368 -3.7549 16.1990 -7.4505
# 3 34.4514 50.3368 123.0530 12.7734 25.9785 -5.2003
# 4 -2.8840 -3.7549 12.7734 40.0333 -6.3424 5.2413
# 5 27.7713 16.1990 25.9785 -6.3424 31.4966 3.0666
# 6 -17.0242 -7.4505 -5.2003 5.2413 3.0666 35.0514
#
#
#
# Elastic Compliance Matrix: (Units=1/GPa)
#
#
# Indices 1 2 3 4 5 6 
#
# 1 0.027802 -0.010866 0.002899 -0.005628 -0.023866 0.014553
# 2 -0.010866 0.041974 -0.015565 0.008550 0.002569 -0.000168
# 3 0.002899 -0.015565 0.016930 -0.008694 -0.010541 0.002833
# 4 -0.005628 0.008550 -0.008694 0.031588 0.014898 -0.008233
# 5 -0.023866 0.002569 -0.010541 0.014898 0.065165 -0.020538
# 6 0.014553 -0.000168 0.002833 -0.008233 -0.020538 0.039010
#
#
# Mechanical properties :
#
#
# Convention : Reuss Voigt Hill
#
# Bulk Modulus (GPa) = 25.22638 53.64973 39.43805
# Shear Modulus (GPa) = 17.68367 30.25040 23.96704
#
# Velocity S-wave (km/s) = 2.86784 3.75089 3.33869
# Velocity P-wave (km/s) = 4.76431 6.61143 5.76236
#
# Compressibility (1/GPa) = 0.03964104
#
# Stress axis : x y z
#
# Youngs Moduli (GPa) = 35.96885 23.82433 59.06822
#
# Poissons Ratio (x) = 0.25888 -0.17124
# Poissons Ratio (y) = 0.39085 0.91939
# Poissons Ratio (z) = -0.10428 0.37082
#
# Static dielectric constant tensor:
#      x y z
#    x 1.842350 -0.005860 0.008430 
#    y -0.005860 1.784130 0.002830 
#    z 0.008430 0.002830 1.732340 
# 
# From -- ./inp_files/473677.got.cif
#   From: 2010.05.17/outbox.cif.g08.bks.cpg/sg2_237_cif.got.tgz:473677.got - 2010.06.03 11:33:40.
