data_PCOD9076377
_publ_section_title
;
Structure prediction by ZEFSAII (Michael W. Deem and Ramdas Pophale) SiO2 
 PCOD9076377
Probable space group: P -1
;
_chemical_formula_sum "Si O2"
_cell_formula_units_Z 16
_cell_length_a 18.428315
_cell_length_b 8.931081
_cell_length_c 14.457042
_cell_angle_alpha 38.855518
_cell_angle_beta 43.383381
_cell_angle_gamma 28.415114
_cell_volume 703.312415
_symmetry_space_group_name_H-M "P -1"
_symmetry_group_IT_number 2
_symmetry_cell_setting 'triclinic'
loop_
_space_group_symop_operation_xyz
x,y,z
-x,-y,-z
loop_
_atom_site_type_symbol
_atom_site_label
_atom_site_fract_x
_atom_site_fract_y
_atom_site_fract_z
Si Si1 0.308076 0.532724 0.973525
Si Si2 0.614493 0.333861 0.352869
Si Si3 0.370426 0.526187 0.369724
Si Si4 0.187464 0.365697 0.396490
Si Si5 0.129480 0.351921 0.246081
Si Si6 0.105409 0.626359 0.537873
Si Si7 0.499553 0.001038 0.790957
Si Si8 0.590516 0.226782 0.131892
O O1 0.186333 0.518909 0.081464
O O2 0.457785 0.171396 0.062787
O O3 0.338159 0.598592 0.815106
O O4 0.278888 0.808584 0.935189
O O5 0.490153 0.345308 0.429256
O O6 0.537711 0.661340 0.328255
O O7 0.752770 0.971308 0.446936
O O8 0.276137 0.434240 0.497104
O O9 0.471512 0.390677 0.248404
O O10 0.255426 0.943651 0.293475
O O11 0.124933 0.395267 0.340678
O O12 0.091887 0.654429 0.425350
O O13 0.336162 0.282432 0.275969
O O14 0.964330 0.510012 0.297874
O O15 0.000000 0.000000 0.500000
O O16 0.372922 0.078903 0.807734
O O17 0.500000 0.500000 0.000000
#
# Coordination Sequence:
#
# PCOD9076377 Si02
#       8
#     2   2   2   2   2   2   2   2
#     4   9  19  34  53  85 113 154 186 225 280 344
#     4  11  21  33  58  90 123 143 174 236 300 344
#     4  10  19  34  55  87 115 145 188 232 287 330
#     4  11  21  37  57  88 114 148 187 236 291 331
#     4  10  21  37  61  79 110 155 201 230 265 335
#     4  10  22  40  58  82 109 153 200 239 264 330
#     4  10  18  33  55  84 120 147 183 223 284 351
#     4   9  18  29  51  81 118 139 180 231 277 334
#
# _framework density 22.749492
#
# number of rings (size 3 to 8) (size 9 to 14) (size 15 to 20)
#    0.000    2.000    3.750    1.125    3.500    0.500 
#    0.000    0.625    0.000    0.000    0.000    8.750 
#    0.000    0.000    0.000    0.000    0.000    0.000 
#
# Total GULP energy -89239.661321 kJ/mol
# GULP energy per Si atom -5577.478833 kJ/mol
# Density = 2.269771 g / cm^3
# Si number density = 22.749492 Si / 1000 Ang^3
#
#
#
# Elastic Constant Matrix: (Units=GPa)
#
#
# Indices 1 2 3 4 5 6 
#
# 1 108.7850 9.7076 64.3079 -0.2936 -39.6291 19.7005
# 2 9.7076 57.0950 14.2063 4.1742 8.1799 16.2185
# 3 64.3079 14.2063 110.2568 8.5397 -14.6270 -5.7623
# 4 -0.2936 4.1742 8.5397 20.7588 2.7725 1.8978
# 5 -39.6291 8.1799 -14.6270 2.7725 59.8913 6.2218
# 6 19.7005 16.2185 -5.7623 1.8978 6.2218 26.4298
#
#
#
# Elastic Compliance Matrix: (Units=1/GPa)
#
#
# Indices 1 2 3 4 5 6 
#
# 1 0.040099 0.008419 -0.024540 0.010066 0.023778 -0.046726
# 2 0.008419 0.024789 -0.009100 0.000756 0.002431 -0.024097
# 3 -0.024540 -0.009100 0.025537 -0.010473 -0.011696 0.032948
# 4 0.010066 0.000756 -0.010473 0.053415 0.003065 -0.014807
# 5 0.023778 0.002431 -0.011696 0.003065 0.032171 -0.029558
# 6 -0.046726 -0.024097 0.032948 -0.014807 -0.029558 0.102657
#
#
# Mechanical properties :
#
#
# Convention : Reuss Voigt Hill
#
# Bulk Modulus (GPa) = 25.01076 50.28671 37.64873
# Shear Modulus (GPa) = 14.60126 33.94366 24.27246
#
# Velocity S-wave (km/s) = 2.53618 3.86691 3.26996
# Velocity P-wave (km/s) = 4.42653 6.48767 5.55356
#
# Compressibility (1/GPa) = 0.03998279
#
# Stress axis : x y z
#
# Youngs Moduli (GPa) = 24.93849 40.34040 39.15948
#
# Poissons Ratio (x) = -0.33961 0.96096
# Poissons Ratio (y) = -0.20995 0.35634
# Poissons Ratio (z) = 0.61198 0.36709
#
# Static dielectric constant tensor:
#      x y z
#    x 1.936740 0.010450 -0.070610 
#    y 0.010450 1.897370 0.000210 
#    z -0.070610 0.000210 1.907300 
# 
# From -- ./inp_files/540181.got.cif
#   From: 2010.05.17/outbox.cif.g08.bks.cpg/sg2_271_cif.got.tgz:540181.got - 2010.06.03 11:33:40.
