data_PCOD9076126
_publ_section_title
;
Structure prediction by ZEFSAII (Michael W. Deem and Ramdas Pophale) SiO2 
 PCOD9076126
Probable space group: P -1
;
_chemical_formula_sum "Si O2"
_cell_formula_units_Z 15
_cell_length_a 14.229862
_cell_length_b 6.949158
_cell_length_c 7.867782
_cell_angle_alpha 110.642388
_cell_angle_beta 73.038175
_cell_angle_gamma 66.685329
_cell_volume 578.328515
_symmetry_space_group_name_H-M "P -1"
_symmetry_group_IT_number 2
_symmetry_cell_setting 'triclinic'
loop_
_space_group_symop_operation_xyz
x,y,z
-x,-y,-z
loop_
_atom_site_type_symbol
_atom_site_label
_atom_site_fract_x
_atom_site_fract_y
_atom_site_fract_z
Si Si1 0.849273 0.970220 0.051894
Si Si2 0.866624 0.729572 0.640993
Si Si3 0.341962 0.721213 0.498941
Si Si4 0.500000 0.000000 0.500000
Si Si5 0.798388 0.245781 0.734150
Si Si6 0.271978 0.270098 0.586519
Si Si7 0.560719 0.543068 0.141435
Si Si8 0.072258 0.709909 0.058987
O O1 0.732656 0.201939 0.266991
O O2 0.918146 0.063870 0.938063
O O3 0.941226 0.796269 0.097907
O O4 0.824310 0.822080 0.883720
O O5 0.781573 0.691713 0.558686
O O6 0.000000 0.500000 0.500000
O O7 0.861187 0.952810 0.613580
O O8 0.269425 0.673432 0.383258
O O9 0.481114 0.538529 0.333873
O O10 0.322986 0.992636 0.550324
O O11 0.604719 0.754606 0.477218
O O12 0.539626 0.812634 0.252656
O O13 0.888224 0.315096 0.773501
O O14 0.697580 0.353384 0.967297
O O15 0.169712 0.474600 0.825212
O O16 0.500000 0.500000 0.000000
#
# Coordination Sequence:
#
# PCOD9076126 Si02
#       8
#     2   2   2   1   2   2   2   2
#     4  10  21  36  55  81 121 147 194 236 294 352
#     4  10  19  35  55  80 111 156 191 228 289 365
#     4   9  20  35  55  87 111 148 194 248 283 337
#     4  10  18  32  62  86 110 142 208 246 278 350
#     4   9  18  34  56  82 111 150 196 233 291 355
#     4  10  19  35  59  82 106 151 196 234 288 341
#     4   9  17  33  58  83 113 150 192 239 296 348
#     4  10  19  34  56  79 111 157 184 229 295 356
#
# _framework density 25.936814999999999
#
# number of rings (size 3 to 8) (size 9 to 14) (size 15 to 20)
#    0.000    2.400    2.667    0.800    0.000    1.067 
#    0.000    4.000    0.000    3.200    0.000    0.000 
#    0.000    0.000    0.000    0.000    0.000    0.000 
#
# Total GULP energy -83527.582722 kJ/mol
# GULP energy per Si atom -5568.505515 kJ/mol
# Density = 2.587778 g / cm^3
# Si number density = 25.936815 Si / 1000 Ang^3
#
#
#
# Elastic Constant Matrix: (Units=GPa)
#
#
# Indices 1 2 3 4 5 6 
#
# 1 77.1077 17.6278 51.5228 -4.7601 7.7653 -33.5119
# 2 17.6278 35.0739 16.9698 21.5616 -7.9904 1.3661
# 3 51.5228 16.9698 165.4108 8.2531 4.2594 -27.1034
# 4 -4.7601 21.5616 8.2531 48.9988 -10.0998 -7.6219
# 5 7.7653 -7.9904 4.2594 -10.0998 48.8183 4.0647
# 6 -33.5119 1.3661 -27.1034 -7.6219 4.0647 53.7588
#
#
#
# Elastic Compliance Matrix: (Units=1/GPa)
#
#
# Indices 1 2 3 4 5 6 
#
# 1 0.035603 -0.030484 -0.004812 0.019731 -0.008145 0.023956
# 2 -0.030484 0.069387 -0.000558 -0.035276 0.011196 -0.026896
# 3 -0.004812 -0.000558 0.007812 -0.001496 -0.000381 0.000770
# 4 0.019731 -0.035276 -0.001496 0.040558 -0.001918 0.018337
# 5 -0.008145 0.011196 -0.000381 -0.001918 0.023884 -0.007632
# 6 0.023956 -0.026896 0.000770 0.018337 -0.007632 0.037784
#
#
# Mechanical properties :
#
#
# Convention : Reuss Voigt Hill
#
# Bulk Modulus (GPa) = 24.33461 49.98146 37.15804
# Shear Modulus (GPa) = 16.64260 43.07999 29.86130
#
# Velocity S-wave (km/s) = 2.53585 4.07991 3.39678
# Velocity P-wave (km/s) = 4.23989 6.44255 5.45358
#
# Compressibility (1/GPa) = 0.04109373
#
# Stress axis : x y z
#
# Youngs Moduli (GPa) = 28.08753 14.41200 128.00358
#
# Poissons Ratio (x) = 0.43933 0.61592
# Poissons Ratio (y) = 0.85622 0.07148
# Poissons Ratio (z) = 0.13515 0.00805
#
# Static dielectric constant tensor:
#      x y z
#    x 1.922170 -0.083760 0.124610 
#    y -0.083760 2.106400 -0.009020 
#    z 0.124610 -0.009020 1.984530 
# 
# From -- ./inp_files/191882.got.cif
#   From: 2010.05.17/outbox.cif.g08.bks.cpg/sg2_96_cif.got.tgz:191882.got - 2010.06.03 11:33:40.
