data_PCOD9076337
_publ_section_title
;
Structure prediction by ZEFSAII (Michael W. Deem and Ramdas Pophale) SiO2 
 PCOD9076337
Probable space group: P -1
;
_chemical_formula_sum "Si O2"
_cell_formula_units_Z 12
_cell_length_a 12.851234
_cell_length_b 8.566502
_cell_length_c 12.281278
_cell_angle_alpha 56.513412
_cell_angle_beta 59.347836
_cell_angle_gamma 106.895769
_cell_volume 585.747888
_symmetry_space_group_name_H-M "P -1"
_symmetry_group_IT_number 2
_symmetry_cell_setting 'triclinic'
loop_
_space_group_symop_operation_xyz
x,y,z
-x,-y,-z
loop_
_atom_site_type_symbol
_atom_site_label
_atom_site_fract_x
_atom_site_fract_y
_atom_site_fract_z
Si Si1 0.946323 0.717637 0.650494
Si Si2 0.956777 0.166488 0.976053
Si Si3 0.332337 0.576065 0.277964
Si Si4 0.250467 0.076240 0.027130
Si Si5 0.851329 0.383786 0.483354
Si Si6 0.985662 0.854834 0.811485
O O1 0.751665 0.454221 0.780697
O O2 0.925899 0.662664 0.811396
O O3 0.122625 0.802875 0.478384
O O4 0.000000 0.000000 0.500000
O O5 0.958390 0.194918 0.092690
O O6 0.759616 0.957348 0.086939
O O7 0.126385 0.490861 0.695533
O O8 0.000000 0.000000 0.000000
O O9 0.547557 0.747365 0.097713
O O10 0.319045 0.730332 0.311364
O O11 0.175590 0.222744 0.539373
O O12 0.190105 0.212783 0.039714
O O13 0.059166 0.713587 0.301260
#
# Coordination Sequence:
#
# PCOD9076337 Si02
#       6
#     2   2   2   2   2   2
#     4  10  21  34  53  74 104 142 163 203 261 298
#     4   8  15  34  54  76  99 130 169 210 252 286
#     4  10  18  33  55  76 101 134 169 210 249 296
#     4   8  18  32  54  81  93 134 172 208 254 285
#     4   9  19  35  52  78 101 130 174 210 244 301
#     4   9  18  35  50  77 108 129 169 204 251 309
#
# _framework density 20.486628
#
# number of rings (size 3 to 8) (size 9 to 14) (size 15 to 20)
#    1.000    2.000    1.667    0.500    0.000    2.667 
#    0.000    3.333    0.000    1.000    0.000    0.000 
#    0.000    0.000    0.000    0.000    0.000    0.000 
#
# Total GULP energy -66814.543834 kJ/mol
# GULP energy per Si atom -5567.878653 kJ/mol
# Density = 2.044000 g / cm^3
# Si number density = 20.486628 Si / 1000 Ang^3
#
#
#
# Elastic Constant Matrix: (Units=GPa)
#
#
# Indices 1 2 3 4 5 6 
#
# 1 70.3365 22.0146 25.5418 11.3038 4.5620 11.6554
# 2 22.0146 72.4009 18.4106 29.2692 14.5744 4.7964
# 3 25.5418 18.4106 44.6500 7.9379 1.9983 12.8513
# 4 11.3038 29.2692 7.9379 26.8041 2.6247 16.6055
# 5 4.5620 14.5744 1.9983 2.6247 38.0290 13.1715
# 6 11.6554 4.7964 12.8513 16.6055 13.1715 43.8528
#
#
#
# Elastic Compliance Matrix: (Units=1/GPa)
#
#
# Indices 1 2 3 4 5 6 
#
# 1 0.018805 -0.002882 -0.008895 -0.001131 -0.000039 -0.001636
# 2 -0.002882 0.044520 -0.013515 -0.059105 -0.021908 0.028818
# 3 -0.008895 -0.013515 0.034008 0.016961 0.008521 -0.015106
# 4 -0.001131 -0.059105 0.016961 0.129440 0.032721 -0.057048
# 5 -0.000039 -0.021908 0.008521 0.032721 0.040530 -0.024654
# 6 -0.001636 0.028818 -0.015106 -0.057048 -0.024654 0.053520
#
#
# Mechanical properties :
#
#
# Convention : Reuss Voigt Hill
#
# Bulk Modulus (GPa) = 21.39064 35.48014 28.43539
# Shear Modulus (GPa) = 12.92019 29.83186 21.37603
#
# Velocity S-wave (km/s) = 2.51403 3.82011 3.23370
# Velocity P-wave (km/s) = 4.34638 6.06745 5.27755
#
# Compressibility (1/GPa) = 0.04674942
#
# Stress axis : x y z
#
# Youngs Moduli (GPa) = 53.17698 22.46180 29.40453
#
# Poissons Ratio (x) = 0.06474 0.26156
# Poissons Ratio (y) = 0.15328 0.39739
# Poissons Ratio (z) = 0.47301 0.30356
#
# Static dielectric constant tensor:
#      x y z
#    x 1.757030 0.020930 0.070830 
#    y 0.020930 1.786970 0.016800 
#    z 0.070830 0.016800 1.776280 
# 
# From -- ./inp_files/415974.got.cif
#   From: 2010.05.17/outbox.cif.g08.bks.cpg/sg2_208_cif.got.tgz:415974.got - 2010.06.03 11:33:40.
