data_PCOD9076940
_publ_section_title
;
Structure prediction by ZEFSAII (Michael W. Deem and Ramdas Pophale) SiO2 
 PCOD9076940
Probable space group: P -1
;
_chemical_formula_sum "Si O2"
_cell_formula_units_Z 16
_cell_length_a 18.697489
_cell_length_b 11.372309
_cell_length_c 16.546115
_cell_angle_alpha 21.756989
_cell_angle_beta 34.287066
_cell_angle_gamma 38.181272
_cell_volume 731.711436
_symmetry_space_group_name_H-M "P -1"
_symmetry_group_IT_number 2
_symmetry_cell_setting 'triclinic'
loop_
_space_group_symop_operation_xyz
x,y,z
-x,-y,-z
loop_
_atom_site_type_symbol
_atom_site_label
_atom_site_fract_x
_atom_site_fract_y
_atom_site_fract_z
Si Si1 0.659893 0.490611 0.028141
Si Si2 0.976226 0.072581 0.256905
Si Si3 0.215076 0.340317 0.352626
Si Si4 0.415240 0.608386 0.089500
Si Si5 0.154217 0.251335 0.094884
Si Si6 0.206921 0.911465 0.426622
Si Si7 0.353723 0.682777 0.677416
Si Si8 0.588858 0.646075 0.391729
O O1 0.750285 0.445326 0.893588
O O2 0.688317 0.841044 0.809100
O O3 0.512471 0.475372 0.152882
O O4 0.692011 0.280294 0.211214
O O5 0.896142 0.065212 0.420559
O O6 0.116683 0.081881 0.155926
O O7 0.925852 0.779847 0.441566
O O8 0.935535 0.410041 0.035311
O O9 0.277747 0.484076 0.280820
O O10 0.301682 0.002460 0.476232
O O11 0.500000 0.500000 0.000000
O O12 0.399493 0.986302 0.870337
O O13 0.148275 0.028418 0.320900
O O14 0.291800 0.386536 0.883888
O O15 0.280134 0.564858 0.582543
O O16 0.503939 0.635396 0.559059
O O17 0.500000 0.500000 0.500000
#
# Coordination Sequence:
#
# PCOD9076940 Si02
#       8
#     2   2   2   2   2   2   2   2
#     4   9  17  30  47  71 101 133 169 199 249 306
#     4   9  17  34  53  73 100 132 170 222 249 294
#     4   9  17  33  49  70 102 131 175 213 245 296
#     4  10  18  34  51  70 103 145 175 197 249 314
#     4   9  18  30  51  78  98 130 175 211 257 296
#     4  10  19  31  48  75 107 132 165 209 261 301
#     4  10  19  31  50  78 105 134 166 210 255 304
#     4  12  20  34  52  75 115 140 163 208 261 312
#
# _framework density 21.866543
#
# number of rings (size 3 to 8) (size 9 to 14) (size 15 to 20)
#    0.000    2.250    3.750    1.875    0.000    2.500 
#    2.250    0.000    0.000    0.750    0.000   14.000 
#    0.000    0.000    0.000    0.000    0.000    0.000 
#
# Total GULP energy -89174.758372 kJ/mol
# GULP energy per Si atom -5573.422398 kJ/mol
# Density = 2.181677 g / cm^3
# Si number density = 21.866543 Si / 1000 Ang^3
#
#
#
# Elastic Constant Matrix: (Units=GPa)
#
#
# Indices 1 2 3 4 5 6 
#
# 1 135.0293 3.4168 47.8029 -0.4411 -9.8428 -14.3211
# 2 3.4168 36.2041 13.8506 -6.7451 5.1183 1.8015
# 3 47.8029 13.8506 78.8594 -2.9919 -9.4426 -1.6177
# 4 -0.4411 -6.7451 -2.9919 21.8253 -0.0441 -3.7363
# 5 -9.8428 5.1183 -9.4426 -0.0441 56.7621 3.4147
# 6 -14.3211 1.8015 -1.6177 -3.7363 3.4147 11.6921
#
#
#
# Elastic Compliance Matrix: (Units=1/GPa)
#
#
# Indices 1 2 3 4 5 6 
#
# 1 0.011112 0.001198 -0.006611 0.001940 -0.000071 0.013152
# 2 0.001198 0.032225 -0.006501 0.009012 -0.003747 -0.000424
# 3 -0.006611 -0.006501 0.018024 -0.000627 0.002775 -0.005613
# 4 0.001940 0.009012 -0.000627 0.051612 -0.001615 0.017865
# 5 -0.000071 -0.003747 0.002775 -0.001615 0.018711 -0.005106
# 6 0.013152 -0.000424 -0.005613 0.017865 -0.005106 0.108125
#
#
# Mechanical properties :
#
#
# Convention : Reuss Voigt Hill
#
# Bulk Modulus (GPa) = 26.64482 42.24817 34.44649
# Shear Modulus (GPa) = 18.10617 30.39073 24.24845
#
# Velocity S-wave (km/s) = 2.88067 3.73208 3.33367
# Velocity P-wave (km/s) = 4.82452 6.15907 5.53219
#
# Compressibility (1/GPa) = 0.03753075
#
# Stress axis : x y z
#
# Youngs Moduli (GPa) = 89.99216 31.03163 55.48261
#
# Poissons Ratio (x) = -0.03716 0.36681
# Poissons Ratio (y) = -0.10777 0.36071
# Poissons Ratio (z) = 0.59497 0.20175
#
# Static dielectric constant tensor:
#      x y z
#    x 1.873180 -0.012990 -0.068280 
#    y -0.012990 1.814370 0.048840 
#    z -0.068280 0.048840 1.829630 
# 
# From -- ./inp_files/336859.got.cif
#   From: 2010.05.17/outbox.cif.g08.bks.cpg/sg2_169_cif.got.tgz:336859.got - 2010.06.03 11:33:40.
