data_PCOD9076123
_publ_section_title
;
Structure prediction by ZEFSAII (Michael W. Deem and Ramdas Pophale) SiO2 
 PCOD9076123
Probable space group: P -1
;
_chemical_formula_sum "Si O2"
_cell_formula_units_Z 16
_cell_length_a 8.098454
_cell_length_b 22.877981
_cell_length_c 13.306878
_cell_angle_alpha 36.073541
_cell_angle_beta 27.376689
_cell_angle_gamma 35.423048
_cell_volume 623.098529
_symmetry_space_group_name_H-M "P -1"
_symmetry_group_IT_number 2
_symmetry_cell_setting 'triclinic'
loop_
_space_group_symop_operation_xyz
x,y,z
-x,-y,-z
loop_
_atom_site_type_symbol
_atom_site_label
_atom_site_fract_x
_atom_site_fract_y
_atom_site_fract_z
Si Si1 0.070076 0.248802 0.042343
Si Si2 0.904449 0.902167 0.931061
Si Si3 0.103601 0.781551 0.394030
Si Si4 0.025094 0.210208 0.329428
Si Si5 0.890020 0.409847 0.453191
Si Si6 0.705216 0.004444 0.243271
Si Si7 0.812014 0.459470 0.755254
Si Si8 0.358844 0.686763 0.084758
O O1 0.522289 0.215727 0.870106
O O2 0.013847 0.351342 0.861263
O O3 0.005645 0.154155 0.147771
O O4 0.845042 0.264837 0.247058
O O5 0.150844 0.955719 0.788298
O O6 0.999230 0.791801 0.097748
O O7 0.500000 0.000000 0.000000
O O8 0.996461 0.680149 0.567344
O O9 0.206485 0.787394 0.447535
O O10 0.753215 0.884435 0.406543
O O11 0.282701 0.088235 0.334956
O O12 0.303162 0.270922 0.132166
O O13 0.500000 0.500000 0.500000
O O14 0.770054 0.354144 0.688556
O O15 0.194685 0.457355 0.268272
O O16 0.000000 0.000000 0.000000
O O17 0.521191 0.415259 0.913979
O O18 0.000000 0.500000 0.500000
#
# Coordination Sequence:
#
# PCOD9076123 Si02
#       8
#     2   2   2   2   2   2   2   2
#     4  11  20  39  61  84 121 154 191 246 292 344
#     4  10  18  32  62  85 112 157 192 230 300 348
#     4  12  22  35  63  88 118 153 201 238 291 352
#     4  11  22  38  60  90 119 154 195 239 294 355
#     4  11  19  36  61  88 113 154 202 242 292 346
#     4  11  20  39  64  88 118 159 191 239 299 347
#     4   9  19  35  65  83 112 159 197 239 296 345
#     4   9  19  35  58  84 118 154 191 244 292 347
#
# _framework density 25.678121000000001
#
# number of rings (size 3 to 8) (size 9 to 14) (size 15 to 20)
#    0.000    1.500    5.000    1.125    0.000    0.000 
#    0.000    3.750   33.000    0.000    0.000    0.000 
#    0.000    0.000    0.000    0.000    0.000    0.000 
#
# Total GULP energy -89277.524266 kJ/mol
# GULP energy per Si atom -5579.845267 kJ/mol
# Density = 2.561968 g / cm^3
# Si number density = 25.678121 Si / 1000 Ang^3
#
#
#
# Elastic Constant Matrix: (Units=GPa)
#
#
# Indices 1 2 3 4 5 6 
#
# 1 104.6980 63.2349 31.2134 -14.9134 18.8296 14.1802
# 2 63.2349 143.1135 47.2031 -29.8185 8.7249 28.2701
# 3 31.2134 47.2031 85.7937 -10.3379 16.1717 9.9707
# 4 -14.9134 -29.8185 -10.3379 42.3508 7.4490 6.9007
# 5 18.8296 8.7249 16.1717 7.4490 47.1661 -2.1441
# 6 14.1802 28.2701 9.9707 6.9007 -2.1441 42.2618
#
#
#
# Elastic Compliance Matrix: (Units=1/GPa)
#
#
# Indices 1 2 3 4 5 6 
#
# 1 0.014255 -0.004652 -0.001124 0.002685 -0.004964 -0.002097
# 2 -0.004652 0.013771 -0.003646 0.008727 -0.001195 -0.008277
# 3 -0.001124 -0.003646 0.015273 0.001760 -0.004450 -0.001300
# 4 0.002685 0.008727 0.001760 0.034962 -0.009418 -0.013340
# 5 -0.004964 -0.001195 -0.004450 -0.009418 0.026709 0.006408
# 6 -0.002097 -0.008277 -0.001300 -0.013340 0.006408 0.032712
#
#
# Mechanical properties :
#
#
# Convention : Reuss Voigt Hill
#
# Bulk Modulus (GPa) = 40.88923 68.54535 54.71729
# Shear Modulus (GPa) = 30.36223 39.15265 34.75744
#
# Velocity S-wave (km/s) = 3.44236 3.90904 3.68310
# Velocity P-wave (km/s) = 5.63543 6.86485 6.28030
#
# Compressibility (1/GPa) = 0.02445632
#
# Stress axis : x y z
#
# Youngs Moduli (GPa) = 70.15025 72.61393 65.47566
#
# Poissons Ratio (x) = 0.33778 0.07360
# Poissons Ratio (y) = 0.32632 0.23872
# Poissons Ratio (z) = 0.07885 0.26474
#
# Static dielectric constant tensor:
#      x y z
#    x 2.018370 0.075090 0.071640 
#    y 0.075090 1.680590 -0.319580 
#    z 0.071640 -0.319580 1.746390 
# 
# From -- ./inp_files/312649.got.cif
#   From: 2010.05.17/outbox.cif.g08.bks.cpg/sg2_157_cif.got.tgz:312649.got - 2010.06.03 11:33:40.
