data_PCOD9076095
_publ_section_title
;
Structure prediction by ZEFSAII (Michael W. Deem and Ramdas Pophale) SiO2 
 PCOD9076095
Probable space group: P -1
;
_chemical_formula_sum "Si O2"
_cell_formula_units_Z 11
_cell_length_a 9.630047
_cell_length_b 7.048372
_cell_length_c 12.406040
_cell_angle_alpha 125.252913
_cell_angle_beta 38.771813
_cell_angle_gamma 109.842020
_cell_volume 420.432224
_symmetry_space_group_name_H-M "P -1"
_symmetry_group_IT_number 2
_symmetry_cell_setting 'triclinic'
loop_
_space_group_symop_operation_xyz
x,y,z
-x,-y,-z
loop_
_atom_site_type_symbol
_atom_site_label
_atom_site_fract_x
_atom_site_fract_y
_atom_site_fract_z
Si Si1 0.825534 0.153610 0.074824
Si Si2 0.758649 0.672788 0.712217
Si Si3 0.500000 0.500000 0.000000
Si Si4 0.632125 0.546402 0.193814
Si Si5 0.593937 0.034745 0.654193
Si Si6 0.906143 0.139186 0.776058
O O1 0.917702 0.073602 0.874219
O O2 0.584119 0.104410 0.236659
O O3 0.785244 0.440364 0.168594
O O4 0.000000 0.000000 0.000000
O O5 0.658644 0.662236 0.888878
O O6 0.587624 0.565926 0.706288
O O7 0.000000 0.500000 0.500000
O O8 0.782181 0.933206 0.744652
O O9 0.627277 0.260970 0.777742
O O10 0.547026 0.821445 0.315309
O O11 0.750900 0.411293 0.964855
O O12 0.844768 0.886455 0.428858
#
# Coordination Sequence:
#
# PCOD9076095 Si02
#       6
#     2   2   1   2   2   2
#     4  10  24  44  62  88 123 162 213 251 287 367
#     4  11  18  36  62  89 130 155 192 254 307 365
#     4  10  18  32  60  92 116 158 190 236 312 358
#     4   9  22  39  61  92 121 160 200 249 309 353
#     4  11  21  41  63  90 127 158 198 255 305 358
#     4  10  21  39  60  91 124 159 198 255 300 363
#
# _framework density 26.163550000000001
#
# number of rings (size 3 to 8) (size 9 to 14) (size 15 to 20)
#    1.091    0.727    5.455    0.545    0.000    1.455 
#    9.818    5.455    0.000    0.000    0.000    0.000 
#    0.000    0.000    0.000    0.000    0.000    0.000 
#
# Total GULP energy -61235.148234 kJ/mol
# GULP energy per Si atom -5566.831658 kJ/mol
# Density = 2.610400 g / cm^3
# Si number density = 26.163550 Si / 1000 Ang^3
#
#
#
# Elastic Constant Matrix: (Units=GPa)
#
#
# Indices 1 2 3 4 5 6 
#
# 1 31.0412 32.8354 19.8949 -3.6523 -5.0933 -14.9214
# 2 32.8354 90.2458 33.4864 -9.5456 -11.6807 -15.2488
# 3 19.8949 33.4864 194.1781 -11.8948 -33.5470 14.6285
# 4 -3.6523 -9.5456 -11.8948 53.4758 1.4829 -8.1948
# 5 -5.0933 -11.6807 -33.5470 1.4829 33.1455 4.3278
# 6 -14.9214 -15.2488 14.6285 -8.1948 4.3278 40.7142
#
#
#
# Elastic Compliance Matrix: (Units=1/GPa)
#
#
# Indices 1 2 3 4 5 6 
#
# 1 0.064181 -0.018241 -0.005593 0.003061 -0.004955 0.019843
# 2 -0.018241 0.018704 -0.000808 0.001944 0.002791 0.000705
# 3 -0.005593 -0.000808 0.007561 0.000061 0.007266 -0.005829
# 4 0.003061 0.001944 0.000061 0.020193 -0.000463 0.005942
# 5 -0.004955 0.002791 0.007266 -0.000463 0.038759 -0.007594
# 6 0.019843 0.000705 -0.005829 0.005942 -0.007594 0.036195
#
#
# Mechanical properties :
#
#
# Convention : Reuss Voigt Hill
#
# Bulk Modulus (GPa) = 24.29577 54.21094 39.25335
# Shear Modulus (GPa) = 20.11279 40.75033 30.43156
#
# Velocity S-wave (km/s) = 2.77561 3.95083 3.41417
# Velocity P-wave (km/s) = 4.42474 6.44803 5.52971
#
# Compressibility (1/GPa) = 0.04115944
#
# Stress axis : x y z
#
# Youngs Moduli (GPa) = 15.58091 53.46539 132.26421
#
# Poissons Ratio (x) = 0.97527 0.73981
# Poissons Ratio (y) = 0.28421 0.10692
# Poissons Ratio (z) = 0.08715 0.04322
#
# Static dielectric constant tensor:
#      x y z
#    x 2.055500 0.006180 -0.010790 
#    y 0.006180 2.095800 0.039470 
#    z -0.010790 0.039470 2.043840 
# 
# From -- ./inp_files/291316.got.cif
#   From: 2010.05.17/outbox.cif.g08.bks.cpg/sg2_146_cif.got.tgz:291316.got - 2010.06.03 11:33:40.
