data_PCOD9076398
_publ_section_title
;
Structure prediction by ZEFSAII (Michael W. Deem and Ramdas Pophale) SiO2 
 PCOD9076398
Probable space group: P -1
;
_chemical_formula_sum "Si O2"
_cell_formula_units_Z 16
_cell_length_a 11.857935
_cell_length_b 7.965731
_cell_length_c 15.153300
_cell_angle_alpha 49.701498
_cell_angle_beta 129.246743
_cell_angle_gamma 141.171818
_cell_volume 659.157822
_symmetry_space_group_name_H-M "P -1"
_symmetry_group_IT_number 2
_symmetry_cell_setting 'triclinic'
loop_
_space_group_symop_operation_xyz
x,y,z
-x,-y,-z
loop_
_atom_site_type_symbol
_atom_site_label
_atom_site_fract_x
_atom_site_fract_y
_atom_site_fract_z
Si Si1 0.596238 0.148784 0.183628
Si Si2 0.627936 0.877234 0.051431
Si Si3 0.863320 0.782950 0.079679
Si Si4 0.524677 0.331902 0.266429
Si Si5 0.966137 0.262170 0.330385
Si Si6 0.011452 0.350890 0.139901
Si Si7 0.848149 0.004133 0.701314
Si Si8 0.916297 0.707378 0.437175
O O1 0.717154 0.459181 0.093158
O O2 0.523352 0.176255 0.231321
O O3 0.749451 0.112585 0.292181
O O4 0.450763 0.984108 0.086942
O O5 0.740579 0.860227 0.034268
O O6 0.510808 0.570406 0.142502
O O7 0.791071 0.085399 0.129772
O O8 0.989860 0.801750 0.213157
O O9 0.000000 0.000000 0.000000
O O10 0.352526 0.127556 0.315545
O O11 0.722285 0.503297 0.357585
O O12 0.056130 0.474716 0.218510
O O13 0.078134 0.403818 0.427805
O O14 0.961997 0.003978 0.385946
O O15 0.129807 0.242611 0.215860
O O16 0.000000 0.500000 0.000000
O O17 0.914058 0.183331 0.583199
#
# Coordination Sequence:
#
# PCOD9076398 Si02
#       8
#     2   2   2   2   2   2   2   2
#     4  11  22  35  60  97 123 160 204 252 314 361
#     4  10  20  35  56  90 128 157 200 249 311 369
#     4  10  18  33  55  87 128 160 192 247 306 370
#     4  11  20  40  65  91 122 164 206 249 308 370
#     4  10  23  41  65  84 126 165 203 264 301 362
#     4  10  22  39  58  93 124 165 204 252 312 365
#     4  10  20  38  64  86 119 167 205 246 306 369
#     4  10  21  47  64  83 123 168 211 249 311 361
#
# _framework density 24.273396999999999
#
# number of rings (size 3 to 8) (size 9 to 14) (size 15 to 20)
#    0.000    1.750    5.000    3.000    5.250    2.000 
#    0.000    7.500    0.000    0.000    0.000    0.000 
#    0.000    0.000    0.000    0.000    0.000    0.000 
#
# Total GULP energy -89392.055771 kJ/mol
# GULP energy per Si atom -5587.003486 kJ/mol
# Density = 2.421815 g / cm^3
# Si number density = 24.273397 Si / 1000 Ang^3
#
#
#
# Elastic Constant Matrix: (Units=GPa)
#
#
# Indices 1 2 3 4 5 6 
#
# 1 105.0473 21.7371 39.7935 -3.0498 -18.5344 16.8319
# 2 21.7371 33.3775 11.2003 5.0540 -12.3675 10.5275
# 3 39.7935 11.2003 130.7077 13.9304 -41.5387 2.5018
# 4 -3.0498 5.0540 13.9304 39.1086 -0.9800 -4.3422
# 5 -18.5344 -12.3675 -41.5387 -0.9800 41.0224 -3.6553
# 6 16.8319 10.5275 2.5018 -4.3422 -3.6553 35.9158
#
#
#
# Elastic Compliance Matrix: (Units=1/GPa)
#
#
# Indices 1 2 3 4 5 6 
#
# 1 0.012864 -0.006474 -0.003593 0.002724 -0.000030 -0.003554
# 2 -0.006474 0.041522 0.003157 -0.007709 0.011796 -0.009088
# 3 -0.003593 0.003157 0.012905 -0.004919 0.012325 0.000519
# 4 0.002724 -0.007709 -0.004919 0.028884 -0.005000 0.004309
# 5 -0.000030 0.011796 0.012325 -0.005000 0.040207 -0.000814
# 6 -0.003554 -0.009088 0.000519 0.004309 -0.000814 0.032574
#
#
# Mechanical properties :
#
#
# Convention : Reuss Voigt Hill
#
# Bulk Modulus (GPa) = 18.70214 46.06604 32.38409
# Shear Modulus (GPa) = 24.92520 36.30279 30.61400
#
# Velocity S-wave (km/s) = 3.20793 3.87147 3.55521
# Velocity P-wave (km/s) = 4.63062 6.24528 5.49755
#
# Compressibility (1/GPa) = 0.05346983
#
# Stress axis : x y z
#
# Youngs Moduli (GPa) = 77.73771 24.08374 77.48830
#
# Poissons Ratio (x) = 0.15593 0.27845
# Poissons Ratio (y) = 0.50331 -0.24467
# Poissons Ratio (z) = 0.27935 -0.07604
#
# Static dielectric constant tensor:
#      x y z
#    x 2.000530 -0.053670 0.048980 
#    y -0.053670 2.009010 -0.043670 
#    z 0.048980 -0.043670 2.008580 
# 
# From -- ./inp_files/417286.got.cif
#   From: 2010.05.17/outbox.cif.g08.bks.cpg/sg2_209_cif.got.tgz:417286.got - 2010.06.03 11:33:40.
