data_PCOD9076949
_publ_section_title
;
Structure prediction by ZEFSAII (Michael W. Deem and Ramdas Pophale) SiO2 
 PCOD9076949
Probable space group: P -1
;
_chemical_formula_sum "Si O2"
_cell_formula_units_Z 15
_cell_length_a 8.084615
_cell_length_b 9.052712
_cell_length_c 8.226735
_cell_angle_alpha 100.646887
_cell_angle_beta 77.906950
_cell_angle_gamma 108.678946
_cell_volume 553.207076
_symmetry_space_group_name_H-M "P -1"
_symmetry_group_IT_number 2
_symmetry_cell_setting 'triclinic'
loop_
_space_group_symop_operation_xyz
x,y,z
-x,-y,-z
loop_
_atom_site_type_symbol
_atom_site_label
_atom_site_fract_x
_atom_site_fract_y
_atom_site_fract_z
Si Si1 0.115960 0.307163 0.421373
Si Si2 0.598594 0.396809 0.176594
Si Si3 0.273037 0.643511 0.487121
Si Si4 0.915682 0.060270 0.181724
Si Si5 0.500000 0.000000 0.500000
Si Si6 0.388171 0.056790 0.174297
Si Si7 0.140045 0.752248 0.044202
Si Si8 0.763268 0.727508 0.252806
O O1 0.240011 0.475091 0.370132
O O2 0.200152 0.272161 0.563638
O O3 0.920577 0.329486 0.485592
O O4 0.063224 0.151031 0.293617
O O5 0.672194 0.393394 0.347308
O O6 0.427066 0.243817 0.166441
O O7 0.605319 0.579473 0.196859
O O8 0.737450 0.361536 0.009787
O O9 0.405162 0.807220 0.438290
O O10 0.770973 0.908365 0.250291
O O11 0.843340 0.188608 0.135054
O O12 0.000000 0.000000 0.000000
O O13 0.543343 0.950583 0.661874
O O14 0.213242 0.908750 0.167790
O O15 0.500000 0.000000 0.000000
O O16 0.936373 0.693968 0.126628
#
# Coordination Sequence:
#
# PCOD9076949 Si02
#       8
#     2   2   2   2   1   2   2   2
#     4  10  18  34  53  78 108 137 187 218 271 317
#     4   9  17  33  52  77 109 134 178 229 265 317
#     4   9  18  30  56  83 105 140 171 232 270 320
#     4  10  21  35  51  75 112 147 176 221 269 320
#     4  10  18  34  52  84 118 132 176 222 288 318
#     4   9  19  33  52  78 109 143 176 223 275 319
#     4  10  18  34  52  76 108 141 178 219 270 321
#     4  10  20  31  53  80 101 143 181 220 270 316
#
# _framework density 27.114619999999999
#
# number of rings (size 3 to 8) (size 9 to 14) (size 15 to 20)
#    0.000    2.400    1.333    1.600    0.000    0.000 
#    9.600    0.667    0.000    3.200    0.000   15.867 
#    0.000    0.000    0.000    0.000    0.000    0.000 
#
# Total GULP energy -83593.843707 kJ/mol
# GULP energy per Si atom -5572.922914 kJ/mol
# Density = 2.705291 g / cm^3
# Si number density = 27.114620 Si / 1000 Ang^3
#
#
#
# Elastic Constant Matrix: (Units=GPa)
#
#
# Indices 1 2 3 4 5 6 
#
# 1 61.6400 35.6722 6.9679 2.8356 -12.9594 32.1064
# 2 35.6722 241.8710 71.6476 52.3328 -8.3385 33.8957
# 3 6.9679 71.6476 78.2939 15.9769 11.2658 6.2218
# 4 2.8356 52.3328 15.9769 52.6923 0.4384 0.9779
# 5 -12.9594 -8.3385 11.2658 0.4384 14.6934 -2.2080
# 6 32.1064 33.8957 6.2218 0.9779 -2.2080 42.5874
#
#
#
# Elastic Compliance Matrix: (Units=1/GPa)
#
#
# Indices 1 2 3 4 5 6 
#
# 1 0.037868 0.002333 -0.008344 -0.001628 0.037078 -0.027226
# 2 0.002333 0.009200 -0.008587 -0.006637 0.013009 -0.006999
# 3 -0.008344 -0.008587 0.024749 0.001577 -0.030066 0.007915
# 4 -0.001628 -0.006637 0.001577 0.025132 -0.006354 0.005373
# 5 0.037078 0.013009 -0.030066 -0.006354 0.127302 -0.027168
# 6 -0.027226 -0.006999 0.007915 0.005373 -0.027168 0.046889
#
#
# Mechanical properties :
#
#
# Convention : Reuss Voigt Hill
#
# Bulk Modulus (GPa) = 23.46394 67.82003 45.64199
# Shear Modulus (GPa) = 15.89600 39.82911 27.86255
#
# Velocity S-wave (km/s) = 2.42389 3.83680 3.20907
# Velocity P-wave (km/s) = 4.06277 6.68541 5.53176
#
# Compressibility (1/GPa) = 0.04261858
#
# Stress axis : x y z
#
# Youngs Moduli (GPa) = 26.40743 108.70155 40.40568
#
# Poissons Ratio (x) = -0.25358 0.33716
# Poissons Ratio (y) = -0.06160 0.34698
# Poissons Ratio (z) = 0.22035 0.93347
#
# Static dielectric constant tensor:
#      x y z
#    x 2.426650 -0.000700 -0.153980 
#    y -0.000700 2.241200 -0.095670 
#    z -0.153980 -0.095670 2.271850 
# 
# From -- ./inp_files/182679.got.cif
#   From: 2010.05.17/outbox.cif.g08.bks.cpg/sg2_92_cif.got.tgz:182679.got - 2010.06.03 11:33:40.
