data_PCOD9076162
_publ_section_title
;
Structure prediction by ZEFSAII (Michael W. Deem and Ramdas Pophale) SiO2 
 PCOD9076162
Probable space group: P -1
;
_chemical_formula_sum "Si O2"
_cell_formula_units_Z 16
_cell_length_a 5.459114
_cell_length_b 10.813209
_cell_length_c 15.232411
_cell_angle_alpha 63.628399
_cell_angle_beta 112.053116
_cell_angle_gamma 79.322951
_cell_volume 676.235410
_symmetry_space_group_name_H-M "P -1"
_symmetry_group_IT_number 2
_symmetry_cell_setting 'triclinic'
loop_
_space_group_symop_operation_xyz
x,y,z
-x,-y,-z
loop_
_atom_site_type_symbol
_atom_site_label
_atom_site_fract_x
_atom_site_fract_y
_atom_site_fract_z
Si Si1 0.810827 0.575989 0.865715
Si Si2 0.807318 0.905429 0.520939
Si Si3 0.635233 0.818906 0.068329
Si Si4 0.798719 0.363210 0.215283
Si Si5 0.552968 0.173697 0.152187
Si Si6 0.866044 0.380860 0.681612
Si Si7 0.573308 0.636859 0.266023
Si Si8 0.804342 0.827852 0.345977
O O1 0.529954 0.541230 0.824103
O O2 0.653032 0.756207 0.812514
O O3 0.026117 0.545365 0.824270
O O4 0.000000 0.500000 0.000000
O O5 0.774079 0.844614 0.440122
O O6 0.005902 0.766472 0.652636
O O7 0.500000 0.000000 0.500000
O O8 0.000000 0.000000 0.500000
O O9 0.471742 0.739657 0.131360
O O10 0.949080 0.749797 0.180146
O O11 0.622211 0.788876 0.973468
O O12 0.500000 0.000000 0.000000
O O13 0.736771 0.275037 0.151311
O O14 0.733611 0.995173 0.245577
O O15 0.564857 0.454927 0.667375
O O16 0.078583 0.464351 0.670667
O O17 0.895434 0.293754 0.620631
O O18 0.580356 0.765409 0.295169
#
# Coordination Sequence:
#
# PCOD9076162 Si02
#       8
#     2   2   2   2   2   2   2   2
#     4  10  22  40  56  72  99 132 183 235 263 296
#     4  12  22  33  49  75 110 139 172 212 242 313
#     4   9  16  30  41  69  98 136 162 200 234 311
#     4  10  22  36  54  77 100 141 176 211 269 305
#     4  10  18  33  49  76  99 142 170 201 262 304
#     4   8  18  29  42  60  94 136 165 192 234 282
#     4   8  18  29  41  61  92 137 164 195 232 282
#     4   9  19  31  45  68 104 137 169 194 241 302
#
# _framework density 23.660398000000001
#
# number of rings (size 3 to 8) (size 9 to 14) (size 15 to 20)
#    2.250    0.000    3.750    1.875    1.750    2.500 
#    0.000    0.000    0.000    0.000    0.000    0.000 
#    0.000    8.000    0.000    0.500    0.000    0.000 
#
# Total GULP energy -89094.331467 kJ/mol
# GULP energy per Si atom -5568.395717 kJ/mol
# Density = 2.360655 g / cm^3
# Si number density = 23.660398 Si / 1000 Ang^3
#
#
#
# Elastic Constant Matrix: (Units=GPa)
#
#
# Indices 1 2 3 4 5 6 
#
# 1 174.8379 11.3236 30.0028 -6.1598 -27.8080 -22.1708
# 2 11.3236 97.8258 33.5182 19.4278 -4.9411 -16.2066
# 3 30.0028 33.5182 90.1030 10.8843 -5.2853 -0.0925
# 4 -6.1598 19.4278 10.8843 42.1903 -5.2147 -13.3473
# 5 -27.8080 -4.9411 -5.2853 -5.2147 25.0917 8.9782
# 6 -22.1708 -16.2066 -0.0925 -13.3473 8.9782 17.2825
#
#
#
# Elastic Compliance Matrix: (Units=1/GPa)
#
#
# Indices 1 2 3 4 5 6 
#
# 1 0.009815 0.002111 -0.004672 0.007993 0.005597 0.017811
# 2 0.002111 0.015033 -0.006504 0.000629 -0.002597 0.018604
# 3 -0.004672 -0.006504 0.016095 -0.007577 0.002146 -0.018973
# 4 0.007993 0.000629 -0.007577 0.039582 0.000993 0.040856
# 5 0.005597 -0.002597 0.002146 0.000993 0.054326 -0.022698
# 6 0.017811 0.018604 -0.018973 0.040856 -0.022698 0.141400
#
#
# Mechanical properties :
#
#
# Convention : Reuss Voigt Hill
#
# Bulk Modulus (GPa) = 43.83729 56.93956 50.38843
# Shear Modulus (GPa) = 16.55708 36.10769 26.33239
#
# Velocity S-wave (km/s) = 2.64821 3.91075 3.33968
# Velocity P-wave (km/s) = 5.28380 6.67155 6.01781
#
# Compressibility (1/GPa) = 0.02281163
#
# Stress axis : x y z
#
# Youngs Moduli (GPa) = 101.88427 66.52235 62.12973
#
# Poissons Ratio (x) = -0.14042 0.29029
# Poissons Ratio (y) = -0.21506 0.40410
# Poissons Ratio (z) = 0.47604 0.43267
#
# Static dielectric constant tensor:
#      x y z
#    x 2.098810 -0.005970 0.012220 
#    y -0.005970 1.939480 0.040500 
#    z 0.012220 0.040500 1.847010 
# 
# From -- ./inp_files/549819.got.cif
#   From: 2010.05.17/outbox.cif.g08.bks.cpg/sg2_275_cif.got.tgz:549819.got - 2010.06.03 11:33:40.
