data_PCOD9076152
_publ_section_title
;
Structure prediction by ZEFSAII (Michael W. Deem and Ramdas Pophale) SiO2 
 PCOD9076152
Probable space group: P -1
;
_chemical_formula_sum "Si O2"
_cell_formula_units_Z 16
_cell_length_a 14.495596
_cell_length_b 20.763604
_cell_length_c 9.680489
_cell_angle_alpha 33.314737
_cell_angle_beta 134.537210
_cell_angle_gamma 154.581604
_cell_volume 669.028236
_symmetry_space_group_name_H-M "P -1"
_symmetry_group_IT_number 2
_symmetry_cell_setting 'triclinic'
loop_
_space_group_symop_operation_xyz
x,y,z
-x,-y,-z
loop_
_atom_site_type_symbol
_atom_site_label
_atom_site_fract_x
_atom_site_fract_y
_atom_site_fract_z
Si Si1 0.748202 0.643039 0.976606
Si Si2 0.520186 0.241566 0.480524
Si Si3 0.063984 0.845793 0.723997
Si Si4 0.173602 0.734480 0.274667
Si Si5 0.479654 0.123300 0.229291
Si Si6 0.020587 0.786593 0.263146
Si Si7 0.319695 0.645272 0.258963
Si Si8 0.949025 0.535717 0.025045
O O1 0.698480 0.467208 0.213550
O O2 0.896552 0.769922 0.042983
O O3 0.500000 0.500000 0.000000
O O4 0.872428 0.774019 0.733450
O O5 0.594616 0.163913 0.665092
O O6 0.528864 0.265904 0.610794
O O7 0.267327 0.071364 0.479317
O O8 0.987649 0.701839 0.781704
O O9 0.151953 0.821538 0.981886
O O10 0.000000 0.500000 0.500000
O O11 0.132834 0.769052 0.315439
O O12 0.500000 0.000000 0.500000
O O13 0.545681 0.212564 0.984477
O O14 0.693236 0.329810 0.165505
O O15 0.224044 0.976113 0.233313
O O16 0.827871 0.579015 0.516780
O O17 0.146347 0.619176 0.167010
O O18 0.000000 0.500000 0.000000
#
# Coordination Sequence:
#
# PCOD9076152 Si02
#       8
#     2   2   2   2   2   2   2   2
#     4  10  23  41  61  86 113 148 205 259 293 339
#     4  11  21  33  60  87 116 159 183 238 311 359
#     4  11  21  36  55  83 121 154 190 239 297 358
#     4  11  17  31  53  84 121 146 180 231 303 370
#     4  11  22  32  50  77 117 160 187 221 277 351
#     4  10  20  34  54  82 117 153 187 232 297 348
#     4  10  18  33  47  79 119 148 184 225 274 360
#     4  10  21  33  47  80 123 153 185 223 269 354
#
# _framework density 23.915285000000001
#
# number of rings (size 3 to 8) (size 9 to 14) (size 15 to 20)
#    0.000    1.500    6.250    1.875    3.500    0.500 
#    0.000    0.000    0.000    0.750    0.000   14.875 
#    0.000    0.000    0.000    0.000    0.000    0.000 
#
# Total GULP energy -89205.645864 kJ/mol
# GULP energy per Si atom -5575.352867 kJ/mol
# Density = 2.386085 g / cm^3
# Si number density = 23.915285 Si / 1000 Ang^3
#
#
#
# Elastic Constant Matrix: (Units=GPa)
#
#
# Indices 1 2 3 4 5 6 
#
# 1 46.1441 14.5818 4.6024 8.9102 -11.3997 6.7854
# 2 14.5818 139.4776 12.4806 -30.6938 7.4844 9.0025
# 3 4.6024 12.4806 56.9518 -21.1359 -19.0939 -8.6402
# 4 8.9102 -30.6938 -21.1359 42.7955 2.4213 0.2907
# 5 -11.3997 7.4844 -19.0939 2.4213 25.8623 2.7820
# 6 6.7854 9.0025 -8.6402 0.2907 2.7820 37.5890
#
#
#
# Elastic Compliance Matrix: (Units=1/GPa)
#
#
# Indices 1 2 3 4 5 6 
#
# 1 0.031130 -0.006458 -0.000999 -0.012510 0.016609 -0.005435
# 2 -0.006458 0.010306 -0.001206 0.008567 -0.007404 -0.001098
# 3 -0.000999 -0.001206 0.030648 0.013271 0.020660 0.005882
# 4 -0.012510 0.008567 0.013271 0.038771 -0.002161 0.003117
# 5 0.016609 -0.007404 0.020660 -0.002161 0.063712 -0.001175
# 6 -0.005435 -0.001098 0.005882 0.003117 -0.001175 0.029262
#
#
# Mechanical properties :
#
#
# Convention : Reuss Voigt Hill
#
# Bulk Modulus (GPa) = 18.26262 33.98925 26.12594
# Shear Modulus (GPa) = 20.88486 35.30994 28.09740
#
# Velocity S-wave (km/s) = 2.95835 3.84664 3.43136
# Velocity P-wave (km/s) = 4.39568 5.82856 5.16208
#
# Compressibility (1/GPa) = 0.05475665
#
# Stress axis : x y z
#
# Youngs Moduli (GPa) = 32.12382 97.02889 32.62886
#
# Poissons Ratio (x) = 0.62665 0.03260
# Poissons Ratio (y) = 0.20747 0.03935
# Poissons Ratio (z) = 0.03209 0.11701
#
# Static dielectric constant tensor:
#      x y z
#    x 1.985380 -0.008520 -0.013690 
#    y -0.008520 2.079490 0.038350 
#    z -0.013690 0.038350 1.960780 
# 
# From -- ./inp_files/456789.got.cif
#   From: 2010.05.17/outbox.cif.g08.bks.cpg/sg2_229_cif.got.tgz:456789.got - 2010.06.03 11:33:40.
