data_PCOD9076616
_publ_section_title
;
Structure prediction by ZEFSAII (Michael W. Deem and Ramdas Pophale) SiO2 
 PCOD9076616
Probable space group: P -1
;
_chemical_formula_sum "Si O2"
_cell_formula_units_Z 16
_cell_length_a 7.788499
_cell_length_b 17.516700
_cell_length_c 9.085529
_cell_angle_alpha 48.633314
_cell_angle_beta 107.207693
_cell_angle_gamma 121.383516
_cell_volume 791.901447
_symmetry_space_group_name_H-M "P -1"
_symmetry_group_IT_number 2
_symmetry_cell_setting 'triclinic'
loop_
_space_group_symop_operation_xyz
x,y,z
-x,-y,-z
loop_
_atom_site_type_symbol
_atom_site_label
_atom_site_fract_x
_atom_site_fract_y
_atom_site_fract_z
Si Si1 0.911592 0.007095 0.677845
Si Si2 0.137496 0.854981 0.244966
Si Si3 0.646019 0.036680 0.352072
Si Si4 0.693379 0.521671 0.413167
Si Si5 0.342299 0.057541 0.816340
Si Si6 0.856148 0.364059 0.548784
Si Si7 0.742817 0.756011 0.077153
Si Si8 0.624140 0.227526 0.917956
O O1 0.831607 0.060656 0.719559
O O2 0.847307 0.038491 0.467045
O O3 0.145716 0.065181 0.701223
O O4 0.819475 0.869882 0.850807
O O5 0.184962 0.747819 0.415392
O O6 0.903835 0.799832 0.197986
O O7 0.257644 0.936544 0.034716
O O8 0.500000 0.000000 0.500000
O O9 0.561606 0.952143 0.300213
O O10 0.675652 0.155081 0.141112
O O11 0.500000 0.500000 0.500000
O O12 0.704510 0.422801 0.437512
O O13 0.904751 0.555406 0.512414
O O14 0.733058 0.635163 0.185915
O O15 0.472418 0.150367 0.848793
O O16 0.818674 0.313409 0.770286
O O17 0.513924 0.724140 0.102248
#
# Coordination Sequence:
#
# PCOD9076616 Si02
#       8
#     2   2   2   2   2   2   2   2
#     4  11  21  37  55  87 124 158 192 237 294 358
#     4  10  18  35  58  83 117 153 199 235 293 352
#     4  12  24  33  49  85 128 161 194 233 288 355
#     4  10  20  36  56  85 120 146 195 257 301 341
#     4  11  21  36  55  80 120 166 193 233 288 361
#     4  10  22  33  57  91 114 150 199 252 297 343
#     4  10  18  33  58  81 117 155 192 241 291 345
#     4  12  20  36  57  86 119 158 196 239 294 345
#
# _framework density 20.204533000000001
#
# number of rings (size 3 to 8) (size 9 to 14) (size 15 to 20)
#    0.000    1.250    6.250    1.500    1.750    0.000 
#    0.000    0.000    0.000    0.000    0.000   13.125 
#    0.000    0.500    0.000    0.000    0.000    0.000 
#
# Total GULP energy -89081.163909 kJ/mol
# GULP energy per Si atom -5567.572744 kJ/mol
# Density = 2.015855 g / cm^3
# Si number density = 20.204533 Si / 1000 Ang^3
#
#
#
# Elastic Constant Matrix: (Units=GPa)
#
#
# Indices 1 2 3 4 5 6 
#
# 1 136.8026 22.6245 35.2788 -6.3931 10.8876 -5.6019
# 2 22.6245 63.3165 50.4303 -13.2018 12.8632 -11.3664
# 3 35.2788 50.4303 104.2002 -4.5722 23.3299 -14.2828
# 4 -6.3931 -13.2018 -4.5722 34.5815 -3.1064 6.5249
# 5 10.8876 12.8632 23.3299 -3.1064 40.7787 -5.0095
# 6 -5.6019 -11.3664 -14.2828 6.5249 -5.0095 34.0709
#
#
#
# Elastic Compliance Matrix: (Units=1/GPa)
#
#
# Indices 1 2 3 4 5 6 
#
# 1 0.008095 -0.000909 -0.002147 0.000835 -0.000598 -0.000120
# 2 -0.000909 0.028537 -0.012682 0.008559 -0.000565 0.002332
# 3 -0.002147 -0.012682 0.017944 -0.003912 -0.005639 0.002859
# 4 0.000835 0.008559 -0.003912 0.032829 0.001232 -0.004753
# 5 -0.000598 -0.000565 -0.005639 0.001232 0.028338 0.001280
# 6 -0.000120 0.002332 0.002859 -0.004753 0.001280 0.032406
#
#
# Mechanical properties :
#
#
# Convention : Reuss Voigt Hill
#
# Bulk Modulus (GPa) = 43.28661 57.88739 50.58700
# Shear Modulus (GPa) = 26.69145 34.95192 30.82168
#
# Velocity S-wave (km/s) = 3.63859 4.16372 3.90998
# Velocity P-wave (km/s) = 6.25485 7.19919 6.74357
#
# Compressibility (1/GPa) = 0.02310183
#
# Stress axis : x y z
#
# Youngs Moduli (GPa) = 123.52645 35.04183 55.72779
#
# Poissons Ratio (x) = 0.03184 0.11965
# Poissons Ratio (y) = 0.11224 0.70673
# Poissons Ratio (z) = 0.26522 0.44440
#
# Static dielectric constant tensor:
#      x y z
#    x 1.945310 0.000760 0.030700 
#    y 0.000760 1.772580 -0.057570 
#    z 0.030700 -0.057570 1.706890 
# 
# From -- ./inp_files/214471.got.cif
#   From: 2010.05.17/outbox.cif.g08.bks.cpg/sg2_108_cif.got.tgz:214471.got - 2010.06.03 11:33:40.
