data_PCOD9076495
_publ_section_title
;
Structure prediction by ZEFSAII (Michael W. Deem and Ramdas Pophale) SiO2 
 PCOD9076495
Probable space group: P -1
;
_chemical_formula_sum "Si O2"
_cell_formula_units_Z 16
_cell_length_a 11.222900
_cell_length_b 8.372071
_cell_length_c 8.329743
_cell_angle_alpha 114.727533
_cell_angle_beta 74.285284
_cell_angle_gamma 99.162512
_cell_volume 683.373312
_symmetry_space_group_name_H-M "P -1"
_symmetry_group_IT_number 2
_symmetry_cell_setting 'triclinic'
loop_
_space_group_symop_operation_xyz
x,y,z
-x,-y,-z
loop_
_atom_site_type_symbol
_atom_site_label
_atom_site_fract_x
_atom_site_fract_y
_atom_site_fract_z
Si Si1 0.019187 0.114404 0.379994
Si Si2 0.285896 0.043988 0.099449
Si Si3 0.075943 0.340768 0.963551
Si Si4 0.684715 0.586659 0.928846
Si Si5 0.430954 0.241028 0.359766
Si Si6 0.500707 0.415763 0.710164
Si Si7 0.857385 0.199840 0.182703
Si Si8 0.167876 0.385912 0.611046
O O1 0.905226 0.119785 0.298890
O O2 0.149374 0.056762 0.232401
O O3 0.055926 0.312273 0.509786
O O4 0.000000 0.000000 0.500000
O O5 0.392915 0.057108 0.205070
O O6 0.323422 0.224172 0.069946
O O7 0.257300 0.897534 0.911405
O O8 0.172639 0.421885 0.089076
O O9 0.146179 0.294612 0.755652
O O10 0.000000 0.500000 0.000000
O O11 0.981448 0.203853 0.026507
O O12 0.607153 0.589280 0.121558
O O13 0.627668 0.434890 0.771878
O O14 0.491544 0.256902 0.520359
O O15 0.505739 0.394006 0.295879
O O16 0.296990 0.323157 0.471625
O O17 0.828591 0.404128 0.295798
#
# Coordination Sequence:
#
# PCOD9076495 Si02
#       8
#     2   2   2   2   2   2   2   2
#     4  11  22  34  54  82 117 159 197 237 280 339
#     4  10  21  33  57  80 116 150 192 240 286 343
#     4  10  20  34  55  85 121 156 187 230 283 361
#     4  10  18  33  56  88 111 148 199 240 290 339
#     4   9  18  35  56  88 109 140 198 247 294 330
#     4   9  18  32  59  84 110 143 196 259 281 329
#     4  11  22  37  54  82 125 162 186 228 294 361
#     4  10  21  36  56  83 120 153 190 235 290 351
#
# _framework density 23.413264000000002
#
# number of rings (size 3 to 8) (size 9 to 14) (size 15 to 20)
#    0.000    2.000    2.500    1.500    1.750    0.000 
#    0.000    0.000    0.000    7.500    0.000    0.000 
#    0.000    0.000    0.000    0.000    0.000    0.000 
#
# Total GULP energy -89271.847154 kJ/mol
# GULP energy per Si atom -5579.490447 kJ/mol
# Density = 2.335997 g / cm^3
# Si number density = 23.413264 Si / 1000 Ang^3
#
#
#
# Elastic Constant Matrix: (Units=GPa)
#
#
# Indices 1 2 3 4 5 6 
#
# 1 49.9402 22.2108 25.2812 21.8883 39.2560 25.2583
# 2 22.2108 86.0789 52.3507 -0.0770 11.5991 16.1679
# 3 25.2812 52.3507 110.6044 7.1625 36.9745 18.3309
# 4 21.8883 -0.0770 7.1625 56.4652 27.4987 7.0119
# 5 39.2560 11.5991 36.9745 27.4987 57.4135 9.5355
# 6 25.2583 16.1679 18.3309 7.0119 9.5355 28.1052
#
#
#
# Elastic Compliance Matrix: (Units=1/GPa)
#
#
# Indices 1 2 3 4 5 6 
#
# 1 0.128866 -0.018436 0.022229 -0.001016 -0.083057 -0.091273
# 2 -0.018436 0.019897 -0.011244 0.000744 0.014234 0.007440
# 3 0.022229 -0.011244 0.020417 0.003018 -0.024311 -0.019331
# 4 -0.001016 0.000744 0.003018 0.024188 -0.012437 -0.003299
# 5 -0.083057 0.014234 -0.024311 -0.012437 0.083461 0.057097
# 6 -0.091273 0.007440 -0.019331 -0.003299 0.057097 0.107387
#
#
# Mechanical properties :
#
#
# Convention : Reuss Voigt Hill
#
# Bulk Modulus (GPa) = 6.48172 49.58988 28.03580
# Shear Modulus (GPa) = 11.09768 38.18216 24.63992
#
# Velocity S-wave (km/s) = 2.17950 4.04269 3.24758
# Velocity P-wave (km/s) = 3.01795 6.55876 5.10516
#
# Compressibility (1/GPa) = 0.15427995
#
# Stress axis : x y z
#
# Youngs Moduli (GPa) = 7.75999 50.25824 48.97766
#
# Poissons Ratio (x) = 0.92654 -1.08871
# Poissons Ratio (y) = 0.14306 0.55068
# Poissons Ratio (z) = -0.17249 0.56508
#
# Static dielectric constant tensor:
#      x y z
#    x 1.910390 0.035560 0.049750 
#    y 0.035560 1.854000 0.011270 
#    z 0.049750 0.011270 2.024030 
# 
# From -- ./inp_files/212296.got.cif
#   From: 2010.05.17/outbox.cif.g08.bks.cpg/sg2_107_cif.got.tgz:212296.got - 2010.06.03 11:33:40.
