data_PCOD9076435
_publ_section_title
;
Structure prediction by ZEFSAII (Michael W. Deem and Ramdas Pophale) SiO2 
 PCOD9076435
Probable space group: P -1
;
_chemical_formula_sum "Si O2"
_cell_formula_units_Z 16
_cell_length_a 20.153868
_cell_length_b 8.130242
_cell_length_c 11.782742
_cell_angle_alpha 127.618063
_cell_angle_beta 70.408767
_cell_angle_gamma 143.723056
_cell_volume 852.733277
_symmetry_space_group_name_H-M "P -1"
_symmetry_group_IT_number 2
_symmetry_cell_setting 'triclinic'
loop_
_space_group_symop_operation_xyz
x,y,z
-x,-y,-z
loop_
_atom_site_type_symbol
_atom_site_label
_atom_site_fract_x
_atom_site_fract_y
_atom_site_fract_z
Si Si1 0.995239 0.562880 0.400492
Si Si2 0.068080 0.126361 0.697352
Si Si3 0.217504 0.819705 0.782495
Si Si4 0.741838 0.381110 0.027599
Si Si5 0.572906 0.885909 0.128485
Si Si6 0.876915 0.925260 0.820738
Si Si7 0.910053 0.418480 0.864879
Si Si8 0.333563 0.521704 0.096722
O O1 0.860695 0.290478 0.323567
O O2 0.000000 0.500000 0.500000
O O3 0.055887 0.553828 0.271859
O O4 0.064570 0.948232 0.526465
O O5 0.123833 0.477374 0.772598
O O6 0.151334 0.256721 0.809473
O O7 0.935772 0.866965 0.702919
O O8 0.325985 0.913909 0.749986
O O9 0.273110 0.153126 0.951219
O O10 0.684227 0.388190 0.968825
O O11 0.644944 0.090966 0.056336
O O12 0.805628 0.335722 0.912507
O O13 0.500000 0.500000 0.000000
O O14 0.471578 0.817692 0.172717
O O15 0.876715 0.124089 0.822322
O O16 0.748247 0.579336 0.800533
O O17 0.971010 0.208070 0.985893
#
# Coordination Sequence:
#
# PCOD9076435 Si02
#       8
#     2   2   2   2   2   2   2   2
#     4  12  23  34  54  85 118 148 178 223 287 331
#     4  10  21  34  55  81 112 153 181 215 279 341
#     4  10  19  37  53  78 111 144 188 224 263 333
#     4  10  21  34  55  88 115 137 181 238 278 320
#     4   9  19  35  57  82 105 146 188 229 274 320
#     4  10  18  33  56  79 112 145 186 227 271 326
#     4  10  20  35  53  81 117 145 179 225 280 335
#     4  11  19  32  58  86 109 140 184 240 278 309
#
# _framework density 18.763193000000001
#
# number of rings (size 3 to 8) (size 9 to 14) (size 15 to 20)
#    0.000    1.750    2.500    4.500    1.750    1.000 
#    0.000    0.000    0.000    0.750    9.750    8.750 
#    0.000    0.000    0.000    0.000    0.000    0.000 
#
# Total GULP energy -89252.630700 kJ/mol
# GULP energy per Si atom -5578.289419 kJ/mol
# Density = 1.872049 g / cm^3
# Si number density = 18.763193 Si / 1000 Ang^3
#
#
#
# Elastic Constant Matrix: (Units=GPa)
#
#
# Indices 1 2 3 4 5 6 
#
# 1 86.0416 41.5630 -0.3607 -3.1307 16.4772 23.6620
# 2 41.5630 102.3106 13.1818 -15.0416 2.4772 22.9467
# 3 -0.3607 13.1818 50.9981 -9.5764 -1.1734 6.3314
# 4 -3.1307 -15.0416 -9.5764 19.1490 -2.0215 -0.6399
# 5 16.4772 2.4772 -1.1734 -2.0215 27.0175 1.2688
# 6 23.6620 22.9467 6.3314 -0.6399 1.2688 37.0404
#
#
#
# Elastic Compliance Matrix: (Units=1/GPa)
#
#
# Indices 1 2 3 4 5 6 
#
# 1 0.018804 -0.006103 0.002106 -0.002060 -0.010583 -0.008264
# 2 -0.006103 0.015003 -0.001271 0.010329 0.003305 -0.005113
# 3 0.002106 -0.001271 0.022474 0.010528 0.000795 -0.004245
# 4 -0.002060 0.010329 0.010528 0.065694 0.005961 -0.005952
# 5 -0.010583 0.003305 0.000795 0.005961 0.043495 0.003190
# 6 -0.008264 -0.005113 -0.004245 -0.005952 0.003190 0.035958
#
#
# Mechanical properties :
#
#
# Convention : Reuss Voigt Hill
#
# Bulk Modulus (GPa) = 21.86018 38.67983 30.27001
# Shear Modulus (GPa) = 22.00594 28.97247 25.48920
#
# Velocity S-wave (km/s) = 3.42837 3.93378 3.68974
# Velocity P-wave (km/s) = 5.22948 6.42591 5.85832
#
# Compressibility (1/GPa) = 0.04574528
#
# Stress axis : x y z
#
# Youngs Moduli (GPa) = 53.18078 66.65486 44.49559
#
# Poissons Ratio (x) = 0.40682 -0.09372
# Poissons Ratio (y) = 0.32458 0.05653
# Poissons Ratio (z) = -0.11201 0.08469
#
# Static dielectric constant tensor:
#      x y z
#    x 1.724380 -0.005210 -0.014250 
#    y -0.005210 1.671270 -0.002760 
#    z -0.014250 -0.002760 1.640400 
# 
# From -- ./inp_files/169438.got.cif
#   From: 2010.05.17/outbox.cif.g08.bks.cpg/sg2_85_cif.got.tgz:169438.got - 2010.06.03 11:33:40.
