data_PCOD9076465
_publ_section_title
;
Structure prediction by ZEFSAII (Michael W. Deem and Ramdas Pophale) SiO2 
 PCOD9076465
Probable space group: P -1
;
_chemical_formula_sum "Si O2"
_cell_formula_units_Z 14
_cell_length_a 7.936574
_cell_length_b 7.871858
_cell_length_c 11.549717
_cell_angle_alpha 120.239505
_cell_angle_beta 124.796143
_cell_angle_gamma 75.212854
_cell_volume 511.392926
_symmetry_space_group_name_H-M "P -1"
_symmetry_group_IT_number 2
_symmetry_cell_setting 'triclinic'
loop_
_space_group_symop_operation_xyz
x,y,z
-x,-y,-z
loop_
_atom_site_type_symbol
_atom_site_label
_atom_site_fract_x
_atom_site_fract_y
_atom_site_fract_z
Si Si1 0.190099 0.157898 0.106198
Si Si2 0.627234 0.814351 0.577790
Si Si3 0.082547 0.434913 0.695119
Si Si4 0.798603 0.739512 0.095971
Si Si5 0.025133 0.888411 0.595697
Si Si6 0.656489 0.231761 0.014653
Si Si7 0.510814 0.252819 0.723792
O O1 0.283043 0.261270 0.292424
O O2 0.141883 0.286840 0.021822
O O3 0.351762 0.002643 0.069668
O O4 0.000000 0.000000 0.000000
O O5 0.826318 0.873563 0.596722
O O6 0.482013 0.688331 0.388864
O O7 0.517166 0.014398 0.636141
O O8 0.054050 0.365232 0.791779
O O9 0.928359 0.332767 0.506787
O O10 0.154108 0.662704 0.806563
O O11 0.296200 0.330315 0.711514
O O12 0.556249 0.690428 0.996234
O O13 0.822147 0.968441 0.224272
O O14 0.000000 0.000000 0.500000
O O15 0.669007 0.293811 0.904358
#
# Coordination Sequence:
#
# PCOD9076465 Si02
#       7
#     2   2   2   2   2   2   2
#     4  11  21  34  54  80 114 147 177 219 269 330
#     4   9  16  29  48  79 104 137 179 217 266 305
#     4   9  18  34  57  82 109 138 181 228 273 308
#     4  10  18  33  56  84 104 141 185 220 260 326
#     4   9  17  30  54  79 106 138 184 224 257 316
#     4  10  20  35  58  83 107 142 180 227 273 313
#     4   8  15  28  53  75 101 135 176 221 257 307
#
# _framework density 27.376207999999998
#
# number of rings (size 3 to 8) (size 9 to 14) (size 15 to 20)
#    0.000    2.571    1.429    3.000    0.000    0.000 
#    0.000    1.429    6.286    7.714    0.000    0.000 
#    0.000    0.000    0.000    0.000    0.000    0.000 
#
# Total GULP energy -78127.738992 kJ/mol
# GULP energy per Si atom -5580.552785 kJ/mol
# Density = 2.731390 g / cm^3
# Si number density = 27.376208 Si / 1000 Ang^3
#
#
#
# Elastic Constant Matrix: (Units=GPa)
#
#
# Indices 1 2 3 4 5 6 
#
# 1 75.8901 26.4798 25.3525 -9.5388 -11.7382 -4.3641
# 2 26.4798 57.5691 27.9503 -4.7435 -15.7364 10.7899
# 3 25.3525 27.9503 180.2686 -14.1461 -23.5817 26.9113
# 4 -9.5388 -4.7435 -14.1461 47.3080 11.9966 -5.5275
# 5 -11.7382 -15.7364 -23.5817 11.9966 43.5811 -5.5517
# 6 -4.3641 10.7899 26.9113 -5.5275 -5.5517 33.0940
#
#
#
# Elastic Compliance Matrix: (Units=1/GPa)
#
#
# Indices 1 2 3 4 5 6 
#
# 1 0.017501 -0.007952 -0.001951 0.002740 0.000937 0.007102
# 2 -0.007952 0.024292 -0.000917 -0.001760 0.005654 -0.007569
# 3 -0.001951 -0.000917 0.007070 0.000463 0.002171 -0.005266
# 4 0.002740 -0.001760 0.000463 0.023502 -0.005666 0.003533
# 5 0.000937 0.005654 0.002171 -0.005666 0.028008 0.000267
# 6 0.007102 -0.007569 -0.005266 0.003533 0.000267 0.038538
#
#
# Mechanical properties :
#
#
# Convention : Reuss Voigt Hill
#
# Bulk Modulus (GPa) = 36.73153 52.58811 44.65982
# Shear Modulus (GPa) = 29.47661 40.39297 34.93479
#
# Velocity S-wave (km/s) = 3.28491 3.84536 3.57613
# Velocity P-wave (km/s) = 5.27579 6.24234 5.77931
#
# Compressibility (1/GPa) = 0.02722456
#
# Stress axis : x y z
#
# Youngs Moduli (GPa) = 57.13947 41.16567 141.43715
#
# Poissons Ratio (x) = 0.32734 0.27594
# Poissons Ratio (y) = 0.45436 0.12966
# Poissons Ratio (z) = 0.11148 0.03774
#
# Static dielectric constant tensor:
#      x y z
#    x 2.153010 0.013890 -0.012410 
#    y 0.013890 2.235080 -0.004550 
#    z -0.012410 -0.004550 2.205410 
# 
# From -- ./inp_files/213863.got.cif
#   From: 2010.05.17/outbox.cif.g08.bks.cpg/sg2_107_cif.got.tgz:213863.got - 2010.06.03 11:33:40.
