data_PCOD9076284
_publ_section_title
;
Structure prediction by ZEFSAII (Michael W. Deem and Ramdas Pophale) SiO2 
 PCOD9076284
Probable space group: P -1
;
_chemical_formula_sum "Si O2"
_cell_formula_units_Z 10
_cell_length_a 10.660885
_cell_length_b 9.394945
_cell_length_c 6.951816
_cell_angle_alpha 75.906840
_cell_angle_beta 81.587692
_cell_angle_gamma 41.605835
_cell_volume 447.725357
_symmetry_space_group_name_H-M "P -1"
_symmetry_group_IT_number 2
_symmetry_cell_setting 'triclinic'
loop_
_space_group_symop_operation_xyz
x,y,z
-x,-y,-z
loop_
_atom_site_type_symbol
_atom_site_label
_atom_site_fract_x
_atom_site_fract_y
_atom_site_fract_z
Si Si1 0.243878 0.847035 0.103169
Si Si2 0.825909 0.309728 0.111961
Si Si3 0.778247 0.672133 0.950834
Si Si4 0.510690 0.127573 0.734110
Si Si5 0.674288 0.458157 0.517277
O O1 0.396797 0.825432 0.164408
O O2 0.223319 0.716682 0.278980
O O3 0.280026 0.745940 0.919327
O O4 0.044125 0.100117 0.076849
O O5 0.802581 0.349572 0.332420
O O6 0.753085 0.522016 0.963583
O O7 0.679631 0.866105 0.757278
O O8 0.659208 0.801497 0.131879
O O9 0.000000 0.500000 0.000000
O O10 0.416854 0.301385 0.526027
O O11 0.500000 0.500000 0.500000
#
# Coordination Sequence:
#
# PCOD9076284 Si02
#       5
#     2   2   2   2   2
#     4  10  19  35  56  83 109 135 185 222 267 317
#     4  10  20  33  58  82 105 146 177 222 268 316
#     4  10  18  33  54  78 108 143 179 216 265 322
#     4   9  19  33  54  80 105 142 180 217 268 320
#     4   9  19  33  52  80 111 137 175 226 268 314
#
# _framework density 22.335118000000001
#
# number of rings (size 3 to 8) (size 9 to 14) (size 15 to 20)
#    0.000    2.400    2.000    0.600    0.000    7.200 
#    0.000    1.000    0.000   12.000    0.000    0.000 
#    0.000    0.000    0.000    0.000    0.000    0.000 
#
# Total GULP energy -55719.742432 kJ/mol
# GULP energy per Si atom -5571.974243 kJ/mol
# Density = 2.228428 g / cm^3
# Si number density = 22.335118 Si / 1000 Ang^3
#
#
#
# Elastic Constant Matrix: (Units=GPa)
#
#
# Indices 1 2 3 4 5 6 
#
# 1 58.7773 25.6555 -0.5132 7.2403 -2.6345 -6.3572
# 2 25.6555 147.5302 42.0750 -43.6720 -5.9810 -1.3828
# 3 -0.5132 42.0750 62.9524 -31.0787 -9.7185 11.1229
# 4 7.2403 -43.6720 -31.0787 38.2108 9.7405 -3.9629
# 5 -2.6345 -5.9810 -9.7185 9.7405 23.2392 -3.5265
# 6 -6.3572 -1.3828 11.1229 -3.9629 -3.5265 33.9884
#
#
#
# Elastic Compliance Matrix: (Units=1/GPa)
#
#
# Indices 1 2 3 4 5 6 
#
# 1 0.023361 -0.008134 -0.002317 -0.017097 0.007292 0.003560
# 2 -0.008134 0.013515 -0.001650 0.017059 -0.005128 0.001025
# 3 -0.002317 -0.001650 0.028770 0.020808 0.001510 -0.007333
# 4 -0.017097 0.017059 0.020808 0.070300 -0.018777 -0.003065
# 5 0.007292 -0.005128 0.001510 -0.018777 0.051620 0.003828
# 6 0.003560 0.001025 -0.007333 -0.003065 0.003828 0.032569
#
#
# Mechanical properties :
#
#
# Convention : Reuss Voigt Hill
#
# Bulk Modulus (GPa) = 24.12865 44.85494 34.49179
# Shear Modulus (GPa) = 19.36835 32.55720 25.96277
#
# Velocity S-wave (km/s) = 2.94797 3.82208 3.41313
# Velocity P-wave (km/s) = 4.73432 6.29318 5.56857
#
# Compressibility (1/GPa) = 0.04144451
#
# Stress axis : x y z
#
# Youngs Moduli (GPa) = 42.80560 73.99191 34.75792
#
# Poissons Ratio (x) = 0.60184 0.08054
# Poissons Ratio (y) = 0.34818 0.05736
# Poissons Ratio (z) = 0.09919 0.12210
#
# Static dielectric constant tensor:
#      x y z
#    x 1.843330 0.024420 -0.002760 
#    y 0.024420 1.870910 -0.015530 
#    z -0.002760 -0.015530 1.905840 
# 
# From -- ./inp_files/23410.got.cif
#   From: 2010.05.17/outbox.cif.g08.bks.cpg/sg2_12_cif.got.tgz:23410.got - 2010.06.03 11:33:40.
