data_PCOD9076585
_publ_section_title
;
Structure prediction by ZEFSAII (Michael W. Deem and Ramdas Pophale) SiO2 
 PCOD9076585
Probable space group: P -1
;
_chemical_formula_sum "Si O2"
_cell_formula_units_Z 16
_cell_length_a 17.899307
_cell_length_b 9.098985
_cell_length_c 13.902247
_cell_angle_alpha 106.317511
_cell_angle_beta 154.727056
_cell_angle_gamma 60.960545
_cell_volume 765.692938
_symmetry_space_group_name_H-M "P -1"
_symmetry_group_IT_number 2
_symmetry_cell_setting 'triclinic'
loop_
_space_group_symop_operation_xyz
x,y,z
-x,-y,-z
loop_
_atom_site_type_symbol
_atom_site_label
_atom_site_fract_x
_atom_site_fract_y
_atom_site_fract_z
Si Si1 0.269983 0.233522 0.498656
Si Si2 0.922280 0.353956 0.567615
Si Si3 0.855708 0.271428 0.264270
Si Si4 0.699222 0.277911 0.449988
Si Si5 0.588059 0.279884 0.798247
Si Si6 0.980534 0.942168 0.860810
Si Si7 0.305593 0.118044 0.724473
Si Si8 0.716961 0.652834 0.105271
O O1 0.174090 0.440729 0.464936
O O2 0.442039 0.201845 0.615650
O O3 0.361672 0.109239 0.678292
O O4 0.104335 0.190655 0.259932
O O5 0.826093 0.331418 0.352003
O O6 0.874937 0.254074 0.576071
O O7 0.161531 0.283854 0.806473
O O8 0.824439 0.433765 0.187697
O O9 0.102421 0.110715 0.505629
O O10 0.681720 0.246938 0.011139
O O11 0.558873 0.498644 0.355103
O O12 0.814788 0.128734 0.641469
O O13 0.524901 0.257704 0.189352
O O14 0.792383 0.169195 0.948460
O O15 0.000000 0.000000 0.000000
O O16 0.238760 0.315741 0.728329
O O17 0.500000 0.000000 0.000000
#
# Coordination Sequence:
#
# PCOD9076585 Si02
#       8
#     2   2   2   2   2   2   2   2
#     4  11  21  41  64  92 128 170 211 262 323 374
#     4  10  19  37  65  94 135 170 207 254 308 386
#     4  10  18  36  59  91 135 175 201 244 314 377
#     4  10  24  40  66  98 126 165 218 258 324 384
#     4  10  24  42  68  97 126 164 220 264 315 392
#     4  12  27  49  67  88 128 167 215 285 331 371
#     4  11  19  29  53  88 127 170 204 238 296 374
#     4  10  18  33  57  89 128 168 203 239 299 380
#
# _framework density 20.896104000000001
#
# number of rings (size 3 to 8) (size 9 to 14) (size 15 to 20)
#    0.000    1.500    3.750    2.250    1.750    5.500 
#    0.000    3.750    0.000    0.000    0.000    0.000 
#    0.000    0.000    0.000    0.000    0.000    0.000 
#
# Total GULP energy -89248.678511 kJ/mol
# GULP energy per Si atom -5578.042407 kJ/mol
# Density = 2.084854 g / cm^3
# Si number density = 20.896104 Si / 1000 Ang^3
#
#
#
# Elastic Constant Matrix: (Units=GPa)
#
#
# Indices 1 2 3 4 5 6 
#
# 1 91.9138 43.9894 69.6843 25.6687 7.1630 -1.1204
# 2 43.9894 75.3567 38.3046 6.8643 0.6931 1.5066
# 3 69.6843 38.3046 88.8937 7.1821 12.7259 5.2686
# 4 25.6687 6.8643 7.1821 34.6158 2.1193 5.5096
# 5 7.1630 0.6931 12.7259 2.1193 36.7224 3.3683
# 6 -1.1204 1.5066 5.2686 5.5096 3.3683 26.6629
#
#
#
# Elastic Compliance Matrix: (Units=1/GPa)
#
#
# Indices 1 2 3 4 5 6 
#
# 1 0.048656 -0.009231 -0.032986 -0.029938 0.002470 0.014958
# 2 -0.009231 0.019081 -0.001423 0.003584 0.001926 -0.002169
# 3 -0.032986 -0.001423 0.037829 0.019196 -0.006664 -0.011905
# 4 -0.029938 0.003584 0.019196 0.048936 -0.002322 -0.015072
# 5 0.002470 0.001926 -0.006664 -0.002322 0.029332 -0.001914
# 6 0.014958 -0.002169 -0.011905 -0.015072 -0.001914 0.043965
#
#
# Mechanical properties :
#
#
# Convention : Reuss Voigt Hill
#
# Bulk Modulus (GPa) = 54.68135 62.23565 58.45850
# Shear Modulus (GPa) = 15.56792 26.54594 21.05693
#
# Velocity S-wave (km/s) = 2.73246 3.56810 3.17787
# Velocity P-wave (km/s) = 6.01499 6.84275 6.44218
#
# Compressibility (1/GPa) = 0.01828777
#
# Stress axis : x y z
#
# Youngs Moduli (GPa) = 20.55243 52.40806 26.43490
#
# Poissons Ratio (x) = 0.48376 0.87197
# Poissons Ratio (y) = 0.18971 0.03761
# Poissons Ratio (z) = 0.67793 0.07456
#
# Static dielectric constant tensor:
#      x y z
#    x 1.745690 -0.055480 0.060700 
#    y -0.055480 1.948000 -0.059650 
#    z 0.060700 -0.059650 1.777450 
# 
# From -- ./inp_files/447695.got.cif
#   From: 2010.05.17/outbox.cif.g08.bks.cpg/sg2_224_cif.got.tgz:447695.got - 2010.06.03 11:33:40.
