data_PCOD9076860
_publ_section_title
;
Structure prediction by ZEFSAII (Michael W. Deem and Ramdas Pophale) SiO2 
 PCOD9076860
Probable space group: P -1
;
_chemical_formula_sum "Si O2"
_cell_formula_units_Z 16
_cell_length_a 19.063752
_cell_length_b 8.332127
_cell_length_c 9.001270
_cell_angle_alpha 116.200890
_cell_angle_beta 38.606255
_cell_angle_gamma 97.960222
_cell_volume 744.001253
_symmetry_space_group_name_H-M "P -1"
_symmetry_group_IT_number 2
_symmetry_cell_setting 'triclinic'
loop_
_space_group_symop_operation_xyz
x,y,z
-x,-y,-z
loop_
_atom_site_type_symbol
_atom_site_label
_atom_site_fract_x
_atom_site_fract_y
_atom_site_fract_z
Si Si1 0.149712 0.441517 0.996125
Si Si2 0.612005 0.884359 0.963754
Si Si3 0.370881 0.835053 0.393394
Si Si4 0.320314 0.202020 0.847849
Si Si5 0.801833 0.894970 0.431890
Si Si6 0.991082 0.151257 0.703433
Si Si7 0.729392 0.324055 0.270483
Si Si8 0.539476 0.275368 0.372072
O O1 0.202943 0.367004 0.039393
O O2 0.131522 0.271297 0.865022
O O3 0.256331 0.492005 0.755711
O O4 0.036933 0.640916 0.244529
O O5 0.504766 0.803680 0.104304
O O6 0.678066 0.829335 0.992124
O O7 0.551742 0.118981 0.161171
O O8 0.706634 0.829335 0.653140
O O9 0.350605 0.664090 0.447322
O O10 0.339042 0.014186 0.637655
O O11 0.275452 0.913734 0.451130
O O12 0.440679 0.248711 0.635442
O O13 0.895254 0.913828 0.404386
O O14 0.868080 0.189647 0.016129
O O15 0.000000 0.000000 0.500000
O O16 0.671478 0.229138 0.204268
O O17 0.500000 0.500000 0.500000
#
# Coordination Sequence:
#
# PCOD9076860 Si02
#       8
#     2   2   2   2   2   2   2   2
#     4   9  22  39  61  89 118 157 197 243 310 349
#     4  11  21  35  61  91 122 160 200 239 296 354
#     4  10  20  37  58  89 119 162 194 238 299 365
#     4  10  18  33  61  87 119 158 198 240 296 351
#     4  11  23  40  60  85 128 158 191 249 303 352
#     4  10  22  40  66  87 114 153 209 248 292 350
#     4  10  19  35  61  82 120 150 204 234 295 348
#     4  11  17  32  58  90 118 155 197 250 287 340
#
# _framework density 21.50534
#
# number of rings (size 3 to 8) (size 9 to 14) (size 15 to 20)
#    0.750    1.000    3.750    2.250    0.000    0.500 
#    0.000    3.750    0.000    0.000    0.000    0.000 
#    0.000    0.000    0.000    0.000    0.000    0.000 
#
# Total GULP energy -89211.068135 kJ/mol
# GULP energy per Si atom -5575.691758 kJ/mol
# Density = 2.145639 g / cm^3
# Si number density = 21.505340 Si / 1000 Ang^3
#
#
#
# Elastic Constant Matrix: (Units=GPa)
#
#
# Indices 1 2 3 4 5 6 
#
# 1 104.2080 16.8860 7.6018 14.7701 -17.4320 -15.3609
# 2 16.8860 61.3632 -1.0686 1.8068 2.8771 -11.8168
# 3 7.6018 -1.0686 32.1274 4.3555 -0.1264 -3.1804
# 4 14.7701 1.8068 4.3555 19.4122 4.9467 -3.4344
# 5 -17.4320 2.8771 -0.1264 4.9467 21.7014 -0.4062
# 6 -15.3609 -11.8168 -3.1804 -3.4344 -0.4062 28.8313
#
#
#
# Elastic Compliance Matrix: (Units=1/GPa)
#
#
# Indices 1 2 3 4 5 6 
#
# 1 0.016012 -0.003758 -0.001302 -0.014895 0.016847 0.005310
# 2 -0.003758 0.018737 0.001637 0.003409 -0.006154 0.006177
# 3 -0.001302 0.001637 0.032595 -0.006062 0.000362 0.002856
# 4 -0.014895 0.003409 -0.006062 0.071360 -0.028701 0.000889
# 5 0.016847 -0.006154 0.000362 -0.028701 0.067048 0.004019
# 6 0.005310 0.006177 0.002856 0.000889 0.004019 0.040523
#
#
# Mechanical properties :
#
#
# Convention : Reuss Voigt Hill
#
# Bulk Modulus (GPa) = 16.52942 27.17078 21.85010
# Shear Modulus (GPa) = 18.29582 25.60762 21.95172
#
# Velocity S-wave (km/s) = 2.91994 3.45448 3.19839
# Velocity P-wave (km/s) = 4.36703 5.34538 4.88078
#
# Compressibility (1/GPa) = 0.06049818
#
# Stress axis : x y z
#
# Youngs Moduli (GPa) = 62.45246 53.37113 30.67995
#
# Poissons Ratio (x) = 0.20055 0.03996
# Poissons Ratio (y) = 0.23467 -0.05024
# Poissons Ratio (z) = 0.08134 -0.08739
#
# Static dielectric constant tensor:
#      x y z
#    x 1.775730 -0.034230 -0.021330 
#    y -0.034230 1.834100 0.006960 
#    z -0.021330 0.006960 1.785150 
# 
# From -- ./inp_files/327701.got.cif
#   From: 2010.05.17/outbox.cif.g08.bks.cpg/sg2_164_cif.got.tgz:327701.got - 2010.06.03 11:33:40.
