data_PCOD9076973
_publ_section_title
;
Structure prediction by ZEFSAII (Michael W. Deem and Ramdas Pophale) SiO2 
 PCOD9076973
Probable space group: P -1
;
_chemical_formula_sum "Si O2"
_cell_formula_units_Z 16
_cell_length_a 12.031366
_cell_length_b 11.921316
_cell_length_c 27.856085
_cell_angle_alpha 155.151845
_cell_angle_beta 149.960360
_cell_angle_gamma 46.806563
_cell_volume 737.090581
_symmetry_space_group_name_H-M "P -1"
_symmetry_group_IT_number 2
_symmetry_cell_setting 'triclinic'
loop_
_space_group_symop_operation_xyz
x,y,z
-x,-y,-z
loop_
_atom_site_type_symbol
_atom_site_label
_atom_site_fract_x
_atom_site_fract_y
_atom_site_fract_z
Si Si1 0.618722 0.629357 0.389017
Si Si2 0.704086 0.090320 0.466562
Si Si3 0.175946 0.695742 0.298115
Si Si4 0.218345 0.899468 0.045337
Si Si5 0.715750 0.813944 0.679292
Si Si6 0.254913 0.553073 0.536877
Si Si7 0.862558 0.267114 0.155836
Si Si8 0.752846 0.524286 0.299905
O O1 0.358227 0.609737 0.302535
O O2 0.729757 0.510048 0.426026
O O3 0.583492 0.463904 0.260706
O O4 0.802520 0.990588 0.590413
O O5 0.715940 0.231270 0.578689
O O6 0.427362 0.989189 0.302083
O O7 0.923140 0.374387 0.630265
O O8 0.753747 0.809541 0.384356
O O9 0.899984 0.411260 0.089749
O O10 0.267212 0.836813 0.984361
O O11 0.474916 0.162036 0.264264
O O12 0.000000 0.000000 0.000000
O O13 0.500000 0.500000 0.500000
O O14 0.771029 0.728635 0.613962
O O15 0.972811 0.904239 0.838919
O O16 0.026132 0.609282 0.457680
O O17 0.699047 0.269226 0.140678
#
# Coordination Sequence:
#
# PCOD9076973 Si02
#       8
#     2   2   2   2   2   2   2   2
#     4  10  18  34  53  79 112 145 185 220 263 332
#     4   9  15  31  52  76 107 135 183 231 265 303
#     4   9  18  31  55  83 104 139 189 230 265 310
#     4  11  19  35  58  84 111 140 181 236 277 313
#     4   9  16  30  53  81 104 136 185 231 264 311
#     4  11  20  34  56  85 111 141 183 226 275 323
#     4   9  19  32  50  80 111 141 181 226 275 321
#     4  10  21  32  53  83 111 146 181 221 271 332
#
# _framework density 21.706966000000001
#
# number of rings (size 3 to 8) (size 9 to 14) (size 15 to 20)
#    0.000    2.250    2.500    2.250    0.000    0.000 
#    0.000    6.250    0.000    1.500    0.000   30.625 
#    0.000    0.000    0.000    0.000    0.000    0.000 
#
# Total GULP energy -89345.633177 kJ/mol
# GULP energy per Si atom -5584.102074 kJ/mol
# Density = 2.165756 g / cm^3
# Si number density = 21.706966 Si / 1000 Ang^3
#
#
#
# Elastic Constant Matrix: (Units=GPa)
#
#
# Indices 1 2 3 4 5 6 
#
# 1 132.6383 22.2448 17.3751 2.2830 -15.7242 -3.2010
# 2 22.2448 120.5548 18.8718 0.2456 3.8423 -2.7839
# 3 17.3751 18.8718 52.9309 11.1786 -3.4634 3.1036
# 4 2.2830 0.2456 11.1786 14.7100 1.5818 6.4824
# 5 -15.7242 3.8423 -3.4634 1.5818 21.1710 3.0432
# 6 -3.2010 -2.7839 3.1036 6.4824 3.0432 34.2307
#
#
#
# Elastic Compliance Matrix: (Units=1/GPa)
#
#
# Indices 1 2 3 4 5 6 
#
# 1 0.008833 -0.001553 -0.001749 -0.000919 0.006561 0.000449
# 2 -0.001553 0.009296 -0.003730 0.003012 -0.003778 0.000715
# 3 -0.001749 -0.003730 0.025223 -0.019590 0.004893 0.000521
# 4 -0.000919 0.003012 -0.019590 0.090264 -0.009116 -0.014348
# 5 0.006561 -0.003778 0.004893 -0.009116 0.054746 -0.003278
# 6 0.000449 0.000715 0.000521 -0.014348 -0.003278 0.032275
#
#
# Mechanical properties :
#
#
# Convention : Reuss Voigt Hill
#
# Bulk Modulus (GPa) = 34.14184 47.01193 40.57689
# Shear Modulus (GPa) = 20.45293 30.53115 25.49204
#
# Velocity S-wave (km/s) = 3.07290 3.75442 3.43063
# Velocity P-wave (km/s) = 5.32475 6.36387 5.86736
#
# Compressibility (1/GPa) = 0.02928958
#
# Stress axis : x y z
#
# Youngs Moduli (GPa) = 113.20842 107.57075 39.64585
#
# Poissons Ratio (x) = 0.16706 0.06933
# Poissons Ratio (y) = 0.17581 0.14787
# Poissons Ratio (z) = 0.19798 0.40122
#
# Static dielectric constant tensor:
#      x y z
#    x 1.854470 0.010050 -0.001790 
#    y 0.010050 1.787850 0.020040 
#    z -0.001790 0.020040 1.779950 
# 
# From -- ./inp_files/277248.got.cif
#   From: 2010.05.17/outbox.cif.g08.bks.cpg/sg2_139_cif.got.tgz:277248.got - 2010.06.03 11:33:40.
