data_PCOD9076367
_publ_section_title
;
Structure prediction by ZEFSAII (Michael W. Deem and Ramdas Pophale) SiO2 
 PCOD9076367
Probable space group: P -1
;
_chemical_formula_sum "Si O2"
_cell_formula_units_Z 16
_cell_length_a 7.073101
_cell_length_b 19.962979
_cell_length_c 13.264884
_cell_angle_alpha 146.990150
_cell_angle_beta 131.888074
_cell_angle_gamma 41.941510
_cell_volume 677.014062
_symmetry_space_group_name_H-M "P -1"
_symmetry_group_IT_number 2
_symmetry_cell_setting 'triclinic'
loop_
_space_group_symop_operation_xyz
x,y,z
-x,-y,-z
loop_
_atom_site_type_symbol
_atom_site_label
_atom_site_fract_x
_atom_site_fract_y
_atom_site_fract_z
Si Si1 0.041905 0.552131 0.941291
Si Si2 0.073191 0.931428 0.694832
Si Si3 0.944199 0.704534 0.443566
Si Si4 0.182727 0.150613 0.804647
Si Si5 0.410779 0.540788 0.856839
Si Si6 0.647142 0.097150 0.583221
Si Si7 0.094039 0.195152 0.057590
Si Si8 0.361779 0.281484 0.441136
O O1 0.901721 0.452904 0.737575
O O2 0.230672 0.545253 0.899804
O O3 0.838623 0.713579 0.085390
O O4 0.271554 0.497652 0.043706
O O5 0.332676 0.851955 0.609252
O O6 0.080999 0.806831 0.605610
O O7 0.792327 0.012758 0.629351
O O8 0.112329 0.050355 0.917579
O O9 0.658022 0.773340 0.359950
O O10 0.840743 0.709941 0.527600
O O11 0.872417 0.150947 0.693641
O O12 0.375405 0.011421 0.639428
O O13 0.241779 0.160289 0.955811
O O14 0.403217 0.418377 0.634273
O O15 0.229872 0.689422 0.930287
O O16 0.234724 0.259146 0.264130
#
# Coordination Sequence:
#
# PCOD9076367 Si02
#       8
#     2   2   2   2   2   2   2   2
#     4   9  16  31  55  84 111 138 177 228 280 322
#     4  11  23  37  56  84 112 142 184 228 272 327
#     4  11  22  36  57  83 113 144 179 227 276 325
#     4   9  17  32  58  85 109 142 184 225 272 329
#     4   9  17  32  58  84 106 141 185 225 272 327
#     4  10  18  33  55  82 111 140 178 230 284 323
#     4  10  20  35  56  81 111 149 187 221 265 322
#     4  11  22  38  58  79 110 152 186 220 268 320
#
# _framework density 23.633188000000001
#
# number of rings (size 3 to 8) (size 9 to 14) (size 15 to 20)
#    0.000    2.000    0.000    7.875    0.000    0.500 
#    0.000    3.750    0.000   10.500    0.000    0.000 
#    0.000    0.000    0.000    0.000    0.000    0.000 
#
# Total GULP energy -89506.191596 kJ/mol
# GULP energy per Si atom -5594.136975 kJ/mol
# Density = 2.357940 g / cm^3
# Si number density = 23.633188 Si / 1000 Ang^3
#
#
#
# Elastic Constant Matrix: (Units=GPa)
#
#
# Indices 1 2 3 4 5 6 
#
# 1 56.4718 13.4157 36.9893 3.0272 0.2912 12.0383
# 2 13.4157 54.6950 49.2117 18.9064 0.1951 7.2647
# 3 36.9893 49.2117 197.6636 28.2948 -15.5038 17.0000
# 4 3.0272 18.9064 28.2948 53.7799 7.1245 0.4399
# 5 0.2912 0.1951 -15.5038 7.1245 27.3019 3.6490
# 6 12.0383 7.2647 17.0000 0.4399 3.6490 13.2086
#
#
#
# Elastic Compliance Matrix: (Units=1/GPa)
#
#
# Indices 1 2 3 4 5 6 
#
# 1 0.023399 -0.001284 -0.002612 0.000592 0.000448 -0.017402
# 2 -0.001284 0.026006 -0.004751 -0.006479 -0.000280 -0.006726
# 3 -0.002612 -0.004751 0.008402 -0.003434 0.006741 -0.007568
# 4 0.000592 -0.006479 -0.003434 0.023810 -0.009358 0.009237
# 5 0.000448 -0.000280 0.006741 -0.009358 0.045735 -0.021253
# 6 -0.017402 -0.006726 -0.007568 0.009237 -0.021253 0.110571
#
#
# Mechanical properties :
#
#
# Convention : Reuss Voigt Hill
#
# Bulk Modulus (GPa) = 24.68263 56.45153 40.56708
# Shear Modulus (GPa) = 18.60665 32.80566 25.70616
#
# Velocity S-wave (km/s) = 2.80895 3.72979 3.30163
# Velocity P-wave (km/s) = 4.58116 6.51819 5.63355
#
# Compressibility (1/GPa) = 0.04051431
#
# Stress axis : x y z
#
# Youngs Moduli (GPa) = 42.73604 38.45218 119.02181
#
# Poissons Ratio (x) = 0.04937 0.31089
# Poissons Ratio (y) = 0.05487 0.56542
# Poissons Ratio (z) = 0.11163 0.18267
#
# Static dielectric constant tensor:
#      x y z
#    x 1.979560 0.021650 0.025800 
#    y 0.021650 1.892380 0.017300 
#    z 0.025800 0.017300 1.875230 
# 
# From -- ./inp_files/507974.got.cif
#   From: 2010.05.17/outbox.cif.g08.bks.cpg/sg2_254_cif.got.tgz:507974.got - 2010.06.03 11:33:40.
