data_PCOD9077417
_publ_section_title
;
Structure prediction by ZEFSAII (Michael W. Deem and Ramdas Pophale) SiO2 
 PCOD9077417
Probable space group: P -1
;
_chemical_formula_sum "Si O2"
_cell_formula_units_Z 14
_cell_length_a 7.863894
_cell_length_b 14.808044
_cell_length_c 8.734628
_cell_angle_alpha 141.200708
_cell_angle_beta 92.119730
_cell_angle_gamma 105.576151
_cell_volume 560.505608
_symmetry_space_group_name_H-M "P -1"
_symmetry_group_IT_number 2
_symmetry_cell_setting 'triclinic'
loop_
_space_group_symop_operation_xyz
x,y,z
-x,-y,-z
loop_
_atom_site_type_symbol
_atom_site_label
_atom_site_fract_x
_atom_site_fract_y
_atom_site_fract_z
Si Si1 0.816420 0.077177 0.956242
Si Si2 0.759529 0.498890 0.181351
Si Si3 0.438766 0.221845 0.937843
Si Si4 0.144389 0.920459 0.391007
Si Si5 0.272133 0.235200 0.267082
Si Si6 0.773514 0.596046 0.972899
Si Si7 0.864546 0.394027 0.496412
O O1 0.756309 0.206212 0.194874
O O2 0.050993 0.162909 0.099687
O O3 0.779242 0.055124 0.746520
O O4 0.728200 0.906308 0.814635
O O5 0.690381 0.609917 0.423971
O O6 0.716664 0.502640 0.007470
O O7 0.987477 0.586672 0.336860
O O8 0.656893 0.319384 0.015991
O O9 0.339572 0.302448 0.930994
O O10 0.320209 0.027484 0.651513
O O11 0.405205 0.264372 0.163462
O O12 0.000567 0.731230 0.169867
O O13 0.000000 0.000000 0.500000
O O14 0.747214 0.478890 0.674089
O O15 0.000000 0.500000 0.500000
#
# Coordination Sequence:
#
# PCOD9077417 Si02
#       7
#     2   2   2   2   2   2   2
#     4  10  19  34  59  90 112 155 204 248 282 350
#     4  11  24  38  61  93 122 154 199 253 304 346
#     4  11  22  38  63  92 122 154 195 259 301 342
#     4  10  18  34  59  88 115 150 200 242 290 347
#     4  10  19  34  59  87 119 149 202 248 292 344
#     4  11  21  39  63  89 120 160 201 242 294 366
#     4  11  22  41  63  86 120 162 205 240 294 364
#
# _framework density 24.977447999999999
#
# number of rings (size 3 to 8) (size 9 to 14) (size 15 to 20)
#    0.000    1.429    4.286    3.857    4.000    0.000 
#    0.000    0.714    0.000    2.571    0.000    0.000 
#    0.000    0.000    0.000    0.000    0.000    0.000 
#
# Total GULP energy -78458.786579 kJ/mol
# GULP energy per Si atom -5604.199041 kJ/mol
# Density = 2.492060 g / cm^3
# Si number density = 24.977448 Si / 1000 Ang^3
#
#
#
# Elastic Constant Matrix: (Units=GPa)
#
#
# Indices 1 2 3 4 5 6 
#
# 1 62.9809 8.6979 9.2137 -1.2804 -5.0270 2.5215
# 2 8.6979 129.8779 25.1180 -10.6125 -1.9900 5.7794
# 3 9.2137 25.1180 138.0374 -1.5795 -6.1516 6.3305
# 4 -1.2804 -10.6125 -1.5795 41.0938 0.1001 -1.6320
# 5 -5.0270 -1.9900 -6.1516 0.1001 27.2944 5.1179
# 6 2.5215 5.7794 6.3305 -1.6320 5.1179 27.0208
#
#
#
# Elastic Compliance Matrix: (Units=1/GPa)
#
#
# Indices 1 2 3 4 5 6 
#
# 1 0.016421 -0.000817 -0.000724 0.000195 0.003133 -0.001770
# 2 -0.000817 0.008242 -0.001344 0.001998 0.000389 -0.001325
# 3 -0.000724 -0.001344 0.007701 -0.000150 0.001844 -0.001807
# 4 0.000195 0.001998 -0.000150 0.024896 -0.000154 0.001122
# 5 0.003133 0.000389 0.001844 -0.000154 0.039204 -0.008242
# 6 -0.001770 -0.001325 -0.001807 0.001122 -0.008242 0.039509
#
#
# Mechanical properties :
#
#
# Convention : Reuss Voigt Hill
#
# Bulk Modulus (GPa) = 37.60385 46.32839 41.96612
# Shear Modulus (GPa) = 33.19833 38.27291 35.73562
#
# Velocity S-wave (km/s) = 3.64968 3.91871 3.78658
# Velocity P-wave (km/s) = 5.73132 6.25007 5.99631
#
# Compressibility (1/GPa) = 0.02659302
#
# Stress axis : x y z
#
# Youngs Moduli (GPa) = 60.89581 121.32389 129.85796
#
# Poissons Ratio (x) = 0.09912 0.09407
# Poissons Ratio (y) = 0.04975 0.17458
# Poissons Ratio (z) = 0.04412 0.16310
#
# Static dielectric constant tensor:
#      x y z
#    x 2.093640 0.014860 0.023630 
#    y 0.014860 1.884580 0.032160 
#    z 0.023630 0.032160 1.987470 
# 
# From -- ./inp_files/158547.got.cif
#   From: 2010.05.17/outbox.cif.g08.bks.cpg/sg2_80_cif.got.tgz:158547.got - 2010.06.03 11:33:40.
