data_PCOD9077074
_publ_section_title
;
Structure prediction by ZEFSAII (Michael W. Deem and Ramdas Pophale) SiO2 
 PCOD9077074
Probable space group: P -1
;
_chemical_formula_sum "Si O2"
_cell_formula_units_Z 16
_cell_length_a 9.331808
_cell_length_b 11.229919
_cell_length_c 10.379780
_cell_angle_alpha 38.930503
_cell_angle_beta 107.211715
_cell_angle_gamma 95.062687
_cell_volume 634.392376
_symmetry_space_group_name_H-M "P -1"
_symmetry_group_IT_number 2
_symmetry_cell_setting 'triclinic'
loop_
_space_group_symop_operation_xyz
x,y,z
-x,-y,-z
loop_
_atom_site_type_symbol
_atom_site_label
_atom_site_fract_x
_atom_site_fract_y
_atom_site_fract_z
Si Si1 0.628766 0.275160 0.356107
Si Si2 0.834346 0.108686 0.190228
Si Si3 0.007638 0.560921 0.302062
Si Si4 0.291153 0.506445 0.029178
Si Si5 0.189400 0.272280 0.394279
Si Si6 0.154851 0.095790 0.174999
Si Si7 0.489638 0.664008 0.464318
Si Si8 0.801014 0.114084 0.896479
O O1 0.455438 0.348219 0.191583
O O2 0.697280 0.046907 0.598981
O O3 0.607231 0.379093 0.401650
O O4 0.734955 0.364471 0.214641
O O5 0.813267 0.951868 0.420474
O O6 0.723527 0.319222 0.014804
O O7 0.807501 0.021135 0.117275
O O8 0.009902 0.125073 0.207711
O O9 0.065053 0.383617 0.369355
O O10 0.137470 0.690456 0.226138
O O11 0.000000 0.500000 0.500000
O O12 0.856708 0.701104 0.075311
O O13 0.179235 0.380730 0.162955
O O14 0.353730 0.294584 0.476143
O O15 0.120139 0.974183 0.141311
O O16 0.500000 0.500000 0.500000
O O17 0.378420 0.852465 0.215121
#
# Coordination Sequence:
#
# PCOD9077074 Si02
#       8
#     2   2   2   2   2   2   2   2
#     4   9  21  38  67  85 118 165 199 252 314 349
#     4  11  21  37  62  88 121 162 203 251 303 360
#     4  11  19  33  56  89 124 161 196 243 304 367
#     4  10  20  43  64  84 118 165 207 251 304 355
#     4  11  21  36  61  89 116 162 208 242 301 367
#     4  10  20  36  59  91 123 159 202 252 306 361
#     4  10  18  36  61  86 117 150 197 244 300 363
#     4  10  18  34  55  84 122 153 192 252 306 351
#
# _framework density 25.220981999999999
#
# number of rings (size 3 to 8) (size 9 to 14) (size 15 to 20)
#    0.000    1.750    3.750    3.750    0.000    1.000 
#    0.000    7.500   13.750    0.000    0.000    0.000 
#    0.000    0.000    0.000    0.000    0.000    0.000 
#
# Total GULP energy -89277.854947 kJ/mol
# GULP energy per Si atom -5579.865934 kJ/mol
# Density = 2.516358 g / cm^3
# Si number density = 25.220982 Si / 1000 Ang^3
#
#
#
# Elastic Constant Matrix: (Units=GPa)
#
#
# Indices 1 2 3 4 5 6 
#
# 1 68.0546 41.3650 48.5701 -0.9569 13.4849 -10.2245
# 2 41.3650 68.1139 43.4169 13.5424 -9.1530 -8.2675
# 3 48.5701 43.4169 195.0837 8.3554 -3.4394 -19.5374
# 4 -0.9569 13.5424 8.3554 50.8347 -9.8035 -6.5144
# 5 13.4849 -9.1530 -3.4394 -9.8035 44.8400 1.0782
# 6 -10.2245 -8.2675 -19.5374 -6.5144 1.0782 32.9083
#
#
#
# Elastic Compliance Matrix: (Units=1/GPa)
#
#
# Indices 1 2 3 4 5 6 
#
# 1 0.032555 -0.019510 -0.003756 0.004433 -0.013195 0.004293
# 2 -0.019510 0.029996 -0.001464 -0.006208 0.010544 -0.000969
# 3 -0.003756 -0.001464 0.006652 -0.000238 0.001233 0.002327
# 4 0.004433 -0.006208 -0.000238 0.022385 0.002178 0.004036
# 5 -0.013195 0.010544 0.001233 0.002178 0.029023 -0.001238
# 6 0.004293 -0.000969 0.002327 0.004036 -0.001238 0.033699
#
#
# Mechanical properties :
#
#
# Convention : Reuss Voigt Hill
#
# Bulk Modulus (GPa) = 50.64734 66.43957 58.54345
# Shear Modulus (GPa) = 23.76999 38.90994 31.33997
#
# Velocity S-wave (km/s) = 3.07330 3.93206 3.52890
# Velocity P-wave (km/s) = 5.72001 6.85675 6.31401
#
# Compressibility (1/GPa) = 0.01974437
#
# Stress axis : x y z
#
# Youngs Moduli (GPa) = 30.71738 33.33789 150.33520
#
# Poissons Ratio (x) = 0.65041 0.56462
# Poissons Ratio (y) = 0.59929 0.22004
# Poissons Ratio (z) = 0.11537 0.04880
#
# Static dielectric constant tensor:
#      x y z
#    x 2.072230 -0.025690 0.080140 
#    y -0.025690 2.055320 -0.002510 
#    z 0.080140 -0.002510 2.062110 
# 
# From -- ./inp_files/432293.got.cif
#   From: 2010.05.17/outbox.cif.g08.bks.cpg/sg2_217_cif.got.tgz:432293.got - 2010.06.03 11:33:40.
