data_PCOD9077510
_publ_section_title
;
Structure prediction by ZEFSAII (Michael W. Deem and Ramdas Pophale) SiO2 
 PCOD9077510
Probable space group: P -1
;
_chemical_formula_sum "Si O2"
_cell_formula_units_Z 12
_cell_length_a 17.043514
_cell_length_b 12.497330
_cell_length_c 10.914530
_cell_angle_alpha 32.615480
_cell_angle_beta 140.214759
_cell_angle_gamma 154.892913
_cell_volume 531.517362
_symmetry_space_group_name_H-M "P -1"
_symmetry_group_IT_number 2
_symmetry_cell_setting 'triclinic'
loop_
_space_group_symop_operation_xyz
x,y,z
-x,-y,-z
loop_
_atom_site_type_symbol
_atom_site_label
_atom_site_fract_x
_atom_site_fract_y
_atom_site_fract_z
Si Si1 0.206893 0.762866 0.602533
Si Si2 0.203476 0.210345 0.097323
Si Si3 0.249742 0.866834 0.911153
Si Si4 0.657382 0.353475 0.944860
Si Si5 0.678703 0.356663 0.358196
Si Si6 0.077838 0.483711 0.302966
O O1 0.370418 0.865534 0.781741
O O2 0.192605 0.608778 0.616330
O O3 0.033858 0.538756 0.702609
O O4 0.237830 0.023469 0.347648
O O5 0.226941 0.354171 0.116027
O O6 0.343154 0.467979 0.913764
O O7 0.000000 0.000000 0.000000
O O8 0.192937 0.766734 0.079649
O O9 0.456147 0.197017 0.826339
O O10 0.257205 0.654220 0.062485
O O11 0.091305 0.794560 0.717966
O O12 0.787302 0.501332 0.477173
O O13 0.500000 0.000000 0.500000
#
# Coordination Sequence:
#
# PCOD9077510 Si02
#       6
#     2   2   2   2   2   2
#     4  10  21  37  63  86 120 159 194 252 303 352
#     4  11  22  37  64  93 120 155 199 252 305 356
#     4   9  19  36  60  85 119 167 201 241 289 364
#     4   9  20  39  61  87 121 161 202 244 302 350
#     4  11  23  39  63  90 122 158 199 252 304 357
#     4  10  18  34  60  87 115 158 205 237 299 354
#
# _framework density 22.576875000000001
#
# number of rings (size 3 to 8) (size 9 to 14) (size 15 to 20)
#    0.000    2.000    1.667    2.500    4.667    0.667 
#    0.000    8.333    0.000    0.000    0.000    0.000 
#    0.000    0.000    0.000    0.000    0.000    0.000 
#
# Total GULP energy -66881.246786 kJ/mol
# GULP energy per Si atom -5573.437232 kJ/mol
# Density = 2.252549 g / cm^3
# Si number density = 22.576875 Si / 1000 Ang^3
#
#
#
# Elastic Constant Matrix: (Units=GPa)
#
#
# Indices 1 2 3 4 5 6 
#
# 1 55.0260 15.5939 40.2035 -6.7997 -18.1295 -9.7398
# 2 15.5939 93.0924 12.7811 1.4678 -4.3534 -5.7700
# 3 40.2035 12.7811 107.5394 1.6128 -2.8592 -3.3335
# 4 -6.7997 1.4678 1.6128 29.4557 -3.8714 -5.4296
# 5 -18.1295 -4.3534 -2.8592 -3.8714 40.2460 -2.6612
# 6 -9.7398 -5.7700 -3.3335 -5.4296 -2.6612 28.2571
#
#
#
# Elastic Compliance Matrix: (Units=1/GPa)
#
#
# Indices 1 2 3 4 5 6 
#
# 1 0.040744 -0.003196 -0.014053 0.015987 0.019649 0.016656
# 2 -0.003196 0.011358 -0.000115 -0.001156 -0.000267 0.000957
# 3 -0.014053 -0.000115 0.014337 -0.005734 -0.006197 -0.004862
# 4 0.015987 -0.001156 -0.005734 0.042079 0.011628 0.013778
# 5 0.019649 -0.000267 -0.006197 0.011628 0.035110 0.011528
# 6 0.016656 0.000957 -0.004862 0.013778 0.011528 0.044485
#
#
# Mechanical properties :
#
#
# Convention : Reuss Voigt Hill
#
# Bulk Modulus (GPa) = 31.53610 43.64607 37.59108
# Shear Modulus (GPa) = 21.42126 32.06374 26.74250
#
# Velocity S-wave (km/s) = 3.08362 3.77265 3.44540
# Velocity P-wave (km/s) = 5.16497 6.19284 5.70212
#
# Compressibility (1/GPa) = 0.03170969
#
# Stress axis : x y z
#
# Youngs Moduli (GPa) = 24.54345 88.04158 69.75003
#
# Poissons Ratio (x) = 0.28142 0.98022
# Poissons Ratio (y) = 0.07845 0.00803
# Poissons Ratio (z) = 0.34492 0.01013
#
# Static dielectric constant tensor:
#      x y z
#    x 1.849800 0.017630 -0.004180 
#    y 0.017630 1.958840 0.033820 
#    z -0.004180 0.033820 1.898210 
# 
# From -- ./inp_files/172504.got.cif
#   From: 2010.05.17/outbox.cif.g08.bks.cpg/sg2_87_cif.got.tgz:172504.got - 2010.06.03 11:33:40.
