data_PCOD9077016
_publ_section_title
;
Structure prediction by ZEFSAII (Michael W. Deem and Ramdas Pophale) SiO2 
 PCOD9077016
Probable space group: P -1
;
_chemical_formula_sum "Si O2"
_cell_formula_units_Z 16
_cell_length_a 8.835977
_cell_length_b 20.086824
_cell_length_c 14.278900
_cell_angle_alpha 161.008558
_cell_angle_beta 56.050327
_cell_angle_gamma 123.880923
_cell_volume 680.070318
_symmetry_space_group_name_H-M "P -1"
_symmetry_group_IT_number 2
_symmetry_cell_setting 'triclinic'
loop_
_space_group_symop_operation_xyz
x,y,z
-x,-y,-z
loop_
_atom_site_type_symbol
_atom_site_label
_atom_site_fract_x
_atom_site_fract_y
_atom_site_fract_z
Si Si1 0.267992 0.423467 0.680537
Si Si2 0.980847 0.873844 0.062583
Si Si3 0.811759 0.286187 0.382407
Si Si4 0.569787 0.884414 0.913777
Si Si5 0.740476 0.950946 0.663486
Si Si6 0.503328 0.742161 0.304624
Si Si7 0.924067 0.285364 0.537461
Si Si8 0.590456 0.673428 0.975940
O O1 0.277427 0.256022 0.539154
O O2 0.397133 0.629873 0.933194
O O3 0.055277 0.451201 0.772177
O O4 0.354244 0.318999 0.420730
O O5 0.006502 0.078040 0.262476
O O6 0.767412 0.797601 0.034846
O O7 0.062784 0.935686 0.219222
O O8 0.097783 0.721610 0.761276
O O9 0.946679 0.342155 0.496441
O O10 0.661089 0.445574 0.653800
O O11 0.719630 0.056902 0.133153
O O12 0.396356 0.880995 0.036028
O O13 0.500000 0.000000 0.000000
O O14 0.657776 0.866529 0.481332
O O15 0.289863 0.761345 0.425793
O O16 0.500000 0.500000 0.000000
O O17 0.554284 0.772961 0.220011
#
# Coordination Sequence:
#
# PCOD9077016 Si02
#       8
#     2   2   2   2   2   2   2   2
#     4  10  19  35  60  90 121 157 200 247 302 349
#     4  11  25  39  61  96 126 153 195 255 312 352
#     4  12  19  38  67  93 118 157 206 248 291 364
#     4  10  14  30  63  91 113 148 208 244 285 354
#     4  10  18  37  61  89 116 163 201 238 293 361
#     4  12  22  40  67  88 116 157 216 248 278 365
#     4  11  23  38  65  92 115 160 206 246 296 355
#     4  12  24  41  60  90 129 162 195 248 304 352
#
# _framework density 23.526979999999998
#
# number of rings (size 3 to 8) (size 9 to 14) (size 15 to 20)
#    0.000    1.000   10.000    0.750    0.000    1.500 
#    0.000    1.875    0.000    0.000    0.000    0.000 
#    0.000    0.000    0.000    0.000    0.000    0.000 
#
# Total GULP energy -89237.657434 kJ/mol
# GULP energy per Si atom -5577.353590 kJ/mol
# Density = 2.347343 g / cm^3
# Si number density = 23.526980 Si / 1000 Ang^3
#
#
#
# Elastic Constant Matrix: (Units=GPa)
#
#
# Indices 1 2 3 4 5 6 
#
# 1 118.9476 26.7610 41.1680 -0.3031 36.2195 24.8056
# 2 26.7610 50.3247 14.7181 -2.9141 22.7325 21.5175
# 3 41.1680 14.7181 74.4621 -15.3918 23.2206 -4.5817
# 4 -0.3031 -2.9141 -15.3918 26.3954 0.6981 6.4144
# 5 36.2195 22.7325 23.2206 0.6981 37.4121 8.3182
# 6 24.8056 21.5175 -4.5817 6.4144 8.3182 22.7637
#
#
#
# Elastic Compliance Matrix: (Units=1/GPa)
#
#
# Indices 1 2 3 4 5 6 
#
# 1 0.019851 0.011975 -0.010476 0.003375 -0.013114 -0.031218
# 2 0.011975 0.056127 -0.010261 0.016452 -0.025522 -0.063478
# 3 -0.010476 -0.010261 0.026375 0.007870 -0.006011 0.026402
# 4 0.003375 0.016452 0.007870 0.051319 -0.013026 -0.027346
# 5 -0.013114 -0.025522 -0.006011 -0.013026 0.054224 0.021061
# 6 -0.031218 -0.063478 0.026402 -0.027346 0.021061 0.143274
#
#
# Mechanical properties :
#
#
# Convention : Reuss Voigt Hill
#
# Bulk Modulus (GPa) = 11.78831 45.44763 28.61797
# Shear Modulus (GPa) = 12.59540 28.05340 20.32440
#
# Velocity S-wave (km/s) = 2.31629 3.45685 2.94237
# Velocity P-wave (km/s) = 3.48928 5.94073 4.87172
#
# Compressibility (1/GPa) = 0.08482984
#
# Stress axis : x y z
#
# Youngs Moduli (GPa) = 50.37624 17.81676 37.91432
#
# Poissons Ratio (x) = -0.21336 0.39717
# Poissons Ratio (y) = -0.60326 0.38904
# Poissons Ratio (z) = 0.52772 0.18282
#
# Static dielectric constant tensor:
#      x y z
#    x 1.986310 0.018310 0.018280 
#    y 0.018310 1.950600 -0.000830 
#    z 0.018280 -0.000830 1.970610 
# 
# From -- ./inp_files/505387.got.cif
#   From: 2010.05.17/outbox.cif.g08.bks.cpg/sg2_253_cif.got.tgz:505387.got - 2010.06.03 11:33:40.
