data_PCOD9077919
_publ_section_title
;
Structure prediction by ZEFSAII (Michael W. Deem and Ramdas Pophale) SiO2 
 PCOD9077919
Probable space group: P -1
;
_chemical_formula_sum "Si O2"
_cell_formula_units_Z 16
_cell_length_a 13.020330
_cell_length_b 22.567868
_cell_length_c 18.237814
_cell_angle_alpha 162.810070
_cell_angle_beta 157.491174
_cell_angle_gamma 31.232447
_cell_volume 588.161264
_symmetry_space_group_name_H-M "P -1"
_symmetry_group_IT_number 2
_symmetry_cell_setting 'triclinic'
loop_
_space_group_symop_operation_xyz
x,y,z
-x,-y,-z
loop_
_atom_site_type_symbol
_atom_site_label
_atom_site_fract_x
_atom_site_fract_y
_atom_site_fract_z
Si Si1 0.296235 0.300468 0.355107
Si Si2 0.744426 0.405377 0.936538
Si Si3 0.580875 0.733575 0.866205
Si Si4 0.872397 0.330191 0.387176
Si Si5 0.988617 0.942169 0.263002
Si Si6 0.872091 0.016512 0.837439
Si Si7 0.928105 0.360260 0.856921
Si Si8 0.389060 0.228020 0.771982
O O1 0.284041 0.537050 0.609995
O O2 0.601806 0.267501 0.527089
O O3 0.156427 0.179622 0.048099
O O4 0.116272 0.199011 0.184641
O O5 0.525402 0.532362 0.914929
O O6 0.867292 0.502679 0.208975
O O7 0.772057 0.170231 0.683591
O O8 0.954692 0.470926 0.084480
O O9 0.500000 0.500000 0.500000
O O10 0.326283 0.755028 0.774670
O O11 0.730225 0.895857 0.094293
O O12 0.835068 0.761047 0.123917
O O13 0.004879 0.148718 0.231445
O O14 0.155751 0.162449 0.603795
O O15 0.631315 0.120593 0.826410
O O16 0.745258 0.886161 0.526316
O O17 0.000000 0.500000 0.000000
#
# Coordination Sequence:
#
# PCOD9077919 Si02
#       8
#     2   2   2   2   2   2   2   2
#     4  10  19  34  53  81 113 140 177 214 276 319
#     4   9  19  33  56  79 107 140 184 219 265 316
#     4  11  17  34  56  81 112 138 180 222 261 327
#     4  10  18  35  56  81 109 143 178 219 271 313
#     4   9  18  33  57  81 109 141 176 222 271 315
#     4   9  20  35  56  82 110 137 183 233 261 312
#     4  11  19  32  55  81 112 145 174 218 268 327
#     4   9  18  37  56  82 106 137 190 230 258 308
#
# _framework density 27.203423999999998
#
# number of rings (size 3 to 8) (size 9 to 14) (size 15 to 20)
#    0.000    2.250    5.000    0.000    0.000    1.000 
#    2.250   10.625    0.000    3.750    0.000    0.000 
#    0.000    0.000    0.000    0.000    0.000    0.000 
#
# Total GULP energy -89318.782765 kJ/mol
# GULP energy per Si atom -5582.423923 kJ/mol
# Density = 2.714151 g / cm^3
# Si number density = 27.203424 Si / 1000 Ang^3
#
#
#
# Elastic Constant Matrix: (Units=GPa)
#
#
# Indices 1 2 3 4 5 6 
#
# 1 46.1542 4.6726 20.4945 16.2560 -3.4714 -2.3419
# 2 4.6726 174.5586 46.5652 -7.7221 -6.6760 2.1949
# 3 20.4945 46.5652 90.4922 1.1249 7.4544 -0.3159
# 4 16.2560 -7.7221 1.1249 39.9859 1.2076 -6.0412
# 5 -3.4714 -6.6760 7.4544 1.2076 40.2175 4.5226
# 6 -2.3419 2.1949 -0.3159 -6.0412 4.5226 42.9836
#
#
#
# Elastic Compliance Matrix: (Units=1/GPa)
#
#
# Indices 1 2 3 4 5 6 
#
# 1 0.029253 0.000812 -0.007264 -0.011759 0.004429 -0.000620
# 2 0.000812 0.006868 -0.003892 0.000987 0.001947 -0.000401
# 3 -0.007264 -0.003892 0.015021 0.002001 -0.004189 0.000635
# 4 -0.011759 0.000987 0.002001 0.030590 -0.002579 0.003894
# 5 0.004429 0.001947 -0.004189 -0.002579 0.026769 -0.003068
# 6 -0.000620 -0.000401 0.000635 0.003894 -0.003068 0.024126
#
#
# Mechanical properties :
#
#
# Convention : Reuss Voigt Hill
#
# Bulk Modulus (GPa) = 32.83650 50.51886 41.67768
# Shear Modulus (GPa) = 30.58715 40.60223 35.59469
#
# Velocity S-wave (km/s) = 3.35682 3.86753 3.62119
# Velocity P-wave (km/s) = 5.20781 6.20925 5.73045
#
# Compressibility (1/GPa) = 0.03045391
#
# Stress axis : x y z
#
# Youngs Moduli (GPa) = 34.18455 145.59306 66.57356
#
# Poissons Ratio (x) = -0.11816 0.48356
# Poissons Ratio (y) = -0.02774 0.25912
# Poissons Ratio (z) = 0.24830 0.56668
#
# Static dielectric constant tensor:
#      x y z
#    x 2.168020 -0.107870 -0.049740 
#    y -0.107870 2.263300 -0.042290 
#    z -0.049740 -0.042290 2.163730 
# 
# From -- ./inp_files/555973.got.cif
#   From: 2010.05.17/outbox.cif.g08.bks.cpg/sg2_278_cif.got.tgz:555973.got - 2010.06.03 11:33:40.
