data_PCOD9077859
_publ_section_title
;
Structure prediction by ZEFSAII (Michael W. Deem and Ramdas Pophale) SiO2 
 PCOD9077859
Probable space group: P -1
;
_chemical_formula_sum "Si O2"
_cell_formula_units_Z 16
_cell_length_a 22.047914
_cell_length_b 12.284238
_cell_length_c 11.358247
_cell_angle_alpha 58.757587
_cell_angle_beta 31.870701
_cell_angle_gamma 36.407472
_cell_volume 819.945317
_symmetry_space_group_name_H-M "P -1"
_symmetry_group_IT_number 2
_symmetry_cell_setting 'triclinic'
loop_
_space_group_symop_operation_xyz
x,y,z
-x,-y,-z
loop_
_atom_site_type_symbol
_atom_site_label
_atom_site_fract_x
_atom_site_fract_y
_atom_site_fract_z
Si Si1 0.364767 0.546008 0.101068
Si Si2 0.858421 0.242030 0.058571
Si Si3 0.961606 0.416406 0.894637
Si Si4 0.666989 0.380309 0.533860
Si Si5 0.908857 0.086864 0.817404
Si Si6 0.154952 0.488029 0.569799
Si Si7 0.180311 0.118435 0.932620
Si Si8 0.378212 0.277817 0.550245
O O1 0.162573 0.793937 0.256057
O O2 0.298233 0.464261 0.291279
O O3 0.500000 0.500000 0.000000
O O4 0.499501 0.439243 0.823879
O O5 0.688030 0.373972 0.361620
O O6 0.838045 0.239199 0.955592
O O7 0.940722 0.310211 0.908513
O O8 0.000000 0.000000 0.000000
O O9 0.075944 0.439665 0.651223
O O10 0.074291 0.267592 0.908949
O O11 0.748846 0.643197 0.169716
O O12 0.635225 0.554685 0.529140
O O13 0.865548 0.149428 0.396415
O O14 0.804932 0.044725 0.022470
O O15 0.269126 0.331624 0.582617
O O16 0.963197 0.726046 0.808832
O O17 0.400390 0.963419 0.675949
#
# Coordination Sequence:
#
# PCOD9077859 Si02
#       8
#     2   2   2   2   2   2   2   2
#     4  12  23  38  55  86 122 155 194 227 281 354
#     4   9  18  38  63  85 109 144 197 248 286 325
#     4  10  21  37  55  83 118 147 192 238 289 339
#     4  10  19  36  57  87 117 140 194 241 282 333
#     4  11  20  36  62  88 111 153 190 243 292 321
#     4  11  23  36  52  80 125 160 178 233 286 349
#     4  11  18  34  60  87 113 147 192 238 296 332
#     4  10  18  35  54  87 113 143 190 238 284 337
#
# _framework density 19.513497000000001
#
# number of rings (size 3 to 8) (size 9 to 14) (size 15 to 20)
#    0.000    1.500    7.500    1.500    0.000    5.500 
#    0.000    0.625    0.000    3.000    0.000    0.000 
#    0.000    0.000    0.000    0.000    0.000    0.000 
#
# Total GULP energy -89154.024649 kJ/mol
# GULP energy per Si atom -5572.126541 kJ/mol
# Density = 1.946908 g / cm^3
# Si number density = 19.513497 Si / 1000 Ang^3
#
#
#
# Elastic Constant Matrix: (Units=GPa)
#
#
# Indices 1 2 3 4 5 6 
#
# 1 82.3949 41.6276 43.8219 -4.3577 -16.1442 16.6613
# 2 41.6276 62.5969 39.7405 -8.3900 -11.5886 6.5906
# 3 43.8219 39.7405 96.4073 -7.2398 -22.4000 21.6672
# 4 -4.3577 -8.3900 -7.2398 43.2246 0.8676 -18.2772
# 5 -16.1442 -11.5886 -22.4000 0.8676 21.2191 -1.0180
# 6 16.6613 6.5906 21.6672 -18.2772 -1.0180 32.9618
#
#
#
# Elastic Compliance Matrix: (Units=1/GPa)
#
#
# Indices 1 2 3 4 5 6 
#
# 1 0.022539 -0.012158 -0.001096 -0.004989 0.009041 -0.010729
# 2 -0.012158 0.029068 -0.008716 0.007233 -0.002392 0.010000
# 3 -0.001096 -0.008716 0.020823 -0.004236 0.015926 -0.013248
# 4 -0.004989 0.007233 -0.004236 0.032645 -0.004606 0.021820
# 5 0.009041 -0.002392 0.015926 -0.004606 0.068981 -0.014984
# 6 -0.010729 0.010000 -0.013248 0.021820 -0.014984 0.054107
#
#
# Mechanical properties :
#
#
# Convention : Reuss Voigt Hill
#
# Bulk Modulus (GPa) = 35.10008 54.64213 44.87111
# Shear Modulus (GPa) = 17.75567 27.22839 22.49203
#
# Velocity S-wave (km/s) = 3.01976 3.73951 3.39874
# Velocity P-wave (km/s) = 5.49411 6.83434 6.20054
#
# Compressibility (1/GPa) = 0.02848996
#
# Stress axis : x y z
#
# Youngs Moduli (GPa) = 44.36678 34.40256 48.02291
#
# Poissons Ratio (x) = 0.41828 0.05265
# Poissons Ratio (y) = 0.53943 0.41854
# Poissons Ratio (z) = 0.04864 0.29984
#
# Static dielectric constant tensor:
#      x y z
#    x 1.722140 0.001320 -0.016880 
#    y 0.001320 1.728090 0.008470 
#    z -0.016880 0.008470 1.747710 
# 
# From -- ./inp_files/438487.got.cif
#   From: 2010.05.17/outbox.cif.g08.bks.cpg/sg2_220_cif.got.tgz:438487.got - 2010.06.03 11:33:40.
