data_PCOD9077661
_publ_section_title
;
Structure prediction by ZEFSAII (Michael W. Deem and Ramdas Pophale) SiO2 
 PCOD9077661
Probable space group: P -1
;
_chemical_formula_sum "Si O2"
_cell_formula_units_Z 16
_cell_length_a 11.272218
_cell_length_b 21.545743
_cell_length_c 12.112321
_cell_angle_alpha 153.073037
_cell_angle_beta 50.230047
_cell_angle_gamma 139.095856
_cell_volume 866.486171
_symmetry_space_group_name_H-M "P -1"
_symmetry_group_IT_number 2
_symmetry_cell_setting 'triclinic'
loop_
_space_group_symop_operation_xyz
x,y,z
-x,-y,-z
loop_
_atom_site_type_symbol
_atom_site_label
_atom_site_fract_x
_atom_site_fract_y
_atom_site_fract_z
Si Si1 0.721448 0.766204 0.299576
Si Si2 0.748798 0.899295 0.980077
Si Si3 0.185693 0.502703 0.891971
Si Si4 0.526658 0.497274 0.150253
Si Si5 0.879810 0.109425 0.659480
Si Si6 0.000346 0.868482 0.629291
Si Si7 0.326257 0.702760 0.918326
Si Si8 0.658780 0.571859 0.611564
O O1 0.607205 0.674801 0.332285
O O2 0.925716 0.807812 0.264242
O O3 0.746916 0.934983 0.516976
O O4 0.616742 0.636682 0.060082
O O5 0.538703 0.827091 0.962494
O O6 0.761650 0.762097 0.825592
O O7 0.867337 0.926641 0.843355
O O8 0.838621 0.053510 0.252045
O O9 0.298745 0.520206 0.961948
O O10 0.317245 0.648428 0.964316
O O11 0.123770 0.326190 0.602061
O O12 0.000000 0.500000 0.000000
O O13 0.432016 0.469964 0.281000
O O14 0.919753 0.088902 0.474560
O O15 0.793598 0.218530 0.893675
O O16 0.251432 0.534825 0.629777
O O17 0.500000 0.500000 0.500000
#
# Coordination Sequence:
#
# PCOD9077661 Si02
#       8
#     2   2   2   2   2   2   2   2
#     4  10  24  40  61  79 116 165 210 228 280 344
#     4  10  21  34  56  94 120 153 183 237 314 362
#     4  12  20  34  59  93 121 150 186 252 305 343
#     4  11  20  40  62  85 111 161 203 238 280 361
#     4  11  23  40  58  86 119 159 196 248 283 344
#     4  11  21  35  57  85 126 152 189 237 296 354
#     4  11  21  36  61  91 122 147 193 243 310 352
#     4  10  18  34  62  87 116 148 188 238 304 356
#
# _framework density 18.465384
#
# number of rings (size 3 to 8) (size 9 to 14) (size 15 to 20)
#    0.000    1.250    6.250    1.500    0.000    1.500 
#    0.000    1.250    0.000    0.000    0.000    0.000 
#    0.000    0.000    0.000    0.000    0.000    0.000 
#
# Total GULP energy -89180.773117 kJ/mol
# GULP energy per Si atom -5573.798320 kJ/mol
# Density = 1.842336 g / cm^3
# Si number density = 18.465384 Si / 1000 Ang^3
#
#
#
# Elastic Constant Matrix: (Units=GPa)
#
#
# Indices 1 2 3 4 5 6 
#
# 1 63.6264 18.3338 48.4011 -5.7330 -2.4953 -4.3015
# 2 18.3338 78.5810 24.7231 -2.1654 -9.5997 -13.4384
# 3 48.4011 24.7231 71.4438 3.6701 -5.0888 -2.6273
# 4 -5.7330 -2.1654 3.6701 36.4583 1.4089 -0.0690
# 5 -2.4953 -9.5997 -5.0888 1.4089 29.0572 7.5909
# 6 -4.3015 -13.4384 -2.6273 -0.0690 7.5909 28.8388
#
#
#
# Elastic Compliance Matrix: (Units=1/GPa)
#
#
# Indices 1 2 3 4 5 6 
#
# 1 0.034955 -0.000024 -0.024133 0.008032 -0.002590 0.003705
# 2 -0.000024 0.015748 -0.005088 0.001354 0.002629 0.006182
# 3 -0.024133 -0.005088 0.032588 -0.007514 0.003336 -0.003898
# 4 0.008032 0.001354 -0.007514 0.029612 -0.002075 0.001761
# 5 -0.002590 0.002629 0.003336 -0.002075 0.038066 -0.008882
# 6 0.003705 0.006182 -0.003898 0.001761 -0.008882 0.040096
#
#
# Mechanical properties :
#
#
# Convention : Reuss Voigt Hill
#
# Bulk Modulus (GPa) = 40.32394 44.06303 42.19348
# Shear Modulus (GPa) = 19.39328 27.01709 23.20519
#
# Velocity S-wave (km/s) = 3.24427 3.82923 3.54882
# Velocity P-wave (km/s) = 5.99322 6.59279 6.30015
#
# Compressibility (1/GPa) = 0.02479917
#
# Stress axis : x y z
#
# Youngs Moduli (GPa) = 28.60860 63.50047 30.68650
#
# Poissons Ratio (x) = 0.00152 0.74056
# Poissons Ratio (y) = 0.00069 0.15614
# Poissons Ratio (z) = 0.69042 0.32311
#
# Static dielectric constant tensor:
#      x y z
#    x 1.632700 0.007180 -0.011630 
#    y 0.007180 1.690580 -0.004130 
#    z -0.011630 -0.004130 1.662100 
# 
# From -- ./inp_files/338034.got.cif
#   From: 2010.05.17/outbox.cif.g08.bks.cpg/sg2_170_cif.got.tgz:338034.got - 2010.06.03 11:33:40.
