data_PCOD9077320
_publ_section_title
;
Structure prediction by ZEFSAII (Michael W. Deem and Ramdas Pophale) SiO2 
 PCOD9077320
Probable space group: P -1
;
_chemical_formula_sum "Si O2"
_cell_formula_units_Z 14
_cell_length_a 10.507633
_cell_length_b 7.027387
_cell_length_c 16.519088
_cell_angle_alpha 110.728200
_cell_angle_beta 149.002508
_cell_angle_gamma 76.198804
_cell_volume 582.182117
_symmetry_space_group_name_H-M "P -1"
_symmetry_group_IT_number 2
_symmetry_cell_setting 'triclinic'
loop_
_space_group_symop_operation_xyz
x,y,z
-x,-y,-z
loop_
_atom_site_type_symbol
_atom_site_label
_atom_site_fract_x
_atom_site_fract_y
_atom_site_fract_z
Si Si1 0.554226 0.855842 0.275679
Si Si2 0.758482 0.289418 0.626221
Si Si3 0.127780 0.476921 0.979919
Si Si4 0.207936 0.044056 0.007012
Si Si5 0.837000 0.653015 0.278801
Si Si6 0.326149 0.023768 0.320358
Si Si7 0.604470 0.221395 0.054980
O O1 0.799907 0.790613 0.358170
O O2 0.440496 0.034556 0.191494
O O3 0.527857 0.909697 0.363256
O O4 0.349093 0.658087 0.117885
O O5 0.462665 0.254069 0.442014
O O6 0.916635 0.460477 0.793646
O O7 0.906505 0.296142 0.623103
O O8 0.755256 0.093273 0.657809
O O9 0.240870 0.262432 0.012692
O O10 0.000000 0.500000 0.000000
O O11 0.207009 0.850561 0.918452
O O12 0.921332 0.011931 0.874687
O O13 0.754760 0.410489 0.213862
O O14 0.629271 0.706144 0.108611
O O15 0.500000 0.000000 0.000000
#
# Coordination Sequence:
#
# PCOD9077320 Si02
#       7
#     2   2   2   2   2   2   2
#     4  11  21  38  61  88 116 148 196 245 284 341
#     4  10  20  38  56  87 119 154 197 231 292 354
#     4  11  20  35  60  86 113 148 191 244 286 339
#     4  10  20  34  59  87 115 146 195 241 287 338
#     4  10  21  35  58  86 115 151 196 235 286 342
#     4  10  21  36  59  85 119 160 189 235 297 345
#     4  10  18  34  58  85 117 148 191 242 287 341
#
# _framework density 24.047460000000001
#
# number of rings (size 3 to 8) (size 9 to 14) (size 15 to 20)
#    0.000    1.714    2.857    5.571    0.000    0.571 
#    0.000    2.857    0.000    0.000    0.000   11.000 
#    0.000    0.000    0.000    0.000    0.000    0.000 
#
# Total GULP energy -78050.705424 kJ/mol
# GULP energy per Si atom -5575.050387 kJ/mol
# Density = 2.399273 g / cm^3
# Si number density = 24.047460 Si / 1000 Ang^3
#
#
#
# Elastic Constant Matrix: (Units=GPa)
#
#
# Indices 1 2 3 4 5 6 
#
# 1 132.1906 13.7252 20.8983 9.0397 5.6131 -4.7378
# 2 13.7252 85.7322 22.7755 14.1973 -0.9358 16.3902
# 3 20.8983 22.7755 71.1213 24.1366 5.2736 13.7710
# 4 9.0397 14.1973 24.1366 32.0088 7.6083 6.0512
# 5 5.6131 -0.9358 5.2736 7.6083 35.4928 10.2101
# 6 -4.7378 16.3902 13.7710 6.0512 10.2101 30.6550
#
#
#
# Elastic Compliance Matrix: (Units=1/GPa)
#
#
# Indices 1 2 3 4 5 6 
#
# 1 0.008353 -0.001416 -0.002600 -0.000013 -0.002096 0.003917
# 2 -0.001416 0.014558 -0.001555 -0.004368 0.004013 -0.007778
# 3 -0.002600 -0.001555 0.021201 -0.013743 0.002214 -0.007119
# 4 -0.000013 -0.004368 -0.013743 0.045094 -0.008432 0.002414
# 5 -0.002096 0.004013 0.002214 -0.008432 0.033852 -0.013074
# 6 0.003917 -0.007778 -0.007119 0.002414 -0.013074 0.044461
#
#
# Mechanical properties :
#
#
# Convention : Reuss Voigt Hill
#
# Bulk Modulus (GPa) = 30.33010 44.87134 37.60072
# Shear Modulus (GPa) = 26.36437 35.07433 30.71935
#
# Velocity S-wave (km/s) = 3.31471 3.82323 3.57802
# Velocity P-wave (km/s) = 5.22395 6.17977 5.72185
#
# Compressibility (1/GPa) = 0.03297055
#
# Stress axis : x y z
#
# Youngs Moduli (GPa) = 119.71608 68.68943 47.16858
#
# Poissons Ratio (x) = 0.09728 0.12262
# Poissons Ratio (y) = 0.16954 0.07334
# Poissons Ratio (z) = 0.31121 0.10681
#
# Static dielectric constant tensor:
#      x y z
#    x 2.065410 -0.041070 -0.021150 
#    y -0.041070 1.994080 -0.019010 
#    z -0.021150 -0.019010 1.960470 
# 
# From -- ./inp_files/593279.got.cif
#   From: 2010.05.17/outbox.cif.g08.bks.cpg/sg2_297_cif.got.tgz:593279.got - 2010.06.03 11:33:40.
