data_PCOD9077084
_publ_section_title
;
Structure prediction by ZEFSAII (Michael W. Deem and Ramdas Pophale) SiO2 
 PCOD9077084
Probable space group: P -1
;
_chemical_formula_sum "Si O2"
_cell_formula_units_Z 14
_cell_length_a 8.209908
_cell_length_b 15.201900
_cell_length_c 7.787607
_cell_angle_alpha 75.197012
_cell_angle_beta 123.216723
_cell_angle_gamma 67.031118
_cell_volume 593.690705
_symmetry_space_group_name_H-M "P -1"
_symmetry_group_IT_number 2
_symmetry_cell_setting 'triclinic'
loop_
_space_group_symop_operation_xyz
x,y,z
-x,-y,-z
loop_
_atom_site_type_symbol
_atom_site_label
_atom_site_fract_x
_atom_site_fract_y
_atom_site_fract_z
Si Si1 0.054964 0.607354 0.617904
Si Si2 0.388600 0.635136 0.354750
Si Si3 0.830474 0.848175 0.446172
Si Si4 0.796001 0.810612 0.845961
Si Si5 0.562847 0.094711 0.101237
Si Si6 0.755860 0.636190 0.754673
Si Si7 0.624070 0.653682 0.140716
O O1 0.287392 0.464770 0.852843
O O2 0.075167 0.710243 0.596807
O O3 0.844340 0.655287 0.619793
O O4 0.900882 0.620639 0.353198
O O5 0.500000 0.500000 0.500000
O O6 0.501921 0.657340 0.566232
O O7 0.504867 0.643028 0.245771
O O8 0.084732 0.730628 0.119999
O O9 0.793950 0.852035 0.630418
O O10 0.823224 0.955787 0.329585
O O11 0.594414 0.878084 0.179391
O O12 0.602882 0.898445 0.840471
O O13 0.733772 0.722981 0.831545
O O14 0.566068 0.202719 0.073705
O O15 0.000000 0.500000 0.000000
#
# Coordination Sequence:
#
# PCOD9077084 Si02
#       7
#     2   2   2   2   2   2   2
#     4   8  16  30  56  82 117 160 199 254 307 369
#     4  11  23  36  59  98 135 166 210 273 324 381
#     4   9  20  37  62  97 123 166 225 260 312 389
#     4  11  22  39  66  93 127 171 216 263 322 386
#     4  10  20  39  68  90 126 177 213 263 323 381
#     4  10  18  34  55  87 128 164 204 257 321 377
#     4   9  18  33  56  86 125 160 204 258 319 367
#
# _framework density 23.581302000000001
#
# number of rings (size 3 to 8) (size 9 to 14) (size 15 to 20)
#    0.000    2.286    1.429    2.143    6.000    0.000 
#    0.000    6.429    0.000   29.143    0.000    0.000 
#    0.000    0.000    0.000    0.000    0.000    0.000 
#
# Total GULP energy -78024.980071 kJ/mol
# GULP energy per Si atom -5573.212862 kJ/mol
# Density = 2.352763 g / cm^3
# Si number density = 23.581302 Si / 1000 Ang^3
#
#
#
# Elastic Constant Matrix: (Units=GPa)
#
#
# Indices 1 2 3 4 5 6 
#
# 1 64.2168 33.0566 29.5229 -1.9009 -9.1781 2.8612
# 2 33.0566 148.6380 60.1942 -36.5378 -6.9012 19.5230
# 3 29.5229 60.1942 124.9554 -8.1585 -5.1428 14.1523
# 4 -1.9009 -36.5378 -8.1585 47.4022 8.8049 -19.4533
# 5 -9.1781 -6.9012 -5.1428 8.8049 37.0201 -1.6955
# 6 2.8612 19.5230 14.1523 -19.4533 -1.6955 31.4814
#
#
#
# Elastic Compliance Matrix: (Units=1/GPa)
#
#
# Indices 1 2 3 4 5 6 
#
# 1 0.019364 -0.003834 -0.002763 -0.003529 0.004538 -0.000076
# 2 -0.003834 0.011080 -0.003980 0.008009 -0.001336 0.000143
# 3 -0.002763 -0.003980 0.010854 -0.003081 0.000629 -0.004030
# 4 -0.003529 0.008009 -0.003081 0.035466 -0.007409 0.018255
# 5 0.004538 -0.001336 0.000629 -0.007409 0.029607 -0.002850
# 6 -0.000076 0.000143 -0.004030 0.018255 -0.002850 0.044622
#
#
# Mechanical properties :
#
#
# Convention : Reuss Voigt Hill
#
# Bulk Modulus (GPa) = 49.64369 64.81750 57.23059
# Shear Modulus (GPa) = 27.95461 37.51652 32.73557
#
# Velocity S-wave (km/s) = 3.44678 3.99299 3.72990
# Velocity P-wave (km/s) = 6.07768 6.98607 6.54765
#
# Compressibility (1/GPa) = 0.02014355
#
# Stress axis : x y z
#
# Youngs Moduli (GPa) = 51.64302 90.25183 92.13100
#
# Poissons Ratio (x) = 0.34604 0.25456
# Poissons Ratio (y) = 0.19801 0.36668
# Poissons Ratio (z) = 0.14269 0.35920
#
# Static dielectric constant tensor:
#      x y z
#    x 1.933240 0.007820 -0.097930 
#    y 0.007820 1.981450 0.010680 
#    z -0.097930 0.010680 1.927670 
# 
# From -- ./inp_files/207158.got.cif
#   From: 2010.05.17/outbox.cif.g08.bks.cpg/sg2_104_cif.got.tgz:207158.got - 2010.06.03 11:33:40.
