data_PCOD9077368
_publ_section_title
;
Structure prediction by ZEFSAII (Michael W. Deem and Ramdas Pophale) SiO2 
 PCOD9077368
Probable space group: P -1
;
_chemical_formula_sum "Si O2"
_cell_formula_units_Z 13
_cell_length_a 9.464778
_cell_length_b 11.541516
_cell_length_c 6.190041
_cell_angle_alpha 121.256547
_cell_angle_beta 102.564808
_cell_angle_gamma 67.678343
_cell_volume 534.546229
_symmetry_space_group_name_H-M "P -1"
_symmetry_group_IT_number 2
_symmetry_cell_setting 'triclinic'
loop_
_space_group_symop_operation_xyz
x,y,z
-x,-y,-z
loop_
_atom_site_type_symbol
_atom_site_label
_atom_site_fract_x
_atom_site_fract_y
_atom_site_fract_z
Si Si1 0.238488 0.078175 0.864596
Si Si2 0.444745 0.659697 0.550232
Si Si3 0.780615 0.649527 0.642192
Si Si4 0.010106 0.608606 0.297076
Si Si5 0.500000 0.000000 0.500000
Si Si6 0.845710 0.173955 0.627595
Si Si7 0.289216 0.875832 0.073524
O O1 0.387302 0.048097 0.732890
O O2 0.151199 0.974982 0.628433
O O3 0.183836 0.246218 0.065583
O O4 0.259324 0.017468 0.057876
O O5 0.500000 0.500000 0.500000
O O6 0.599410 0.696640 0.590131
O O7 0.318261 0.704217 0.364225
O O8 0.357863 0.751491 0.810358
O O9 0.850740 0.488064 0.599862
O O10 0.863502 0.653252 0.447013
O O11 0.038548 0.750759 0.356061
O O12 0.000000 0.500000 0.000000
O O13 0.410775 0.890363 0.300180
O O14 0.848148 0.147627 0.859315
#
# Coordination Sequence:
#
# PCOD9077368 Si02
#       7
#     2   2   2   2   1   2   2
#     4  10  22  41  66  99 134 173 218 278 333 393
#     4  11  22  40  67 100 131 171 220 279 335 389
#     4  11  25  45  69  97 132 178 223 277 333 389
#     4  11  27  47  65  94 135 181 227 272 326 402
#     4  10  18  34  58  98 134 162 210 260 336 388
#     4  10  24  42  67  99 133 174 220 274 334 401
#     4  10  22  35  63  98 140 163 211 274 339 394
#
# _framework density 24.319689
#
# number of rings (size 3 to 8) (size 9 to 14) (size 15 to 20)
#    0.000    1.538    3.077    0.462    6.462    6.154 
#    0.000    1.538    0.000    0.000    0.000    0.000 
#    0.000    0.000    0.000    0.000    0.000    0.000 
#
# Total GULP energy -72425.800992 kJ/mol
# GULP energy per Si atom -5571.215461 kJ/mol
# Density = 2.426434 g / cm^3
# Si number density = 24.319689 Si / 1000 Ang^3
#
#
#
# Elastic Constant Matrix: (Units=GPa)
#
#
# Indices 1 2 3 4 5 6 
#
# 1 125.8226 34.1372 47.7117 -13.9552 -28.3487 27.2949
# 2 34.1372 120.9727 28.0211 12.4825 -18.5236 26.1012
# 3 47.7117 28.0211 83.1215 -4.6150 -41.5160 16.4653
# 4 -13.9552 12.4825 -4.6150 32.3767 8.8882 -4.3205
# 5 -28.3487 -18.5236 -41.5160 8.8882 47.1631 -8.5733
# 6 27.2949 26.1012 16.4653 -4.3205 -8.5733 43.3252
#
#
#
# Elastic Compliance Matrix: (Units=1/GPa)
#
#
# Indices 1 2 3 4 5 6 
#
# 1 0.011712 -0.001681 -0.004834 0.004315 0.000587 -0.003982
# 2 -0.001681 0.011248 -0.000476 -0.006765 0.003251 -0.005568
# 3 -0.004834 -0.000476 0.024743 -0.003934 0.018935 -0.002717
# 4 0.004315 -0.006765 -0.003934 0.038127 -0.009857 0.004704
# 5 0.000587 0.003251 0.018935 -0.009857 0.040920 -0.002410
# 6 -0.003982 -0.005568 -0.002717 0.004704 -0.002410 0.029968
#
#
# Mechanical properties :
#
#
# Convention : Reuss Voigt Hill
#
# Bulk Modulus (GPa) = 29.65571 61.07298 45.36434
# Shear Modulus (GPa) = 27.48146 39.24277 33.36212
#
# Velocity S-wave (km/s) = 3.36521 4.02135 3.70782
# Velocity P-wave (km/s) = 5.22686 6.83584 6.08477
#
# Compressibility (1/GPa) = 0.03372032
#
# Stress axis : x y z
#
# Youngs Moduli (GPa) = 85.38592 88.90424 40.41551
#
# Poissons Ratio (x) = 0.14948 0.19538
# Poissons Ratio (y) = 0.14356 0.01922
# Poissons Ratio (z) = 0.41277 0.04228
#
# Static dielectric constant tensor:
#      x y z
#    x 1.985080 -0.066250 0.044640 
#    y -0.066250 2.032170 -0.059470 
#    z 0.044640 -0.059470 1.881480 
# 
# From -- ./inp_files/28923.got.cif
#   From: 2010.05.17/outbox.cif.g08.bks.cpg/sg2_15_cif.got.tgz:28923.got - 2010.06.03 11:33:40.
