data_PCOD9077952
_publ_section_title
;
Structure prediction by ZEFSAII (Michael W. Deem and Ramdas Pophale) SiO2 
 PCOD9077952
Probable space group: P -1
;
_chemical_formula_sum "Si O2"
_cell_formula_units_Z 16
_cell_length_a 14.149347
_cell_length_b 10.800250
_cell_length_c 9.081770
_cell_angle_alpha 110.858510
_cell_angle_beta 42.658689
_cell_angle_gamma 128.700891
_cell_volume 719.678487
_symmetry_space_group_name_H-M "P -1"
_symmetry_group_IT_number 2
_symmetry_cell_setting 'triclinic'
loop_
_space_group_symop_operation_xyz
x,y,z
-x,-y,-z
loop_
_atom_site_type_symbol
_atom_site_label
_atom_site_fract_x
_atom_site_fract_y
_atom_site_fract_z
Si Si1 0.649926 0.586608 0.744440
Si Si2 0.162059 0.177741 0.934651
Si Si3 0.414838 0.171290 0.500238
Si Si4 0.472850 0.938838 0.177395
Si Si5 0.625160 0.471856 0.187167
Si Si6 0.802374 0.433330 0.681437
Si Si7 0.069473 0.962209 0.627066
Si Si8 0.802134 0.959996 0.787747
O O1 0.539917 0.544118 0.702549
O O2 0.762688 0.520113 0.633454
O O3 0.749766 0.780339 0.729925
O O4 0.500000 0.500000 0.000000
O O5 0.328657 0.173110 0.752245
O O6 0.241411 0.345875 0.832039
O O7 0.000000 0.000000 0.000000
O O8 0.072347 0.195633 0.187743
O O9 0.557388 0.341394 0.338150
O O10 0.243245 0.090042 0.563075
O O11 0.468165 0.052329 0.351340
O O12 0.305054 0.758833 0.308177
O O13 0.636242 0.939716 0.022968
O O14 0.500000 0.000000 0.000000
O O15 0.715041 0.439651 0.937056
O O16 0.000000 0.500000 0.500000
O O17 0.128530 0.933965 0.394209
O O18 0.959498 0.033484 0.747951
#
# Coordination Sequence:
#
# PCOD9077952 Si02
#       8
#     2   2   2   2   2   2   2   2
#     4  10  18  35  56  88 121 157 198 239 306 359
#     4  10  24  38  63  88 119 159 214 251 290 362
#     4  11  22  41  59  91 121 168 201 247 298 362
#     4  12  21  38  58  89 131 153 199 242 311 360
#     4  11  20  41  62  84 122 161 206 248 300 363
#     4  11  24  33  60  96 127 155 190 260 311 357
#     4  10  20  36  60  89 119 154 201 248 293 352
#     4  11  20  35  64  92 124 158 195 251 307 363
#
# _framework density 22.232149
#
# number of rings (size 3 to 8) (size 9 to 14) (size 15 to 20)
#    0.000    1.250    6.250    1.875    5.250    0.000 
#    0.000    0.625    0.000    0.000    0.000    5.250 
#    0.000    0.000    0.000    0.000    0.000    0.000 
#
# Total GULP energy -89124.369274 kJ/mol
# GULP energy per Si atom -5570.273080 kJ/mol
# Density = 2.218155 g / cm^3
# Si number density = 22.232149 Si / 1000 Ang^3
#
#
#
# Elastic Constant Matrix: (Units=GPa)
#
#
# Indices 1 2 3 4 5 6 
#
# 1 54.5788 13.3063 25.2749 -1.0624 -27.5330 -5.5167
# 2 13.3063 131.2930 56.3371 -12.3496 -6.7145 -14.2989
# 3 25.2749 56.3371 137.3485 -28.3420 -23.5255 -13.5452
# 4 -1.0624 -12.3496 -28.3420 23.7542 -1.1519 -2.1136
# 5 -27.5330 -6.7145 -23.5255 -1.1519 39.8897 -1.6199
# 6 -5.5167 -14.2989 -13.5452 -2.1136 -1.6199 22.4144
#
#
#
# Elastic Compliance Matrix: (Units=1/GPa)
#
#
# Indices 1 2 3 4 5 6 
#
# 1 0.030070 -0.000683 -0.000376 0.002304 0.020829 0.008461
# 2 -0.000683 0.009621 -0.003189 0.001510 -0.000521 0.004147
# 3 -0.000376 -0.003189 0.014456 0.016773 0.008572 0.008810
# 4 0.002304 0.001510 0.016773 0.065375 0.014391 0.018871
# 5 0.020829 -0.000521 0.008572 0.014391 0.045422 0.014614
# 6 0.008461 0.004147 0.008810 0.018871 0.014614 0.057502
#
#
# Mechanical properties :
#
#
# Convention : Reuss Voigt Hill
#
# Bulk Modulus (GPa) = 21.90526 57.00632 39.45579
# Shear Modulus (GPa) = 20.31196 32.43179 26.37188
#
# Velocity S-wave (km/s) = 3.02591 3.82354 3.44787
# Velocity P-wave (km/s) = 4.69921 6.72233 5.79966
#
# Compressibility (1/GPa) = 0.04565114
#
# Stress axis : x y z
#
# Youngs Moduli (GPa) = 33.25575 103.93528 69.17403
#
# Poissons Ratio (x) = 0.07097 0.02601
# Poissons Ratio (y) = 0.02271 0.22063
# Poissons Ratio (z) = 0.01250 0.33150
#
# Static dielectric constant tensor:
#      x y z
#    x 2.015640 0.048390 0.174130 
#    y 0.048390 1.910240 0.085970 
#    z 0.174130 0.085970 1.979930 
# 
# From -- ./inp_files/464718.got.cif
#   From: 2010.05.17/outbox.cif.g08.bks.cpg/sg2_233_cif.got.tgz:464718.got - 2010.06.03 11:33:40.
