data_PCOD9077282
_publ_section_title
;
Structure prediction by ZEFSAII (Michael W. Deem and Ramdas Pophale) SiO2 
 PCOD9077282
Probable space group: P -1
;
_chemical_formula_sum "Si O2"
_cell_formula_units_Z 16
_cell_length_a 13.769920
_cell_length_b 9.223058
_cell_length_c 12.039754
_cell_angle_alpha 146.640886
_cell_angle_beta 90.064529
_cell_angle_gamma 68.161808
_cell_volume 620.537373
_symmetry_space_group_name_H-M "P -1"
_symmetry_group_IT_number 2
_symmetry_cell_setting 'triclinic'
loop_
_space_group_symop_operation_xyz
x,y,z
-x,-y,-z
loop_
_atom_site_type_symbol
_atom_site_label
_atom_site_fract_x
_atom_site_fract_y
_atom_site_fract_z
Si Si1 0.195299 0.266845 0.508440
Si Si2 0.752032 0.370790 0.037304
Si Si3 0.217418 0.257772 0.054192
Si Si4 0.496062 0.189428 0.292061
Si Si5 0.790018 0.322620 0.422411
Si Si6 0.952126 0.294999 0.849294
Si Si7 0.472438 0.835082 0.272433
Si Si8 0.074018 0.272423 0.241992
O O1 0.195792 0.491791 0.557861
O O2 0.045672 0.529511 0.718278
O O3 0.224176 0.930583 0.235707
O O4 0.320461 0.090028 0.473493
O O5 0.821908 0.473880 0.036321
O O6 0.845991 0.135753 0.990603
O O7 0.596249 0.647972 0.233863
O O8 0.358120 0.135212 0.960092
O O9 0.214380 0.967604 0.814904
O O10 0.183746 0.258914 0.182126
O O11 0.105309 0.623651 0.222739
O O12 0.500000 0.500000 0.500000
O O13 0.362072 0.368788 0.340073
O O14 0.483061 0.047649 0.316127
O O15 0.920415 0.092937 0.352771
O O16 0.000000 0.500000 0.000000
O O17 0.500000 0.500000 0.000000
O O18 0.000000 0.500000 0.500000
#
# Coordination Sequence:
#
# PCOD9077282 Si02
#       8
#     2   2   2   2   2   2   2   2
#     4   9  18  33  55  81 110 149 195 230 289 338
#     4  10  18  34  58  78 112 156 191 235 292 340
#     4  10  20  35  57  86 116 151 195 236 293 347
#     4   9  17  32  56  85 115 150 190 237 297 347
#     4   9  18  33  57  86 116 148 187 237 291 352
#     4  10  19  33  54  88 115 150 189 238 289 346
#     4   9  17  31  57  82 108 153 197 230 291 350
#     4  10  21  37  57  82 113 156 197 241 286 343
#
# _framework density 25.784103000000002
#
# number of rings (size 3 to 8) (size 9 to 14) (size 15 to 20)
#    0.000    2.500    2.500    0.000    0.000    0.500 
#    0.000    3.750    0.000   25.500    0.000    0.000 
#    0.000    0.000    0.000    0.000    0.000    0.000 
#
# Total GULP energy -89325.580400 kJ/mol
# GULP energy per Si atom -5582.848775 kJ/mol
# Density = 2.572542 g / cm^3
# Si number density = 25.784103 Si / 1000 Ang^3
#
#
#
# Elastic Constant Matrix: (Units=GPa)
#
#
# Indices 1 2 3 4 5 6 
#
# 1 129.3482 13.4432 51.6534 -2.9931 -43.2541 -2.9047
# 2 13.4432 73.6214 31.7651 -10.5040 -15.0161 8.7079
# 3 51.6534 31.7651 101.0267 23.8023 -42.9448 -10.9958
# 4 -2.9931 -10.5040 23.8023 30.3793 -5.1750 -2.3030
# 5 -43.2541 -15.0161 -42.9448 -5.1750 71.2899 9.2464
# 6 -2.9047 8.7079 -10.9958 -2.3030 9.2464 53.3713
#
#
#
# Elastic Compliance Matrix: (Units=1/GPa)
#
#
# Indices 1 2 3 4 5 6 
#
# 1 0.012098 0.003591 -0.007870 0.009183 0.004268 -0.001892
# 2 0.003591 0.022067 -0.013277 0.018115 0.000858 -0.005507
# 3 -0.007870 -0.013277 0.027337 -0.025304 0.006389 0.005171
# 4 0.009183 0.018115 -0.025304 0.059382 -0.000903 -0.004950
# 5 0.004268 0.000858 0.006389 -0.000903 0.020872 -0.002246
# 6 -0.001892 -0.005507 0.005171 -0.004950 -0.002246 0.020773
#
#
# Mechanical properties :
#
#
# Convention : Reuss Voigt Hill
#
# Bulk Modulus (GPa) = 37.89302 55.30217 46.59759
# Shear Modulus (GPa) = 24.22048 44.81709 34.51879
#
# Velocity S-wave (km/s) = 3.06822 4.17366 3.66288
# Velocity P-wave (km/s) = 5.22304 6.68735 6.00003
#
# Compressibility (1/GPa) = 0.02639009
#
# Stress axis : x y z
#
# Youngs Moduli (GPa) = 82.66034 45.31694 36.58039
#
# Poissons Ratio (x) = -0.16273 0.28788
# Poissons Ratio (y) = -0.29683 0.48567
# Poissons Ratio (z) = 0.65052 0.60167
#
# Static dielectric constant tensor:
#      x y z
#    x 2.086100 -0.101280 0.054460 
#    y -0.101280 2.010800 -0.020870 
#    z 0.054460 -0.020870 2.119800 
# 
# From -- ./inp_files/529130.got.cif
#   From: 2010.05.17/outbox.cif.g08.bks.cpg/sg2_265_cif.got.tgz:529130.got - 2010.06.03 11:33:40.
