data_PCOD9077714
_publ_section_title
;
Structure prediction by ZEFSAII (Michael W. Deem and Ramdas Pophale) SiO2 
 PCOD9077714
Probable space group: P -1
;
_chemical_formula_sum "Si O2"
_cell_formula_units_Z 16
_cell_length_a 11.317749
_cell_length_b 7.777747
_cell_length_c 16.144111
_cell_angle_alpha 81.403896
_cell_angle_beta 49.895391
_cell_angle_gamma 115.863891
_cell_volume 763.148691
_symmetry_space_group_name_H-M "P -1"
_symmetry_group_IT_number 2
_symmetry_cell_setting 'triclinic'
loop_
_space_group_symop_operation_xyz
x,y,z
-x,-y,-z
loop_
_atom_site_type_symbol
_atom_site_label
_atom_site_fract_x
_atom_site_fract_y
_atom_site_fract_z
Si Si1 0.420643 0.695871 0.202287
Si Si2 0.757862 0.781828 0.587601
Si Si3 0.264501 0.932562 0.753865
Si Si4 0.678667 0.111923 0.631939
Si Si5 0.706725 0.867521 0.432638
Si Si6 0.002922 0.411757 0.334072
Si Si7 0.196168 0.536602 0.711111
Si Si8 0.904683 0.093771 0.994465
O O1 0.353204 0.474750 0.303908
O O2 0.368607 0.835988 0.263224
O O3 0.256865 0.568097 0.208006
O O4 0.678830 0.890052 0.061656
O O5 0.754214 0.762572 0.490047
O O6 0.641537 0.874255 0.657926
O O7 0.000000 0.000000 0.500000
O O8 0.177653 0.700735 0.758975
O O9 0.158062 0.849423 0.898255
O O10 0.516096 0.085484 0.645720
O O11 0.244297 0.084939 0.691576
O O12 0.917295 0.340411 0.472105
O O13 0.448679 0.699497 0.567513
O O14 0.854984 0.141362 0.381845
O O15 0.938844 0.534791 0.306217
O O16 0.083602 0.310960 0.837496
O O17 0.000000 0.000000 0.000000
#
# Coordination Sequence:
#
# PCOD9077714 Si02
#       8
#     2   2   2   2   2   2   2   2
#     4  11  23  39  58  90 127 159 202 248 301 367
#     4  11  20  33  58  92 125 156 187 251 310 345
#     4  10  19  39  65  88 114 158 211 249 295 361
#     4  10  19  36  60  92 120 156 197 250 307 353
#     4  10  18  35  65  94 117 150 204 256 301 351
#     4  10  18  34  63  89 120 150 201 257 295 352
#     4  11  19  38  65  86 117 163 200 245 304 361
#     4  11  26  41  55  86 127 165 197 248 305 361
#
# _framework density 20.965771
#
# number of rings (size 3 to 8) (size 9 to 14) (size 15 to 20)
#    0.000    1.500    6.250    2.250    0.000    0.500 
#    2.250    1.875    0.000    3.000    0.000    0.000 
#    0.000    0.000    0.000    0.000    0.000    0.000 
#
# Total GULP energy -89147.895094 kJ/mol
# GULP energy per Si atom -5571.743443 kJ/mol
# Density = 2.091805 g / cm^3
# Si number density = 20.965771 Si / 1000 Ang^3
#
#
#
# Elastic Constant Matrix: (Units=GPa)
#
#
# Indices 1 2 3 4 5 6 
#
# 1 112.3935 11.5728 25.3717 -10.5361 -1.0897 11.8812
# 2 11.5728 43.8646 27.5157 -6.3295 -1.4279 -3.4149
# 3 25.3717 27.5157 65.5460 -11.4067 1.3337 8.3233
# 4 -10.5361 -6.3295 -11.4067 14.6957 -2.6814 -7.9079
# 5 -1.0897 -1.4279 1.3337 -2.6814 35.0142 -7.0261
# 6 11.8812 -3.4149 8.3233 -7.9079 -7.0261 14.8265
#
#
#
# Elastic Compliance Matrix: (Units=1/GPa)
#
#
# Indices 1 2 3 4 5 6 
#
# 1 0.010456 -0.002085 -0.002045 0.000429 -0.001271 -0.008085
# 2 -0.002085 0.042268 -0.017690 0.028288 0.013049 0.042608
# 3 -0.002045 -0.017690 0.026018 -0.000917 -0.005928 -0.020339
# 4 0.000429 0.028288 -0.000917 0.135614 0.030327 0.093389
# 5 -0.001271 0.013049 -0.005928 0.030327 0.040139 0.042548
# 6 -0.008085 0.042608 -0.020339 0.093389 0.042548 0.165130
#
#
# Mechanical properties :
#
#
# Convention : Reuss Voigt Hill
#
# Bulk Modulus (GPa) = 28.48794 38.96938 33.72866
# Shear Modulus (GPa) = 10.52711 23.39689 16.96200
#
# Velocity S-wave (km/s) = 2.24321 3.34422 2.84744
# Velocity P-wave (km/s) = 4.50851 5.79131 5.18970
#
# Compressibility (1/GPa) = 0.03510257
#
# Stress axis : x y z
#
# Youngs Moduli (GPa) = 95.63752 23.65876 38.43499
#
# Poissons Ratio (x) = 0.04932 0.07860
# Poissons Ratio (y) = 0.19937 0.67991
# Poissons Ratio (z) = 0.19559 0.41852
#
# Static dielectric constant tensor:
#      x y z
#    x 1.825720 0.007270 0.012640 
#    y 0.007270 1.861220 0.009400 
#    z 0.012640 0.009400 1.840630 
# 
# From -- ./inp_files/426885.got.cif
#   From: 2010.05.17/outbox.cif.g08.bks.cpg/sg2_214_cif.got.tgz:426885.got - 2010.06.03 11:33:40.
