data_PCOD9077579
_publ_section_title
;
Structure prediction by ZEFSAII (Michael W. Deem and Ramdas Pophale) SiO2 
 PCOD9077579
Probable space group: P -1
;
_chemical_formula_sum "Si O2"
_cell_formula_units_Z 16
_cell_length_a 11.603078
_cell_length_b 22.617233
_cell_length_c 16.502607
_cell_angle_alpha 159.432654
_cell_angle_beta 43.095859
_cell_angle_gamma 148.998964
_cell_volume 718.324791
_symmetry_space_group_name_H-M "P -1"
_symmetry_group_IT_number 2
_symmetry_cell_setting 'triclinic'
loop_
_space_group_symop_operation_xyz
x,y,z
-x,-y,-z
loop_
_atom_site_type_symbol
_atom_site_label
_atom_site_fract_x
_atom_site_fract_y
_atom_site_fract_z
Si Si1 0.778810 0.715859 0.663860
Si Si2 0.731387 0.047121 0.112662
Si Si3 0.711825 0.890986 0.176785
Si Si4 0.351765 0.708534 0.731330
Si Si5 0.441942 0.897452 0.569489
Si Si6 0.302541 0.215666 0.765860
Si Si7 0.080221 0.368325 0.109568
Si Si8 0.268197 0.471937 0.322717
O O1 0.500000 0.500000 0.500000
O O2 0.801092 0.566326 0.514095
O O3 0.785741 0.904659 0.942352
O O4 0.997493 0.873512 0.688405
O O5 0.601008 0.063852 0.268499
O O6 0.567430 0.890041 0.917008
O O7 0.987512 0.298707 0.271821
O O8 0.664894 0.830381 0.218436
O O9 0.572018 0.949280 0.284727
O O10 0.653855 0.665401 0.878732
O O11 0.417222 0.707407 0.604217
O O12 0.173403 0.736185 0.867933
O O13 0.670902 0.935505 0.493527
O O14 0.216976 0.607528 0.292060
O O15 0.500000 0.500000 0.000000
O O16 0.067604 0.169344 0.827204
O O17 0.251636 0.480485 0.245870
#
# Coordination Sequence:
#
# PCOD9077579 Si02
#       8
#     2   2   2   2   2   2   2   2
#     4   9  18  32  52  85 116 142 180 228 282 337
#     4  10  21  32  54  86 114 145 191 230 278 342
#     4  10  18  34  61  83 109 151 189 229 288 334
#     4  11  19  33  55  81 116 153 176 227 290 338
#     4  11  19  35  56  83 110 146 196 233 274 339
#     4   9  21  36  56  85 111 145 195 241 276 331
#     4  10  20  35  54  78 114 149 185 233 281 329
#     4  10  20  35  52  83 118 145 183 230 283 342
#
# _framework density 22.274046999999999
#
# number of rings (size 3 to 8) (size 9 to 14) (size 15 to 20)
#    0.000    2.000    2.500    1.500    0.000    2.500 
#    0.000    0.625    0.000    3.000   16.250    0.000 
#    0.000    0.000    0.000    0.000    0.000    0.000 
#
# Total GULP energy -89224.014190 kJ/mol
# GULP energy per Si atom -5576.500887 kJ/mol
# Density = 2.222335 g / cm^3
# Si number density = 22.274047 Si / 1000 Ang^3
#
#
#
# Elastic Constant Matrix: (Units=GPa)
#
#
# Indices 1 2 3 4 5 6 
#
# 1 86.2944 28.7109 45.2683 -8.2498 -24.8730 5.4599
# 2 28.7109 75.4970 45.8459 -29.0644 -10.6304 -10.6966
# 3 45.2683 45.8459 131.0265 -26.2024 -32.7506 9.7730
# 4 -8.2498 -29.0644 -26.2024 46.9229 4.1189 -14.4563
# 5 -24.8730 -10.6304 -32.7506 4.1189 46.1973 -2.1804
# 6 5.4599 -10.6966 9.7730 -14.4563 -2.1804 34.0368
#
#
#
# Elastic Compliance Matrix: (Units=1/GPa)
#
#
# Indices 1 2 3 4 5 6 
#
# 1 0.016726 -0.006729 -0.002519 -0.004932 0.005837 -0.005795
# 2 -0.006729 0.030254 -0.006146 0.020776 -0.001877 0.021056
# 3 -0.002519 -0.006146 0.012643 0.000943 0.005902 -0.004379
# 4 -0.004932 0.020776 0.000943 0.041413 0.000266 0.024656
# 5 0.005837 -0.001877 0.005902 0.000266 0.028457 -0.001285
# 6 -0.005795 0.021056 -0.004379 0.024656 -0.001285 0.048573
#
#
# Mechanical properties :
#
#
# Convention : Reuss Voigt Hill
#
# Bulk Modulus (GPa) = 34.67928 59.16312 46.92120
# Shear Modulus (GPa) = 22.88685 36.96427 29.92556
#
# Velocity S-wave (km/s) = 3.20896 4.07814 3.66938
# Velocity P-wave (km/s) = 5.41600 6.98528 6.25009
#
# Compressibility (1/GPa) = 0.02883567
#
# Stress axis : x y z
#
# Youngs Moduli (GPa) = 59.78640 33.05373 79.09322
#
# Poissons Ratio (x) = 0.22241 0.19926
# Poissons Ratio (y) = 0.40228 0.48610
# Poissons Ratio (z) = 0.15062 0.20314
#
# Static dielectric constant tensor:
#      x y z
#    x 1.892110 -0.023490 -0.047550 
#    y -0.023490 1.885700 -0.026730 
#    z -0.047550 -0.026730 1.874120 
# 
# From -- ./inp_files/570976.got.cif
#   From: 2010.05.17/outbox.cif.g08.bks.cpg/sg2_286_cif.got.tgz:570976.got - 2010.06.03 11:33:40.
