data_PCOD9077314
_publ_section_title
;
Structure prediction by ZEFSAII (Michael W. Deem and Ramdas Pophale) SiO2 
 PCOD9077314
Probable space group: P -1
;
_chemical_formula_sum "Si O2"
_cell_formula_units_Z 15
_cell_length_a 6.740146
_cell_length_b 8.238834
_cell_length_c 14.664806
_cell_angle_alpha 136.855153
_cell_angle_beta 87.619397
_cell_angle_gamma 100.776219
_cell_volume 541.584589
_symmetry_space_group_name_H-M "P -1"
_symmetry_group_IT_number 2
_symmetry_cell_setting 'triclinic'
loop_
_space_group_symop_operation_xyz
x,y,z
-x,-y,-z
loop_
_atom_site_type_symbol
_atom_site_label
_atom_site_fract_x
_atom_site_fract_y
_atom_site_fract_z
Si Si1 0.806559 0.293950 0.593181
Si Si2 0.538378 0.650269 0.727739
Si Si3 0.690291 0.091088 0.801176
Si Si4 0.502027 0.355636 0.070149
Si Si5 0.311703 0.099077 0.697549
Si Si6 0.927525 0.499917 0.871154
Si Si7 0.000000 0.000000 0.000000
Si Si8 0.112720 0.736029 0.707521
O O1 0.600362 0.395656 0.635802
O O2 0.904363 0.357803 0.716411
O O3 0.950155 0.480241 0.597839
O O4 0.762210 0.021798 0.446895
O O5 0.552677 0.756324 0.874330
O O6 0.319783 0.650467 0.693450
O O7 0.692938 0.825344 0.728229
O O8 0.540301 0.068181 0.706720
O O9 0.900784 0.285032 0.857505
O O10 0.563320 0.195893 0.924529
O O11 0.669579 0.611014 0.180058
O O12 0.288572 0.420113 0.074602
O O13 0.170624 0.929181 0.704432
O O14 0.067348 0.765835 0.959220
O O15 0.949340 0.122758 0.145964
#
# Coordination Sequence:
#
# PCOD9077314 Si02
#       8
#     2   2   2   2   2   2   1   2
#     4  10  22  39  60  88 119 161 202 238 294 356
#     4  10  22  38  61  89 120 156 196 246 298 353
#     4  10  19  33  57  88 117 153 199 247 297 350
#     4  10  19  34  58  87 115 154 202 245 297 353
#     4  10  20  37  60  85 120 158 199 246 292 352
#     4   9  18  32  54  82 115 152 194 239 288 347
#     4  10  18  34  58  84 116 154 192 236 294 348
#     4  10  21  38  60  87 121 156 195 246 296 350
#
# _framework density 27.696503
#
# number of rings (size 3 to 8) (size 9 to 14) (size 15 to 20)
#    0.000    2.133    0.000    4.800    0.000    9.067 
#    0.000    3.333    0.000   12.000    0.000    0.000 
#    0.000    0.000    0.000    0.000    0.000    0.000 
#
# Total GULP energy -83782.478609 kJ/mol
# GULP energy per Si atom -5585.498574 kJ/mol
# Density = 2.763346 g / cm^3
# Si number density = 27.696503 Si / 1000 Ang^3
#
#
#
# Elastic Constant Matrix: (Units=GPa)
#
#
# Indices 1 2 3 4 5 6 
#
# 1 72.3923 -4.4830 7.1667 5.3572 5.3445 0.1046
# 2 -4.4830 132.4489 1.9166 3.7106 13.2452 11.3205
# 3 7.1667 1.9166 95.0602 21.6907 8.1546 5.5080
# 4 5.3572 3.7106 21.6907 36.8274 6.7559 2.0263
# 5 5.3445 13.2452 8.1546 6.7559 15.0204 10.3694
# 6 0.1046 11.3205 5.5080 2.0263 10.3694 49.4918
#
#
#
# Elastic Compliance Matrix: (Units=1/GPa)
#
#
# Indices 1 2 3 4 5 6 
#
# 1 0.014442 0.001044 -0.000445 -0.000869 -0.006196 0.001114
# 2 0.001044 0.008387 0.000392 0.000232 -0.007859 -0.000327
# 3 -0.000445 0.000392 0.012384 -0.006574 -0.003656 -0.000432
# 4 -0.000869 0.000232 -0.006574 0.033348 -0.012687 0.001973
# 5 -0.006196 -0.007859 -0.003656 -0.012687 0.095296 -0.017229
# 6 0.001114 -0.000327 -0.000432 0.001973 -0.017229 0.023855
#
#
# Mechanical properties :
#
#
# Convention : Reuss Voigt Hill
#
# Bulk Modulus (GPa) = 26.88363 34.34465 30.61414
# Shear Modulus (GPa) = 25.23617 39.95466 32.59542
#
# Velocity S-wave (km/s) = 3.02183 3.80226 3.43429
# Velocity P-wave (km/s) = 4.68005 5.63059 5.17718
#
# Compressibility (1/GPa) = 0.03719736
#
# Stress axis : x y z
#
# Youngs Moduli (GPa) = 69.24029 119.23059 80.74903
#
# Poissons Ratio (x) = -0.12448 0.03590
# Poissons Ratio (y) = -0.07229 -0.03169
# Poissons Ratio (z) = 0.03079 -0.04679
#
# Static dielectric constant tensor:
#      x y z
#    x 2.404340 -0.104630 -0.061080 
#    y -0.104630 2.521390 0.285570 
#    z -0.061080 0.285570 2.367530 
# 
# From -- ./inp_files/494085.got.cif
#   From: 2010.05.17/outbox.cif.g08.bks.cpg/sg2_248_cif.got.tgz:494085.got - 2010.06.03 11:33:40.
