data_PCOD9077886
_publ_section_title
;
Structure prediction by ZEFSAII (Michael W. Deem and Ramdas Pophale) SiO2 
 PCOD9077886
Probable space group: P -1
;
_chemical_formula_sum "Si O2"
_cell_formula_units_Z 16
_cell_length_a 10.019565
_cell_length_b 17.205746
_cell_length_c 23.084353
_cell_angle_alpha 19.215510
_cell_angle_beta 152.980306
_cell_angle_gamma 145.692265
_cell_volume 591.946154
_symmetry_space_group_name_H-M "P -1"
_symmetry_group_IT_number 2
_symmetry_cell_setting 'triclinic'
loop_
_space_group_symop_operation_xyz
x,y,z
-x,-y,-z
loop_
_atom_site_type_symbol
_atom_site_label
_atom_site_fract_x
_atom_site_fract_y
_atom_site_fract_z
Si Si1 0.663826 0.335076 0.408928
Si Si2 0.710065 0.366719 0.034963
Si Si3 0.792079 0.458334 0.818369
Si Si4 0.496912 0.226706 0.168182
Si Si5 0.241406 0.883287 0.131547
Si Si6 0.897611 0.985491 0.136894
Si Si7 0.778345 0.998451 0.539877
Si Si8 0.160200 0.363486 0.419218
O O1 0.542982 0.530207 0.178788
O O2 0.475438 0.412772 0.338988
O O3 0.528225 0.101223 0.494600
O O4 0.991517 0.247269 0.619133
O O5 0.559701 0.226941 0.125115
O O6 0.910407 0.533987 0.033075
O O7 0.961519 0.209602 0.206778
O O8 0.832397 0.588880 0.680564
O O9 0.728323 0.191239 0.965440
O O10 0.196719 0.113503 0.146725
O O11 0.744642 0.059412 0.415356
O O12 0.500000 0.500000 0.000000
O O13 0.170575 0.619913 0.270608
O O14 0.560451 0.819583 0.327830
O O15 0.241034 0.036525 0.964454
O O16 0.000000 0.000000 0.000000
O O17 0.887330 0.245748 0.426118
#
# Coordination Sequence:
#
# PCOD9077886 Si02
#       8
#     2   2   2   2   2   2   2   2
#     4  10  23  36  55  87 123 158 188 223 279 348
#     4  11  21  35  54  87 121 157 190 220 278 353
#     4  10  18  35  55  81 120 147 185 230 284 340
#     4  11  19  34  55  86 120 146 187 236 287 343
#     4  10  21  36  57  87 112 141 194 248 295 327
#     4  10  21  36  58  83 115 154 188 239 290 335
#     4  10  20  35  56  82 118 151 183 232 286 334
#     4  10  20  35  57  88 113 144 192 247 283 337
#
# _framework density 27.029485000000001
#
# number of rings (size 3 to 8) (size 9 to 14) (size 15 to 20)
#    0.000    1.750    2.500    3.375    5.250    0.500 
#    2.250    0.000    0.000    0.750    3.250   14.875 
#    0.000    0.000    0.000    0.000    0.000    0.000 
#
# Total GULP energy -89559.308459 kJ/mol
# GULP energy per Si atom -5597.456779 kJ/mol
# Density = 2.696796 g / cm^3
# Si number density = 27.029485 Si / 1000 Ang^3
#
#
#
# Elastic Constant Matrix: (Units=GPa)
#
#
# Indices 1 2 3 4 5 6 
#
# 1 76.2624 27.2402 27.9968 7.7948 -0.4044 -11.5079
# 2 27.2402 79.6351 24.4371 -0.3821 -4.9798 -23.3538
# 3 27.9968 24.4371 188.7274 47.6651 -14.2521 -23.9650
# 4 7.7948 -0.3821 47.6651 32.7023 -7.1358 0.7980
# 5 -0.4044 -4.9798 -14.2521 -7.1358 47.5022 -6.7691
# 6 -11.5079 -23.3538 -23.9650 0.7980 -6.7691 35.6548
#
#
#
# Elastic Compliance Matrix: (Units=1/GPa)
#
#
# Indices 1 2 3 4 5 6 
#
# 1 0.015605 -0.004771 -0.000962 -0.002594 -0.000881 0.001156
# 2 -0.004771 0.017610 -0.000797 0.003012 0.003451 0.010047
# 3 -0.000962 -0.000797 0.010141 -0.014343 0.001742 0.006636
# 4 -0.002594 0.003012 -0.014343 0.052937 0.002633 -0.009190
# 5 -0.000881 0.003451 0.001742 0.002633 0.023397 0.007530
# 6 0.001156 0.010047 0.006636 -0.009190 0.007530 0.041096
#
#
# Mechanical properties :
#
#
# Convention : Reuss Voigt Hill
#
# Bulk Modulus (GPa) = 33.00698 55.99702 44.50200
# Shear Modulus (GPa) = 27.18205 40.83524 34.00864
#
# Velocity S-wave (km/s) = 3.17463 3.89107 3.55097
# Velocity P-wave (km/s) = 5.06712 6.39916 5.77170
#
# Compressibility (1/GPa) = 0.03029662
#
# Stress axis : x y z
#
# Youngs Moduli (GPa) = 64.08292 56.78438 98.60793
#
# Poissons Ratio (x) = 0.27093 0.09483
# Poissons Ratio (y) = 0.30576 0.07858
# Poissons Ratio (z) = 0.06163 0.04525
#
# Static dielectric constant tensor:
#      x y z
#    x 2.101050 0.032970 0.002270 
#    y 0.032970 2.242110 0.002000 
#    z 0.002270 0.002000 2.121250 
# 
# From -- ./inp_files/504265.got.cif
#   From: 2010.05.17/outbox.cif.g08.bks.cpg/sg2_253_cif.got.tgz:504265.got - 2010.06.03 11:33:40.
