data_PCOD9077683
_publ_section_title
;
Structure prediction by ZEFSAII (Michael W. Deem and Ramdas Pophale) SiO2 
 PCOD9077683
Probable space group: P -1
;
_chemical_formula_sum "Si O2"
_cell_formula_units_Z 16
_cell_length_a 10.672290
_cell_length_b 6.899930
_cell_length_c 9.197181
_cell_angle_alpha 74.978501
_cell_angle_beta 105.729645
_cell_angle_gamma 101.654860
_cell_volume 623.268815
_symmetry_space_group_name_H-M "P -1"
_symmetry_group_IT_number 2
_symmetry_cell_setting 'triclinic'
loop_
_space_group_symop_operation_xyz
x,y,z
-x,-y,-z
loop_
_atom_site_type_symbol
_atom_site_label
_atom_site_fract_x
_atom_site_fract_y
_atom_site_fract_z
Si Si1 0.942223 0.963731 0.714261
Si Si2 0.418569 0.478785 0.165899
Si Si3 0.282878 0.471674 0.691176
Si Si4 0.203962 0.019455 0.627672
Si Si5 0.744980 0.936138 0.880013
Si Si6 0.728090 0.373369 0.655454
Si Si7 0.359545 0.881307 0.929843
Si Si8 0.989448 0.562267 0.315550
O O1 0.068150 0.904907 0.679950
O O2 0.987738 0.195611 0.727873
O O3 0.830491 0.965346 0.554924
O O4 0.875003 0.871448 0.858380
O O5 0.574952 0.522187 0.197373
O O6 0.365203 0.255091 0.139551
O O7 0.372527 0.511004 0.310496
O O8 0.358071 0.653918 0.026947
O O9 0.239782 0.249405 0.650101
O O10 0.291097 0.616556 0.524766
O O11 0.162901 0.504590 0.753330
O O12 0.323722 0.911646 0.745544
O O13 0.714218 0.141004 0.749935
O O14 0.746310 0.009155 0.032536
O O15 0.878333 0.485528 0.711836
O O16 0.500000 0.000000 0.000000
O O17 0.000000 0.500000 0.500000
#
# Coordination Sequence:
#
# PCOD9077683 Si02
#       8
#     2   2   2   2   2   2   2   2
#     4   9  19  38  66  97 120 161 214 274 320 369
#     4  11  22  39  63  90 127 173 217 255 316 396
#     4  10  18  34  62  92 125 171 207 264 325 373
#     4  10  20  39  67  94 129 163 215 269 318 377
#     4  10  23  42  63  93 134 164 216 262 318 390
#     4   9  19  36  60  90 129 164 207 275 325 366
#     4  11  24  46  62  89 133 178 209 259 324 387
#     4   8  16  33  54  89 126 157 203 260 323 370
#
# _framework density 25.671104
#
# number of rings (size 3 to 8) (size 9 to 14) (size 15 to 20)
#    0.000    2.250    1.250    1.125    0.000    2.500 
#    6.750    1.875    0.000    0.000    0.000    0.000 
#    0.000    0.000    0.000    0.000    0.000    0.000 
#
# Total GULP energy -89539.446097 kJ/mol
# GULP energy per Si atom -5596.215381 kJ/mol
# Density = 2.561268 g / cm^3
# Si number density = 25.671104 Si / 1000 Ang^3
#
#
#
# Elastic Constant Matrix: (Units=GPa)
#
#
# Indices 1 2 3 4 5 6 
#
# 1 136.9102 31.9517 21.9693 15.9130 -5.2587 4.5316
# 2 31.9517 121.5746 40.0648 0.9363 3.3640 7.4112
# 3 21.9693 40.0648 101.8140 1.2278 7.1023 6.7722
# 4 15.9130 0.9363 1.2278 32.0563 -2.6544 2.0944
# 5 -5.2587 3.3640 7.1023 -2.6544 40.4634 3.7496
# 6 4.5316 7.4112 6.7722 2.0944 3.7496 40.0708
#
#
#
# Elastic Compliance Matrix: (Units=1/GPa)
#
#
# Indices 1 2 3 4 5 6 
#
# 1 0.008429 -0.001831 -0.001113 -0.003966 0.001214 -0.000333
# 2 -0.001831 0.009900 -0.003418 0.000794 -0.000311 -0.001059
# 3 -0.001113 -0.003418 0.011600 0.000128 -0.001792 -0.001041
# 4 -0.003966 0.000794 0.000128 0.033386 0.001737 -0.001627
# 5 0.001214 -0.000311 -0.001792 0.001737 0.025535 -0.002257
# 6 -0.000333 -0.001059 -0.001041 -0.001627 -0.002257 0.025662
#
#
# Mechanical properties :
#
#
# Convention : Reuss Voigt Hill
#
# Bulk Modulus (GPa) = 58.12558 60.91892 59.52225
# Shear Modulus (GPa) = 37.60259 40.27230 38.93745
#
# Velocity S-wave (km/s) = 3.83140 3.96508 3.89881
# Velocity P-wave (km/s) = 6.50111 6.68914 6.59579
#
# Compressibility (1/GPa) = 0.01720413
#
# Stress axis : x y z
#
# Youngs Moduli (GPa) = 118.64452 101.00875 86.20882
#
# Poissons Ratio (x) = 0.18497 0.09594
# Poissons Ratio (y) = 0.21726 0.29467
# Poissons Ratio (z) = 0.13203 0.34526
#
# Static dielectric constant tensor:
#      x y z
#    x 2.131150 -0.034310 0.003650 
#    y -0.034310 2.024850 -0.006160 
#    z 0.003650 -0.006160 1.982770 
# 
# From -- ./inp_files/416929.got.cif
#   From: 2010.05.17/outbox.cif.g08.bks.cpg/sg2_209_cif.got.tgz:416929.got - 2010.06.03 11:33:40.
