data_PCOD9077044
_publ_section_title
;
Structure prediction by ZEFSAII (Michael W. Deem and Ramdas Pophale) SiO2 
 PCOD9077044
Probable space group: P -1
;
_chemical_formula_sum "Si O2"
_cell_formula_units_Z 14
_cell_length_a 21.583859
_cell_length_b 11.673093
_cell_length_c 17.500616
_cell_angle_alpha 26.811637
_cell_angle_beta 16.713283
_cell_angle_gamma 29.253215
_cell_volume 566.622262
_symmetry_space_group_name_H-M "P -1"
_symmetry_group_IT_number 2
_symmetry_cell_setting 'triclinic'
loop_
_space_group_symop_operation_xyz
x,y,z
-x,-y,-z
loop_
_atom_site_type_symbol
_atom_site_label
_atom_site_fract_x
_atom_site_fract_y
_atom_site_fract_z
Si Si1 0.632569 0.213504 0.583496
Si Si2 0.916039 0.340791 0.380181
Si Si3 0.241269 0.004964 0.104991
Si Si4 0.984588 0.161336 0.075029
Si Si5 0.802106 0.305046 0.806969
Si Si6 0.684464 0.438995 0.153944
Si Si7 0.267825 0.381796 0.166490
O O1 0.675945 0.920769 0.736998
O O2 0.837013 0.259443 0.264139
O O3 0.540622 0.431851 0.620885
O O4 0.426123 0.185988 0.789030
O O5 0.761031 0.202963 0.699223
O O6 0.007033 0.175093 0.297666
O O7 0.853009 0.635788 0.257291
O O8 0.138869 0.364711 0.151169
O O9 0.273799 0.866479 0.068285
O O10 0.807718 0.185009 0.200616
O O11 0.105587 0.892341 0.117788
O O12 0.659106 0.530809 0.888001
O O13 0.005677 0.416227 0.462543
O O14 0.663918 0.445116 0.084610
#
# Coordination Sequence:
#
# PCOD9077044 Si02
#       7
#     2   2   2   2   2   2   2
#     4  10  20  33  57  83 103 135 177 225 264 301
#     4   8  18  33  55  78 105 138 171 214 266 310
#     4  10  18  34  55  79 110 133 176 219 263 310
#     4   9  19  35  55  82 104 138 176 214 270 308
#     4  10  20  34  54  77 109 144 178 210 257 324
#     4   9  17  34  55  76 105 132 178 219 253 311
#     4  10  20  35  53  78 105 147 182 207 255 321
#
# _framework density 24.707818
#
# number of rings (size 3 to 8) (size 9 to 14) (size 15 to 20)
#    0.857    1.714    1.429    0.857    0.000    1.714 
#    0.000    1.429    0.000    1.714    0.000    0.000 
#    0.000    0.000    0.000    0.000    0.000    0.000 
#
# Total GULP energy -78101.077756 kJ/mol
# GULP energy per Si atom -5578.648411 kJ/mol
# Density = 2.465158 g / cm^3
# Si number density = 24.707818 Si / 1000 Ang^3
#
#
#
# Elastic Constant Matrix: (Units=GPa)
#
#
# Indices 1 2 3 4 5 6 
#
# 1 77.2677 36.6490 -4.2617 9.2465 19.8267 9.8898
# 2 36.6490 74.4874 10.5971 -2.6723 5.8685 -13.8177
# 3 -4.2617 10.5971 57.8313 -5.3308 11.2500 -10.1809
# 4 9.2465 -2.6723 -5.3308 29.4512 -4.2899 7.5633
# 5 19.8267 5.8685 11.2500 -4.2899 32.3376 -10.3607
# 6 9.8898 -13.8177 -10.1809 7.5633 -10.3607 39.4704
#
#
#
# Elastic Compliance Matrix: (Units=1/GPa)
#
#
# Indices 1 2 3 4 5 6 
#
# 1 0.031861 -0.018207 0.006665 -0.009669 -0.025426 -0.017459
# 2 -0.018207 0.024961 -0.005584 0.005274 0.013923 0.014504
# 3 0.006665 -0.005584 0.020674 -0.000134 -0.010621 -0.001055
# 4 -0.009669 0.005274 -0.000134 0.039062 0.009999 -0.000626
# 5 -0.025426 0.013923 -0.010621 0.009999 0.055813 0.021240
# 6 -0.017459 0.014504 -0.001055 -0.000626 0.021240 0.040211
#
#
# Mechanical properties :
#
#
# Convention : Reuss Voigt Hill
#
# Bulk Modulus (GPa) = 23.12447 32.83946 27.98197
# Shear Modulus (GPa) = 19.13893 31.35866 25.24880
#
# Velocity S-wave (km/s) = 2.78620 3.56642 3.20018
# Velocity P-wave (km/s) = 4.44185 5.50265 5.00046
#
# Compressibility (1/GPa) = 0.04324423
#
# Stress axis : x y z
#
# Youngs Moduli (GPa) = 31.38602 40.06329 48.36907
#
# Poissons Ratio (x) = 0.72943 -0.32240
# Poissons Ratio (y) = 0.57145 0.27012
# Poissons Ratio (z) = -0.20920 0.22373
#
# Static dielectric constant tensor:
#      x y z
#    x 2.047590 -0.037670 -0.023190 
#    y -0.037670 2.046030 0.038550 
#    z -0.023190 0.038550 1.897740 
# 
# From -- ./inp_files/174994.got.cif
#   From: 2010.05.17/outbox.cif.g08.bks.cpg/sg2_88_cif.got.tgz:174994.got - 2010.06.03 11:33:40.
