data_PCOD9077840
_publ_section_title
;
Structure prediction by ZEFSAII (Michael W. Deem and Ramdas Pophale) SiO2 
 PCOD9077840
Probable space group: P -1
;
_chemical_formula_sum "Si O2"
_cell_formula_units_Z 16
_cell_length_a 11.775827
_cell_length_b 8.986043
_cell_length_c 9.592184
_cell_angle_alpha 71.716170
_cell_angle_beta 85.209357
_cell_angle_gamma 128.272637
_cell_volume 702.118868
_symmetry_space_group_name_H-M "P -1"
_symmetry_group_IT_number 2
_symmetry_cell_setting 'triclinic'
loop_
_space_group_symop_operation_xyz
x,y,z
-x,-y,-z
loop_
_atom_site_type_symbol
_atom_site_label
_atom_site_fract_x
_atom_site_fract_y
_atom_site_fract_z
Si Si1 0.404428 0.930620 0.672765
Si Si2 0.382920 0.388988 0.237697
Si Si3 0.233791 0.056692 0.727113
Si Si4 0.991646 0.651746 0.048718
Si Si5 0.129380 0.578282 0.615091
Si Si6 0.762534 0.622347 0.477190
Si Si7 0.896230 0.097788 0.526782
Si Si8 0.644672 0.425542 0.082109
O O1 0.385909 0.089488 0.682526
O O2 0.233421 0.729821 0.691188
O O3 0.430216 0.818623 0.816149
O O4 0.500000 0.000000 0.500000
O O5 0.359723 0.447454 0.371639
O O6 0.541027 0.441030 0.185320
O O7 0.241204 0.128672 0.318746
O O8 0.369827 0.510571 0.086711
O O9 0.139938 0.950030 0.620502
O O10 0.256663 0.263620 0.671736
O O11 0.131102 0.890970 0.909528
O O12 0.006933 0.630210 0.219080
O O13 0.827565 0.584817 0.053284
O O14 0.000000 0.500000 0.000000
O O15 0.230426 0.545999 0.531962
O O16 0.100290 0.711784 0.497767
O O17 0.933440 0.799308 0.479112
#
# Coordination Sequence:
#
# PCOD9077840 Si02
#       8
#     2   2   2   2   2   2   2   2
#     4  10  19  36  59  78 106 142 186 226 263 334
#     4  10  21  34  58  82 111 143 190 223 270 329
#     4  10  19  33  55  81 102 145 191 221 268 322
#     4  11  18  35  57  80 107 140 194 229 262 328
#     4  10  22  33  55  84 108 143 184 227 282 322
#     4  11  21  34  52  83 117 141 178 234 281 320
#     4  10  18  35  54  77 108 152 184 220 265 332
#     4  10  19  34  57  86 102 143 187 231 263 316
#
# _framework density 22.788163000000001
#
# number of rings (size 3 to 8) (size 9 to 14) (size 15 to 20)
#    0.000    1.750    3.750    5.625    0.000    0.500 
#    0.000    5.625    0.000    8.250    0.000    0.000 
#    0.000    0.000    0.000    0.000    0.000    0.000 
#
# Total GULP energy -89291.951898 kJ/mol
# GULP energy per Si atom -5580.746994 kJ/mol
# Density = 2.273630 g / cm^3
# Si number density = 22.788163 Si / 1000 Ang^3
#
#
#
# Elastic Constant Matrix: (Units=GPa)
#
#
# Indices 1 2 3 4 5 6 
#
# 1 132.8381 33.8948 59.9710 -8.5623 0.6593 -39.1058
# 2 33.8948 65.4350 24.5183 -7.3720 10.7784 -21.8230
# 3 59.9710 24.5183 146.7436 -18.0613 0.9549 -23.2638
# 4 -8.5623 -7.3720 -18.0613 18.5382 -12.2465 6.7147
# 5 0.6593 10.7784 0.9549 -12.2465 43.3173 -7.4723
# 6 -39.1058 -21.8230 -23.2638 6.7147 -7.4723 45.4208
#
#
#
# Elastic Compliance Matrix: (Units=1/GPa)
#
#
# Indices 1 2 3 4 5 6 
#
# 1 0.011907 -0.002743 -0.003254 -0.000335 0.001791 0.007611
# 2 -0.002743 0.019764 -0.001103 0.001065 -0.003545 0.005829
# 3 -0.003254 -0.001103 0.009513 0.008895 0.002746 0.000677
# 4 -0.000335 0.001065 0.008895 0.077951 0.021015 -0.003287
# 5 0.001791 -0.003545 0.002746 0.021015 0.030362 0.003133
# 6 0.007611 0.005829 0.000677 -0.003287 0.003133 0.032718
#
#
# Mechanical properties :
#
#
# Convention : Reuss Voigt Hill
#
# Bulk Modulus (GPa) = 37.05853 64.64276 50.85064
# Shear Modulus (GPa) = 24.34143 36.56413 30.45278
#
# Velocity S-wave (km/s) = 3.27182 4.01000 3.65957
# Velocity P-wave (km/s) = 5.52906 7.06176 6.34189
#
# Compressibility (1/GPa) = 0.02698434
#
# Stress axis : x y z
#
# Youngs Moduli (GPa) = 83.98339 50.59619 105.11678
#
# Poissons Ratio (x) = 0.13878 0.34207
# Poissons Ratio (y) = 0.23035 0.11596
# Poissons Ratio (z) = 0.27330 0.05582
#
# Static dielectric constant tensor:
#      x y z
#    x 1.877060 0.003490 0.008400 
#    y 0.003490 1.950160 -0.069150 
#    z 0.008400 -0.069150 1.938320 
# 
# From -- ./inp_files/353533.got.cif
#   From: 2010.05.17/outbox.cif.g08.bks.cpg/sg2_177_cif.got.tgz:353533.got - 2010.06.03 11:33:40.
