data_PCOD9077065
_publ_section_title
;
Structure prediction by ZEFSAII (Michael W. Deem and Ramdas Pophale) SiO2 
 PCOD9077065
Probable space group: P -1
;
_chemical_formula_sum "Si O2"
_cell_formula_units_Z 16
_cell_length_a 7.901999
_cell_length_b 12.464681
_cell_length_c 11.685665
_cell_angle_alpha 34.178073
_cell_angle_beta 89.663550
_cell_angle_gamma 83.949987
_cell_volume 636.137398
_symmetry_space_group_name_H-M "P -1"
_symmetry_group_IT_number 2
_symmetry_cell_setting 'triclinic'
loop_
_space_group_symop_operation_xyz
x,y,z
-x,-y,-z
loop_
_atom_site_type_symbol
_atom_site_label
_atom_site_fract_x
_atom_site_fract_y
_atom_site_fract_z
Si Si1 0.324045 0.567176 0.777371
Si Si2 0.125572 0.079629 0.131377
Si Si3 0.423767 0.115392 0.528640
Si Si4 0.512359 0.191115 0.694209
Si Si5 0.714519 0.758423 0.795984
Si Si6 0.883335 0.356800 0.731686
Si Si7 0.021399 0.703371 0.480116
Si Si8 0.494918 0.643038 0.230199
O O1 0.445284 0.729227 0.632734
O O2 0.153929 0.642322 0.637868
O O3 0.417441 0.376526 0.874859
O O4 0.288981 0.468730 0.984072
O O5 0.159941 0.177446 0.165617
O O6 0.302842 0.944444 0.208014
O O7 0.991944 0.933817 0.277778
O O8 0.048107 0.228004 0.902796
O O9 0.397300 0.120104 0.660139
O O10 0.260772 0.186215 0.385417
O O11 0.531333 0.903187 0.688129
O O12 0.527779 0.415457 0.468308
O O13 0.440923 0.219275 0.797852
O O14 0.896556 0.354168 0.596734
O O15 0.708719 0.290011 0.827704
O O16 0.878611 0.569267 0.597011
#
# Coordination Sequence:
#
# PCOD9077065 Si02
#       8
#     2   2   2   2   2   2   2   2
#     4  11  19  36  57  81 113 145 180 221 282 330
#     4  11  19  36  54  79 114 143 185 232 264 323
#     4   9  18  33  54  83 109 133 187 247 257 304
#     4   9  17  33  58  76 113 145 174 221 285 309
#     4  10  19  32  56  85 105 140 189 232 271 308
#     4  11  22  33  56  80 112 150 187 218 276 327
#     4  11  20  34  55  78 110 149 184 224 265 330
#     4  10  18  34  55  83 117 147 167 230 279 332
#
# _framework density 25.151799
#
# number of rings (size 3 to 8) (size 9 to 14) (size 15 to 20)
#    0.000    1.750    6.250    1.500    0.000    0.000 
#    0.000    6.250    0.000    3.000    0.000    7.875 
#    0.000    0.000    0.000    0.000    0.000    0.000 
#
# Total GULP energy -89368.708715 kJ/mol
# GULP energy per Si atom -5585.544295 kJ/mol
# Density = 2.509455 g / cm^3
# Si number density = 25.151799 Si / 1000 Ang^3
#
#
#
# Elastic Constant Matrix: (Units=GPa)
#
#
# Indices 1 2 3 4 5 6 
#
# 1 49.3847 20.9828 26.7116 9.1186 9.4120 15.8353
# 2 20.9828 98.0574 10.3809 1.8164 6.9382 24.8519
# 3 26.7116 10.3809 115.3181 0.3779 13.7420 10.1675
# 4 9.1186 1.8164 0.3779 33.3096 9.8327 2.7501
# 5 9.4120 6.9382 13.7420 9.8327 42.0380 -8.5829
# 6 15.8353 24.8519 10.1675 2.7501 -8.5829 28.5585
#
#
#
# Elastic Compliance Matrix: (Units=1/GPa)
#
#
# Indices 1 2 3 4 5 6 
#
# 1 0.030762 -0.001488 -0.004730 -0.004866 -0.007176 -0.015766
# 2 -0.001488 0.014311 0.000965 0.002470 -0.005769 -0.013943
# 3 -0.004730 0.000965 0.010411 0.002507 -0.003763 -0.003296
# 4 -0.004866 0.002470 0.002507 0.034551 -0.009555 -0.006543
# 5 -0.007176 -0.005769 -0.003763 -0.009555 0.034210 0.021540
# 6 -0.015766 -0.013943 -0.003296 -0.006543 0.021540 0.064169
#
#
# Mechanical properties :
#
#
# Convention : Reuss Voigt Hill
#
# Bulk Modulus (GPa) = 22.23351 42.10118 32.16735
# Shear Modulus (GPa) = 23.37412 34.42691 28.90052
#
# Velocity S-wave (km/s) = 3.05179 3.70370 3.39343
# Velocity P-wave (km/s) = 4.61268 5.92157 5.30763
#
# Compressibility (1/GPa) = 0.04497715
#
# Stress axis : x y z
#
# Youngs Moduli (GPa) = 32.50811 69.87813 96.04956
#
# Poissons Ratio (x) = 0.10398 0.45434
# Poissons Ratio (y) = 0.04837 -0.09271
# Poissons Ratio (z) = 0.15377 -0.06745
#
# Static dielectric constant tensor:
#      x y z
#    x 1.986720 -0.016930 -0.045280 
#    y -0.016930 2.080500 0.084770 
#    z -0.045280 0.084770 2.036480 
# 
# From -- ./inp_files/208812.got.cif
#   From: 2010.05.17/outbox.cif.g08.bks.cpg/sg2_105_cif.got.tgz:208812.got - 2010.06.03 11:33:40.
