data_PCOD9077140
_publ_section_title
;
Structure prediction by ZEFSAII (Michael W. Deem and Ramdas Pophale) SiO2 
 PCOD9077140
Probable space group: P -1
;
_chemical_formula_sum "Si O2"
_cell_formula_units_Z 16
_cell_length_a 13.649651
_cell_length_b 8.082939
_cell_length_c 24.128198
_cell_angle_alpha 54.871765
_cell_angle_beta 158.051874
_cell_angle_gamma 116.717429
_cell_volume 782.352737
_symmetry_space_group_name_H-M "P -1"
_symmetry_group_IT_number 2
_symmetry_cell_setting 'triclinic'
loop_
_space_group_symop_operation_xyz
x,y,z
-x,-y,-z
loop_
_atom_site_type_symbol
_atom_site_label
_atom_site_fract_x
_atom_site_fract_y
_atom_site_fract_z
Si Si1 0.071953 0.387787 0.280768
Si Si2 0.329677 0.265863 0.830224
Si Si3 0.941385 0.016442 0.331114
Si Si4 0.586671 0.779029 0.917591
Si Si5 0.280963 0.979749 0.618402
Si Si6 0.398921 0.797501 0.470609
Si Si7 0.202329 0.013770 0.917286
Si Si8 0.169899 0.446280 0.450827
O O1 0.351328 0.360841 0.399952
O O2 0.121602 0.439893 0.360649
O O3 0.022098 0.158240 0.299397
O O4 0.805686 0.558296 0.086131
O O5 0.126797 0.494985 0.686719
O O6 0.185357 0.151781 0.731223
O O7 0.313396 0.160490 0.902648
O O8 0.635624 0.214882 0.977445
O O9 0.701655 0.178858 0.209215
O O10 0.198824 0.927105 0.523657
O O11 0.517130 0.829148 0.807450
O O12 0.711157 0.946098 0.983233
O O13 0.328107 0.211904 0.596298
O O14 0.000000 0.000000 0.500000
O O15 0.303650 0.639034 0.493688
O O16 0.500000 0.000000 0.500000
O O17 0.120357 0.905939 0.270816
#
# Coordination Sequence:
#
# PCOD9077140 Si02
#       8
#     2   2   2   2   2   2   2   2
#     4  11  19  33  59  86 109 148 191 236 275 337
#     4   9  16  33  57  84 113 140 181 235 290 327
#     4   9  19  33  56  85 117 144 181 235 289 330
#     4  10  18  34  56  84 116 143 190 232 281 333
#     4   9  20  38  54  83 121 149 182 228 282 344
#     4  11  22  37  55  84 117 147 190 238 283 329
#     4   9  18  32  54  84 112 140 181 238 284 318
#     4  10  20  36  60  85 112 151 190 227 284 336
#
# _framework density 20.451132000000001
#
# number of rings (size 3 to 8) (size 9 to 14) (size 15 to 20)
#    0.000    2.250    2.500    2.250    0.000    0.000 
#    6.750    6.250    0.000    0.750    0.000    0.000 
#    0.000    0.000    0.000    0.000    0.000    0.000 
#
# Total GULP energy -89125.085098 kJ/mol
# GULP energy per Si atom -5570.317819 kJ/mol
# Density = 2.040458 g / cm^3
# Si number density = 20.451132 Si / 1000 Ang^3
#
#
#
# Elastic Constant Matrix: (Units=GPa)
#
#
# Indices 1 2 3 4 5 6 
#
# 1 52.9969 11.4848 52.4542 -7.0066 -4.5804 -8.4700
# 2 11.4848 71.5604 2.1852 7.3479 -14.1093 -0.6503
# 3 52.4542 2.1852 107.7244 4.1046 -13.8590 2.5999
# 4 -7.0066 7.3479 4.1046 23.6538 -2.5210 -0.6082
# 5 -4.5804 -14.1093 -13.8590 -2.5210 37.3694 -1.8262
# 6 -8.4700 -0.6503 2.5999 -0.6082 -1.8262 24.1097
#
#
#
# Elastic Compliance Matrix: (Units=1/GPa)
#
#
# Indices 1 2 3 4 5 6 
#
# 1 0.058569 -0.012104 -0.030599 0.026413 -0.005796 0.023776
# 2 -0.012104 0.018055 0.006906 -0.009752 0.007030 -0.004223
# 3 -0.030599 0.006906 0.025814 -0.015309 0.006751 -0.013222
# 4 0.026413 -0.009752 -0.015309 0.055905 -0.001767 0.011943
# 5 -0.005796 0.007030 0.006751 -0.001767 0.031075 -0.000265
# 6 0.023776 -0.004223 -0.013222 0.011943 -0.000265 0.051423
#
#
# Mechanical properties :
#
#
# Convention : Reuss Voigt Hill
#
# Bulk Modulus (GPa) = 32.42357 40.50336 36.46347
# Shear Modulus (GPa) = 15.49343 28.10375 21.79859
#
# Velocity S-wave (km/s) = 2.75541 3.71103 3.26833
# Velocity P-wave (km/s) = 5.10016 6.18144 5.66665
#
# Compressibility (1/GPa) = 0.03084176
#
# Stress axis : x y z
#
# Youngs Moduli (GPa) = 17.07384 55.38640 38.73931
#
# Poissons Ratio (x) = 0.67041 1.18540
# Poissons Ratio (y) = 0.20666 -0.26752
# Poissons Ratio (z) = 0.52245 -0.38247
#
# Static dielectric constant tensor:
#      x y z
#    x 1.746310 -0.024740 0.010720 
#    y -0.024740 1.835240 0.006940 
#    z 0.010720 0.006940 1.771130 
# 
# From -- ./inp_files/281043.got.cif
#   From: 2010.05.17/outbox.cif.g08.bks.cpg/sg2_141_cif.got.tgz:281043.got - 2010.06.03 11:33:40.
