data_PCOD9077205
_publ_section_title
;
Structure prediction by ZEFSAII (Michael W. Deem and Ramdas Pophale) SiO2 
 PCOD9077205
Probable space group: P -1
;
_chemical_formula_sum "Si O2"
_cell_formula_units_Z 16
_cell_length_a 9.156397
_cell_length_b 13.259053
_cell_length_c 15.158576
_cell_angle_alpha 96.448958
_cell_angle_beta 119.281281
_cell_angle_gamma 36.275754
_cell_volume 795.435648
_symmetry_space_group_name_H-M "P -1"
_symmetry_group_IT_number 2
_symmetry_cell_setting 'triclinic'
loop_
_space_group_symop_operation_xyz
x,y,z
-x,-y,-z
loop_
_atom_site_type_symbol
_atom_site_label
_atom_site_fract_x
_atom_site_fract_y
_atom_site_fract_z
Si Si1 0.560714 0.409914 0.728096
Si Si2 0.045985 0.007041 0.413061
Si Si3 0.356365 0.809935 0.136283
Si Si4 0.185385 0.720734 0.386494
Si Si5 0.258689 0.046937 0.242907
Si Si6 0.260258 0.524243 0.925115
Si Si7 0.595283 0.319289 0.171624
Si Si8 0.142740 0.170580 0.524946
O O1 0.652761 0.257533 0.787485
O O2 0.828862 0.301285 0.722011
O O3 0.525635 0.512822 0.803135
O O4 0.196510 0.600228 0.590714
O O5 0.250972 0.807124 0.413186
O O6 0.186792 0.046359 0.467254
O O7 0.000000 0.000000 0.500000
O O8 0.702055 0.193211 0.272965
O O9 0.617709 0.616801 0.128803
O O10 0.410287 0.895159 0.196816
O O11 0.000000 0.000000 0.000000
O O12 0.500000 0.500000 0.500000
O O13 0.905889 0.839840 0.387850
O O14 0.096123 0.237010 0.176947
O O15 0.947402 0.152131 0.207534
O O16 0.540036 0.924402 0.385434
O O17 0.500000 0.500000 0.000000
O O18 0.323756 0.435394 0.028481
#
# Coordination Sequence:
#
# PCOD9077205 Si02
#       8
#     2   2   2   2   2   2   2   2
#     4  10  19  33  55  85 110 141 189 229 268 333
#     4   9  18  34  56  78 102 145 182 218 273 324
#     4  12  20  34  59  83 108 152 189 228 276 316
#     4   9  18  35  54  79 107 140 189 225 258 333
#     4  11  21  36  56  84 120 144 175 234 284 331
#     4  10  19  36  53  83 111 142 193 226 264 330
#     4  10  18  34  57  82 107 143 184 228 272 320
#     4   9  21  37  54  80 117 144 177 229 289 327
#
# _framework density 20.114764000000001
#
# number of rings (size 3 to 8) (size 9 to 14) (size 15 to 20)
#    0.000    2.000    5.000    1.500    0.000    2.500 
#    4.500    0.000    0.000    6.000    0.000    0.000 
#    0.000    0.000    0.000    0.000    0.000    0.000 
#
# Total GULP energy -89071.985962 kJ/mol
# GULP energy per Si atom -5566.999123 kJ/mol
# Density = 2.006898 g / cm^3
# Si number density = 20.114764 Si / 1000 Ang^3
#
#
#
# Elastic Constant Matrix: (Units=GPa)
#
#
# Indices 1 2 3 4 5 6 
#
# 1 29.4914 23.7688 33.2318 -4.0195 -20.3957 -0.8288
# 2 23.7688 138.8137 25.9298 9.8177 -11.3446 15.4259
# 3 33.2318 25.9298 86.8753 -0.7548 -37.5664 0.1640
# 4 -4.0195 9.8177 -0.7548 31.6900 1.1317 -11.9059
# 5 -20.3957 -11.3446 -37.5664 1.1317 33.0656 1.2070
# 6 -0.8288 15.4259 0.1640 -11.9059 1.2070 25.1906
#
#
#
# Elastic Compliance Matrix: (Units=1/GPa)
#
#
# Indices 1 2 3 4 5 6 
#
# 1 0.086056 -0.012922 -0.016696 0.020768 0.028264 0.019314
# 2 -0.012922 0.011032 0.000192 -0.009213 -0.003236 -0.011381
# 3 -0.016696 0.000192 0.026535 -0.003579 0.020164 -0.003497
# 4 0.020768 -0.009213 -0.003579 0.047649 0.002903 0.028729
# 5 0.028264 -0.003236 0.020164 0.002903 0.069346 0.000830
# 6 0.019314 -0.011381 -0.003497 0.028729 0.000830 0.060864
#
#
# Mechanical properties :
#
#
# Convention : Reuss Voigt Hill
#
# Bulk Modulus (GPa) = 15.43874 46.78234 31.11054
# Shear Modulus (GPa) = 13.09161 29.47257 21.28209
#
# Velocity S-wave (km/s) = 2.55394 3.83197 3.25627
# Velocity P-wave (km/s) = 4.04830 6.54881 5.44406
#
# Compressibility (1/GPa) = 0.06477214
#
# Stress axis : x y z
#
# Youngs Moduli (GPa) = 11.62031 90.64164 37.68605
#
# Poissons Ratio (x) = 1.17125 0.62921
# Poissons Ratio (y) = 0.15015 -0.00723
# Poissons Ratio (z) = 0.19401 -0.01740
#
# Static dielectric constant tensor:
#      x y z
#    x 1.771700 -0.003460 -0.045080 
#    y -0.003460 1.779940 0.031030 
#    z -0.045080 0.031030 1.747480 
# 
# From -- ./inp_files/522389.got.cif
#   From: 2010.05.17/outbox.cif.g08.bks.cpg/sg2_262_cif.got.tgz:522389.got - 2010.06.03 11:33:40.
