data_PCOD9077026
_publ_section_title
;
Structure prediction by ZEFSAII (Michael W. Deem and Ramdas Pophale) SiO2 
 PCOD9077026
Probable space group: P -1
;
_chemical_formula_sum "Si O2"
_cell_formula_units_Z 15
_cell_length_a 5.715323
_cell_length_b 13.022195
_cell_length_c 8.553375
_cell_angle_alpha 82.418306
_cell_angle_beta 70.343137
_cell_angle_gamma 105.433791
_cell_volume 560.416426
_symmetry_space_group_name_H-M "P -1"
_symmetry_group_IT_number 2
_symmetry_cell_setting 'triclinic'
loop_
_space_group_symop_operation_xyz
x,y,z
-x,-y,-z
loop_
_atom_site_type_symbol
_atom_site_label
_atom_site_fract_x
_atom_site_fract_y
_atom_site_fract_z
Si Si1 0.935412 0.429767 0.250833
Si Si2 0.001702 0.837715 0.200887
Si Si3 0.078851 0.713926 0.481979
Si Si4 0.500000 0.500000 0.500000
Si Si5 0.349826 0.883612 0.641310
Si Si6 0.243019 0.672350 0.008364
Si Si7 0.854754 0.943959 0.706421
Si Si8 0.536592 0.686598 0.205373
O O1 0.099079 0.386896 0.354270
O O2 0.690357 0.437497 0.403138
O O3 0.093164 0.546754 0.123859
O O4 0.826129 0.342802 0.154971
O O5 0.721554 0.807843 0.187509
O O6 0.935485 0.779118 0.398852
O O7 0.146347 0.770101 0.077949
O O8 0.152357 0.962224 0.187355
O O9 0.284440 0.794555 0.535933
O O10 0.240838 0.672774 0.326944
O O11 0.601735 0.593884 0.308676
O O12 0.500000 0.000000 0.500000
O O13 0.558376 0.876668 0.728793
O O14 0.057709 0.888315 0.744905
O O15 0.526233 0.684842 0.020041
O O16 0.000000 0.000000 0.500000
#
# Coordination Sequence:
#
# PCOD9077026 Si02
#       8
#     2   2   2   1   2   2   2   2
#     4  10  22  43  57  89 120 166 201 258 306 380
#     4  11  20  35  59  90 117 160 202 254 308 377
#     4  10  21  33  60  86 122 152 209 260 308 360
#     4  10  20  36  60  86 114 150 206 254 304 348
#     4  10  18  34  54  93 122 161 197 273 318 376
#     4  10  23  40  59  81 130 163 205 242 318 381
#     4  10  19  31  58  88 126 156 206 258 321 373
#     4  10  21  33  56  87 117 156 202 253 303 370
#
# _framework density 26.765810999999999
#
# number of rings (size 3 to 8) (size 9 to 14) (size 15 to 20)
#    0.000    1.867    4.000    1.600    3.733    2.133 
#    0.000    0.000    0.000    1.600    0.000    0.000 
#    0.000    0.000    0.000    0.000    0.000    0.000 
#
# Total GULP energy -83517.746863 kJ/mol
# GULP energy per Si atom -5567.849791 kJ/mol
# Density = 2.670489 g / cm^3
# Si number density = 26.765811 Si / 1000 Ang^3
#
#
#
# Elastic Constant Matrix: (Units=GPa)
#
#
# Indices 1 2 3 4 5 6 
#
# 1 117.8974 29.3873 23.7874 14.0424 22.0351 15.8068
# 2 29.3873 87.5961 24.8809 37.6093 1.2502 18.3322
# 3 23.7874 24.8809 73.6839 7.7626 12.0361 6.5718
# 4 14.0424 37.6093 7.7626 48.8703 2.7386 10.3640
# 5 22.0351 1.2502 12.0361 2.7386 26.0959 7.2142
# 6 15.8068 18.3322 6.5718 10.3640 7.2142 46.6548
#
#
#
# Elastic Compliance Matrix: (Units=1/GPa)
#
#
# Indices 1 2 3 4 5 6 
#
# 1 0.011214 -0.003132 -0.001079 0.000074 -0.008520 -0.001115
# 2 -0.003132 0.020581 -0.005216 -0.013571 0.006680 -0.004309
# 3 -0.001079 -0.005216 0.016535 0.001930 -0.006867 0.000719
# 4 0.000074 -0.013571 0.001930 0.031047 -0.003182 -0.001369
# 5 -0.008520 0.006680 -0.006867 -0.003182 0.050311 -0.005844
# 6 -0.001115 -0.004309 0.000719 -0.001369 -0.005844 0.024612
#
#
# Mechanical properties :
#
#
# Convention : Reuss Voigt Hill
#
# Bulk Modulus (GPa) = 33.92508 48.36541 41.14525
# Shear Modulus (GPa) = 27.32547 37.73234 32.52890
#
# Velocity S-wave (km/s) = 3.19863 3.75870 3.48992
# Velocity P-wave (km/s) = 5.13264 6.07834 5.62540
#
# Compressibility (1/GPa) = 0.02947672
#
# Stress axis : x y z
#
# Youngs Moduli (GPa) = 89.17754 48.58737 60.47691
#
# Poissons Ratio (x) = 0.15218 0.06525
# Poissons Ratio (y) = 0.27932 0.31543
# Poissons Ratio (z) = 0.09622 0.25342
#
# Static dielectric constant tensor:
#      x y z
#    x 2.170570 0.012240 0.064850 
#    y 0.012240 2.176650 -0.018210 
#    z 0.064850 -0.018210 2.094660 
# 
# From -- ./inp_files/43424.got.cif
#   From: 2010.05.17/outbox.cif.g08.bks.cpg/sg2_22_cif.got.tgz:43424.got - 2010.06.03 11:33:40.
