data_PCOD9077803
_publ_section_title
;
Structure prediction by ZEFSAII (Michael W. Deem and Ramdas Pophale) SiO2 
 PCOD9077803
Probable space group: P -1
;
_chemical_formula_sum "Si O2"
_cell_formula_units_Z 16
_cell_length_a 10.987722
_cell_length_b 21.995360
_cell_length_c 8.489402
_cell_angle_alpha 57.931870
_cell_angle_beta 40.491948
_cell_angle_gamma 35.965148
_cell_volume 762.930886
_symmetry_space_group_name_H-M "P -1"
_symmetry_group_IT_number 2
_symmetry_cell_setting 'triclinic'
loop_
_space_group_symop_operation_xyz
x,y,z
-x,-y,-z
loop_
_atom_site_type_symbol
_atom_site_label
_atom_site_fract_x
_atom_site_fract_y
_atom_site_fract_z
Si Si1 0.238765 0.026112 0.661309
Si Si2 0.005715 0.774681 0.550694
Si Si3 0.372912 0.732146 0.505457
Si Si4 0.269344 0.462680 0.354869
Si Si5 0.666655 0.852077 0.268076
Si Si6 0.509453 0.837395 0.107263
Si Si7 0.075674 0.068301 0.110458
Si Si8 0.200985 0.648957 0.220054
O O1 0.393650 0.922353 0.549167
O O2 0.500000 0.000000 0.500000
O O3 0.065709 0.126092 0.579915
O O4 0.070624 0.056655 0.943268
O O5 0.168560 0.737575 0.604139
O O6 0.171665 0.688008 0.369863
O O7 0.722392 0.811406 0.809562
O O8 0.607729 0.620327 0.512435
O O9 0.485031 0.759127 0.235180
O O10 0.198946 0.826283 0.677698
O O11 0.202410 0.562551 0.335939
O O12 0.000000 0.500000 0.500000
O O13 0.519598 0.400843 0.067849
O O14 0.622907 0.824252 0.186862
O O15 0.936760 0.750793 0.238058
O O16 0.715620 0.922412 0.083820
O O17 0.217741 0.959442 0.198774
#
# Coordination Sequence:
#
# PCOD9077803 Si02
#       8
#     2   2   2   2   2   2   2   2
#     4  10  18  34  68  92 127 169 204 254 300 366
#     4  12  22  42  66  94 131 164 206 255 308 380
#     4  12  26  41  61  95 131 165 210 260 312 374
#     4  11  25  47  69  92 120 158 218 270 311 368
#     4  11  18  38  66  94 125 165 209 255 306 371
#     4  12  23  37  63  96 134 171 198 246 319 376
#     4  11  19  39  62  93 130 165 210 250 303 377
#     4  11  23  43  73  92 116 169 211 257 323 360
#
# _framework density 20.971755000000002
#
# number of rings (size 3 to 8) (size 9 to 14) (size 15 to 20)
#    0.000    0.750    7.500    2.250    0.000    2.500 
#    0.000    6.250    0.000    0.000    0.000    0.000 
#    0.000    0.000    0.000    0.000    0.000    0.000 
#
# Total GULP energy -89488.876363 kJ/mol
# GULP energy per Si atom -5593.054773 kJ/mol
# Density = 2.092402 g / cm^3
# Si number density = 20.971755 Si / 1000 Ang^3
#
#
#
# Elastic Constant Matrix: (Units=GPa)
#
#
# Indices 1 2 3 4 5 6 
#
# 1 56.4360 44.3836 30.2683 4.4442 5.3216 -13.7959
# 2 44.3836 136.7485 48.4180 -4.6579 -2.4348 -12.5407
# 3 30.2683 48.4180 89.7986 -0.2594 -4.1623 -2.3675
# 4 4.4442 -4.6579 -0.2594 34.0311 10.0683 8.3753
# 5 5.3216 -2.4348 -4.1623 10.0683 30.3490 0.7300
# 6 -13.7959 -12.5407 -2.3675 8.3753 0.7300 32.8733
#
#
#
# Elastic Compliance Matrix: (Units=1/GPa)
#
#
# Indices 1 2 3 4 5 6 
#
# 1 0.030273 -0.006787 -0.006492 -0.006265 -0.004938 0.011354
# 2 -0.006787 0.010895 -0.003524 0.001945 0.000922 0.000538
# 3 -0.006492 -0.003524 0.015277 0.000397 0.002895 -0.003134
# 4 -0.006265 0.001945 0.000397 0.036237 -0.010451 -0.010859
# 5 -0.004938 0.000922 0.002895 -0.010451 0.037747 0.000313
# 6 0.011354 0.000538 -0.003134 -0.010859 0.000313 0.037924
#
#
# Mechanical properties :
#
#
# Convention : Reuss Voigt Hill
#
# Bulk Modulus (GPa) = 43.78551 58.79142 51.28846
# Shear Modulus (GPa) = 23.85795 30.11155 26.98475
#
# Velocity S-wave (km/s) = 3.37653 3.79332 3.59098
# Velocity P-wave (km/s) = 6.01040 6.87606 6.45775
#
# Compressibility (1/GPa) = 0.02283860
#
# Stress axis : x y z
#
# Youngs Moduli (GPa) = 33.03244 91.78172 65.45630
#
# Poissons Ratio (x) = 0.62292 0.42497
# Poissons Ratio (y) = 0.22419 0.23069
# Poissons Ratio (z) = 0.21446 0.32347
#
# Static dielectric constant tensor:
#      x y z
#    x 1.744240 0.025410 -0.007060 
#    y 0.025410 1.734830 -0.000340 
#    z -0.007060 -0.000340 1.800120 
# 
# From -- ./inp_files/282839.got.cif
#   From: 2010.05.17/outbox.cif.g08.bks.cpg/sg2_142_cif.got.tgz:282839.got - 2010.06.03 11:33:40.
