data_PCOD9077793
_publ_section_title
;
Structure prediction by ZEFSAII (Michael W. Deem and Ramdas Pophale) SiO2 
 PCOD9077793
Probable space group: P -1
;
_chemical_formula_sum "Si O2"
_cell_formula_units_Z 16
_cell_length_a 7.703891
_cell_length_b 9.189918
_cell_length_c 12.100558
_cell_angle_alpha 54.811074
_cell_angle_beta 88.542532
_cell_angle_gamma 94.137857
_cell_volume 695.951690
_symmetry_space_group_name_H-M "P -1"
_symmetry_group_IT_number 2
_symmetry_cell_setting 'triclinic'
loop_
_space_group_symop_operation_xyz
x,y,z
-x,-y,-z
loop_
_atom_site_type_symbol
_atom_site_label
_atom_site_fract_x
_atom_site_fract_y
_atom_site_fract_z
Si Si1 0.501954 0.252827 0.667717
Si Si2 0.960965 0.131318 0.538896
Si Si3 0.973070 0.982178 0.849091
Si Si4 0.391289 0.436124 0.810137
Si Si5 0.439718 0.095477 0.068298
Si Si6 0.434600 0.801151 0.547390
Si Si7 0.143538 0.499364 0.398496
Si Si8 0.008724 0.300494 0.876939
O O1 0.400146 0.343728 0.727657
O O2 0.464285 0.259352 0.536342
O O3 0.689434 0.371166 0.622975
O O4 0.496978 0.038469 0.782506
O O5 0.769487 0.195407 0.487980
O O6 0.114931 0.291133 0.465644
O O7 0.972367 0.035991 0.698988
O O8 0.000000 0.000000 0.500000
O O9 0.769744 0.935250 0.904632
O O10 0.063462 0.811464 0.966066
O O11 0.043745 0.148719 0.851432
O O12 0.454506 0.644522 0.704554
O O13 0.187301 0.418276 0.850944
O O14 0.481878 0.307593 0.950396
O O15 0.500000 0.000000 0.000000
O O16 0.500000 0.000000 0.500000
O O17 0.000000 0.500000 0.500000
O O18 0.109186 0.582948 0.242616
#
# Coordination Sequence:
#
# PCOD9077793 Si02
#       8
#     2   2   2   2   2   2   2   2
#     4  11  21  39  63  93 124 157 203 261 313 374
#     4  12  26  42  62  88 129 175 210 253 318 379
#     4  10  19  36  62  92 124 158 201 263 315 359
#     4  10  22  36  62  92 119 157 201 253 316 371
#     4   9  17  34  62  91 120 149 198 259 313 368
#     4  12  25  41  57  85 130 166 204 259 308 368
#     4  12  19  38  68  92 120 159 214 261 314 369
#     4  10  18  34  66  94 118 151 206 266 308 357
#
# _framework density 22.990100999999999
#
# number of rings (size 3 to 8) (size 9 to 14) (size 15 to 20)
#    0.000    1.250    6.250    0.375    1.750    1.000 
#    0.000    1.250    0.000    0.000    0.000    0.000 
#    0.000    0.000    0.000    0.000    0.000    0.000 
#
# Total GULP energy -89229.050302 kJ/mol
# GULP energy per Si atom -5576.815644 kJ/mol
# Density = 2.293777 g / cm^3
# Si number density = 22.990101 Si / 1000 Ang^3
#
#
#
# Elastic Constant Matrix: (Units=GPa)
#
#
# Indices 1 2 3 4 5 6 
#
# 1 55.6718 14.4244 32.8916 -16.1710 5.9238 9.8245
# 2 14.4244 78.5805 58.1252 -35.9420 0.6989 -3.8692
# 3 32.8916 58.1252 187.4087 -44.7312 7.4673 11.6040
# 4 -16.1710 -35.9420 -44.7312 34.9104 3.4550 -5.5524
# 5 5.9238 0.6989 7.4673 3.4550 22.9258 -4.6094
# 6 9.8245 -3.8692 11.6040 -5.5524 -4.6094 14.4075
#
#
#
# Elastic Compliance Matrix: (Units=1/GPa)
#
#
# Indices 1 2 3 4 5 6 
#
# 1 0.025210 -0.001408 -0.000617 0.007723 -0.010974 -0.017606
# 2 -0.001408 0.030408 -0.003593 0.029742 0.000904 0.023772
# 3 -0.000617 -0.003593 0.008755 0.006670 -0.004914 -0.006597
# 4 0.007723 0.029742 0.006670 0.076214 -0.011957 0.022895
# 5 -0.010974 0.000904 -0.004914 -0.011957 0.054776 0.024600
# 6 -0.017606 0.023772 -0.006597 0.022895 0.024600 0.109805
#
#
# Mechanical properties :
#
#
# Convention : Reuss Voigt Hill
#
# Bulk Modulus (GPa) = 18.81938 59.17149 38.99543
# Shear Modulus (GPa) = 14.96487 28.86340 21.91414
#
# Velocity S-wave (km/s) = 2.55409 3.54711 3.09074
# Velocity P-wave (km/s) = 4.11114 6.52454 5.45303
#
# Compressibility (1/GPa) = 0.05313673
#
# Stress axis : x y z
#
# Youngs Moduli (GPa) = 39.66699 32.88598 114.22201
#
# Poissons Ratio (x) = 0.04630 0.07048
# Poissons Ratio (y) = 0.05585 0.41041
# Poissons Ratio (z) = 0.02448 0.11816
#
# Static dielectric constant tensor:
#      x y z
#    x 2.412190 -0.073570 0.168800 
#    y -0.073570 1.818330 -0.079280 
#    z 0.168800 -0.079280 1.957210 
# 
# From -- ./inp_files/314033.got.cif
#   From: 2010.05.17/outbox.cif.g08.bks.cpg/sg2_158_cif.got.tgz:314033.got - 2010.06.03 11:33:40.
