data_PCOD9077387
_publ_section_title
;
Structure prediction by ZEFSAII (Michael W. Deem and Ramdas Pophale) SiO2 
 PCOD9077387
Probable space group: P -1
;
_chemical_formula_sum "Si O2"
_cell_formula_units_Z 16
_cell_length_a 11.657907
_cell_length_b 9.082052
_cell_length_c 13.335025
_cell_angle_alpha 119.953236
_cell_angle_beta 75.064972
_cell_angle_gamma 57.696776
_cell_volume 721.538188
_symmetry_space_group_name_H-M "P -1"
_symmetry_group_IT_number 2
_symmetry_cell_setting 'triclinic'
loop_
_space_group_symop_operation_xyz
x,y,z
-x,-y,-z
loop_
_atom_site_type_symbol
_atom_site_label
_atom_site_fract_x
_atom_site_fract_y
_atom_site_fract_z
Si Si1 0.537745 0.187315 0.324609
Si Si2 0.167473 0.245892 0.715183
Si Si3 0.574087 0.145525 0.630011
Si Si4 0.492041 0.937528 0.093430
Si Si5 0.126536 0.637149 0.906220
Si Si6 0.333068 0.600734 0.685554
Si Si7 0.689257 0.169735 0.818857
Si Si8 0.887529 0.281361 0.835399
O O1 0.367295 0.470409 0.526646
O O2 0.650972 0.215908 0.258166
O O3 0.691875 0.941372 0.286094
O O4 0.472242 0.115974 0.237678
O O5 0.034727 0.560177 0.873349
O O6 0.048436 0.207770 0.716446
O O7 0.292020 0.143623 0.552440
O O8 0.357630 0.335428 0.770907
O O9 0.524199 0.333834 0.617059
O O10 0.669008 0.121259 0.695512
O O11 0.324955 0.981793 0.159997
O O12 0.689453 0.610293 0.966353
O O13 0.500000 0.000000 0.000000
O O14 0.155525 0.726744 0.834068
O O15 0.063583 0.768342 0.073980
O O16 0.860444 0.113063 0.763388
O O17 0.500000 0.500000 0.000000
#
# Coordination Sequence:
#
# PCOD9077387 Si02
#       8
#     2   2   2   2   2   2   2   2
#     4  10  19  35  55  88 110 137 183 230 286 312
#     4  11  21  35  58  86 115 138 186 234 282 328
#     4   9  18  33  63  81 105 148 188 229 264 332
#     4  11  23  34  60  82 109 147 191 228 267 338
#     4  10  18  34  59  83 108 145 187 228 273 324
#     4   8  19  32  56  85 109 137 180 236 270 319
#     4  10  19  37  56  80 108 149 191 226 263 327
#     4  11  23  37  55  84 116 148 180 233 279 323
#
# _framework density 22.174848000000001
#
# number of rings (size 3 to 8) (size 9 to 14) (size 15 to 20)
#    0.750    1.250    3.750    0.750    7.000    0.500 
#    0.000    1.875    0.000    0.750    0.000    0.000 
#    0.000    0.000    0.000    0.000    0.000    0.000 
#
# Total GULP energy -89149.419607 kJ/mol
# GULP energy per Si atom -5571.838725 kJ/mol
# Density = 2.212438 g / cm^3
# Si number density = 22.174848 Si / 1000 Ang^3
#
#
#
# Elastic Constant Matrix: (Units=GPa)
#
#
# Indices 1 2 3 4 5 6 
#
# 1 95.1551 28.4832 22.8927 -0.1314 17.3635 34.3797
# 2 28.4832 89.7743 19.9320 -11.2689 19.5488 21.2955
# 3 22.8927 19.9320 65.7947 -7.3070 23.5692 0.3014
# 4 -0.1314 -11.2689 -7.3070 26.7415 -1.8306 4.8592
# 5 17.3635 19.5488 23.5692 -1.8306 35.7718 3.8602
# 6 34.3797 21.2955 0.3014 4.8592 3.8602 36.0945
#
#
#
# Elastic Compliance Matrix: (Units=1/GPa)
#
#
# Indices 1 2 3 4 5 6 
#
# 1 0.018791 0.000549 -0.004923 0.001967 -0.004134 -0.018004
# 2 0.000549 0.016229 -0.001924 0.007781 -0.006342 -0.010451
# 3 -0.004923 -0.001924 0.021962 0.003204 -0.011561 0.006445
# 4 0.001967 0.007781 0.003204 0.043467 -0.003805 -0.011936
# 5 -0.004134 -0.006342 -0.011561 -0.003805 0.040422 0.003965
# 6 -0.018004 -0.010451 0.006445 -0.011936 0.003965 0.052148
#
#
# Mechanical properties :
#
#
# Convention : Reuss Voigt Hill
#
# Bulk Modulus (GPa) = 22.52898 43.70443 33.11670
# Shear Modulus (GPa) = 22.68503 31.68265 27.18384
#
# Velocity S-wave (km/s) = 3.20192 3.78400 3.50506
# Velocity P-wave (km/s) = 4.88380 6.23244 5.59888
#
# Compressibility (1/GPa) = 0.04438728
#
# Stress axis : x y z
#
# Youngs Moduli (GPa) = 53.21691 61.61939 45.53305
#
# Poissons Ratio (x) = -0.03382 0.22414
# Poissons Ratio (y) = -0.02920 0.08758
# Poissons Ratio (z) = 0.26196 0.11853
#
# Static dielectric constant tensor:
#      x y z
#    x 1.875330 0.043920 -0.034640 
#    y 0.043920 1.876120 0.060720 
#    z -0.034640 0.060720 1.897530 
# 
# From -- ./inp_files/514686.got.cif
#   From: 2010.05.17/outbox.cif.g08.bks.cpg/sg2_258_cif.got.tgz:514686.got - 2010.06.03 11:33:40.
