data_PCOD9077312
_publ_section_title
;
Structure prediction by ZEFSAII (Michael W. Deem and Ramdas Pophale) SiO2 
 PCOD9077312
Probable space group: P -1
;
_chemical_formula_sum "Si O2"
_cell_formula_units_Z 14
_cell_length_a 13.338368
_cell_length_b 15.730457
_cell_length_c 11.613052
_cell_angle_alpha 144.089308
_cell_angle_beta 47.384130
_cell_angle_gamma 153.096831
_cell_volume 637.218678
_symmetry_space_group_name_H-M "P -1"
_symmetry_group_IT_number 2
_symmetry_cell_setting 'triclinic'
loop_
_space_group_symop_operation_xyz
x,y,z
-x,-y,-z
loop_
_atom_site_type_symbol
_atom_site_label
_atom_site_fract_x
_atom_site_fract_y
_atom_site_fract_z
Si Si1 0.832416 0.681458 0.413990
Si Si2 0.204756 0.836537 0.448756
Si Si3 0.348742 0.176876 0.341484
Si Si4 0.029855 0.698542 0.680267
Si Si5 0.427618 0.718921 0.502358
Si Si6 0.325065 0.928976 0.910450
Si Si7 0.819771 0.430721 0.985463
O O1 0.590879 0.428715 0.376508
O O2 0.823467 0.845873 0.588681
O O3 0.018175 0.771250 0.452525
O O4 0.852397 0.624386 0.209412
O O5 0.167699 0.635760 0.221714
O O6 0.181789 0.846593 0.611912
O O7 0.442585 0.089390 0.490035
O O8 0.392658 0.209269 0.478900
O O9 0.291890 0.971692 0.107263
O O10 0.781660 0.546405 0.676214
O O11 0.000000 0.500000 0.500000
O O12 0.149612 0.848269 0.867710
O O13 0.322865 0.753398 0.707420
O O14 0.572770 0.180536 0.949595
O O15 0.000000 0.500000 0.000000
#
# Coordination Sequence:
#
# PCOD9077312 Si02
#       7
#     2   2   2   2   2   2   2
#     4   9  18  33  57  84 113 146 182 229 281 326
#     4  10  19  36  59  82 113 143 184 233 276 323
#     4  10  18  34  58  84 113 146 185 228 276 332
#     4  10  21  37  56  84 112 147 185 226 277 330
#     4  10  20  34  60  82 111 145 185 232 277 323
#     4   9  19  33  54  85 112 146 184 226 276 327
#     4   8  16  31  54  85 109 137 181 230 277 319
#
# _framework density 21.970480999999999
#
# number of rings (size 3 to 8) (size 9 to 14) (size 15 to 20)
#    0.000    2.571    1.429    0.429    0.000    5.714 
#    7.714    0.714    0.000    0.857    0.000    0.000 
#    0.000    0.000    0.000    0.000    0.000    0.000 
#
# Total GULP energy -78146.555809 kJ/mol
# GULP energy per Si atom -5581.896843 kJ/mol
# Density = 2.192047 g / cm^3
# Si number density = 21.970481 Si / 1000 Ang^3
#
#
#
# Elastic Constant Matrix: (Units=GPa)
#
#
# Indices 1 2 3 4 5 6 
#
# 1 82.7581 14.4596 21.1796 0.8723 14.7021 8.0591
# 2 14.4596 79.9261 16.1245 -9.4101 11.2115 -5.9677
# 3 21.1796 16.1245 27.2530 3.4668 5.9617 11.0110
# 4 0.8723 -9.4101 3.4668 17.2021 4.6461 6.5796
# 5 14.7021 11.2115 5.9617 4.6461 37.7646 1.1011
# 6 8.0591 -5.9677 11.0110 6.5796 1.1011 31.7682
#
#
#
# Elastic Compliance Matrix: (Units=1/GPa)
#
#
# Indices 1 2 3 4 5 6 
#
# 1 0.015898 0.000590 -0.011937 0.003360 -0.004884 -0.000312
# 2 0.000590 0.017596 -0.013538 0.011490 -0.004894 0.005638
# 3 -0.011937 -0.013538 0.062983 -0.012531 0.000813 -0.018778
# 4 0.003360 0.011490 -0.012531 0.073379 -0.011502 -0.009150
# 5 -0.004884 -0.004894 0.000813 -0.011502 0.031082 0.001343
# 6 -0.000312 0.005638 -0.018778 -0.009150 0.001343 0.040973
#
#
# Mechanical properties :
#
#
# Convention : Reuss Voigt Hill
#
# Bulk Modulus (GPa) = 21.41047 32.60718 27.00883
# Shear Modulus (GPa) = 16.27332 26.55853 21.41593
#
# Velocity S-wave (km/s) = 2.72451 3.48059 3.12550
# Velocity P-wave (km/s) = 4.43436 5.57012 5.03437
#
# Compressibility (1/GPa) = 0.04670612
#
# Stress axis : x y z
#
# Youngs Moduli (GPa) = 62.90128 56.82987 15.87729
#
# Poissons Ratio (x) = -0.03350 0.18953
# Poissons Ratio (y) = -0.03708 0.21495
# Poissons Ratio (z) = 0.75085 0.76937
#
# Static dielectric constant tensor:
#      x y z
#    x 1.822230 0.023470 -0.001950 
#    y 0.023470 1.873540 0.008760 
#    z -0.001950 0.008760 1.838530 
# 
# From -- ./inp_files/227011.got.cif
#   From: 2010.05.17/outbox.cif.g08.bks.cpg/sg2_114_cif.got.tgz:227011.got - 2010.06.03 11:33:40.
