data_PCOD9077638
_publ_section_title
;
Structure prediction by ZEFSAII (Michael W. Deem and Ramdas Pophale) SiO2 
 PCOD9077638
Probable space group: P -1
;
_chemical_formula_sum "Si O2"
_cell_formula_units_Z 16
_cell_length_a 12.109163
_cell_length_b 12.251262
_cell_length_c 12.785797
_cell_angle_alpha 57.411230
_cell_angle_beta 144.910772
_cell_angle_gamma 141.883945
_cell_volume 642.802655
_symmetry_space_group_name_H-M "P -1"
_symmetry_group_IT_number 2
_symmetry_cell_setting 'triclinic'
loop_
_space_group_symop_operation_xyz
x,y,z
-x,-y,-z
loop_
_atom_site_type_symbol
_atom_site_label
_atom_site_fract_x
_atom_site_fract_y
_atom_site_fract_z
Si Si1 0.202748 0.989505 0.624740
Si Si2 0.398983 0.749262 0.359236
Si Si3 0.511823 0.771789 0.071474
Si Si4 0.803465 0.211213 0.633049
Si Si5 0.029640 0.361115 0.272779
Si Si6 0.678655 0.574035 0.207632
Si Si7 0.861197 0.149400 0.038632
Si Si8 0.832055 0.796638 0.934282
O O1 0.052783 0.779389 0.628061
O O2 0.298479 0.070305 0.540214
O O3 0.425971 0.128265 0.819081
O O4 0.000000 0.000000 0.500000
O O5 0.293273 0.712985 0.413781
O O6 0.322206 0.564971 0.372523
O O7 0.246988 0.783403 0.149912
O O8 0.628586 0.685037 0.177069
O O9 0.630508 0.930127 0.996418
O O10 0.183362 0.621493 0.890275
O O11 0.005766 0.310215 0.637631
O O12 0.500000 0.000000 0.500000
O O13 0.004616 0.232462 0.857374
O O14 0.961893 0.248507 0.175214
O O15 0.493616 0.371081 0.218722
O O16 0.500000 0.500000 0.000000
O O17 0.099676 0.194298 0.137383
O O18 0.000000 0.000000 0.000000
#
# Coordination Sequence:
#
# PCOD9077638 Si02
#       8
#     2   2   2   2   2   2   2   2
#     4  11  25  41  59  93 129 165 200 252 322 378
#     4  11  22  39  66  89 124 165 207 255 315 377
#     4  11  20  38  67  90 124 159 208 266 307 370
#     4  10  23  42  62  88 125 169 209 256 320 376
#     4  11  21  39  65  94 122 157 210 262 311 373
#     4  10  21  38  61  93 122 164 215 261 311 368
#     4  10  18  34  61  97 119 154 206 265 311 365
#     4  10  21  38  62  91 123 164 214 267 308 371
#
# _framework density 24.890998
#
# number of rings (size 3 to 8) (size 9 to 14) (size 15 to 20)
#    0.000    1.500    2.500    4.875    3.500    0.500 
#    0.000    1.875    0.000    0.000    0.000    0.000 
#    0.000    0.000    0.000    0.000    0.000    0.000 
#
# Total GULP energy -89139.280515 kJ/mol
# GULP energy per Si atom -5571.205032 kJ/mol
# Density = 2.483435 g / cm^3
# Si number density = 24.890998 Si / 1000 Ang^3
#
#
#
# Elastic Constant Matrix: (Units=GPa)
#
#
# Indices 1 2 3 4 5 6 
#
# 1 151.1029 58.2374 17.5262 4.0743 25.3566 28.8601
# 2 58.2374 141.1144 31.7945 21.5420 13.1559 13.5945
# 3 17.5262 31.7945 54.6963 -2.4788 1.2540 19.4601
# 4 4.0743 21.5420 -2.4788 27.0178 1.8433 11.0587
# 5 25.3566 13.1559 1.2540 1.8433 25.4202 12.3909
# 6 28.8601 13.5945 19.4601 11.0587 12.3909 40.2976
#
#
#
# Elastic Compliance Matrix: (Units=1/GPa)
#
#
# Indices 1 2 3 4 5 6 
#
# 1 0.009970 -0.004211 0.001890 0.005013 -0.005081 -0.006446
# 2 -0.004211 0.012712 -0.009631 -0.013591 -0.005155 0.008693
# 3 0.001890 -0.009631 0.031605 0.018461 0.010806 -0.021756
# 4 0.005013 -0.013591 0.018461 0.059270 0.010133 -0.027301
# 5 -0.005081 -0.005155 0.010806 0.010133 0.055386 -0.019652
# 6 -0.006446 0.008693 -0.021756 -0.027301 -0.019652 0.050540
#
#
# Mechanical properties :
#
#
# Convention : Reuss Voigt Hill
#
# Bulk Modulus (GPa) = 32.91215 62.44778 47.67997
# Shear Modulus (GPa) = 19.72271 34.50414 27.11343
#
# Velocity S-wave (km/s) = 2.81795 3.72722 3.30401
# Velocity P-wave (km/s) = 4.88252 6.60802 5.80968
#
# Compressibility (1/GPa) = 0.03038391
#
# Stress axis : x y z
#
# Youngs Moduli (GPa) = 100.29652 78.66500 31.64094
#
# Poissons Ratio (x) = 0.33128 -0.05981
# Poissons Ratio (y) = 0.42237 0.30472
# Poissons Ratio (z) = -0.18958 0.75760
#
# Static dielectric constant tensor:
#      x y z
#    x 2.083550 0.028140 -0.009320 
#    y 0.028140 2.144660 0.158760 
#    z -0.009320 0.158760 2.288890 
# 
# From -- ./inp_files/519630.got.cif
#   From: 2010.05.17/outbox.cif.g08.bks.cpg/sg2_260_cif.got.tgz:519630.got - 2010.06.03 11:33:40.
