data_PCOD9077396
_publ_section_title
;
Structure prediction by ZEFSAII (Michael W. Deem and Ramdas Pophale) SiO2 
 PCOD9077396
Probable space group: P -1
;
_chemical_formula_sum "Si O2"
_cell_formula_units_Z 16
_cell_length_a 13.332770
_cell_length_b 7.819889
_cell_length_c 13.877935
_cell_angle_alpha 133.731755
_cell_angle_beta 113.918813
_cell_angle_gamma 54.090090
_cell_volume 846.812386
_symmetry_space_group_name_H-M "P -1"
_symmetry_group_IT_number 2
_symmetry_cell_setting 'triclinic'
loop_
_space_group_symop_operation_xyz
x,y,z
-x,-y,-z
loop_
_atom_site_type_symbol
_atom_site_label
_atom_site_fract_x
_atom_site_fract_y
_atom_site_fract_z
Si Si1 0.509887 0.203215 0.375711
Si Si2 0.750000 0.807224 0.431796
Si Si3 0.250004 0.721103 0.289725
Si Si4 0.990115 0.722986 0.375710
Si Si5 0.750005 0.265935 0.284200
Si Si6 0.995548 0.731691 0.156164
Si Si7 0.250000 0.519365 0.431804
Si Si8 0.495537 0.777226 0.843836
O O1 0.500000 0.500000 0.500000
O O2 0.378154 0.250680 0.385144
O O3 0.515624 0.139805 0.240637
O O4 0.626743 0.987031 0.392926
O O5 0.750000 0.537518 0.358608
O O6 0.873257 0.740512 0.392922
O O7 0.750001 0.997274 0.592043
O O8 0.124168 0.747600 0.205089
O O9 0.250002 0.628561 0.365950
O O10 0.375847 0.495936 0.205098
O O11 0.984383 0.671048 0.240637
O O12 0.121847 0.506988 0.385144
O O13 0.000000 0.000000 0.500000
O O14 0.750001 0.281279 0.407303
O O15 0.626104 0.258861 0.198720
O O16 0.873912 0.011071 0.198729
O O17 0.000000 0.500000 0.000000
O O18 0.500000 0.000000 0.000000
#
# Coordination Sequence:
#
# PCOD9077396 Si02
#       8
#     2   2   2   2   2   2   2   2
#     4  11  18  38  63  85 114 155 206 231 286 352
#     4  12  22  35  61  92 120 149 191 260 292 338
#     4  10  19  37  59  86 115 153 206 238 291 341
#     4  11  18  38  63  85 114 155 206 231 286 352
#     4  12  23  36  57  94 122 146 197 249 302 330
#     4  11  22  38  62  88 117 158 201 237 282 361
#     4  10  18  34  59  84 113 150 204 239 269 347
#     4  11  22  38  62  88 117 158 201 237 282 361
#
# _framework density 18.894386999999998
#
# number of rings (size 3 to 8) (size 9 to 14) (size 15 to 20)
#    0.000    1.000    7.500    1.500    0.000    4.000 
#    0.000    1.250    0.000    6.000    0.000    0.000 
#    0.000    0.000    0.000    0.000    0.000    0.000 
#
# Total GULP energy -89348.867126 kJ/mol
# GULP energy per Si atom -5584.304195 kJ/mol
# Density = 1.885138 g / cm^3
# Si number density = 18.894387 Si / 1000 Ang^3
#
#
#
# Elastic Constant Matrix: (Units=GPa)
#
#
# Indices 1 2 3 4 5 6 
#
# 1 138.2639 84.2702 70.5285 13.4611 19.3707 -48.3408
# 2 84.2702 100.0884 63.8569 20.2174 8.4563 -35.8694
# 3 70.5285 63.8569 184.3811 10.9970 8.2213 -14.4350
# 4 13.4611 20.2174 10.9970 22.2911 -1.0044 -3.3630
# 5 19.3707 8.4563 8.2213 -1.0044 23.0445 -1.2781
# 6 -48.3408 -35.8694 -14.4350 -3.3630 -1.2781 43.2319
#
#
#
# Elastic Compliance Matrix: (Units=1/GPa)
#
#
# Indices 1 2 3 4 5 6 
#
# 1 0.021966 -0.009786 -0.003201 -0.001146 -0.012955 0.014902
# 2 -0.009786 0.027213 -0.004028 -0.015438 -0.000492 0.009075
# 3 -0.003201 -0.004028 0.007577 0.001264 0.001284 -0.004255
# 4 -0.001146 -0.015438 0.001264 0.057956 0.008209 -0.008916
# 5 -0.012955 -0.000492 0.001284 0.008209 0.053685 -0.012240
# 6 0.014902 0.009075 -0.004255 -0.008916 -0.012240 0.044848
#
#
# Mechanical properties :
#
#
# Convention : Reuss Voigt Hill
#
# Bulk Modulus (GPa) = 44.00124 95.56050 69.78087
# Shear Modulus (GPa) = 19.61928 31.31867 25.46897
#
# Velocity S-wave (km/s) = 3.22586 4.07574 3.67545
# Velocity P-wave (km/s) = 6.10029 8.53433 7.41782
#
# Compressibility (1/GPa) = 0.02272663
#
# Stress axis : x y z
#
# Youngs Moduli (GPa) = 45.52392 36.74674 131.97638
#
# Poissons Ratio (x) = 0.35962 0.42239
# Poissons Ratio (y) = 0.44552 0.53162
# Poissons Ratio (z) = 0.14570 0.14802
#
# Static dielectric constant tensor:
#      x y z
#    x 1.701280 -0.034450 -0.006640 
#    y -0.034450 1.685120 -0.009650 
#    z -0.006640 -0.009650 1.623000 
# 
# From -- ./inp_files/529141.got.cif
#   From: 2010.05.17/outbox.cif.g08.bks.cpg/sg2_265_cif.got.tgz:529141.got - 2010.06.03 11:33:40.
