data_PCOD9077835
_publ_section_title
;
Structure prediction by ZEFSAII (Michael W. Deem and Ramdas Pophale) SiO2 
 PCOD9077835
Probable space group: P -1
;
_chemical_formula_sum "Si O2"
_cell_formula_units_Z 16
_cell_length_a 28.588528
_cell_length_b 5.047290
_cell_length_c 12.859352
_cell_angle_alpha 60.687276
_cell_angle_beta 22.414100
_cell_angle_gamma 64.598915
_cell_volume 615.361081
_symmetry_space_group_name_H-M "P -1"
_symmetry_group_IT_number 2
_symmetry_cell_setting 'triclinic'
loop_
_space_group_symop_operation_xyz
x,y,z
-x,-y,-z
loop_
_atom_site_type_symbol
_atom_site_label
_atom_site_fract_x
_atom_site_fract_y
_atom_site_fract_z
Si Si1 0.266976 0.842231 0.838493
Si Si2 0.406686 0.232805 0.102654
Si Si3 0.740982 0.156375 0.378550
Si Si4 0.827259 0.400578 0.343359
Si Si5 0.650960 0.140299 0.911760
Si Si6 0.999878 0.010399 0.854889
Si Si7 0.732665 0.877857 0.007268
Si Si8 0.013632 0.159803 0.577425
O O1 0.267600 0.485741 0.933867
O O2 0.128767 0.963285 0.094493
O O3 0.322827 0.029419 0.785821
O O4 0.315717 0.846312 0.618833
O O5 0.442553 0.591127 0.955252
O O6 0.299799 0.163294 0.422275
O O7 0.373566 0.115740 0.076890
O O8 0.500000 0.000000 0.000000
O O9 0.724188 0.377322 0.468661
O O10 0.887386 0.227004 0.049576
O O11 0.775410 0.331930 0.579151
O O12 0.900792 0.080387 0.247679
O O13 0.923142 0.681110 0.067140
O O14 0.665807 0.016325 0.020019
O O15 0.066195 0.138854 0.590113
O O16 0.880061 0.988179 0.678726
O O17 0.000000 0.500000 0.500000
#
# Coordination Sequence:
#
# PCOD9077835 Si02
#       8
#     2   2   2   2   2   2   2   2
#     4  10  23  35  59  81 123 166 205 245 283 349
#     4  11  24  43  69  94 119 151 199 262 321 370
#     4  10  22  37  58  86 120 158 206 245 309 364
#     4  10  20  33  57  86 120 159 199 248 303 356
#     4  11  22  41  65  92 124 156 202 253 308 369
#     4  10  18  35  53  85 121 160 202 249 294 360
#     4  11  21  40  55  88 120 166 205 242 291 348
#     4   9  19  34  51  81 121 172 209 240 278 343
#
# _framework density 26.000997999999999
#
# number of rings (size 3 to 8) (size 9 to 14) (size 15 to 20)
#    0.000    1.750    2.500    1.875    3.500    0.000 
#    4.500    0.000    0.000    4.500    0.000    0.000 
#    0.000    0.000    0.000    0.000    0.000    0.000 
#
# Total GULP energy -89112.476948 kJ/mol
# GULP energy per Si atom -5569.529809 kJ/mol
# Density = 2.594182 g / cm^3
# Si number density = 26.000998 Si / 1000 Ang^3
#
#
#
# Elastic Constant Matrix: (Units=GPa)
#
#
# Indices 1 2 3 4 5 6 
#
# 1 155.9455 33.2153 29.9539 -2.0007 51.3130 -8.1665
# 2 33.2153 93.9043 2.5552 -3.3825 11.0891 -9.2312
# 3 29.9539 2.5552 31.3431 -6.8067 7.9036 -8.3959
# 4 -2.0007 -3.3825 -6.8067 15.5550 -3.4194 4.5467
# 5 51.3130 11.0891 7.9036 -3.4194 30.1007 1.1357
# 6 -8.1665 -9.2312 -8.3959 4.5467 1.1357 49.2202
#
#
#
# Elastic Compliance Matrix: (Units=1/GPa)
#
#
# Indices 1 2 3 4 5 6 
#
# 1 0.019149 -0.003122 -0.012349 -0.010747 -0.029553 0.002160
# 2 -0.003122 0.011926 0.003103 0.003063 0.000388 0.001956
# 3 -0.012349 0.003103 0.046564 0.020345 0.009828 0.004370
# 4 -0.010747 0.003063 0.020345 0.078696 0.020997 -0.005492
# 5 -0.029553 0.000388 0.009828 0.020997 0.083528 -0.007021
# 6 0.002160 0.001956 0.004370 -0.005492 -0.007021 0.022457
#
#
# Mechanical properties :
#
#
# Convention : Reuss Voigt Hill
#
# Bulk Modulus (GPa) = 18.90276 45.84909 32.37592
# Shear Modulus (GPa) = 16.41014 33.33976 24.87495
#
# Velocity S-wave (km/s) = 2.51497 3.58474 3.09640
# Velocity P-wave (km/s) = 3.96474 5.89963 5.02617
#
# Compressibility (1/GPa) = 0.05290234
#
# Stress axis : x y z
#
# Youngs Moduli (GPa) = 52.22213 83.85173 21.47576
#
# Poissons Ratio (x) = 0.26180 0.26520
# Poissons Ratio (y) = 0.16304 -0.06663
# Poissons Ratio (z) = 0.64489 -0.26017
#
# Static dielectric constant tensor:
#      x y z
#    x 2.251730 0.264000 0.248330 
#    y 0.264000 2.423810 0.528780 
#    z 0.248330 0.528780 2.750870 
# 
# From -- ./inp_files/95549.got.cif
#   From: 2010.05.17/outbox.cif.g08.bks.cpg/sg2_48_cif.got.tgz:95549.got - 2010.06.03 11:33:40.
