data_PCOD9077279
_publ_section_title
;
Structure prediction by ZEFSAII (Michael W. Deem and Ramdas Pophale) SiO2 
 PCOD9077279
Probable space group: P -1
;
_chemical_formula_sum "Si O2"
_cell_formula_units_Z 14
_cell_length_a 10.568771
_cell_length_b 8.452385
_cell_length_c 9.211207
_cell_angle_alpha 135.781271
_cell_angle_beta 120.352079
_cell_angle_gamma 59.810301
_cell_volume 481.473056
_symmetry_space_group_name_H-M "P -1"
_symmetry_group_IT_number 2
_symmetry_cell_setting 'triclinic'
loop_
_space_group_symop_operation_xyz
x,y,z
-x,-y,-z
loop_
_atom_site_type_symbol
_atom_site_label
_atom_site_fract_x
_atom_site_fract_y
_atom_site_fract_z
Si Si1 0.253112 0.855077 0.649905
Si Si2 0.401087 0.753055 0.184097
Si Si3 0.294154 0.479617 0.648762
Si Si4 0.933743 0.199311 0.982776
Si Si5 0.863409 0.545777 0.835913
Si Si6 0.590181 0.851850 0.775110
Si Si7 0.811488 0.909700 0.510794
O O1 0.228111 0.738590 0.715243
O O2 0.203979 0.669374 0.386774
O O3 0.432849 0.830026 0.733742
O O4 0.187700 0.082818 0.658039
O O5 0.549110 0.568771 0.200008
O O6 0.242101 0.679957 0.021498
O O7 0.345919 0.932020 0.407424
O O8 0.422999 0.907367 0.159462
O O9 0.353668 0.336208 0.441972
O O10 0.187160 0.334386 0.570710
O O11 0.932150 0.046839 0.733920
O O12 0.040973 0.372414 0.180607
O O13 0.000000 0.000000 0.000000
O O14 0.723002 0.772119 0.919943
O O15 0.000000 0.500000 0.000000
#
# Coordination Sequence:
#
# PCOD9077279 Si02
#       7
#     2   2   2   2   2   2   2
#     4  11  18  23  31  36  40  48  57  59  64  74
#     4   9  15  22  30  35  39  48  57  59  65  73
#     4  10  15  22  30  37  39  48  57  59  65  71
#     4  10  16  23  26  32  44  49  51  59  69  75
#     4  11  18  21  26  37  43  46  53  60  68  73
#     4  10  16  24  30  33  41  50  54  61  65  70
#     4   9  16  23  29  34  43  48  54  62  63  72
#
# _framework density 29.077428999999999
#
# number of rings (size 3 to 8) (size 9 to 14) (size 15 to 20)
#    0.857    1.143    5.714    3.429    2.000    0.000 
#    0.000    0.000    0.000    0.000    0.000    0.000 
#    0.000    0.000    0.000    0.000    0.000    0.000 
#
# Total GULP energy -78233.458583 kJ/mol
# GULP energy per Si atom -5588.104185 kJ/mol
# Density = 2.901125 g / cm^3
# Si number density = 29.077429 Si / 1000 Ang^3
#
#
#
# Elastic Constant Matrix: (Units=GPa)
#
#
# Indices 1 2 3 4 5 6 
#
# 1 128.7385 55.6743 48.2453 4.6069 23.5790 -16.5862
# 2 55.6743 196.1340 51.0282 -33.0472 0.2726 25.3728
# 3 48.2453 51.0282 125.2074 -30.4551 18.5090 4.2603
# 4 4.6069 -33.0472 -30.4551 66.1987 8.2098 12.2588
# 5 23.5790 0.2726 18.5090 8.2098 45.6417 -3.3079
# 6 -16.5862 25.3728 4.2603 12.2588 -3.3079 48.7648
#
#
#
# Elastic Compliance Matrix: (Units=1/GPa)
#
#
# Indices 1 2 3 4 5 6 
#
# 1 0.013776 -0.005035 -0.004799 -0.006998 -0.003210 0.009266
# 2 -0.005035 0.008486 0.000032 0.005883 0.000933 -0.007546
# 3 -0.004799 0.000032 0.012452 0.007520 -0.004280 -0.004917
# 4 -0.006998 0.005883 0.007520 0.024946 -0.004877 -0.012700
# 5 -0.003210 0.000933 -0.004280 -0.004877 0.026306 0.001807
# 6 0.009266 -0.007546 -0.004917 -0.012700 0.001807 0.031329
#
#
# Mechanical properties :
#
#
# Convention : Reuss Voigt Hill
#
# Bulk Modulus (GPa) = 66.18701 84.44174 75.31438
# Shear Modulus (GPa) = 35.22708 51.79653 43.51180
#
# Velocity S-wave (km/s) = 3.48443 4.22516 3.87254
# Velocity P-wave (km/s) = 6.24500 7.27365 6.77887
#
# Compressibility (1/GPa) = 0.01510870
#
# Stress axis : x y z
#
# Youngs Moduli (GPa) = 72.59117 117.84474 80.30839
#
# Poissons Ratio (x) = 0.59337 0.38539
# Poissons Ratio (y) = 0.36551 -0.00254
# Poissons Ratio (z) = 0.34836 -0.00373
#
# Static dielectric constant tensor:
#      x y z
#    x 2.282710 0.075630 -0.141160 
#    y 0.075630 2.142880 -0.116090 
#    z -0.141160 -0.116090 2.393700 
# 
# From -- ./inp_files/526792.got.cif
#   From: 2010.05.17/outbox.cif.g08.bks.cpg/sg2_264_cif.got.tgz:526792.got - 2010.06.03 11:33:40.
