data_PCOD9077494
_publ_section_title
;
Structure prediction by ZEFSAII (Michael W. Deem and Ramdas Pophale) SiO2 
 PCOD9077494
Probable space group: P -1
;
_chemical_formula_sum "Si O2"
_cell_formula_units_Z 16
_cell_length_a 18.036743
_cell_length_b 8.923519
_cell_length_c 9.793463
_cell_angle_alpha 129.211069
_cell_angle_beta 117.539623
_cell_angle_gamma 39.039897
_cell_volume 767.940756
_symmetry_space_group_name_H-M "P -1"
_symmetry_group_IT_number 2
_symmetry_cell_setting 'triclinic'
loop_
_space_group_symop_operation_xyz
x,y,z
-x,-y,-z
loop_
_atom_site_type_symbol
_atom_site_label
_atom_site_fract_x
_atom_site_fract_y
_atom_site_fract_z
Si Si1 0.103942 0.835571 0.311191
Si Si2 0.220411 0.327603 0.966627
Si Si3 0.810539 0.239299 0.942771
Si Si4 0.377972 0.775878 0.212330
Si Si5 0.827978 0.649572 0.509724
Si Si6 0.923419 0.706071 0.351487
Si Si7 0.366890 0.763173 0.871970
Si Si8 0.148129 0.843964 0.768351
O O1 0.104185 0.926751 0.209748
O O2 0.123678 0.994317 0.508563
O O3 0.193431 0.510383 0.179977
O O4 0.978098 0.942668 0.288664
O O5 0.115772 0.351853 0.847539
O O6 0.332623 0.010814 0.902802
O O7 0.226201 0.477105 0.938037
O O8 0.693238 0.305592 0.866217
O O9 0.869858 0.083382 0.044094
O O10 0.511368 0.536182 0.237976
O O11 0.295506 0.067685 0.380076
O O12 0.379283 0.799287 0.063169
O O13 0.865671 0.689675 0.423175
O O14 0.819007 0.434518 0.369913
O O15 0.936501 0.516511 0.629727
O O16 0.256234 0.798880 0.788502
#
# Coordination Sequence:
#
# PCOD9077494 Si02
#       8
#     2   2   2   2   2   2   2   2
#     4   9  19  33  57  88 115 142 187 236 286 333
#     4  10  21  37  58  87 119 147 182 242 295 326
#     4   9  18  32  60  83 107 147 193 234 280 326
#     4  10  21  40  61  76 111 156 200 230 270 343
#     4  10  18  34  60  86 111 146 189 240 279 331
#     4  10  19  33  59  96 114 136 187 243 293 335
#     4  10  24  40  53  81 115 159 194 222 280 350
#     4  10  19  34  56  83 117 148 189 229 278 352
#
# _framework density 20.834941000000001
#
# number of rings (size 3 to 8) (size 9 to 14) (size 15 to 20)
#    0.750    1.500    2.500    0.375    3.500    1.500 
#    2.250    1.875    0.000    0.000    0.000    0.000 
#    0.000    0.000    0.000    0.000    0.000    0.000 
#
# Total GULP energy -89206.532067 kJ/mol
# GULP energy per Si atom -5575.408254 kJ/mol
# Density = 2.078752 g / cm^3
# Si number density = 20.834941 Si / 1000 Ang^3
#
#
#
# Elastic Constant Matrix: (Units=GPa)
#
#
# Indices 1 2 3 4 5 6 
#
# 1 18.8452 -14.4945 -0.9081 -9.1870 -13.1357 -4.3046
# 2 -14.4945 56.3651 11.1453 10.5027 -11.0450 -4.7092
# 3 -0.9081 11.1453 53.8156 14.4353 3.7989 7.4908
# 4 -9.1870 10.5027 14.4353 25.6432 -8.8552 -5.5218
# 5 -13.1357 -11.0450 3.7989 -8.8552 23.4507 3.2077
# 6 -4.3046 -4.7092 7.4908 -5.5218 3.2077 5.6428
#
#
#
# Elastic Compliance Matrix: (Units=1/GPa)
#
#
# Indices 1 2 3 4 5 6 
#
# 1 -0.015686 -0.013909 0.028979 -0.044343 -0.024239 -0.091656
# 2 -0.013909 0.012946 0.008311 -0.024199 -0.008084 -0.029923
# 3 0.028979 0.008311 0.011471 0.010214 0.020481 0.012168
# 4 -0.044343 -0.024199 0.010214 0.007935 -0.028964 -0.043352
# 5 -0.024239 -0.008084 0.020481 -0.028964 0.023910 -0.094360
# 6 -0.091656 -0.029923 0.012168 -0.043352 -0.094360 0.077390
#
#
# Mechanical properties :
#
#
# Convention : Reuss Voigt Hill
#
# Bulk Modulus (GPa) = 18.02017 13.39014 15.70516
# Shear Modulus (GPa) = 55.74131 19.83290 37.78711
#
# Velocity S-wave (km/s) = 5.17802 3.08864 4.26331
# Velocity P-wave (km/s) = 6.66460 4.37725 5.63814
#
# Compressibility (1/GPa) = 0.05549337
#
# Stress axis : x y z
#
# Youngs Moduli (GPa) = -63.75078 77.24188 87.17893
#
# Poissons Ratio (x) = 1.07435 -2.52638
# Poissons Ratio (y) = -0.88670 -0.72452
# Poissons Ratio (z) = 1.84745 -0.64194
#
# Static dielectric constant tensor:
#      x y z
#    x 1.745730 0.037490 -0.029110 
#    y 0.037490 1.749910 -0.009930 
#    z -0.029110 -0.009930 1.817280 
# 
# From -- ./inp_files/461632.got.cif
#   From: 2010.05.17/outbox.cif.g08.bks.cpg/sg2_231_cif.got.tgz:461632.got - 2010.06.03 11:33:40.
