data_PCOD9077918
_publ_section_title
;
Structure prediction by ZEFSAII (Michael W. Deem and Ramdas Pophale) SiO2 
 PCOD9077918
Probable space group: P -1
;
_chemical_formula_sum "Si O2"
_cell_formula_units_Z 14
_cell_length_a 11.361277
_cell_length_b 9.737449
_cell_length_c 11.727104
_cell_angle_alpha 103.187087
_cell_angle_beta 73.817804
_cell_angle_gamma 138.609974
_cell_volume 823.438974
_symmetry_space_group_name_H-M "P -1"
_symmetry_group_IT_number 2
_symmetry_cell_setting 'triclinic'
loop_
_space_group_symop_operation_xyz
x,y,z
-x,-y,-z
loop_
_atom_site_type_symbol
_atom_site_label
_atom_site_fract_x
_atom_site_fract_y
_atom_site_fract_z
Si Si1 0.711063 0.052664 0.397318
Si Si2 0.009719 0.468915 0.285330
Si Si3 0.500885 0.858600 0.896500
Si Si4 0.053447 0.894550 0.822099
Si Si5 0.907218 0.544778 0.107713
Si Si6 0.834883 0.979854 0.930228
Si Si7 0.383253 0.924673 0.338209
O O1 0.810910 0.004911 0.302770
O O2 0.654446 0.998939 0.533328
O O3 0.860138 0.303933 0.389341
O O4 0.541160 0.956160 0.348325
O O5 0.199944 0.684590 0.318263
O O6 0.028668 0.332774 0.191732
O O7 0.929289 0.511791 0.225568
O O8 0.301240 0.626075 0.902305
O O9 0.646672 0.875331 0.912378
O O10 0.556899 0.951756 0.771500
O O11 0.500000 0.000000 0.000000
O O12 0.161317 0.016190 0.932402
O O13 0.901609 0.884552 0.851259
O O14 0.014951 0.779001 0.102370
O O15 0.000000 0.500000 0.000000
#
# Coordination Sequence:
#
# PCOD9077918 Si02
#       7
#     2   2   2   2   2   2   2
#     4   9  20  36  54  83 113 140 186 220 268 325
#     4  10  18  35  56  81 109 138 184 226 264 316
#     4  12  21  33  57  84 108 138 187 228 269 320
#     4   9  21  39  53  79 116 144 178 222 272 331
#     4  12  19  34  57  81 107 141 181 229 272 317
#     4  11  21  38  55  79 116 145 175 227 277 318
#     4  11  19  33  61  83 108 143 181 231 268 309
#
# _framework density 17.001867000000001
#
# number of rings (size 3 to 8) (size 9 to 14) (size 15 to 20)
#    0.857    0.571    5.714    1.286    0.000    0.000 
#    2.571    2.143    0.000    0.857    0.000    0.000 
#    0.000    0.000    0.000    0.000    0.000    0.000 
#
# Total GULP energy -78025.774007 kJ/mol
# GULP energy per Si atom -5573.269572 kJ/mol
# Density = 1.696317 g / cm^3
# Si number density = 17.001867 Si / 1000 Ang^3
#
#
#
# Elastic Constant Matrix: (Units=GPa)
#
#
# Indices 1 2 3 4 5 6 
#
# 1 126.6616 34.9906 43.2815 16.3647 -4.4296 23.2710
# 2 34.9906 63.2955 -6.5794 0.9363 1.6829 31.0671
# 3 43.2815 -6.5794 98.2938 -0.9189 -12.5361 3.6100
# 4 16.3647 0.9363 -0.9189 21.3549 -1.5477 0.2723
# 5 -4.4296 1.6829 -12.5361 -1.5477 20.3216 3.2170
# 6 23.2710 31.0671 3.6100 0.2723 3.2170 37.5904
#
#
#
# Elastic Compliance Matrix: (Units=1/GPa)
#
#
# Indices 1 2 3 4 5 6 
#
# 1 0.013908 -0.007380 -0.006796 -0.010685 -0.001096 -0.001687
# 2 -0.007380 0.031383 0.006713 0.005134 0.003868 -0.022381
# 3 -0.006796 0.006713 0.014841 0.006187 0.008144 -0.003508
# 4 -0.010685 0.005134 0.006187 0.055417 0.005135 0.000937
# 5 -0.001096 0.003868 0.008144 0.005135 0.055343 -0.008074
# 6 -0.001687 -0.022381 -0.003508 0.000937 -0.008074 0.047165
#
#
# Mechanical properties :
#
#
# Convention : Reuss Voigt Hill
#
# Bulk Modulus (GPa) = 22.12022 47.95958 35.03990
# Shear Modulus (GPa) = 20.15725 30.29059 25.22392
#
# Velocity S-wave (km/s) = 3.44698 4.22548 3.85593
# Velocity P-wave (km/s) = 5.37410 7.21637 6.36227
#
# Compressibility (1/GPa) = 0.04520751
#
# Stress axis : x y z
#
# Youngs Moduli (GPa) = 71.90132 31.86458 67.38231
#
# Poissons Ratio (x) = 0.23515 0.45791
# Poissons Ratio (y) = 0.53060 -0.45236
# Poissons Ratio (z) = 0.48862 -0.21392
#
# Static dielectric constant tensor:
#      x y z
#    x 1.554600 0.009360 -0.008610 
#    y 0.009360 1.559840 -0.009420 
#    z -0.008610 -0.009420 1.608140 
# 
# From -- ./inp_files/381998.got.cif
#   From: 2010.05.17/outbox.cif.g08.bks.cpg/sg2_191_cif.got.tgz:381998.got - 2010.06.03 11:33:40.
