data_PCOD9077095
_publ_section_title
;
Structure prediction by ZEFSAII (Michael W. Deem and Ramdas Pophale) SiO2 
 PCOD9077095
Probable space group: P -1
;
_chemical_formula_sum "Si O2"
_cell_formula_units_Z 14
_cell_length_a 12.961423
_cell_length_b 7.247967
_cell_length_c 16.031543
_cell_angle_alpha 54.177503
_cell_angle_beta 42.551991
_cell_angle_gamma 59.308828
_cell_volume 817.154706
_symmetry_space_group_name_H-M "P -1"
_symmetry_group_IT_number 2
_symmetry_cell_setting 'triclinic'
loop_
_space_group_symop_operation_xyz
x,y,z
-x,-y,-z
loop_
_atom_site_type_symbol
_atom_site_label
_atom_site_fract_x
_atom_site_fract_y
_atom_site_fract_z
Si Si1 0.306895 0.513322 0.545470
Si Si2 0.024159 0.222727 0.371950
Si Si3 0.546190 0.668632 0.664584
Si Si4 0.248984 0.989882 0.170780
Si Si5 0.553944 0.817538 0.137528
Si Si6 0.445129 0.151864 0.676493
Si Si7 0.159076 0.493722 0.355988
O O1 0.398410 0.367557 0.454457
O O2 0.314521 0.342075 0.664289
O O3 0.400542 0.724447 0.454692
O O4 0.138703 0.619639 0.586602
O O5 0.105581 0.143998 0.258093
O O6 0.137690 0.355910 0.321900
O O7 0.000000 0.000000 0.500000
O O8 0.451353 0.456153 0.792974
O O9 0.700208 0.624434 0.640730
O O10 0.461665 0.916525 0.676891
O O11 0.386900 0.935925 0.171289
O O12 0.194587 0.747055 0.247763
O O13 0.320206 0.101581 0.019797
O O14 0.575679 0.883042 0.203304
O O15 0.000000 0.500000 0.500000
#
# Coordination Sequence:
#
# PCOD9077095 Si02
#       7
#     2   2   2   2   2   2   2
#     4  10  21  33  51  84 108 133 180 217 263 320
#     4  12  20  33  54  81 111 135 165 221 276 310
#     4  10  18  34  56  77 106 138 174 220 262 310
#     4  10  21  35  55  79 109 139 171 222 267 309
#     4   9  20  38  53  78 106 139 185 212 252 324
#     4  10  20  35  55  74 106 146 176 218 260 307
#     4  11  19  31  52  84 107 130 170 216 272 320
#
# _framework density 17.132618000000001
#
# number of rings (size 3 to 8) (size 9 to 14) (size 15 to 20)
#    0.000    1.714    2.857    3.857    0.000    1.143 
#    0.000    5.000    0.000    1.714    0.000    0.000 
#    0.000    0.000    0.000    0.000    0.000    0.000 
#
# Total GULP energy -78124.012273 kJ/mol
# GULP energy per Si atom -5580.286591 kJ/mol
# Density = 1.709362 g / cm^3
# Si number density = 17.132618 Si / 1000 Ang^3
#
#
#
# Elastic Constant Matrix: (Units=GPa)
#
#
# Indices 1 2 3 4 5 6 
#
# 1 57.6637 22.0037 30.8559 -7.6112 10.5096 5.2306
# 2 22.0037 92.7089 43.5236 -0.5480 9.7216 7.7695
# 3 30.8559 43.5236 107.3317 -2.3597 11.9106 -5.2291
# 4 -7.6112 -0.5480 -2.3597 13.6711 0.6729 -0.3755
# 5 10.5096 9.7216 11.9106 0.6729 24.5002 -2.2283
# 6 5.2306 7.7695 -5.2291 -0.3755 -2.2283 19.6852
#
#
#
# Elastic Compliance Matrix: (Units=1/GPa)
#
#
# Indices 1 2 3 4 5 6 
#
# 1 0.025024 -0.001600 -0.005724 0.013068 -0.008425 -0.008242
# 2 -0.001600 0.014682 -0.005533 -0.001305 -0.003070 -0.007212
# 3 -0.005724 -0.005533 0.013686 -0.000784 -0.001328 0.007175
# 4 0.013068 -0.001305 -0.000784 0.080519 -0.007140 -0.002438
# 5 -0.008425 -0.003070 -0.001328 -0.007140 0.047245 0.008309
# 6 -0.008242 -0.007212 0.007175 -0.002438 0.008309 0.058636
#
#
# Mechanical properties :
#
#
# Convention : Reuss Voigt Hill
#
# Bulk Modulus (GPa) = 36.13162 50.05227 43.09195
# Shear Modulus (GPa) = 18.19943 22.32605 20.26274
#
# Velocity S-wave (km/s) = 3.26278 3.61381 3.44277
# Velocity P-wave (km/s) = 5.94386 6.83307 6.40392
#
# Compressibility (1/GPa) = 0.02767659
#
# Stress axis : x y z
#
# Youngs Moduli (GPa) = 39.96220 68.10833 73.06754
#
# Poissons Ratio (x) = 0.10900 0.41825
# Poissons Ratio (y) = 0.06395 0.40429
# Poissons Ratio (z) = 0.22875 0.37685
#
# Static dielectric constant tensor:
#      x y z
#    x 1.585650 0.014590 0.013900 
#    y 0.014590 1.614980 -0.003920 
#    z 0.013900 -0.003920 1.570140 
# 
# From -- ./inp_files/66185.got.cif
#   From: 2010.05.17/outbox.cif.g08.bks.cpg/sg2_34_cif.got.tgz:66185.got - 2010.06.03 11:33:40.
