data_PCOD9077386
_publ_section_title
;
Structure prediction by ZEFSAII (Michael W. Deem and Ramdas Pophale) SiO2 
 PCOD9077386
Probable space group: P -1
;
_chemical_formula_sum "Si O2"
_cell_formula_units_Z 16
_cell_length_a 8.334563
_cell_length_b 15.363063
_cell_length_c 6.443292
_cell_angle_alpha 130.000024
_cell_angle_beta 81.247716
_cell_angle_gamma 86.466076
_cell_volume 610.639129
_symmetry_space_group_name_H-M "P -1"
_symmetry_group_IT_number 2
_symmetry_cell_setting 'triclinic'
loop_
_space_group_symop_operation_xyz
x,y,z
-x,-y,-z
loop_
_atom_site_type_symbol
_atom_site_label
_atom_site_fract_x
_atom_site_fract_y
_atom_site_fract_z
Si Si1 0.838133 0.967419 0.868209
Si Si2 0.466590 0.746026 0.322484
Si Si3 0.026867 0.277668 0.446813
Si Si4 0.373092 0.577803 0.797694
Si Si5 0.677313 0.008160 0.382657
Si Si6 0.818048 0.767188 0.095455
Si Si7 0.710683 0.215207 0.184126
Si Si8 0.968569 0.474836 0.224586
O O1 0.697674 0.973726 0.082439
O O2 0.765074 0.078524 0.909685
O O3 0.894860 0.832190 0.590358
O O4 0.000000 0.000000 0.000000
O O5 0.328573 0.854870 0.426020
O O6 0.639873 0.757916 0.206893
O O7 0.448578 0.760816 0.595822
O O8 0.438654 0.621958 0.064172
O O9 0.984089 0.413430 0.724229
O O10 0.858062 0.248569 0.343867
O O11 0.152494 0.264662 0.204637
O O12 0.500000 0.500000 0.500000
O O13 0.312362 0.697035 0.864773
O O14 0.224194 0.514514 0.761630
O O15 0.500000 0.000000 0.500000
O O16 0.815811 0.906087 0.303605
O O17 0.943911 0.660906 0.014709
O O18 0.000000 0.500000 0.500000
#
# Coordination Sequence:
#
# PCOD9077386 Si02
#       8
#     2   2   2   2   2   2   2   2
#     4   8  15  28  55  84 106 145 194 236 282 340
#     4  10  22  37  61  91 116 151 201 246 293 341
#     4   9  16  32  61  82 112 159 199 228 289 356
#     4  12  24  39  60  89 123 153 196 246 293 348
#     4   8  15  30  54  82 113 150 190 234 287 347
#     4   9  16  33  62  83 116 164 194 231 297 356
#     4  10  20  38  61  87 119 151 194 244 298 345
#     4  10  18  34  59  82 113 164 197 227 293 357
#
# _framework density 26.202055999999999
#
# number of rings (size 3 to 8) (size 9 to 14) (size 15 to 20)
#    0.000    2.500    2.500    1.500    0.000    0.500 
#    0.000    1.250    2.750   33.750    0.000    0.000 
#    0.000    0.000    0.000    0.000    0.000    0.000 
#
# Total GULP energy -89356.324269 kJ/mol
# GULP energy per Si atom -5584.770267 kJ/mol
# Density = 2.614242 g / cm^3
# Si number density = 26.202056 Si / 1000 Ang^3
#
#
#
# Elastic Constant Matrix: (Units=GPa)
#
#
# Indices 1 2 3 4 5 6 
#
# 1 43.0123 9.7421 31.2093 1.0331 -15.2452 17.1379
# 2 9.7421 122.4800 12.8306 25.7259 -6.8357 -8.3612
# 3 31.2093 12.8306 167.2888 46.8230 -11.2544 19.9426
# 4 1.0331 25.7259 46.8230 55.8761 2.4086 -12.4591
# 5 -15.2452 -6.8357 -11.2544 2.4086 30.2601 4.4687
# 6 17.1379 -8.3612 19.9426 -12.4591 4.4687 39.7330
#
#
#
# Elastic Compliance Matrix: (Units=1/GPa)
#
#
# Indices 1 2 3 4 5 6 
#
# 1 0.042523 -0.002631 -0.002905 -0.002797 0.023059 -0.020907
# 2 -0.002631 0.009493 0.001290 -0.005333 0.001630 0.000629
# 3 -0.002905 0.001290 0.011105 -0.011934 0.005144 -0.008370
# 4 -0.002797 -0.005333 -0.011934 0.035067 -0.012573 0.018484
# 5 0.023059 0.001630 0.005144 -0.012573 0.051178 -0.021883
# 6 -0.020907 0.000629 -0.008370 0.018484 -0.021883 0.046777
#
#
# Mechanical properties :
#
#
# Convention : Reuss Voigt Hill
#
# Bulk Modulus (GPa) = 18.30519 48.92721 33.61620
# Shear Modulus (GPa) = 22.43723 43.77379 33.10551
#
# Velocity S-wave (km/s) = 2.92946 4.09176 3.55839
# Velocity P-wave (km/s) = 4.29461 6.40601 5.45347
#
# Compressibility (1/GPa) = 0.05462932
#
# Stress axis : x y z
#
# Youngs Moduli (GPa) = 23.51649 105.34292 90.05219
#
# Poissons Ratio (x) = 0.27715 0.26159
# Poissons Ratio (y) = 0.06187 -0.11617
# Poissons Ratio (z) = 0.06831 -0.13590
#
# Static dielectric constant tensor:
#      x y z
#    x 2.187180 -0.306070 0.335970 
#    y -0.306070 2.421550 -0.482940 
#    z 0.335970 -0.482940 2.693950 
# 
# From -- ./inp_files/218818.got.cif
#   From: 2010.05.17/outbox.cif.g08.bks.cpg/sg2_110_cif.got.tgz:218818.got - 2010.06.03 11:33:40.
