data_PCOD9077817
_publ_section_title
;
Structure prediction by ZEFSAII (Michael W. Deem and Ramdas Pophale) SiO2 
 PCOD9077817
Probable space group: P -1
;
_chemical_formula_sum "Si O2"
_cell_formula_units_Z 14
_cell_length_a 15.581787
_cell_length_b 8.663929
_cell_length_c 11.527238
_cell_angle_alpha 127.153538
_cell_angle_beta 27.173774
_cell_angle_gamma 126.820200
_cell_volume 558.152030
_symmetry_space_group_name_H-M "P -1"
_symmetry_group_IT_number 2
_symmetry_cell_setting 'triclinic'
loop_
_space_group_symop_operation_xyz
x,y,z
-x,-y,-z
loop_
_atom_site_type_symbol
_atom_site_label
_atom_site_fract_x
_atom_site_fract_y
_atom_site_fract_z
Si Si1 0.044936 0.840602 0.708469
Si Si2 0.792939 0.090771 0.897293
Si Si3 0.247260 0.351858 0.205361
Si Si4 0.980955 0.728867 0.991128
Si Si5 0.704905 0.426686 0.310522
Si Si6 0.439100 0.428626 0.236597
Si Si7 0.227890 0.025191 0.380053
O O1 0.943787 0.707883 0.665686
O O2 0.010771 0.726254 0.816979
O O3 0.241017 0.928282 0.445934
O O4 0.969707 0.043397 0.925349
O O5 0.021344 0.104812 0.657611
O O6 0.700342 0.867635 0.941165
O O7 0.783709 0.113795 0.780824
O O8 0.693256 0.246242 0.155279
O O9 0.269760 0.434489 0.346383
O O10 0.382259 0.497221 0.025120
O O11 0.126438 0.608980 0.821750
O O12 0.776896 0.623929 0.239467
O O13 0.546631 0.443989 0.604843
O O14 0.391145 0.207932 0.241343
#
# Coordination Sequence:
#
# PCOD9077817 Si02
#       7
#     2   2   2   2   2   2   2
#     4  10  18  35  52  76 101 139 169 209 246 311
#     4   9  17  29  52  73 101 130 171 203 252 291
#     4   9  19  35  50  77 101 141 170 204 243 323
#     4  10  20  30  54  78 106 127 170 216 259 286
#     4  11  18  34  50  83 102 130 164 227 247 300
#     4  10  19  31  55  75 106 133 172 205 256 295
#     4   9  15  31  51  73  95 139 168 202 240 311
#
# _framework density 25.082774000000001
#
# number of rings (size 3 to 8) (size 9 to 14) (size 15 to 20)
#    0.000    2.286    4.286    1.714    0.000    0.571 
#    0.000    3.571    0.000    0.000    0.000    6.000 
#    0.000    0.000    0.000    0.000    0.000    0.000 
#
# Total GULP energy -78071.143377 kJ/mol
# GULP energy per Si atom -5576.510241 kJ/mol
# Density = 2.502568 g / cm^3
# Si number density = 25.082774 Si / 1000 Ang^3
#
#
#
# Elastic Constant Matrix: (Units=GPa)
#
#
# Indices 1 2 3 4 5 6 
#
# 1 98.0284 25.3635 58.1701 -3.5923 39.5725 -15.8108
# 2 25.3635 111.6659 53.9088 -14.2617 16.4538 -9.6805
# 3 58.1701 53.9088 76.5534 -0.2359 41.9188 -8.0314
# 4 -3.5923 -14.2617 -0.2359 45.2392 -5.8330 24.8128
# 5 39.5725 16.4538 41.9188 -5.8330 52.8528 -9.8549
# 6 -15.8108 -9.6805 -8.0314 24.8128 -9.8549 36.2244
#
#
#
# Elastic Compliance Matrix: (Units=1/GPa)
#
#
# Indices 1 2 3 4 5 6 
#
# 1 0.021310 0.004199 -0.017000 -0.001071 -0.002655 0.006666
# 2 0.004199 0.017096 -0.019430 0.006918 0.007601 -0.000578
# 3 -0.017000 -0.019430 0.052945 -0.009970 -0.024444 -0.000695
# 4 -0.001071 0.006918 -0.009970 0.039214 0.006026 -0.026050
# 5 -0.002655 0.007601 -0.024444 0.006026 0.038953 0.001922
# 6 0.006666 -0.000578 -0.000695 -0.026050 0.001922 0.048573
#
#
# Mechanical properties :
#
#
# Convention : Reuss Voigt Hill
#
# Bulk Modulus (GPa) = 37.19171 62.34804 49.76988
# Shear Modulus (GPa) = 17.15178 36.78362 26.96770
#
# Velocity S-wave (km/s) = 2.61781 3.83363 3.28250
# Velocity P-wave (km/s) = 4.89867 6.67132 5.85250
#
# Compressibility (1/GPa) = 0.02688771
#
# Stress axis : x y z
#
# Youngs Moduli (GPa) = 46.92647 58.49470 18.88770
#
# Poissons Ratio (x) = -0.24561 0.32108
# Poissons Ratio (y) = -0.19704 0.36700
# Poissons Ratio (z) = 0.79773 1.13658
#
# Static dielectric constant tensor:
#      x y z
#    x 2.067970 -0.004610 -0.069670 
#    y -0.004610 2.009300 0.010630 
#    z -0.069670 0.010630 2.033120 
# 
# From -- ./inp_files/268015.got.cif
#   From: 2010.05.17/outbox.cif.g08.bks.cpg/sg2_135_cif.got.tgz:268015.got - 2010.06.03 11:33:40.
