data_PCOD9077704
_publ_section_title
;
Structure prediction by ZEFSAII (Michael W. Deem and Ramdas Pophale) SiO2 
 PCOD9077704
Probable space group: P -1
;
_chemical_formula_sum "Si O2"
_cell_formula_units_Z 15
_cell_length_a 9.423633
_cell_length_b 10.766317
_cell_length_c 12.240159
_cell_angle_alpha 37.615347
_cell_angle_beta 56.565945
_cell_angle_gamma 74.789903
_cell_volume 594.458026
_symmetry_space_group_name_H-M "P -1"
_symmetry_group_IT_number 2
_symmetry_cell_setting 'triclinic'
loop_
_space_group_symop_operation_xyz
x,y,z
-x,-y,-z
loop_
_atom_site_type_symbol
_atom_site_label
_atom_site_fract_x
_atom_site_fract_y
_atom_site_fract_z
Si Si1 0.180013 0.478089 0.175587
Si Si2 0.783872 0.418096 0.145165
Si Si3 0.000000 0.000000 0.500000
Si Si4 0.633077 0.447148 0.725394
Si Si5 0.743783 0.869508 0.907669
Si Si6 0.486231 0.809723 0.429813
Si Si7 0.792478 0.473672 0.420014
Si Si8 0.803701 0.942576 0.070838
O O1 0.296185 0.511951 0.211104
O O2 0.989634 0.509249 0.263768
O O3 0.133403 0.236312 0.318472
O O4 0.271691 0.616050 0.933825
O O5 0.676755 0.200099 0.409568
O O6 0.764062 0.630686 0.061913
O O7 0.000000 0.500000 0.000000
O O8 0.865819 0.990056 0.671795
O O9 0.566618 0.645418 0.575750
O O10 0.782804 0.449429 0.571007
O O11 0.472657 0.215765 0.948898
O O12 0.807619 0.000094 0.902037
O O13 0.365584 0.716573 0.438723
O O14 0.664678 0.992717 0.178993
O O15 0.736065 0.682325 0.274403
O O16 0.000000 0.000000 0.000000
#
# Coordination Sequence:
#
# PCOD9077704 Si02
#       8
#     2   2   1   2   2   2   2   2
#     4  11  23  39  63  88 124 158 206 246 301 366
#     4  10  18  34  63  86 112 155 205 244 290 361
#     4  10  26  38  54  88 122 166 188 246 314 354
#     4  10  20  37  63  93 115 159 205 248 297 371
#     4  10  20  39  56  84 121 161 199 242 306 358
#     4  10  19  36  64  89 119 157 203 244 304 363
#     4  11  19  40  66  91 117 159 206 248 302 359
#     4  11  21  36  63  93 121 155 205 257 303 353
#
# _framework density 25.233070000000001
#
# number of rings (size 3 to 8) (size 9 to 14) (size 15 to 20)
#    0.000    1.600    5.333    1.200    3.733    4.800 
#    0.000    2.000    0.000    5.600    0.000    0.000 
#    0.000    0.000    0.000    0.000    0.000    0.000 
#
# Total GULP energy -83521.614057 kJ/mol
# GULP energy per Si atom -5568.107604 kJ/mol
# Density = 2.517564 g / cm^3
# Si number density = 25.233070 Si / 1000 Ang^3
#
#
#
# Elastic Constant Matrix: (Units=GPa)
#
#
# Indices 1 2 3 4 5 6 
#
# 1 89.8906 36.8362 15.3218 18.9445 4.0181 26.2889
# 2 36.8362 83.4259 41.9600 35.7212 19.7019 29.1684
# 3 15.3218 41.9600 126.0949 59.2190 -6.4525 15.7938
# 4 18.9445 35.7212 59.2190 45.5124 -1.0807 20.2265
# 5 4.0181 19.7019 -6.4525 -1.0807 35.7429 6.5284
# 6 26.2889 29.1684 15.7938 20.2265 6.5284 50.6750
#
#
#
# Elastic Compliance Matrix: (Units=1/GPa)
#
#
# Indices 1 2 3 4 5 6 
#
# 1 0.014712 -0.005522 0.001563 -0.001736 0.002453 -0.004564
# 2 -0.005522 0.026209 -0.000888 -0.015709 -0.013748 -0.003903
# 3 0.001563 -0.000888 0.021874 -0.030454 0.002480 0.004719
# 4 -0.001736 -0.015709 -0.030454 0.081071 0.008365 -0.014002
# 5 0.002453 -0.013748 0.002480 0.008365 0.036375 -0.002157
# 6 -0.004564 -0.003903 0.004719 -0.014002 -0.002157 0.028744
#
#
# Mechanical properties :
#
#
# Convention : Reuss Voigt Hill
#
# Bulk Modulus (GPa) = 18.83195 54.18303 36.50749
# Shear Modulus (GPa) = 21.15240 40.07229 30.61234
#
# Velocity S-wave (km/s) = 2.89845 3.98940 3.48686
# Velocity P-wave (km/s) = 4.32212 6.53759 5.54170
#
# Compressibility (1/GPa) = 0.05310124
#
# Stress axis : x y z
#
# Youngs Moduli (GPa) = 67.97071 38.15453 45.71619
#
# Poissons Ratio (x) = 0.21070 -0.07144
# Poissons Ratio (y) = 0.37535 0.04057
# Poissons Ratio (z) = -0.10621 0.03386
#
# Static dielectric constant tensor:
#      x y z
#    x 2.112910 -0.095700 -0.022070 
#    y -0.095700 2.050740 0.080770 
#    z -0.022070 0.080770 2.123090 
# 
# From -- ./inp_files/237289.got.cif
#   From: 2010.05.17/outbox.cif.g08.bks.cpg/sg2_119_cif.got.tgz:237289.got - 2010.06.03 11:33:40.
