data_PCOD9077916
_publ_section_title
;
Structure prediction by ZEFSAII (Michael W. Deem and Ramdas Pophale) SiO2 
 PCOD9077916
Probable space group: P -1
;
_chemical_formula_sum "Si O2"
_cell_formula_units_Z 14
_cell_length_a 10.726532
_cell_length_b 9.424632
_cell_length_c 14.094805
_cell_angle_alpha 104.823166
_cell_angle_beta 49.267656
_cell_angle_gamma 141.877693
_cell_volume 556.494524
_symmetry_space_group_name_H-M "P -1"
_symmetry_group_IT_number 2
_symmetry_cell_setting 'triclinic'
loop_
_space_group_symop_operation_xyz
x,y,z
-x,-y,-z
loop_
_atom_site_type_symbol
_atom_site_label
_atom_site_fract_x
_atom_site_fract_y
_atom_site_fract_z
Si Si1 0.247189 0.188240 0.532696
Si Si2 0.782204 0.342471 0.821399
Si Si3 0.801166 0.125377 0.373017
Si Si4 0.162857 0.927333 0.172099
Si Si5 0.249565 0.088220 0.833563
Si Si6 0.580523 0.490073 0.238376
Si Si7 0.025563 0.645835 0.935653
O O1 0.500000 0.500000 0.500000
O O2 0.267310 0.041262 0.538825
O O3 0.318770 0.237230 0.394850
O O4 0.931387 0.008536 0.704567
O O5 0.797117 0.177697 0.790749
O O6 0.027442 0.566346 0.821632
O O7 0.909496 0.543414 0.709884
O O8 0.462253 0.149657 0.995133
O O9 0.850366 0.058686 0.243210
O O10 0.500000 0.000000 0.500000
O O11 0.885100 0.710290 0.195023
O O12 0.488370 0.394288 0.737626
O O13 0.000000 0.000000 0.000000
O O14 0.290912 0.970641 0.854862
O O15 0.712028 0.500322 0.085575
O O16 0.000000 0.500000 0.000000
#
# Coordination Sequence:
#
# PCOD9077916 Si02
#       7
#     2   2   2   2   2   2   2
#     4  10  19  32  55  80 108 143 175 221 275 319
#     4  10  22  34  53  84 107 145 176 230 272 315
#     4  11  20  32  53  85 112 133 187 232 266 317
#     4  10  19  36  53  78 113 142 178 219 279 325
#     4   9  19  32  50  79 106 139 177 214 270 319
#     4  10  18  35  56  81 103 144 178 219 267 328
#     4  10  19  33  53  78 107 137 185 222 263 317
#
# _framework density 25.157478999999999
#
# number of rings (size 3 to 8) (size 9 to 14) (size 15 to 20)
#    0.000    2.000    4.286    1.714    2.000    0.571 
#    0.000    0.714    0.000    0.000    0.000   12.000 
#    0.000    0.000    0.000    0.000    0.000    0.000 
#
# Total GULP energy -78043.153331 kJ/mol
# GULP energy per Si atom -5574.510952 kJ/mol
# Density = 2.510022 g / cm^3
# Si number density = 25.157479 Si / 1000 Ang^3
#
#
#
# Elastic Constant Matrix: (Units=GPa)
#
#
# Indices 1 2 3 4 5 6 
#
# 1 88.1262 51.9969 41.1435 -20.6820 17.1739 -46.9716
# 2 51.9969 82.0300 39.7771 -16.1466 -1.3857 -47.0375
# 3 41.1435 39.7771 122.2714 -16.0472 -4.1534 -25.8519
# 4 -20.6820 -16.1466 -16.0472 51.5178 -7.3745 20.4986
# 5 17.1739 -1.3857 -4.1534 -7.3745 49.5055 -5.7074
# 6 -46.9716 -47.0375 -25.8519 20.4986 -5.7074 67.7857
#
#
#
# Elastic Compliance Matrix: (Units=1/GPa)
#
#
# Indices 1 2 3 4 5 6 
#
# 1 0.024702 -0.008860 -0.003721 0.001490 -0.007936 0.008431
# 2 -0.008860 0.025507 -0.002863 -0.000107 0.004789 0.010905
# 3 -0.003721 -0.002863 0.010457 0.001522 0.002217 -0.000851
# 4 0.001490 -0.000107 0.001522 0.022852 0.002416 -0.005168
# 5 -0.007936 0.004789 0.002217 0.002416 0.023624 -0.000072
# 6 0.008431 0.010905 -0.000851 -0.005168 -0.000072 0.029394
#
#
# Mechanical properties :
#
#
# Convention : Reuss Voigt Hill
#
# Bulk Modulus (GPa) = 33.58006 62.02919 47.80462
# Shear Modulus (GPa) = 28.19262 44.39581 36.29421
#
# Velocity S-wave (km/s) = 3.35124 4.20541 3.80238
# Velocity P-wave (km/s) = 5.32459 6.94914 6.19039
#
# Compressibility (1/GPa) = 0.02977958
#
# Stress axis : x y z
#
# Youngs Moduli (GPa) = 40.48180 39.20423 95.62784
#
# Poissons Ratio (x) = 0.34734 0.35586
# Poissons Ratio (y) = 0.35866 0.27375
# Poissons Ratio (z) = 0.15064 0.11223
#
# Static dielectric constant tensor:
#      x y z
#    x 2.109420 0.069120 0.015680 
#    y 0.069120 2.176820 -0.091030 
#    z 0.015680 -0.091030 1.987960 
# 
# From -- ./inp_files/244423.got.cif
#   From: 2010.05.17/outbox.cif.g08.bks.cpg/sg2_123_cif.got.tgz:244423.got - 2010.06.03 11:33:40.
