data_PCOD9077798
_publ_section_title
;
Structure prediction by ZEFSAII (Michael W. Deem and Ramdas Pophale) SiO2 
 PCOD9077798
Probable space group: P -1
;
_chemical_formula_sum "Si O2"
_cell_formula_units_Z 15
_cell_length_a 14.265618
_cell_length_b 9.482032
_cell_length_c 15.517155
_cell_angle_alpha 40.281534
_cell_angle_beta 139.501876
_cell_angle_gamma 153.583767
_cell_volume 581.590618
_symmetry_space_group_name_H-M "P -1"
_symmetry_group_IT_number 2
_symmetry_cell_setting 'triclinic'
loop_
_space_group_symop_operation_xyz
x,y,z
-x,-y,-z
loop_
_atom_site_type_symbol
_atom_site_label
_atom_site_fract_x
_atom_site_fract_y
_atom_site_fract_z
Si Si1 0.617299 0.765285 0.037085
Si Si2 0.883430 0.657853 0.904931
Si Si3 0.414151 0.631424 0.659965
Si Si4 0.548937 0.342222 0.668970
Si Si5 0.091557 0.835310 0.231852
Si Si6 0.582921 0.936363 0.458723
Si Si7 0.717206 0.249639 0.129860
Si Si8 0.000000 0.500000 0.500000
O O1 0.644366 0.640423 0.198487
O O2 0.500000 0.500000 0.000000
O O3 0.454834 0.772291 0.943712
O O4 0.863374 0.116316 0.026680
O O5 0.764167 0.567406 0.772765
O O6 0.877370 0.876250 0.855142
O O7 0.743562 0.313763 0.016698
O O8 0.436322 0.658406 0.559653
O O9 0.663465 0.972073 0.700586
O O10 0.289676 0.704960 0.574521
O O11 0.500000 0.500000 0.500000
O O12 0.540668 0.157990 0.670846
O O13 0.356594 0.061589 0.733685
O O14 0.974624 0.585493 0.345271
O O15 0.948333 0.603211 0.160048
O O16 0.816248 0.090964 0.534512
#
# Coordination Sequence:
#
# PCOD9077798 Si02
#       8
#     2   2   2   2   2   2   2   1
#     4  12  23  42  74 106 144 183 238 302 351 420
#     4  12  26  45  74 108 145 192 235 291 369 430
#     4  10  21  38  70 106 142 174 240 303 345 416
#     4  12  27  48  71 103 147 195 235 291 371 434
#     4  11  20  40  72 106 134 183 236 294 357 411
#     4  10  21  41  66 101 139 182 236 294 354 417
#     4  12  25  46  73 105 144 188 244 295 353 426
#     4  10  18  34  66  98 130 174 236 284 340 408
#
# _framework density 25.791338
#
# number of rings (size 3 to 8) (size 9 to 14) (size 15 to 20)
#    0.000    0.800    4.000    4.800    0.000    0.533 
#    0.000    2.000    0.000    0.000    0.000    0.000 
#    0.000    0.000    0.000    0.000    0.000    0.000 
#
# Total GULP energy -83678.136144 kJ/mol
# GULP energy per Si atom -5578.542410 kJ/mol
# Density = 2.573264 g / cm^3
# Si number density = 25.791338 Si / 1000 Ang^3
#
#
#
# Elastic Constant Matrix: (Units=GPa)
#
#
# Indices 1 2 3 4 5 6 
#
# 1 55.7651 49.9124 34.1461 -8.0212 -20.2864 15.3092
# 2 49.9124 114.7667 35.2730 20.1999 -11.6989 16.5704
# 3 34.1461 35.2730 159.4354 -26.6912 -33.6071 14.5743
# 4 -8.0212 20.1999 -26.6912 59.8184 7.3577 -13.8302
# 5 -20.2864 -11.6989 -33.6071 7.3577 42.6770 -5.5643
# 6 15.3092 16.5704 14.5743 -13.8302 -5.5643 42.1621
#
#
#
# Elastic Compliance Matrix: (Units=1/GPa)
#
#
# Indices 1 2 3 4 5 6 
#
# 1 0.040072 -0.017113 -0.000509 0.008704 0.012038 -0.003205
# 2 -0.017113 0.019061 -0.002714 -0.010463 -0.003800 -0.004273
# 3 -0.000509 -0.002714 0.008757 0.004178 0.005227 0.000285
# 4 0.008704 -0.010463 0.004178 0.024941 0.001284 0.007858
# 5 0.012038 -0.003800 0.005227 0.001284 0.032002 -0.000040
# 6 -0.003205 -0.004273 0.000285 0.007858 -0.000040 0.029035
#
#
# Mechanical properties :
#
#
# Convention : Reuss Voigt Hill
#
# Bulk Modulus (GPa) = 36.73975 63.18114 49.96045
# Shear Modulus (GPa) = 24.55658 42.97388 33.76523
#
# Velocity S-wave (km/s) = 3.08900 4.08636 3.62217
# Velocity P-wave (km/s) = 5.19601 6.84212 6.07508
#
# Compressibility (1/GPa) = 0.02721848
#
# Stress axis : x y z
#
# Youngs Moduli (GPa) = 24.95520 52.46270 114.19835
#
# Poissons Ratio (x) = 0.89780 0.05808
# Poissons Ratio (y) = 0.42706 0.30993
# Poissons Ratio (z) = 0.01269 0.14238
#
# Static dielectric constant tensor:
#      x y z
#    x 3.216680 0.084070 0.387750 
#    y 0.084070 2.412880 0.078840 
#    z 0.387750 0.078840 2.243370 
# 
# From -- ./inp_files/575730.got.cif
#   From: 2010.05.17/outbox.cif.g08.bks.cpg/sg2_288_cif.got.tgz:575730.got - 2010.06.03 11:33:40.
