data_PCOD9077145
_publ_section_title
;
Structure prediction by ZEFSAII (Michael W. Deem and Ramdas Pophale) SiO2 
 PCOD9077145
Probable space group: P -1
;
_chemical_formula_sum "Si O2"
_cell_formula_units_Z 16
_cell_length_a 12.331383
_cell_length_b 11.992514
_cell_length_c 18.267223
_cell_angle_alpha 47.353809
_cell_angle_beta 27.958989
_cell_angle_gamma 63.914171
_cell_volume 827.123825
_symmetry_space_group_name_H-M "P -1"
_symmetry_group_IT_number 2
_symmetry_cell_setting 'triclinic'
loop_
_space_group_symop_operation_xyz
x,y,z
-x,-y,-z
loop_
_atom_site_type_symbol
_atom_site_label
_atom_site_fract_x
_atom_site_fract_y
_atom_site_fract_z
Si Si1 0.667215 0.057601 0.129595
Si Si2 0.385614 0.438582 0.709679
Si Si3 0.424525 0.104128 0.392520
Si Si4 0.738854 0.012805 0.952121
Si Si5 0.690919 0.331008 0.677390
Si Si6 0.864202 0.669648 0.513824
Si Si7 0.911134 0.165746 0.176947
Si Si8 0.746343 0.747466 0.283160
O O1 0.491286 0.099945 0.270102
O O2 0.697592 0.904215 0.219069
O O3 0.579541 0.015862 0.116966
O O4 0.965912 0.202244 0.882885
O O5 0.601223 0.383283 0.632679
O O6 0.535884 0.639142 0.518050
O O7 0.284510 0.357231 0.726746
O O8 0.147572 0.356497 0.944983
O O9 0.320279 0.242211 0.405100
O O10 0.683381 0.149019 0.265988
O O11 0.213236 0.921442 0.632958
O O12 0.903712 0.197324 0.736452
O O13 0.949057 0.948658 0.881833
O O14 0.541853 0.860088 0.085183
O O15 0.719394 0.480841 0.649873
O O16 0.969990 0.334161 0.512997
#
# Coordination Sequence:
#
# PCOD9077145 Si02
#       8
#     2   2   2   2   2   2   2   2
#     4  11  18  34  56  88 116 147 178 228 289 350
#     4  10  18  34  56  85 109 138 192 240 262 323
#     4  10  20  33  55  84 118 151 177 224 295 344
#     4  10  19  36  62  84 107 145 196 234 272 332
#     4  10  20  38  59  80 105 145 207 236 263 323
#     4  10  22  38  59  78 108 156 190 237 276 326
#     4   9  17  34  53  81 117 147 181 222 277 339
#     4  10  19  30  58  85 113 144 182 225 287 331
#
# _framework density 19.344139999999999
#
# number of rings (size 3 to 8) (size 9 to 14) (size 15 to 20)
#    0.000    2.000    3.750    1.875    0.000    2.000 
#    0.000    7.500    0.000    6.750    0.000    0.000 
#    0.000    0.000    0.000    0.000    0.000    0.000 
#
# Total GULP energy -89153.928683 kJ/mol
# GULP energy per Si atom -5572.120543 kJ/mol
# Density = 1.930011 g / cm^3
# Si number density = 19.344140 Si / 1000 Ang^3
#
#
#
# Elastic Constant Matrix: (Units=GPa)
#
#
# Indices 1 2 3 4 5 6 
#
# 1 51.0318 22.3206 34.4177 0.9659 -11.1273 -1.2091
# 2 22.3206 71.9477 40.9176 5.6076 -3.3599 5.1656
# 3 34.4177 40.9176 118.7253 -11.9732 3.5569 7.8106
# 4 0.9659 5.6076 -11.9732 26.8541 -0.1444 0.6458
# 5 -11.1273 -3.3599 3.5569 -0.1444 23.6519 2.0131
# 6 -1.2091 5.1656 7.8106 0.6458 2.0131 22.4614
#
#
#
# Elastic Compliance Matrix: (Units=1/GPa)
#
#
# Indices 1 2 3 4 5 6 
#
# 1 0.030514 -0.003831 -0.008675 -0.004191 0.014721 0.004341
# 2 -0.003831 0.019353 -0.006116 -0.006559 0.002042 -0.002525
# 3 -0.008675 -0.006116 0.014296 0.008015 -0.006740 -0.003658
# 4 -0.004191 -0.006559 0.008015 0.042370 -0.003646 -0.002396
# 5 0.014721 0.002042 -0.006740 -0.003646 0.050637 -0.001767
# 6 0.004341 -0.002525 -0.003658 -0.002396 -0.001767 0.046834
#
#
# Mechanical properties :
#
#
# Convention : Reuss Voigt Hill
#
# Bulk Modulus (GPa) = 37.14624 48.55739 42.85181
# Shear Modulus (GPa) = 19.98229 24.19673 22.08951
#
# Velocity S-wave (km/s) = 3.21750 3.54058 3.38290
# Velocity P-wave (km/s) = 5.74871 6.47075 6.12039
#
# Compressibility (1/GPa) = 0.02692063
#
# Stress axis : x y z
#
# Youngs Moduli (GPa) = 32.77226 51.67046 69.94821
#
# Poissons Ratio (x) = 0.19792 0.60679
# Poissons Ratio (y) = 0.12553 0.42781
# Poissons Ratio (z) = 0.28429 0.31602
#
# Static dielectric constant tensor:
#      x y z
#    x 1.691160 0.005740 0.002570 
#    y 0.005740 1.688560 -0.036800 
#    z 0.002570 -0.036800 1.734280 
# 
# From -- ./inp_files/353666.got.cif
#   From: 2010.05.17/outbox.cif.g08.bks.cpg/sg2_177_cif.got.tgz:353666.got - 2010.06.03 11:33:40.
