data_PCOD9077291
_publ_section_title
;
Structure prediction by ZEFSAII (Michael W. Deem and Ramdas Pophale) SiO2 
 PCOD9077291
Probable space group: P -1
;
_chemical_formula_sum "Si O2"
_cell_formula_units_Z 14
_cell_length_a 20.050394
_cell_length_b 9.334733
_cell_length_c 11.394219
_cell_angle_alpha 116.149779
_cell_angle_beta 139.205733
_cell_angle_gamma 32.821229
_cell_volume 629.710462
_symmetry_space_group_name_H-M "P -1"
_symmetry_group_IT_number 2
_symmetry_cell_setting 'triclinic'
loop_
_space_group_symop_operation_xyz
x,y,z
-x,-y,-z
loop_
_atom_site_type_symbol
_atom_site_label
_atom_site_fract_x
_atom_site_fract_y
_atom_site_fract_z
Si Si1 0.342472 0.575974 0.361520
Si Si2 0.956103 0.060324 0.317234
Si Si3 0.302796 0.867232 0.906325
Si Si4 0.696381 0.686240 0.312834
Si Si5 0.602731 0.631786 0.382221
Si Si6 0.261199 0.190385 0.803220
Si Si7 0.102021 0.708677 0.910876
O O1 0.500000 0.500000 0.500000
O O2 0.407986 0.394712 0.503365
O O3 0.279000 0.518662 0.167612
O O4 0.125842 0.961069 0.226258
O O5 0.865120 0.016832 0.220331
O O6 0.852770 0.338340 0.355088
O O7 0.881165 0.184337 0.130478
O O8 0.198368 0.741122 0.522192
O O9 0.216130 0.080036 0.756978
O O10 0.500000 0.500000 0.000000
O O11 0.395568 0.857794 0.126134
O O12 0.659647 0.718790 0.416039
O O13 0.750735 0.769845 0.338764
O O14 0.489966 0.909933 0.053236
O O15 0.135121 0.495807 0.814012
#
# Coordination Sequence:
#
# PCOD9077291 Si02
#       7
#     2   2   2   2   2   2   2
#     4  10  20  38  61  84 108 143 199 236 273 330
#     4  10  18  34  58  80 114 150 185 220 274 339
#     4  11  20  33  55  84 114 154 182 218 273 333
#     4   9  17  32  53  79 116 149 171 223 277 330
#     4  10  20  33  57  82 110 145 190 231 271 333
#     4   9  18  34  54  84 118 144 183 224 278 336
#     4   9  20  37  61  82 110 153 180 231 289 321
#
# _framework density 22.232441000000001
#
# number of rings (size 3 to 8) (size 9 to 14) (size 15 to 20)
#    0.000    2.286    2.857    1.286    0.000    0.000 
#    0.000    6.429    0.000   18.000    0.000    0.000 
#    0.000    0.000    0.000    0.000    0.000    0.000 
#
# Total GULP energy -77997.921498 kJ/mol
# GULP energy per Si atom -5571.280107 kJ/mol
# Density = 2.218184 g / cm^3
# Si number density = 22.232441 Si / 1000 Ang^3
#
#
#
# Elastic Constant Matrix: (Units=GPa)
#
#
# Indices 1 2 3 4 5 6 
#
# 1 223.1663 31.5210 68.3142 13.1935 -25.9322 20.3109
# 2 31.5210 32.3964 5.5497 -6.8749 8.5503 9.0282
# 3 68.3142 5.5497 108.9913 1.6244 -7.7105 -2.9048
# 4 13.1935 -6.8749 1.6244 18.9894 -2.5131 -3.1924
# 5 -25.9322 8.5503 -7.7105 -2.5131 44.9014 -3.4194
# 6 20.3109 9.0282 -2.9048 -3.1924 -3.4194 30.1143
#
#
#
# Elastic Compliance Matrix: (Units=1/GPa)
#
#
# Indices 1 2 3 4 5 6 
#
# 1 0.008865 -0.010229 -0.004609 -0.009372 0.005468 -0.003730
# 2 -0.010229 0.051088 0.002248 0.022220 -0.014577 -0.007500
# 3 -0.004609 0.002248 0.011962 0.003578 -0.000538 0.003907
# 4 -0.009372 0.022220 0.003578 0.067393 -0.004754 0.006609
# 5 0.005468 -0.014577 -0.000538 -0.004754 0.028099 0.003317
# 6 -0.003730 -0.007500 0.003907 0.006609 0.003317 0.039425
#
#
# Mechanical properties :
#
#
# Convention : Reuss Voigt Hill
#
# Bulk Modulus (GPa) = 21.39705 63.92487 42.66096
# Shear Modulus (GPa) = 20.19459 36.07898 28.13678
#
# Velocity S-wave (km/s) = 3.01714 4.03278 3.56135
# Velocity P-wave (km/s) = 4.66719 7.10632 6.01176
#
# Compressibility (1/GPa) = 0.04673541
#
# Stress axis : x y z
#
# Youngs Moduli (GPa) = 112.79688 19.57407 83.59745
#
# Poissons Ratio (x) = 0.20022 0.38529
# Poissons Ratio (y) = 1.15379 -0.18790
# Poissons Ratio (z) = 0.51986 -0.04400
#
# Static dielectric constant tensor:
#      x y z
#    x 1.926350 0.006380 -0.025380 
#    y 0.006380 1.833280 0.001230 
#    z -0.025380 0.001230 1.874780 
# 
# From -- ./inp_files/225273.got.cif
#   From: 2010.05.17/outbox.cif.g08.bks.cpg/sg2_113_cif.got.tgz:225273.got - 2010.06.03 11:33:40.
