data_PCOD9077082
_publ_section_title
;
Structure prediction by ZEFSAII (Michael W. Deem and Ramdas Pophale) SiO2 
 PCOD9077082
Probable space group: P -1
;
_chemical_formula_sum "Si O2"
_cell_formula_units_Z 16
_cell_length_a 11.295052
_cell_length_b 14.606928
_cell_length_c 13.072906
_cell_angle_alpha 135.627571
_cell_angle_beta 57.192237
_cell_angle_gamma 147.685200
_cell_volume 795.038006
_symmetry_space_group_name_H-M "P -1"
_symmetry_group_IT_number 2
_symmetry_cell_setting 'triclinic'
loop_
_space_group_symop_operation_xyz
x,y,z
-x,-y,-z
loop_
_atom_site_type_symbol
_atom_site_label
_atom_site_fract_x
_atom_site_fract_y
_atom_site_fract_z
Si Si1 0.689965 0.526148 0.419516
Si Si2 0.091053 0.181536 0.266784
Si Si3 0.154741 0.224905 0.651486
Si Si4 0.315797 0.728556 0.099096
Si Si5 0.900979 0.236386 0.908275
Si Si6 0.398630 0.145647 0.131188
Si Si7 0.568224 0.756007 0.152229
Si Si8 0.590820 0.518390 0.809178
O O1 0.500000 0.500000 0.500000
O O2 0.846747 0.666130 0.554444
O O3 0.814640 0.649803 0.354179
O O4 0.555837 0.296547 0.275342
O O5 0.237788 0.154919 0.194138
O O6 0.173239 0.295365 0.209789
O O7 0.830594 0.959061 0.215109
O O8 0.400097 0.362244 0.686763
O O9 0.030046 0.199702 0.784894
O O10 0.000000 0.000000 0.500000
O O11 0.243910 0.818056 0.163896
O O12 0.473775 0.817924 0.192997
O O13 0.446366 0.764079 0.967751
O O14 0.088987 0.482866 0.033766
O O15 0.747588 0.086079 0.955233
O O16 0.434059 0.613256 0.201142
O O17 0.542440 0.618661 0.972661
#
# Coordination Sequence:
#
# PCOD9077082 Si02
#       8
#     2   2   2   2   2   2   2   2
#     4  10  18  34  55  86 120 139 183 244 289 340
#     4  11  21  34  58  88 119 151 182 244 295 339
#     4  12  20  37  61  92 117 146 190 247 295 338
#     4  11  23  41  56  84 123 150 199 235 278 359
#     4  11  23  37  61  87 113 157 190 237 298 335
#     4  11  20  37  59  89 114 148 192 245 293 339
#     4  11  22  36  54  82 120 157 190 233 285 348
#     4  11  21  35  55  86 118 148 189 237 289 341
#
# _framework density 20.124825999999999
#
# number of rings (size 3 to 8) (size 9 to 14) (size 15 to 20)
#    0.000    1.000    6.250    3.750    1.750    0.000 
#    0.000    0.000    0.000    3.750    0.000    0.000 
#    0.000    0.000    0.000    0.000    0.000    0.000 
#
# Total GULP energy -89331.100984 kJ/mol
# GULP energy per Si atom -5583.193811 kJ/mol
# Density = 2.007902 g / cm^3
# Si number density = 20.124826 Si / 1000 Ang^3
#
#
#
# Elastic Constant Matrix: (Units=GPa)
#
#
# Indices 1 2 3 4 5 6 
#
# 1 50.1697 22.1624 -2.9400 1.2146 11.3268 -3.9800
# 2 22.1624 123.2953 19.1324 0.2874 7.6796 -26.0030
# 3 -2.9400 19.1324 33.9513 5.5981 15.3888 -4.2392
# 4 1.2146 0.2874 5.5981 30.4963 -1.9202 9.6249
# 5 11.3268 7.6796 15.3888 -1.9202 17.9588 -3.3710
# 6 -3.9800 -26.0030 -4.2392 9.6249 -3.3710 27.5116
#
#
#
# Elastic Compliance Matrix: (Units=1/GPa)
#
#
# Indices 1 2 3 4 5 6 
#
# 1 0.036083 -0.008347 0.030418 -0.009785 -0.046345 -0.000237
# 2 -0.008347 0.013018 -0.012186 -0.000189 0.012141 0.010773
# 3 0.030418 -0.012186 0.082077 -0.022484 -0.086176 0.002837
# 4 -0.009785 -0.000189 -0.022484 0.044473 0.027026 -0.017306
# 5 -0.046345 0.012141 -0.086176 0.027026 0.156686 0.001236
# 6 -0.000237 0.010773 0.002837 -0.017306 0.001236 0.053139
#
#
# Mechanical properties :
#
#
# Convention : Reuss Voigt Hill
#
# Bulk Modulus (GPa) = 6.62473 31.56955 19.09714
# Shear Modulus (GPa) = 12.01860 26.46412 19.24136
#
# Velocity S-wave (km/s) = 2.44642 3.63023 3.09544
# Velocity P-wave (km/s) = 3.35842 5.76995 4.72077
#
# Compressibility (1/GPa) = 0.15094955
#
# Stress axis : x y z
#
# Youngs Moduli (GPa) = 27.71365 76.81632 12.18372
#
# Poissons Ratio (x) = 0.64117 -0.37061
# Poissons Ratio (y) = 0.23132 0.14847
# Poissons Ratio (z) = -0.84300 0.93606
#
# Static dielectric constant tensor:
#      x y z
#    x 1.753610 0.012540 0.001290 
#    y 0.012540 1.772920 -0.014320 
#    z 0.001290 -0.014320 1.724670 
# 
# From -- ./inp_files/425234.got.cif
#   From: 2010.05.17/outbox.cif.g08.bks.cpg/sg2_213_cif.got.tgz:425234.got - 2010.06.03 11:33:40.
