data_PCOD9077658
_publ_section_title
;
Structure prediction by ZEFSAII (Michael W. Deem and Ramdas Pophale) SiO2 
 PCOD9077658
Probable space group: P -1
;
_chemical_formula_sum "Si O2"
_cell_formula_units_Z 16
_cell_length_a 14.874488
_cell_length_b 7.391927
_cell_length_c 9.452004
_cell_angle_alpha 130.285821
_cell_angle_beta 75.693601
_cell_angle_gamma 78.300785
_cell_volume 669.438638
_symmetry_space_group_name_H-M "P -1"
_symmetry_group_IT_number 2
_symmetry_cell_setting 'triclinic'
loop_
_space_group_symop_operation_xyz
x,y,z
-x,-y,-z
loop_
_atom_site_type_symbol
_atom_site_label
_atom_site_fract_x
_atom_site_fract_y
_atom_site_fract_z
Si Si1 0.408022 0.270200 0.602838
Si Si2 0.274385 0.249926 0.890391
Si Si3 0.691229 0.892466 0.696050
Si Si4 0.120899 0.010691 0.094532
Si Si5 0.366355 0.851894 0.880529
Si Si6 0.895253 0.749431 0.233392
Si Si7 0.892366 0.405089 0.318127
Si Si8 0.170939 0.832989 0.302190
O O1 0.365574 0.190299 0.442036
O O2 0.423717 0.527257 0.693515
O O3 0.500000 0.000000 0.500000
O O4 0.317311 0.363056 0.805557
O O5 0.209936 0.516240 0.146223
O O6 0.196957 0.155216 0.799298
O O7 0.368033 0.004094 0.815480
O O8 0.795938 0.607442 0.557238
O O9 0.732423 0.095366 0.720150
O O10 0.610588 0.038522 0.929376
O O11 0.116115 0.913067 0.207762
O O12 0.238251 0.969275 0.009951
O O13 0.114623 0.842163 0.876501
O O14 0.012168 0.295429 0.267794
O O15 0.870237 0.599413 0.291980
O O16 0.894712 0.993803 0.447144
O O17 0.000000 0.500000 0.000000
#
# Coordination Sequence:
#
# PCOD9077658 Si02
#       8
#     2   2   2   2   2   2   2   2
#     4  12  25  48  74  95 128 171 217 280 339 386
#     4  12  23  45  64  98 136 168 218 276 322 395
#     4  10  20  43  66  94 127 172 221 263 331 389
#     4  10  18  36  61  90 125 174 220 260 316 386
#     4  11  24  41  69  97 131 168 218 266 333 388
#     4  11  22  36  58  94 136 177 221 263 321 381
#     4  10  18  34  62  86 129 178 216 259 319 383
#     4  10  20  39  64  85 135 181 211 268 326 379
#
# _framework density 23.90062
#
# number of rings (size 3 to 8) (size 9 to 14) (size 15 to 20)
#    0.000    1.250    7.500    0.750    0.000    8.000 
#    4.500    0.625    0.000    0.000    0.000    0.000 
#    0.000    0.000    0.000    0.000    0.000    0.000 
#
# Total GULP energy -89321.563106 kJ/mol
# GULP energy per Si atom -5582.597694 kJ/mol
# Density = 2.384622 g / cm^3
# Si number density = 23.900620 Si / 1000 Ang^3
#
#
#
# Elastic Constant Matrix: (Units=GPa)
#
#
# Indices 1 2 3 4 5 6 
#
# 1 1.2413 -9.2642 27.1857 10.0195 -9.3225 1.6689
# 2 -9.2642 106.6528 39.2671 15.5806 0.3777 1.6137
# 3 27.1857 39.2671 127.8285 2.8419 24.2581 -5.8360
# 4 10.0195 15.5806 2.8419 28.6600 1.5318 -11.1760
# 5 -9.3225 0.3777 24.2581 1.5318 13.0550 8.4891
# 6 1.6689 1.6137 -5.8360 -11.1760 8.4891 24.2254
#
#
#
# Elastic Compliance Matrix: (Units=1/GPa)
#
#
# Indices 1 2 3 4 5 6 
#
# 1 -0.003092 -0.007311 0.011940 0.016439 -0.043217 0.026304
# 2 -0.007311 0.008623 0.000589 -0.000745 -0.008161 0.002587
# 3 0.011940 0.000589 0.004147 -0.007010 0.004714 -0.004748
# 4 0.016439 -0.000745 -0.007010 0.031530 0.017393 0.005680
# 5 -0.043217 -0.008161 0.004714 0.017393 0.034876 0.000459
# 6 0.026304 0.002587 -0.004748 0.005680 0.000459 0.040610
#
#
# Mechanical properties :
#
#
# Convention : Reuss Voigt Hill
#
# Bulk Modulus (GPa) = 49.71528 38.90001 44.30764
# Shear Modulus (GPa) = 44.26284 25.09034 34.67659
#
# Velocity S-wave (km/s) = 4.30810 3.24354 3.81316
# Velocity P-wave (km/s) = 6.75221 5.50804 6.16161
#
# Compressibility (1/GPa) = 0.02011454
#
# Stress axis : x y z
#
# Youngs Moduli (GPa) = -323.38364 115.97312 241.13650
#
# Poissons Ratio (x) = 0.84791 -2.87924
# Poissons Ratio (y) = -2.36433 -0.14215
# Poissons Ratio (z) = 3.86130 -0.06836
#
# Static dielectric constant tensor:
#      x y z
#    x 1.971080 0.014740 -0.056290 
#    y 0.014740 1.936740 -0.010760 
#    z -0.056290 -0.010760 2.075400 
# 
# From -- ./inp_files/329588.got.cif
#   From: 2010.05.17/outbox.cif.g08.bks.cpg/sg2_165_cif.got.tgz:329588.got - 2010.06.03 11:33:40.
