data_PCOD9077816
_publ_section_title
;
Structure prediction by ZEFSAII (Michael W. Deem and Ramdas Pophale) SiO2 
 PCOD9077816
Probable space group: P -1
;
_chemical_formula_sum "Si O2"
_cell_formula_units_Z 16
_cell_length_a 15.084180
_cell_length_b 8.445583
_cell_length_c 9.900438
_cell_angle_alpha 121.256091
_cell_angle_beta 140.670881
_cell_angle_gamma 62.605991
_cell_volume 679.304522
_symmetry_space_group_name_H-M "P -1"
_symmetry_group_IT_number 2
_symmetry_cell_setting 'triclinic'
loop_
_space_group_symop_operation_xyz
x,y,z
-x,-y,-z
loop_
_atom_site_type_symbol
_atom_site_label
_atom_site_fract_x
_atom_site_fract_y
_atom_site_fract_z
Si Si1 0.944166 0.713460 0.274979
Si Si2 0.584859 0.134014 0.325574
Si Si3 0.040728 0.272925 0.235661
Si Si4 0.249137 0.779468 0.666441
Si Si5 0.897161 0.958613 0.056245
Si Si6 0.347582 0.373341 0.686629
Si Si7 0.593672 0.069669 0.822714
Si Si8 0.650613 0.737123 0.084338
O O1 0.804560 0.753254 0.216682
O O2 0.978728 0.487868 0.229939
O O3 0.087334 0.794369 0.523913
O O4 0.914222 0.818235 0.142676
O O5 0.729902 0.185720 0.454550
O O6 0.510838 0.093672 0.360855
O O7 0.599254 0.925640 0.187774
O O8 0.463314 0.270268 0.169615
O O9 0.035079 0.164173 0.041014
O O10 0.205647 0.271849 0.463659
O O11 0.965923 0.155014 0.208678
O O12 0.313556 0.567782 0.661811
O O13 0.330857 0.892433 0.924341
O O14 0.728982 0.014383 0.866512
O O15 0.485668 0.249473 0.743545
O O16 0.356175 0.414882 0.875593
#
# Coordination Sequence:
#
# PCOD9077816 Si02
#       8
#     2   2   2   2   2   2   2   2
#     4  11  24  38  65  90 121 155 197 250 294 361
#     4  10  18  35  51  87 125 151 192 225 297 368
#     4  10  26  44  60  88 117 159 210 245 288 347
#     4  11  21  34  57  95 123 154 187 237 316 356
#     4  11  24  44  65  82 117 165 204 247 292 341
#     4  10  23  37  59  88 129 149 189 254 291 360
#     4  11  21  36  60  88 118 160 192 242 297 359
#     4  10  19  35  55  88 122 153 181 245 297 353
#
# _framework density 23.553501000000001
#
# number of rings (size 3 to 8) (size 9 to 14) (size 15 to 20)
#    0.000    1.500    5.000    0.750    7.000    2.500 
#    0.000    0.000    0.000    1.500    0.000    0.000 
#    0.000    0.000    0.000    0.000    0.000    0.000 
#
# Total GULP energy -89149.069056 kJ/mol
# GULP energy per Si atom -5571.816816 kJ/mol
# Density = 2.349989 g / cm^3
# Si number density = 23.553501 Si / 1000 Ang^3
#
#
#
# Elastic Constant Matrix: (Units=GPa)
#
#
# Indices 1 2 3 4 5 6 
#
# 1 105.3360 35.5369 30.5571 1.2035 39.1516 4.2939
# 2 35.5369 105.5434 29.7557 -11.0404 12.4036 12.1963
# 3 30.5571 29.7557 52.1372 -11.0293 22.1566 -10.0565
# 4 1.2035 -11.0404 -11.0293 26.9731 0.1730 16.1778
# 5 39.1516 12.4036 22.1566 0.1730 37.2625 -8.6645
# 6 4.2939 12.1963 -10.0565 16.1778 -8.6645 30.3928
#
#
#
# Elastic Compliance Matrix: (Units=1/GPa)
#
#
# Indices 1 2 3 4 5 6 
#
# 1 0.018598 -0.001454 -0.002851 0.004009 -0.019889 -0.010791
# 2 -0.001454 0.015684 -0.006930 0.013661 -0.003507 -0.016653
# 3 -0.002851 -0.006930 0.032966 0.006723 -0.012730 0.006884
# 4 0.004009 0.013661 0.006723 0.076365 -0.025118 -0.051633
# 5 -0.019889 -0.003507 -0.012730 -0.025118 0.063935 0.031602
# 6 -0.010791 -0.016653 0.006884 -0.051633 0.031602 0.079881
#
#
# Mechanical properties :
#
#
# Convention : Reuss Voigt Hill
#
# Bulk Modulus (GPa) = 22.33332 50.52401 36.42867
# Shear Modulus (GPa) = 15.39281 30.07016 22.73148
#
# Velocity S-wave (km/s) = 2.55919 3.57693 3.10998
# Velocity P-wave (km/s) = 4.27026 6.20940 5.32878
#
# Compressibility (1/GPa) = 0.04477614
#
# Stress axis : x y z
#
# Youngs Moduli (GPa) = 53.77037 63.75916 30.33399
#
# Poissons Ratio (x) = 0.09273 0.08649
# Poissons Ratio (y) = 0.07820 0.21023
# Poissons Ratio (z) = 0.15331 0.44187
#
# Static dielectric constant tensor:
#      x y z
#    x 1.955210 0.093060 -0.022580 
#    y 0.093060 1.941880 0.004030 
#    z -0.022580 0.004030 1.972650 
# 
# From -- ./inp_files/446241.got.cif
#   From: 2010.05.17/outbox.cif.g08.bks.cpg/sg2_224_cif.got.tgz:446241.got - 2010.06.03 11:33:40.
