data_PCOD9077948
_publ_section_title
;
Structure prediction by ZEFSAII (Michael W. Deem and Ramdas Pophale) SiO2 
 PCOD9077948
Probable space group: P -1
;
_chemical_formula_sum "Si O2"
_cell_formula_units_Z 16
_cell_length_a 26.294983
_cell_length_b 8.522358
_cell_length_c 17.106212
_cell_angle_alpha 34.928296
_cell_angle_beta 19.278577
_cell_angle_gamma 37.463053
_cell_volume 720.641088
_symmetry_space_group_name_H-M "P -1"
_symmetry_group_IT_number 2
_symmetry_cell_setting 'triclinic'
loop_
_space_group_symop_operation_xyz
x,y,z
-x,-y,-z
loop_
_atom_site_type_symbol
_atom_site_label
_atom_site_fract_x
_atom_site_fract_y
_atom_site_fract_z
Si Si1 0.877696 0.863848 0.289245
Si Si2 0.813598 0.774894 0.172217
Si Si3 0.058930 0.784717 0.698761
Si Si4 0.594703 0.185608 0.841257
Si Si5 0.597883 0.898646 0.111831
Si Si6 0.110971 0.383889 0.136296
Si Si7 0.308354 0.609587 0.622190
Si Si8 0.602906 0.811047 0.590772
O O1 0.735144 0.773799 0.481547
O O2 0.983369 0.598192 0.275072
O O3 0.794464 0.101479 0.367771
O O4 0.000000 0.000000 0.000000
O O5 0.723549 0.614311 0.303562
O O6 0.690509 0.943164 0.338108
O O7 0.903637 0.536091 0.194329
O O8 0.938959 0.918987 0.882264
O O9 0.978282 0.772311 0.736763
O O10 0.224332 0.890551 0.408893
O O11 0.562048 0.513898 0.743020
O O12 0.500000 0.000000 0.000000
O O13 0.565495 0.123922 0.999326
O O14 0.485038 0.665842 0.350986
O O15 0.540750 0.015650 0.231364
O O16 0.778581 0.801513 0.891357
O O17 0.235427 0.533808 0.841981
#
# Coordination Sequence:
#
# PCOD9077948 Si02
#       8
#     2   2   2   2   2   2   2   2
#     4   9  17  32  56  86 115 142 192 241 283 341
#     4   9  16  33  62  79 113 147 198 245 279 324
#     4   9  18  32  56  83 108 146 196 235 286 332
#     4  11  22  39  61  81 112 160 204 235 286 355
#     4  11  22  34  59  86 122 156 186 239 299 347
#     4  10  18  35  56  87 121 147 191 248 297 339
#     4   9  19  33  57  87 114 154 195 239 285 348
#     4  10  20  38  57  88 114 149 206 237 279 354
#
# _framework density 22.202453999999999
#
# number of rings (size 3 to 8) (size 9 to 14) (size 15 to 20)
#    0.000    2.250    2.500    2.250    1.750    0.500 
#    0.000    2.500    5.500    0.750    0.000    0.000 
#    0.000    0.000    0.000    0.000    0.000    0.000 
#
# Total GULP energy -89338.927545 kJ/mol
# GULP energy per Si atom -5583.682972 kJ/mol
# Density = 2.215192 g / cm^3
# Si number density = 22.202454 Si / 1000 Ang^3
#
#
#
# Elastic Constant Matrix: (Units=GPa)
#
#
# Indices 1 2 3 4 5 6 
#
# 1 54.1745 15.4991 25.8961 4.3224 -10.4927 11.6334
# 2 15.4991 46.1414 19.6620 18.8165 -8.6566 7.3506
# 3 25.8961 19.6620 111.6395 2.4576 -16.7862 13.9649
# 4 4.3224 18.8165 2.4576 27.7274 7.9251 -3.4183
# 5 -10.4927 -8.6566 -16.7862 7.9251 45.7856 5.0085
# 6 11.6334 7.3506 13.9649 -3.4183 5.0085 22.9391
#
#
#
# Elastic Compliance Matrix: (Units=1/GPa)
#
#
# Indices 1 2 3 4 5 6 
#
# 1 0.024751 -0.001135 -0.002717 -0.006455 0.007004 -0.013026
# 2 -0.001135 0.044469 -0.001543 -0.037255 0.016423 -0.021872
# 3 -0.002717 -0.001543 0.011280 -0.001468 0.004145 -0.006119
# 4 -0.006455 -0.037255 -0.001468 0.073768 -0.025401 0.032644
# 5 0.007004 0.016423 0.004145 -0.025401 0.034957 -0.022755
# 6 -0.013026 -0.021872 -0.006119 0.032644 -0.022755 0.070766
#
#
# Mechanical properties :
#
#
# Convention : Reuss Voigt Hill
#
# Bulk Modulus (GPa) = 14.34499 37.11887 25.73193
# Shear Modulus (GPa) = 17.00578 29.35031 23.17804
#
# Velocity S-wave (km/s) = 2.77057 3.63979 3.23451
# Velocity P-wave (km/s) = 4.08776 5.86675 5.05611
#
# Compressibility (1/GPa) = 0.06971077
#
# Stress axis : x y z
#
# Youngs Moduli (GPa) = 40.40251 22.48748 88.65030
#
# Poissons Ratio (x) = 0.02552 0.24085
# Poissons Ratio (y) = 0.04585 0.13681
# Poissons Ratio (z) = 0.10977 0.03470
#
# Static dielectric constant tensor:
#      x y z
#    x 1.843060 -0.006830 0.010870 
#    y -0.006830 1.869380 0.013480 
#    z 0.010870 0.013480 1.837340 
# 
# From -- ./inp_files/579593.got.cif
#   From: 2010.05.17/outbox.cif.g08.bks.cpg/sg2_290_cif.got.tgz:579593.got - 2010.06.03 11:33:40.
