data_PCOD9077547
_publ_section_title
;
Structure prediction by ZEFSAII (Michael W. Deem and Ramdas Pophale) SiO2 
 PCOD9077547
Probable space group: P -1
;
_chemical_formula_sum "Si O2"
_cell_formula_units_Z 14
_cell_length_a 4.905072
_cell_length_b 9.364983
_cell_length_c 18.532497
_cell_angle_alpha 109.552301
_cell_angle_beta 79.244832
_cell_angle_gamma 122.426033
_cell_volume 677.112055
_symmetry_space_group_name_H-M "P -1"
_symmetry_group_IT_number 2
_symmetry_cell_setting 'triclinic'
loop_
_space_group_symop_operation_xyz
x,y,z
-x,-y,-z
loop_
_atom_site_type_symbol
_atom_site_label
_atom_site_fract_x
_atom_site_fract_y
_atom_site_fract_z
Si Si1 0.246941 0.849185 0.179370
Si Si2 0.536114 0.466742 0.648618
Si Si3 0.485387 0.649322 0.207312
Si Si4 0.875398 0.271544 0.564402
Si Si5 0.283967 0.571039 0.055005
Si Si6 0.739022 0.067737 0.392931
Si Si7 0.637358 0.850848 0.690746
O O1 0.371411 0.792614 0.234664
O O2 0.383451 0.776543 0.097804
O O3 0.857209 0.737598 0.177677
O O4 0.370757 0.052940 0.219221
O O5 0.547876 0.430275 0.726573
O O6 0.790422 0.425608 0.591222
O O7 0.594808 0.661134 0.670676
O O8 0.190949 0.336086 0.607686
O O9 0.254166 0.518846 0.132924
O O10 0.909014 0.203665 0.473503
O O11 0.564370 0.105678 0.588241
O O12 0.500000 0.500000 0.000000
O O13 0.000000 0.500000 0.000000
O O14 0.613838 0.151090 0.353849
O O15 0.002500 0.029527 0.339160
#
# Coordination Sequence:
#
# PCOD9077547 Si02
#       7
#     2   2   2   2   2   2   2
#     4  10  20  35  60  85 113 153 188 242 277 351
#     4  12  24  38  59  88 122 156 198 244 296 351
#     4  10  20  35  60  85 113 153 188 242 277 351
#     4  11  24  41  61  83 115 159 206 252 294 340
#     4  10  18  34  60  92 111 140 193 242 278 334
#     4  11  24  41  61  83 115 159 206 252 294 340
#     4  12  24  38  59  88 122 156 198 244 296 351
#
# _framework density 20.676045999999999
#
# number of rings (size 3 to 8) (size 9 to 14) (size 15 to 20)
#    0.857    0.286    1.429    6.857    0.000    5.714 
#    0.000    0.000    0.000    1.714    0.000    0.000 
#    0.000    0.000    0.000    0.000    0.000    0.000 
#
# Total GULP energy -78086.324399 kJ/mol
# GULP energy per Si atom -5577.594600 kJ/mol
# Density = 2.062899 g / cm^3
# Si number density = 20.676046 Si / 1000 Ang^3
#
#
#
# Elastic Constant Matrix: (Units=GPa)
#
#
# Indices 1 2 3 4 5 6 
#
# 1 128.4932 9.0543 35.1431 7.7810 19.1497 -16.4688
# 2 9.0543 62.4804 29.6500 15.9305 8.8907 -19.4467
# 3 35.1431 29.6500 130.7085 34.8549 16.1496 -11.2759
# 4 7.7810 15.9305 34.8549 20.2887 -6.6600 -7.9736
# 5 19.1497 8.8907 16.1496 -6.6600 39.7955 7.8645
# 6 -16.4688 -19.4467 -11.2759 -7.9736 7.8645 29.3223
#
#
#
# Elastic Compliance Matrix: (Units=1/GPa)
#
#
# Indices 1 2 3 4 5 6 
#
# 1 0.010413 0.004315 -0.000254 -0.006167 -0.008737 0.009279
# 2 0.004315 0.031140 0.005082 -0.033212 -0.020925 0.021611
# 3 -0.000254 0.005082 0.020722 -0.043664 -0.017525 0.004023
# 4 -0.006167 -0.033212 -0.043664 0.167022 0.058542 -0.012563
# 5 -0.008737 -0.020925 -0.017525 0.058542 0.055771 -0.024563
# 6 0.009279 0.021611 0.004023 -0.012563 -0.024563 0.058366
#
#
# Mechanical properties :
#
#
# Convention : Reuss Voigt Hill
#
# Bulk Modulus (GPa) = 12.41298 52.15298 32.28298
# Shear Modulus (GPa) = 14.20449 34.40362 24.30405
#
# Velocity S-wave (km/s) = 2.62392 4.08356 3.43223
# Velocity P-wave (km/s) = 3.89827 6.89294 5.59951
#
# Compressibility (1/GPa) = 0.08056083
#
# Stress axis : x y z
#
# Youngs Moduli (GPa) = 96.03557 32.11325 48.25827
#
# Poissons Ratio (x) = -0.13858 0.01226
# Poissons Ratio (y) = -0.41442 -0.24525
# Poissons Ratio (z) = 0.02440 -0.16320
#
# Static dielectric constant tensor:
#      x y z
#    x 1.749790 0.012570 -0.003140 
#    y 0.012570 1.791150 0.042350 
#    z -0.003140 0.042350 1.783820 
# 
# From -- ./inp_files/547294.got.cif
#   From: 2010.05.17/outbox.cif.g08.bks.cpg/sg2_274_cif.got.tgz:547294.got - 2010.06.03 11:33:40.
