data_PCOD9077915
_publ_section_title
;
Structure prediction by ZEFSAII (Michael W. Deem and Ramdas Pophale) SiO2 
 PCOD9077915
Probable space group: P -1
;
_chemical_formula_sum "Si O2"
_cell_formula_units_Z 16
_cell_length_a 14.927528
_cell_length_b 7.247245
_cell_length_c 10.472031
_cell_angle_alpha 90.490758
_cell_angle_beta 67.207180
_cell_angle_gamma 120.600006
_cell_volume 873.217717
_symmetry_space_group_name_H-M "P -1"
_symmetry_group_IT_number 2
_symmetry_cell_setting 'triclinic'
loop_
_space_group_symop_operation_xyz
x,y,z
-x,-y,-z
loop_
_atom_site_type_symbol
_atom_site_label
_atom_site_fract_x
_atom_site_fract_y
_atom_site_fract_z
Si Si1 0.961337 0.292919 0.194759
Si Si2 0.161529 0.502449 0.882368
Si Si3 0.664932 0.169909 0.006269
Si Si4 0.525955 0.327615 0.924042
Si Si5 0.748748 0.602300 0.642643
Si Si6 0.070687 0.957546 0.356163
Si Si7 0.853881 0.805433 0.317507
Si Si8 0.867154 0.383161 0.688766
O O1 0.895064 0.397287 0.172651
O O2 0.028721 0.418724 0.286900
O O3 0.874150 0.036311 0.268379
O O4 0.062143 0.341906 0.038600
O O5 0.269213 0.697220 0.902348
O O6 0.192167 0.365105 0.773453
O O7 0.586291 0.906009 0.058931
O O8 0.588598 0.259489 0.993128
O O9 0.765206 0.238242 0.846693
O O10 0.616800 0.443656 0.758072
O O11 0.500000 0.500000 0.000000
O O12 0.775575 0.703295 0.486960
O O13 0.814787 0.475142 0.619854
O O14 0.809773 0.803855 0.713270
O O15 0.094357 0.774461 0.384539
O O16 0.985014 0.870161 0.282128
O O17 0.000000 0.000000 0.500000
#
# Coordination Sequence:
#
# PCOD9077915 Si02
#       8
#     2   2   2   2   2   2   2   2
#     4  10  20  34  55  79 114 155 188 216 270 334
#     4  10  21  37  54  81 114 152 185 225 271 331
#     4   9  21  37  60  86 105 139 194 234 281 326
#     4  10  20  40  64  83 105 138 188 247 285 325
#     4  10  22  35  55  84 112 149 190 230 285 328
#     4  10  20  31  49  80 116 151 181 213 272 332
#     4  11  21  34  51  83 120 150 184 222 271 341
#     4  10  18  35  56  80 116 148 185 232 271 328
#
# _framework density 18.323036999999999
#
# number of rings (size 3 to 8) (size 9 to 14) (size 15 to 20)
#    0.000    2.000    2.500    1.125    0.000    5.000 
#    0.000    0.625    0.000    1.500    0.000    0.000 
#    0.000    0.000    0.000    0.000    0.000    0.000 
#
# Total GULP energy -89318.794301 kJ/mol
# GULP energy per Si atom -5582.424644 kJ/mol
# Density = 1.828133 g / cm^3
# Si number density = 18.323037 Si / 1000 Ang^3
#
#
#
# Elastic Constant Matrix: (Units=GPa)
#
#
# Indices 1 2 3 4 5 6 
#
# 1 39.0198 34.0224 26.7717 4.3698 -6.0238 -0.5875
# 2 34.0224 136.7199 64.9841 -3.6319 -9.1397 -1.3096
# 3 26.7717 64.9841 61.4927 -14.4403 -6.5916 -3.2308
# 4 4.3698 -3.6319 -14.4403 28.9825 -2.4935 -4.0081
# 5 -6.0238 -9.1397 -6.5916 -2.4935 15.2861 -1.0480
# 6 -0.5875 -1.3096 -3.2308 -4.0081 -1.0480 40.2106
#
#
#
# Elastic Compliance Matrix: (Units=1/GPa)
#
#
# Indices 1 2 3 4 5 6 
#
# 1 0.044257 -0.000407 -0.022793 -0.018118 0.004215 -0.002894
# 2 -0.000407 0.016056 -0.018618 -0.007433 0.000081 -0.001718
# 3 -0.022793 -0.018618 0.054092 0.029698 0.008508 0.006589
# 4 -0.018118 -0.007433 0.029698 0.053022 0.010381 0.007435
# 5 0.004215 0.000081 0.008508 0.010381 0.072742 0.003678
# 6 -0.002894 -0.001718 0.006589 0.007435 0.003678 0.026137
#
#
# Mechanical properties :
#
#
# Convention : Reuss Voigt Hill
#
# Bulk Modulus (GPa) = 32.49866 54.30988 43.40427
# Shear Modulus (GPa) = 13.88121 24.32613 19.10367
#
# Velocity S-wave (km/s) = 2.75541 3.64761 3.23244
# Velocity P-wave (km/s) = 5.28186 6.88801 6.13770
#
# Compressibility (1/GPa) = 0.03077050
#
# Stress axis : x y z
#
# Youngs Moduli (GPa) = 22.59508 62.28139 18.48698
#
# Poissons Ratio (x) = 0.02535 0.42137
# Poissons Ratio (y) = 0.00919 0.34419
# Poissons Ratio (z) = 0.51501 1.15954
#
# Static dielectric constant tensor:
#      x y z
#    x 1.636690 0.009370 -0.004800 
#    y 0.009370 1.645350 -0.014360 
#    z -0.004800 -0.014360 1.641290 
# 
# From -- ./inp_files/128737.got.cif
#   From: 2010.05.17/outbox.cif.g08.bks.cpg/sg2_65_cif.got.tgz:128737.got - 2010.06.03 11:33:40.
