data_PCOD9077987
_publ_section_title
;
Structure prediction by ZEFSAII (Michael W. Deem and Ramdas Pophale) SiO2 
 PCOD9077987
Probable space group: P -1
;
_chemical_formula_sum "Si O2"
_cell_formula_units_Z 16
_cell_length_a 11.306395
_cell_length_b 16.974147
_cell_length_c 10.579737
_cell_angle_alpha 63.161043
_cell_angle_beta 136.961670
_cell_angle_gamma 149.814170
_cell_volume 592.831943
_symmetry_space_group_name_H-M "P -1"
_symmetry_group_IT_number 2
_symmetry_cell_setting 'triclinic'
loop_
_space_group_symop_operation_xyz
x,y,z
-x,-y,-z
loop_
_atom_site_type_symbol
_atom_site_label
_atom_site_fract_x
_atom_site_fract_y
_atom_site_fract_z
Si Si1 0.398991 0.214443 0.443400
Si Si2 0.824693 0.114307 0.330110
Si Si3 0.290938 0.749302 0.094452
Si Si4 0.135909 0.415101 0.439086
Si Si5 0.798154 0.134325 0.762336
Si Si6 0.560574 0.182294 0.352492
Si Si7 0.665548 0.790080 0.188504
Si Si8 0.384780 0.499271 0.101829
O O1 0.565293 0.229812 0.675125
O O2 0.532919 0.370793 0.474085
O O3 0.552468 0.254737 0.397350
O O4 0.979915 0.001244 0.255465
O O5 0.991405 0.285481 0.310833
O O6 0.133805 0.185551 0.571035
O O7 0.597030 0.960735 0.158995
O O8 0.523264 0.996419 0.290252
O O9 0.335364 0.694924 0.062206
O O10 0.900057 0.608221 0.930475
O O11 0.287118 0.410804 0.657593
O O12 0.803160 0.311909 0.326808
O O13 0.709504 0.163079 0.560013
O O14 0.807885 0.032943 0.820792
O O15 0.166833 0.340169 0.952626
O O16 0.533413 0.663524 0.069049
#
# Coordination Sequence:
#
# PCOD9077987 Si02
#       8
#     2   2   2   2   2   2   2   2
#     4  11  20  38  54  83 111 141 184 222 261 319
#     4   8  15  33  52  79 102 138 180 216 254 315
#     4  10  19  37  61  78 102 144 191 223 260 315
#     4  10  22  33  55  81 118 141 169 225 277 319
#     4   9  17  32  59  81 103 142 185 222 251 322
#     4  10  18  35  57  82 107 143 183 215 265 319
#     4  10  19  34  59  80 106 141 184 229 264 312
#     4  10  20  38  53  83 112 137 179 226 273 319
#
# _framework density 26.989099
#
# number of rings (size 3 to 8) (size 9 to 14) (size 15 to 20)
#    0.000    2.250    3.750    2.250    1.750    0.500 
#    0.000   10.625    0.000    0.000    0.000    0.000 
#    0.000    0.000    0.000    0.000    0.000    0.000 
#
# Total GULP energy -89447.455230 kJ/mol
# GULP energy per Si atom -5590.465952 kJ/mol
# Density = 2.692767 g / cm^3
# Si number density = 26.989099 Si / 1000 Ang^3
#
#
#
# Elastic Constant Matrix: (Units=GPa)
#
#
# Indices 1 2 3 4 5 6 
#
# 1 76.9201 41.3413 10.0322 11.1597 -7.0622 -15.6864
# 2 41.3413 132.9314 23.8572 41.9775 -8.8034 -34.0652
# 3 10.0322 23.8572 51.4704 20.5660 -5.7423 -3.1365
# 4 11.1597 41.9775 20.5660 51.4013 -8.8149 -11.3182
# 5 -7.0622 -8.8034 -5.7423 -8.8149 38.3355 13.4825
# 6 -15.6864 -34.0652 -3.1365 -11.3182 13.4825 52.8025
#
#
#
# Elastic Compliance Matrix: (Units=1/GPa)
#
#
# Indices 1 2 3 4 5 6 
#
# 1 0.015928 -0.004694 -0.001260 0.001475 0.001453 0.001574
# 2 -0.004694 0.013230 -0.001846 -0.008113 -0.002010 0.005806
# 3 -0.001260 -0.001846 0.023762 -0.007914 0.001905 -0.002337
# 4 0.001475 -0.008113 -0.007914 0.029628 0.004015 0.000059
# 5 0.001453 -0.002010 0.001905 0.004015 0.029732 -0.007483
# 6 0.001574 0.005806 -0.002337 0.000059 -0.007483 0.024936
#
#
# Mechanical properties :
#
#
# Convention : Reuss Voigt Hill
#
# Bulk Modulus (GPa) = 26.79497 45.75372 36.27434
# Shear Modulus (GPa) = 30.25573 40.91394 35.58484
#
# Velocity S-wave (km/s) = 3.35182 3.89774 3.63504
# Velocity P-wave (km/s) = 4.99292 6.10294 5.57562
#
# Compressibility (1/GPa) = 0.03732044
#
# Stress axis : x y z
#
# Youngs Moduli (GPa) = 62.78302 75.58319 42.08333
#
# Poissons Ratio (x) = 0.35475 0.05304
# Poissons Ratio (y) = 0.29467 0.07770
# Poissons Ratio (z) = 0.07913 0.13955
#
# Static dielectric constant tensor:
#      x y z
#    x 2.127790 -0.065900 -0.103240 
#    y -0.065900 2.165700 0.052530 
#    z -0.103240 0.052530 2.266740 
# 
# From -- ./inp_files/197180.got.cif
#   From: 2010.05.17/outbox.cif.g08.bks.cpg/sg2_99_cif.got.tgz:197180.got - 2010.06.03 11:33:40.
