data_PCOD9077489
_publ_section_title
;
Structure prediction by ZEFSAII (Michael W. Deem and Ramdas Pophale) SiO2 
 PCOD9077489
Probable space group: P -1
;
_chemical_formula_sum "Si O2"
_cell_formula_units_Z 16
_cell_length_a 7.415269
_cell_length_b 21.922048
_cell_length_c 12.113030
_cell_angle_alpha 23.463481
_cell_angle_beta 107.801320
_cell_angle_gamma 93.722905
_cell_volume 614.129453
_symmetry_space_group_name_H-M "P -1"
_symmetry_group_IT_number 2
_symmetry_cell_setting 'triclinic'
loop_
_space_group_symop_operation_xyz
x,y,z
-x,-y,-z
loop_
_atom_site_type_symbol
_atom_site_label
_atom_site_fract_x
_atom_site_fract_y
_atom_site_fract_z
Si Si1 0.733986 0.152386 0.170077
Si Si2 0.976807 0.071812 0.715095
Si Si3 0.269224 0.182350 0.223550
Si Si4 0.269410 0.608841 0.705590
Si Si5 0.460788 0.828040 0.121985
Si Si6 0.567193 0.350087 0.018795
Si Si7 0.186435 0.190727 0.935334
Si Si8 0.945839 0.504664 0.760870
O O1 0.632510 0.032552 0.383653
O O2 0.665353 0.208847 0.938050
O O3 0.623250 0.328538 0.936308
O O4 0.000000 0.000000 0.500000
O O5 0.877851 0.180999 0.630317
O O6 0.806938 0.235301 0.322476
O O7 0.928488 0.917202 0.936373
O O8 0.248468 0.980355 0.903636
O O9 0.445596 0.237550 0.196139
O O10 0.183106 0.217832 0.021813
O O11 0.069053 0.295742 0.089905
O O12 0.110569 0.532187 0.821833
O O13 0.500000 0.500000 0.000000
O O14 0.376620 0.549941 0.701408
O O15 0.592570 0.902193 0.954736
O O16 0.681372 0.635649 0.532473
O O17 0.059543 0.397207 0.518481
#
# Coordination Sequence:
#
# PCOD9077489 Si02
#       8
#     2   2   2   2   2   2   2   2
#     4  12  20  33  60  94 124 156 198 248 299 365
#     4  11  20  38  61  86 121 162 202 244 299 348
#     4  11  19  36  62  86 124 163 193 243 307 362
#     4   9  21  38  64  83 115 162 205 247 296 359
#     4  10  22  36  60  95 123 152 199 253 296 358
#     4  10  18  34  60  85 114 158 199 238 299 345
#     4  10  20  35  61  90 117 160 197 242 303 357
#     4   9  22  39  57  90 120 160 199 248 303 354
#
# _framework density 26.053139000000002
#
# number of rings (size 3 to 8) (size 9 to 14) (size 15 to 20)
#    0.750    1.000    3.750    1.500    0.000    1.000 
#    0.000    5.000    5.500    5.250    0.000    0.000 
#    0.000    0.000    0.000    0.000    0.000    0.000 
#
# Total GULP energy -89295.580118 kJ/mol
# GULP energy per Si atom -5580.973757 kJ/mol
# Density = 2.599384 g / cm^3
# Si number density = 26.053139 Si / 1000 Ang^3
#
#
#
# Elastic Constant Matrix: (Units=GPa)
#
#
# Indices 1 2 3 4 5 6 
#
# 1 124.5121 35.9723 26.9864 -11.8023 43.4952 4.2337
# 2 35.9723 118.9874 55.6090 -34.6734 25.5620 1.2443
# 3 26.9864 55.6090 114.7834 -27.4114 41.8374 -6.0749
# 4 -11.8023 -34.6734 -27.4114 44.5971 -4.8420 9.9820
# 5 43.4952 25.5620 41.8374 -4.8420 52.0587 -0.0627
# 6 4.2337 1.2443 -6.0749 9.9820 -0.0627 27.1914
#
#
#
# Elastic Compliance Matrix: (Units=1/GPa)
#
#
# Indices 1 2 3 4 5 6 
#
# 1 0.012204 -0.001627 0.002551 0.002838 -0.011187 -0.002323
# 2 -0.001627 0.013535 -0.003854 0.008550 -0.001399 -0.004369
# 3 0.002551 -0.003854 0.016036 0.005909 -0.012576 0.001163
# 4 0.002838 0.008550 0.005909 0.035382 -0.008042 -0.012520
# 5 -0.011187 -0.001399 -0.012576 -0.008042 0.038604 0.002038
# 6 -0.002323 -0.004369 0.001163 -0.012520 0.002038 0.042199
#
#
# Mechanical properties :
#
#
# Convention : Reuss Voigt Hill
#
# Bulk Modulus (GPa) = 27.84356 66.15759 47.00058
# Shear Modulus (GPa) = 28.44255 40.75045 34.59650
#
# Velocity S-wave (km/s) = 3.30769 3.95920 3.64802
# Velocity P-wave (km/s) = 5.02973 6.80799 5.98527
#
# Compressibility (1/GPa) = 0.03591495
#
# Stress axis : x y z
#
# Youngs Moduli (GPa) = 81.93710 73.88149 62.35990
#
# Poissons Ratio (x) = 0.12024 -0.15911
# Poissons Ratio (y) = 0.13335 0.24036
# Poissons Ratio (z) = -0.20906 0.28477
#
# Static dielectric constant tensor:
#      x y z
#    x 2.209580 0.039110 0.046500 
#    y 0.039110 2.045880 0.075210 
#    z 0.046500 0.075210 2.145270 
# 
# From -- ./inp_files/508422.got.cif
#   From: 2010.05.17/outbox.cif.g08.bks.cpg/sg2_255_cif.got.tgz:508422.got - 2010.06.03 11:33:40.
