data_PCOD9077337
_publ_section_title
;
Structure prediction by ZEFSAII (Michael W. Deem and Ramdas Pophale) SiO2 
 PCOD9077337
Probable space group: P -1
;
_chemical_formula_sum "Si O2"
_cell_formula_units_Z 16
_cell_length_a 16.918896
_cell_length_b 9.530185
_cell_length_c 14.180006
_cell_angle_alpha 142.445923
_cell_angle_beta 31.976230
_cell_angle_gamma 135.836748
_cell_volume 730.827071
_symmetry_space_group_name_H-M "P -1"
_symmetry_group_IT_number 2
_symmetry_cell_setting 'triclinic'
loop_
_space_group_symop_operation_xyz
x,y,z
-x,-y,-z
loop_
_atom_site_type_symbol
_atom_site_label
_atom_site_fract_x
_atom_site_fract_y
_atom_site_fract_z
Si Si1 0.891786 0.263382 0.957544
Si Si2 0.609599 0.862189 0.520114
Si Si3 0.468958 0.245987 0.940918
Si Si4 0.048891 0.890630 0.690641
Si Si5 0.189942 0.129776 0.305109
Si Si6 0.318624 0.812091 0.132527
Si Si7 0.424682 0.624738 0.742934
Si Si8 0.026801 0.548393 0.346809
O O1 0.910921 0.103030 0.759507
O O2 0.725695 0.333887 0.142472
O O3 0.931644 0.075710 0.895046
O O4 0.000000 0.500000 0.000000
O O5 0.565366 0.723908 0.589193
O O6 0.579857 0.641802 0.364500
O O7 0.496380 0.054192 0.732867
O O8 0.781819 0.977042 0.402644
O O9 0.597447 0.209459 0.866956
O O10 0.500000 0.500000 0.000000
O O11 0.316323 0.195719 0.129983
O O12 0.008970 0.713665 0.722438
O O13 0.044715 0.719704 0.512297
O O14 0.106524 0.351863 0.519289
O O15 0.250408 0.042870 0.295549
O O16 0.179893 0.603789 0.164145
O O17 0.421758 0.772559 0.918602
#
# Coordination Sequence:
#
# PCOD9077337 Si02
#       8
#     2   2   2   2   2   2   2   2
#     4  10  18  34  58  87 120 159 207 248 290 369
#     4  11  20  40  62  87 122 164 209 251 301 369
#     4  12  24  38  65  95 123 163 208 256 316 371
#     4  10  20  33  60  88 122 159 204 252 306 360
#     4  10  22  38  59  92 126 157 209 259 304 368
#     4  11  22  40  62  92 127 163 205 263 313 359
#     4  10  23  38  61  91 123 162 213 253 301 367
#     4  10  21  36  58  92 125 156 202 257 313 362
#
# _framework density 21.893004000000001
#
# number of rings (size 3 to 8) (size 9 to 14) (size 15 to 20)
#    0.000    1.500    5.000    1.500    3.500    0.000 
#    0.000    1.250    0.000    0.000    0.000    0.000 
#    0.000    0.000    0.000    0.000    0.000    0.000 
#
# Total GULP energy -89237.511750 kJ/mol
# GULP energy per Si atom -5577.344484 kJ/mol
# Density = 2.184317 g / cm^3
# Si number density = 21.893004 Si / 1000 Ang^3
#
#
#
# Elastic Constant Matrix: (Units=GPa)
#
#
# Indices 1 2 3 4 5 6 
#
# 1 65.1706 42.0656 4.7198 5.7210 -16.0917 -9.1748
# 2 42.0656 163.7304 26.1698 12.9087 -18.2172 -14.1520
# 3 4.7198 26.1698 58.1165 8.1363 -16.2146 -4.9892
# 4 5.7210 12.9087 8.1363 47.8609 -0.9869 -5.0433
# 5 -16.0917 -18.2172 -16.2146 -0.9869 16.2775 0.7166
# 6 -9.1748 -14.1520 -4.9892 -5.0433 0.7166 31.2847
#
#
#
# Elastic Compliance Matrix: (Units=1/GPa)
#
#
# Indices 1 2 3 4 5 6 
#
# 1 0.025488 -0.004019 0.008625 -0.002199 0.028893 0.006016
# 2 -0.004019 0.008037 -0.002250 -0.001054 0.002635 0.001868
# 3 0.008625 -0.002250 0.027724 -0.003975 0.033185 0.004532
# 4 -0.002199 -0.001054 -0.003975 0.022199 -0.006054 0.001962
# 5 0.028893 0.002635 0.033185 -0.006054 0.125147 0.011115
# 6 0.006016 0.001868 0.004532 0.001962 0.011115 0.035358
#
#
# Mechanical properties :
#
#
# Convention : Reuss Voigt Hill
#
# Bulk Modulus (GPa) = 15.16018 48.10310 31.63164
# Shear Modulus (GPa) = 19.14043 33.35543 26.24793
#
# Velocity S-wave (km/s) = 2.96002 3.90752 3.46630
# Velocity P-wave (km/s) = 4.31532 6.50983 5.52267
#
# Compressibility (1/GPa) = 0.06596229
#
# Stress axis : x y z
#
# Youngs Moduli (GPa) = 39.23435 124.41744 36.07024
#
# Poissons Ratio (x) = 0.50001 -0.31112
# Poissons Ratio (y) = 0.15768 0.08115
# Poissons Ratio (z) = -0.33841 0.27992
#
# Static dielectric constant tensor:
#      x y z
#    x 1.868310 0.050310 0.010450 
#    y 0.050310 1.826860 0.017090 
#    z 0.010450 0.017090 1.862780 
# 
# From -- ./inp_files/515516.got.cif
#   From: 2010.05.17/outbox.cif.g08.bks.cpg/sg2_258_cif.got.tgz:515516.got - 2010.06.03 11:33:40.
