data_PCOD9077631
_publ_section_title
;
Structure prediction by ZEFSAII (Michael W. Deem and Ramdas Pophale) SiO2 
 PCOD9077631
Probable space group: P -1
;
_chemical_formula_sum "Si O2"
_cell_formula_units_Z 12
_cell_length_a 8.059500
_cell_length_b 7.693360
_cell_length_c 10.569256
_cell_angle_alpha 108.930482
_cell_angle_beta 121.680592
_cell_angle_gamma 76.843350
_cell_volume 526.190671
_symmetry_space_group_name_H-M "P -1"
_symmetry_group_IT_number 2
_symmetry_cell_setting 'triclinic'
loop_
_space_group_symop_operation_xyz
x,y,z
-x,-y,-z
loop_
_atom_site_type_symbol
_atom_site_label
_atom_site_fract_x
_atom_site_fract_y
_atom_site_fract_z
Si Si1 0.419796 0.905809 0.789780
Si Si2 0.743943 0.589218 0.495524
Si Si3 0.064890 0.345965 0.663388
Si Si4 0.964085 0.927039 0.630552
Si Si5 0.390445 0.824657 0.466816
Si Si6 0.588036 0.690973 0.038560
O O1 0.421308 0.834072 0.631650
O O2 0.482483 0.117382 0.869642
O O3 0.542593 0.763096 0.895938
O O4 0.192770 0.917824 0.747845
O O5 0.813168 0.542906 0.368220
O O6 0.516334 0.647062 0.422444
O O7 0.844946 0.432670 0.587173
O O8 0.858462 0.767529 0.625115
O O9 0.185353 0.341670 0.837780
O O10 0.077047 0.152100 0.546970
O O11 0.834384 0.116335 0.645190
O O12 0.500000 0.000000 0.500000
O O13 0.500000 0.500000 0.000000
#
# Coordination Sequence:
#
# PCOD9077631 Si02
#       6
#     2   2   2   2   2   2
#     4  11  22  38  63  94 116 162 207 243 302 368
#     4   8  17  32  62  90 120 149 201 253 305 343
#     4   9  17  35  61  87 114 154 202 243 296 353
#     4   9  17  33  63  87 114 149 209 250 291 352
#     4  10  18  34  61  94 120 152 199 257 306 345
#     4  11  23  37  61  88 126 162 201 243 300 367
#
# _framework density 22.805422
#
# number of rings (size 3 to 8) (size 9 to 14) (size 15 to 20)
#    1.000    1.333    1.667    1.500    0.000    0.000 
#    0.000    1.667    0.000   38.000    0.000    0.000 
#    0.000    0.000    0.000    0.000    0.000    0.000 
#
# Total GULP energy -66868.024444 kJ/mol
# GULP energy per Si atom -5572.335370 kJ/mol
# Density = 2.275352 g / cm^3
# Si number density = 22.805422 Si / 1000 Ang^3
#
#
#
# Elastic Constant Matrix: (Units=GPa)
#
#
# Indices 1 2 3 4 5 6 
#
# 1 81.0745 25.8746 26.9568 -13.0210 20.5198 -20.1490
# 2 25.8746 165.4804 49.2950 -19.3646 15.0005 1.3898
# 3 26.9568 49.2950 120.3807 -31.0046 17.5577 3.0635
# 4 -13.0210 -19.3646 -31.0046 47.2961 -2.4811 13.3242
# 5 20.5198 15.0005 17.5577 -2.4811 24.3591 -3.8174
# 6 -20.1490 1.3898 3.0635 13.3242 -3.8174 38.9349
#
#
#
# Elastic Compliance Matrix: (Units=1/GPa)
#
#
# Indices 1 2 3 4 5 6 
#
# 1 0.018651 -0.001253 -0.002066 0.000210 -0.012080 0.008603
# 2 -0.001253 0.007202 -0.001890 0.001689 -0.002086 -0.001539
# 3 -0.002066 -0.001890 0.012703 0.008181 -0.006267 -0.005415
# 4 0.000210 0.001689 0.008181 0.030189 -0.005841 -0.011499
# 5 -0.012080 -0.002086 -0.006267 -0.005841 0.056730 0.001877
# 6 0.008603 -0.001539 -0.005415 -0.011499 0.001877 0.034736
#
#
# Mechanical properties :
#
#
# Convention : Reuss Voigt Hill
#
# Bulk Modulus (GPa) = 35.54196 63.46539 49.50367
# Shear Modulus (GPa) = 27.77670 39.77197 33.77434
#
# Velocity S-wave (km/s) = 3.49375 4.18062 3.85252
# Velocity P-wave (km/s) = 5.64746 7.15492 6.44541
#
# Compressibility (1/GPa) = 0.02813576
#
# Stress axis : x y z
#
# Youngs Moduli (GPa) = 53.61779 138.85729 78.72433
#
# Poissons Ratio (x) = 0.17404 0.16266
# Poissons Ratio (y) = 0.06720 0.14879
# Poissons Ratio (z) = 0.11078 0.26244
#
# Static dielectric constant tensor:
#      x y z
#    x 1.963400 0.136470 0.012930 
#    y 0.136470 2.051130 -0.005820 
#    z 0.012930 -0.005820 1.815910 
# 
# From -- ./inp_files/379727.got.cif
#   From: 2010.05.17/outbox.cif.g08.bks.cpg/sg2_190_cif.got.tgz:379727.got - 2010.06.03 11:33:40.
