data_PCOD9077435
_publ_section_title
;
Structure prediction by ZEFSAII (Michael W. Deem and Ramdas Pophale) SiO2 
 PCOD9077435
Probable space group: P -1
;
_chemical_formula_sum "Si O2"
_cell_formula_units_Z 15
_cell_length_a 15.947128
_cell_length_b 11.274295
_cell_length_c 7.671556
_cell_angle_alpha 42.214927
_cell_angle_beta 139.010466
_cell_angle_gamma 132.229564
_cell_volume 587.543219
_symmetry_space_group_name_H-M "P -1"
_symmetry_group_IT_number 2
_symmetry_cell_setting 'triclinic'
loop_
_space_group_symop_operation_xyz
x,y,z
-x,-y,-z
loop_
_atom_site_type_symbol
_atom_site_label
_atom_site_fract_x
_atom_site_fract_y
_atom_site_fract_z
Si Si1 0.730611 0.166377 0.373429
Si Si2 0.698986 0.105849 0.022561
Si Si3 0.857378 0.855615 0.447165
Si Si4 0.024819 0.340182 0.593073
Si Si5 0.616832 0.402676 0.190967
Si Si6 0.834681 0.485452 0.718917
Si Si7 0.500000 0.000000 0.500000
Si Si8 0.726187 0.792991 0.924219
O O1 0.650954 0.155482 0.081012
O O2 0.884032 0.192613 0.540966
O O3 0.713624 0.329190 0.291827
O O4 0.681063 0.976870 0.607608
O O5 0.761114 0.934668 0.330633
O O6 0.820443 0.279612 0.975982
O O7 0.599598 0.071312 0.744668
O O8 0.858038 0.647986 0.718063
O O9 0.791476 0.838503 0.169401
O O10 0.000000 0.000000 0.500000
O O11 0.000000 0.500000 0.500000
O O12 0.063321 0.435577 0.361268
O O13 0.144771 0.248451 0.925523
O O14 0.692297 0.458324 0.431417
O O15 0.502295 0.219020 0.216726
O O16 0.613466 0.605956 0.908395
#
# Coordination Sequence:
#
# PCOD9077435 Si02
#       8
#     2   2   2   2   2   2   1   2
#     4  12  22  37  59  93 125 162 202 259 314 373
#     4  11  24  41  63  91 124 164 215 259 312 365
#     4  10  21  38  60  90 124 164 204 248 304 376
#     4  10  18  34  59  90 120 168 199 242 310 366
#     4   9  20  41  63  87 117 154 211 255 314 363
#     4   9  20  40  58  87 125 167 207 249 302 370
#     4  10  22  46  70  84 118 168 212 268 310 366
#     4  10  21  38  60  89 130 161 204 250 313 374
#
# _framework density 25.530037
#
# number of rings (size 3 to 8) (size 9 to 14) (size 15 to 20)
#    0.000    2.133    2.667    3.600    0.000    3.733 
#    0.000   11.333    0.000    0.000    0.000    0.000 
#    0.000    0.000    0.000    0.000    0.000    0.000 
#
# Total GULP energy -83541.020411 kJ/mol
# GULP energy per Si atom -5569.401361 kJ/mol
# Density = 2.547193 g / cm^3
# Si number density = 25.530037 Si / 1000 Ang^3
#
#
#
# Elastic Constant Matrix: (Units=GPa)
#
#
# Indices 1 2 3 4 5 6 
#
# 1 47.8016 28.0846 4.4296 -4.4758 11.7518 -0.9344
# 2 28.0846 226.5832 50.0088 -15.3535 3.5459 8.1552
# 3 4.4296 50.0088 67.9074 -3.9303 7.5852 -10.1542
# 4 -4.4758 -15.3535 -3.9303 49.0815 -2.6839 12.0126
# 5 11.7518 3.5459 7.5852 -2.6839 36.9668 -13.4336
# 6 -0.9344 8.1552 -10.1542 12.0126 -13.4336 52.4628
#
#
#
# Elastic Compliance Matrix: (Units=1/GPa)
#
#
# Indices 1 2 3 4 5 6 
#
# 1 0.024738 -0.003148 0.001519 0.001227 -0.008206 -0.001158
# 2 -0.003148 0.005977 -0.004484 0.001770 0.000723 -0.002073
# 3 0.001519 -0.004484 0.018747 -0.000856 -0.002546 0.003897
# 4 0.001227 0.001770 -0.000856 0.022332 -0.000853 -0.005751
# 5 -0.008206 0.000723 -0.002546 -0.000853 0.032911 0.007871
# 6 -0.001158 -0.002073 0.003897 -0.005751 0.007871 0.023449
#
#
# Mechanical properties :
#
#
# Convention : Reuss Voigt Hill
#
# Bulk Modulus (GPa) = 26.85650 56.37090 41.61370
# Shear Modulus (GPa) = 32.72402 45.02019 38.87211
#
# Velocity S-wave (km/s) = 3.58409 4.20387 3.90629
# Velocity P-wave (km/s) = 5.26023 6.75955 6.05646
#
# Compressibility (1/GPa) = 0.03723493
#
# Stress axis : x y z
#
# Youngs Moduli (GPa) = 40.42305 167.31919 53.34298
#
# Poissons Ratio (x) = 0.52677 -0.08104
# Poissons Ratio (y) = 0.12726 0.23920
# Poissons Ratio (z) = -0.06141 0.75030
#
# Static dielectric constant tensor:
#      x y z
#    x 2.175400 0.100830 0.045910 
#    y 0.100830 1.969900 -0.037190 
#    z 0.045910 -0.037190 2.085710 
# 
# From -- ./inp_files/344478.got.cif
#   From: 2010.05.17/outbox.cif.g08.bks.cpg/sg2_173_cif.got.tgz:344478.got - 2010.06.03 11:33:40.
