data_PCOD9077827
_publ_section_title
;
Structure prediction by ZEFSAII (Michael W. Deem and Ramdas Pophale) SiO2 
 PCOD9077827
Probable space group: P -1
;
_chemical_formula_sum "Si O2"
_cell_formula_units_Z 14
_cell_length_a 9.525356
_cell_length_b 5.370459
_cell_length_c 14.047699
_cell_angle_alpha 95.421412
_cell_angle_beta 108.975195
_cell_angle_gamma 76.540125
_cell_volume 660.763867
_symmetry_space_group_name_H-M "P -1"
_symmetry_group_IT_number 2
_symmetry_cell_setting 'triclinic'
loop_
_space_group_symop_operation_xyz
x,y,z
-x,-y,-z
loop_
_atom_site_type_symbol
_atom_site_label
_atom_site_fract_x
_atom_site_fract_y
_atom_site_fract_z
Si Si1 0.593169 0.039999 0.114515
Si Si2 0.507820 0.599809 0.614380
Si Si3 0.385492 0.453155 0.769692
Si Si4 0.754825 0.984262 0.481904
Si Si5 0.995035 0.730265 0.402825
Si Si6 0.188067 0.255599 0.319014
Si Si7 0.103268 0.865535 0.773618
O O1 0.538824 0.325803 0.156694
O O2 0.773389 0.026365 0.133129
O O3 0.583070 0.816267 0.179358
O O4 0.500000 0.000000 0.000000
O O5 0.500000 0.500000 0.500000
O O6 0.440037 0.439709 0.672483
O O7 0.675454 0.624955 0.683761
O O8 0.397738 0.880043 0.597442
O O9 0.208918 0.595272 0.752255
O O10 0.854051 0.738466 0.442129
O O11 0.735133 0.938167 0.587612
O O12 0.868333 0.179463 0.509191
O O13 0.075011 0.476047 0.359333
O O14 0.933647 0.946897 0.318082
O O15 0.064082 0.149514 0.225570
#
# Coordination Sequence:
#
# PCOD9077827 Si02
#       7
#     2   2   2   2   2   2   2
#     4  10  21  43  75  99 120 157 221 286 338 382
#     4  12  24  39  57  93 138 188 216 256 312 390
#     4  10  23  42  67  99 131 164 218 273 320 390
#     4  10  20  35  52  79 115 177 234 262 295 361
#     4  10  18  35  52  85 116 170 221 274 301 359
#     4  11  22  34  58  84 128 174 218 265 318 375
#     4   9  21  36  63  90 123 158 217 271 325 373
#
# _framework density 21.1876
#
# number of rings (size 3 to 8) (size 9 to 14) (size 15 to 20)
#    0.857    0.857    2.857    2.143    0.000    4.571 
#    0.000    0.000    0.000    1.714    0.000    0.000 
#    0.000    0.000    0.000    0.000    0.000    0.000 
#
# Total GULP energy -78056.053215 kJ/mol
# GULP energy per Si atom -5575.432373 kJ/mol
# Density = 2.113938 g / cm^3
# Si number density = 21.187600 Si / 1000 Ang^3
#
#
#
# Elastic Constant Matrix: (Units=GPa)
#
#
# Indices 1 2 3 4 5 6 
#
# 1 133.1182 20.8155 49.7862 1.1883 25.0690 20.6851
# 2 20.8155 81.3067 26.7469 -1.9642 3.2346 13.5494
# 3 49.7862 26.7469 79.0633 3.6054 25.2413 9.7306
# 4 1.1883 -1.9642 3.6054 27.4543 7.8150 2.8437
# 5 25.0690 3.2346 25.2413 7.8150 30.1389 4.5411
# 6 20.6851 13.5494 9.7306 2.8437 4.5411 27.9987
#
#
#
# Elastic Compliance Matrix: (Units=1/GPa)
#
#
# Indices 1 2 3 4 5 6 
#
# 1 0.011147 -0.000029 -0.004807 0.002161 -0.004903 -0.005975
# 2 -0.000029 0.015026 -0.005530 0.001407 0.003590 -0.006053
# 3 -0.004807 -0.005530 0.021909 0.000866 -0.014104 0.000813
# 4 0.002161 0.001407 0.000866 0.040339 -0.012432 -0.004659
# 5 -0.004903 0.003590 -0.014104 -0.012432 0.051965 -0.000379
# 6 -0.005975 -0.006053 0.000813 -0.004659 -0.000379 0.043311
#
#
# Mechanical properties :
#
#
# Convention : Reuss Voigt Hill
#
# Bulk Modulus (GPa) = 36.56535 54.24282 45.40409
# Shear Modulus (GPa) = 23.41405 30.19437 26.80421
#
# Velocity S-wave (km/s) = 3.32788 3.77914 3.56067
# Velocity P-wave (km/s) = 5.66231 6.68576 6.19520
#
# Compressibility (1/GPa) = 0.02734829
#
# Stress axis : x y z
#
# Youngs Moduli (GPa) = 89.70964 66.55262 45.64291
#
# Poissons Ratio (x) = 0.00196 0.21942
# Poissons Ratio (y) = 0.00264 0.25241
# Poissons Ratio (z) = 0.43126 0.36804
#
# Static dielectric constant tensor:
#      x y z
#    x 1.819380 0.026540 0.022590 
#    y 0.026540 1.863040 0.042010 
#    z 0.022590 0.042010 1.759970 
# 
# From -- ./inp_files/488306.got.cif
#   From: 2010.05.17/outbox.cif.g08.bks.cpg/sg2_245_cif.got.tgz:488306.got - 2010.06.03 11:33:40.
