data_PCOD9077038
_publ_section_title
;
Structure prediction by ZEFSAII (Michael W. Deem and Ramdas Pophale) SiO2 
 PCOD9077038
Probable space group: P -1
;
_chemical_formula_sum "Si O2"
_cell_formula_units_Z 12
_cell_length_a 6.756915
_cell_length_b 12.612699
_cell_length_c 9.189957
_cell_angle_alpha 78.285249
_cell_angle_beta 131.387216
_cell_angle_gamma 109.003493
_cell_volume 555.491186
_symmetry_space_group_name_H-M "P -1"
_symmetry_group_IT_number 2
_symmetry_cell_setting 'triclinic'
loop_
_space_group_symop_operation_xyz
x,y,z
-x,-y,-z
loop_
_atom_site_type_symbol
_atom_site_label
_atom_site_fract_x
_atom_site_fract_y
_atom_site_fract_z
Si Si1 0.253565 0.357783 0.542602
Si Si2 0.000796 0.202037 0.711165
Si Si3 0.043636 0.211340 0.071179
Si Si4 0.432043 0.087170 0.830726
Si Si5 0.625284 0.855529 0.513245
Si Si6 0.195493 0.449102 0.204715
O O1 0.103644 0.313170 0.631466
O O2 0.332296 0.252775 0.527919
O O3 0.091243 0.409295 0.327878
O O4 0.522822 0.456422 0.674189
O O5 0.166188 0.120663 0.746453
O O6 0.674445 0.167679 0.557715
O O7 0.078397 0.205816 0.917631
O O8 0.158941 0.128587 0.254706
O O9 0.208213 0.334774 0.165062
O O10 0.716430 0.186624 0.943443
O O11 0.372219 0.055357 0.640257
O O12 0.500000 0.000000 0.000000
O O13 0.000000 0.500000 0.000000
#
# Coordination Sequence:
#
# PCOD9077038 Si02
#       6
#     2   2   2   2   2   2
#     4   9  20  35  53  79 114 150 180 217 266 319
#     4  10  20  37  58  80 109 146 182 224 274 323
#     4  10  22  37  56  84 112 142 186 229 267 322
#     4  10  22  40  59  80 109 143 180 228 282 329
#     4   9  20  38  56  82 115 144 181 224 268 324
#     4  10  18  34  55  78 112 148 182 221 264 316
#
# _framework density 21.602505000000001
#
# number of rings (size 3 to 8) (size 9 to 14) (size 15 to 20)
#    0.000    2.333    0.000    3.000    0.000    9.333 
#    0.000   15.000    0.000    0.000    0.000    0.000 
#    0.000    0.000    0.000    0.000    0.000    0.000 
#
# Total GULP energy -66916.157503 kJ/mol
# GULP energy per Si atom -5576.346459 kJ/mol
# Density = 2.155334 g / cm^3
# Si number density = 21.602505 Si / 1000 Ang^3
#
#
#
# Elastic Constant Matrix: (Units=GPa)
#
#
# Indices 1 2 3 4 5 6 
#
# 1 104.7522 27.2136 47.3266 -1.6050 -13.8866 20.3058
# 2 27.2136 48.6798 24.9381 -15.4513 -19.8411 17.2776
# 3 47.3266 24.9381 196.7835 -27.0068 -17.3040 17.9333
# 4 -1.6050 -15.4513 -27.0068 37.5914 3.7547 -7.2811
# 5 -13.8866 -19.8411 -17.3040 3.7547 24.7795 -9.6204
# 6 20.3058 17.2776 17.9333 -7.2811 -9.6204 13.4534
#
#
#
# Elastic Compliance Matrix: (Units=1/GPa)
#
#
# Indices 1 2 3 4 5 6 
#
# 1 0.014973 -0.002617 -0.002396 -0.005999 -0.002711 -0.021229
# 2 -0.002617 0.046030 0.001401 0.010682 0.020560 -0.036548
# 3 -0.002396 0.001401 0.006560 0.004410 0.002670 -0.002630
# 4 -0.005999 0.010682 0.004410 0.035969 0.008701 0.015146
# 5 -0.002711 0.020560 0.002670 0.008701 0.065934 0.025986
# 6 -0.021229 -0.036548 -0.002630 0.015146 0.025986 0.183595
#
#
# Mechanical properties :
#
#
# Convention : Reuss Voigt Hill
#
# Bulk Modulus (GPa) = 16.57338 61.01913 38.79626
# Shear Modulus (GPa) = 13.14405 31.88069 22.51237
#
# Velocity S-wave (km/s) = 2.46935 3.84576 3.23169
# Velocity P-wave (km/s) = 3.97730 6.93019 5.65006
#
# Compressibility (1/GPa) = 0.06033772
#
# Stress axis : x y z
#
# Youngs Moduli (GPa) = 66.78797 21.72494 152.43058
#
# Poissons Ratio (x) = 0.05686 0.36528
# Poissons Ratio (y) = 0.17479 -0.21351
# Poissons Ratio (z) = 0.16005 -0.03043
#
# Static dielectric constant tensor:
#      x y z
#    x 0.721800 2.007710 -0.455310 
#    y 2.007710 -2.055010 0.787200 
#    z -0.455310 0.787200 1.660890 
# 
# From -- ./inp_files/29579.got.cif
#   From: 2010.05.17/outbox.cif.g08.bks.cpg/sg2_15_cif.got.tgz:29579.got - 2010.06.03 11:33:40.
