data_PCOD9077363
_publ_section_title
;
Structure prediction by ZEFSAII (Michael W. Deem and Ramdas Pophale) SiO2 
 PCOD9077363
Probable space group: P -1
;
_chemical_formula_sum "Si O2"
_cell_formula_units_Z 16
_cell_length_a 11.048268
_cell_length_b 10.314340
_cell_length_c 11.419266
_cell_angle_alpha 105.949167
_cell_angle_beta 40.099035
_cell_angle_gamma 120.681532
_cell_volume 704.991445
_symmetry_space_group_name_H-M "P -1"
_symmetry_group_IT_number 2
_symmetry_cell_setting 'triclinic'
loop_
_space_group_symop_operation_xyz
x,y,z
-x,-y,-z
loop_
_atom_site_type_symbol
_atom_site_label
_atom_site_fract_x
_atom_site_fract_y
_atom_site_fract_z
Si Si1 0.535888 0.674096 0.003368
Si Si2 0.854404 0.279617 0.591493
Si Si3 0.744501 0.052593 0.233554
Si Si4 0.328577 0.027262 0.467458
Si Si5 0.450873 0.640529 0.584592
Si Si6 0.330888 0.559256 0.906778
Si Si7 0.083098 0.537348 0.646567
Si Si8 0.767856 0.767870 0.070135
O O1 0.351294 0.701325 0.208777
O O2 0.749428 0.775823 0.944718
O O3 0.500000 0.500000 0.000000
O O4 0.515068 0.689661 0.884288
O O5 0.921821 0.364251 0.436669
O O6 0.035542 0.377307 0.578248
O O7 0.792907 0.102405 0.572172
O O8 0.582769 0.083833 0.286180
O O9 0.726807 0.058835 0.387533
O O10 0.684233 0.877513 0.209483
O O11 0.990262 0.163282 0.048514
O O12 0.336616 0.191352 0.517321
O O13 0.500000 0.500000 0.500000
O O14 0.325990 0.610161 0.792788
O O15 0.296922 0.624869 0.586282
O O16 0.362993 0.408881 0.841192
O O17 0.113757 0.503341 0.128967
#
# Coordination Sequence:
#
# PCOD9077363 Si02
#       8
#     2   2   2   2   2   2   2   2
#     4   9  19  33  60  89 121 149 190 251 301 352
#     4  10  20  39  67  95 118 152 204 257 307 353
#     4  10  20  32  60  88 121 146 196 252 308 351
#     4  11  21  38  58  88 121 163 197 251 300 354
#     4  12  26  40  61  85 126 170 205 244 298 369
#     4  10  21  39  59  86 120 161 204 237 297 371
#     4  10  22  40  66  93 118 161 203 251 303 362
#     4  10  18  34  58  93 116 149 194 257 302 347
#
# _framework density 22.695311
#
# number of rings (size 3 to 8) (size 9 to 14) (size 15 to 20)
#    0.000    1.750    1.250    4.125    3.500    1.000 
#    0.000    3.125    5.500    0.000    0.000    0.000 
#    0.000    0.000    0.000    0.000    0.000    0.000 
#
# Total GULP energy -89285.373488 kJ/mol
# GULP energy per Si atom -5580.335843 kJ/mol
# Density = 2.264366 g / cm^3
# Si number density = 22.695311 Si / 1000 Ang^3
#
#
#
# Elastic Constant Matrix: (Units=GPa)
#
#
# Indices 1 2 3 4 5 6 
#
# 1 58.6260 26.6074 21.5336 2.0928 22.4716 20.9185
# 2 26.6074 154.5643 17.0359 33.8556 16.9850 19.6464
# 3 21.5336 17.0359 63.8024 10.1487 21.0969 1.5439
# 4 2.0928 33.8556 10.1487 25.9968 3.6572 4.6887
# 5 22.4716 16.9850 21.0969 3.6572 27.1750 7.2622
# 6 20.9185 19.6464 1.5439 4.6887 7.2622 37.2865
#
#
#
# Elastic Compliance Matrix: (Units=1/GPa)
#
#
# Indices 1 2 3 4 5 6 
#
# 1 0.031645 -0.003029 -0.004923 0.008280 -0.017960 -0.013497
# 2 -0.003029 0.010152 0.001277 -0.012815 -0.002688 -0.001568
# 3 -0.004923 0.001277 0.023271 -0.009185 -0.014944 0.005191
# 4 0.008280 -0.012815 -0.009185 0.058770 0.001787 -0.005251
# 5 -0.017960 -0.002688 -0.014944 0.001787 0.064892 -0.000753
# 6 -0.013497 -0.001568 0.005191 -0.005251 -0.000753 0.035809
#
#
# Mechanical properties :
#
#
# Convention : Reuss Voigt Hill
#
# Bulk Modulus (GPa) = 19.33643 45.26072 32.29858
# Shear Modulus (GPa) = 19.59790 32.21272 25.90531
#
# Velocity S-wave (km/s) = 2.94176 3.77152 3.38218
# Velocity P-wave (km/s) = 4.48075 6.24114 5.43273
#
# Compressibility (1/GPa) = 0.05171584
#
# Stress axis : x y z
#
# Youngs Moduli (GPa) = 31.60081 98.50133 42.97208
#
# Poissons Ratio (x) = 0.29841 0.21157
# Poissons Ratio (y) = 0.09573 -0.05487
# Poissons Ratio (z) = 0.15558 -0.12577
#
# Static dielectric constant tensor:
#      x y z
#    x 1.862650 0.000700 -0.025680 
#    y 0.000700 1.929560 0.020430 
#    z -0.025680 0.020430 1.914380 
# 
# From -- ./inp_files/276083.got.cif
#   From: 2010.05.17/outbox.cif.g08.bks.cpg/sg2_139_cif.got.tgz:276083.got - 2010.06.03 11:33:40.
