data_PCOD9077699
_publ_section_title
;
Structure prediction by ZEFSAII (Michael W. Deem and Ramdas Pophale) SiO2 
 PCOD9077699
Probable space group: P -1
;
_chemical_formula_sum "Si O2"
_cell_formula_units_Z 16
_cell_length_a 11.391498
_cell_length_b 8.645146
_cell_length_c 21.360798
_cell_angle_alpha 99.643146
_cell_angle_beta 135.043417
_cell_angle_gamma 121.570682
_cell_volume 568.201641
_symmetry_space_group_name_H-M "P -1"
_symmetry_group_IT_number 2
_symmetry_cell_setting 'triclinic'
loop_
_space_group_symop_operation_xyz
x,y,z
-x,-y,-z
loop_
_atom_site_type_symbol
_atom_site_label
_atom_site_fract_x
_atom_site_fract_y
_atom_site_fract_z
Si Si1 0.865676 0.663989 0.868334
Si Si2 0.685502 0.866291 0.210634
Si Si3 0.099535 0.108409 0.893803
Si Si4 0.199491 0.553226 0.529139
Si Si5 0.544892 0.051726 0.946562
Si Si6 0.906833 0.057158 0.686826
Si Si7 0.783329 0.179956 0.545382
Si Si8 0.382347 0.512996 0.711416
O O1 0.453300 0.386636 0.726513
O O2 0.877933 0.763615 0.813916
O O3 0.021339 0.626484 0.904992
O O4 0.249338 0.080419 0.081139
O O5 0.571478 0.873435 0.108848
O O6 0.071408 0.084749 0.354539
O O7 0.271588 0.394019 0.025789
O O8 0.822357 0.118478 0.327697
O O9 0.841011 0.953970 0.727263
O O10 0.581010 0.460721 0.083653
O O11 0.420801 0.622496 0.664490
O O12 0.000000 0.500000 0.500000
O O13 0.407712 0.849609 0.574384
O O14 0.189214 0.627470 0.755292
O O15 0.500000 0.000000 0.000000
O O16 0.647315 0.961724 0.542024
O O17 0.950712 0.191062 0.561434
#
# Coordination Sequence:
#
# PCOD9077699 Si02
#       8
#     2   2   2   2   2   2   2   2
#     4  10  18  30  50  68  96 124 154 192 237 292
#     4   9  16  25  45  69  93 116 151 200 231 267
#     4   9  16  28  46  74  95 119 148 197 244 271
#     4   9  18  30  47  67  93 124 162 198 223 268
#     4  10  15  24  44  72  92 115 152 195 235 265
#     4   9  15  28  47  73  96 115 152 197 242 269
#     4   9  16  30  49  69  91 119 161 195 227 274
#     4   9  17  31  48  67  92 128 159 187 233 279
#
# _framework density 28.159019000000001
#
# number of rings (size 3 to 8) (size 9 to 14) (size 15 to 20)
#    0.750    2.000    2.500    2.250    0.000    0.000 
#    0.000    5.625    0.000   36.000    0.000    0.000 
#    0.000    2.000    0.000    0.000    0.000    0.125 
#
# Total GULP energy -89222.612964 kJ/mol
# GULP energy per Si atom -5576.413310 kJ/mol
# Density = 2.809493 g / cm^3
# Si number density = 28.159019 Si / 1000 Ang^3
#
#
#
# Elastic Constant Matrix: (Units=GPa)
#
#
# Indices 1 2 3 4 5 6 
#
# 1 107.8653 31.2179 32.7562 0.6120 -29.9293 -13.4372
# 2 31.2179 139.4718 50.5369 -42.4125 -19.7289 2.8582
# 3 32.7562 50.5369 97.1839 -17.2533 -8.7244 -7.5956
# 4 0.6120 -42.4125 -17.2533 67.7644 -3.6911 -14.8091
# 5 -29.9293 -19.7289 -8.7244 -3.6911 45.7515 -6.0763
# 6 -13.4372 2.8582 -7.5956 -14.8091 -6.0763 54.2347
#
#
#
# Elastic Compliance Matrix: (Units=1/GPa)
#
#
# Indices 1 2 3 4 5 6 
#
# 1 0.013156 -0.000816 -0.003005 -0.000127 0.008171 0.003762
# 2 -0.000816 0.011383 -0.004033 0.006532 0.004251 0.000893
# 3 -0.003005 -0.004033 0.013693 0.001309 -0.000768 0.001657
# 4 -0.000127 0.006532 0.001309 0.020812 0.005473 0.006103
# 5 0.008171 0.004251 -0.000768 0.005473 0.030203 0.006571
# 6 0.003762 0.000893 0.001657 0.006103 0.006571 0.021958
#
#
# Mechanical properties :
#
#
# Convention : Reuss Voigt Hill
#
# Bulk Modulus (GPa) = 44.39743 63.72700 54.06222
# Shear Modulus (GPa) = 37.19609 48.88413 43.04011
#
# Velocity S-wave (km/s) = 3.63840 4.17106 3.91380
# Velocity P-wave (km/s) = 5.78373 6.77327 6.29797
#
# Compressibility (1/GPa) = 0.02252383
#
# Stress axis : x y z
#
# Youngs Moduli (GPa) = 76.01030 87.84731 73.02946
#
# Poissons Ratio (x) = 0.07167 0.21946
# Poissons Ratio (y) = 0.06201 0.29456
# Poissons Ratio (z) = 0.22842 0.35433
#
# Static dielectric constant tensor:
#      x y z
#    x 2.438980 0.154950 0.144230 
#    y 0.154950 2.257170 0.024910 
#    z 0.144230 0.024910 2.256740 
# 
# From -- ./inp_files/609362.got.cif
#   From: 2010.05.17/outbox.cif.g08.bks.cpg/sg2_305_cif.got.tgz:609362.got - 2010.06.03 11:33:40.
