data_PCOD9077450
_publ_section_title
;
Structure prediction by ZEFSAII (Michael W. Deem and Ramdas Pophale) SiO2 
 PCOD9077450
Probable space group: P -1
;
_chemical_formula_sum "Si O2"
_cell_formula_units_Z 16
_cell_length_a 8.342370
_cell_length_b 16.645277
_cell_length_c 12.133585
_cell_angle_alpha 123.619781
_cell_angle_beta 74.696981
_cell_angle_gamma 146.582255
_cell_volume 696.814013
_symmetry_space_group_name_H-M "P -1"
_symmetry_group_IT_number 2
_symmetry_cell_setting 'triclinic'
loop_
_space_group_symop_operation_xyz
x,y,z
-x,-y,-z
loop_
_atom_site_type_symbol
_atom_site_label
_atom_site_fract_x
_atom_site_fract_y
_atom_site_fract_z
Si Si1 0.588393 0.781338 0.181085
Si Si2 0.864314 0.876753 0.823832
Si Si3 0.511406 0.118115 0.566851
Si Si4 0.461663 0.534851 0.918236
Si Si5 0.671105 0.305248 0.475350
Si Si6 0.579837 0.188556 0.184800
Si Si7 0.049509 0.806082 0.870775
Si Si8 0.772631 0.769089 0.368893
O O1 0.407042 0.784147 0.262560
O O2 0.691112 0.773709 0.267147
O O3 0.374064 0.601555 0.010654
O O4 0.898904 0.973722 0.203699
O O5 0.505329 0.742727 0.775397
O O6 0.902612 0.782717 0.771127
O O7 0.000000 0.000000 0.000000
O O8 0.730332 0.268102 0.542742
O O9 0.500000 0.000000 0.500000
O O10 0.145132 0.965167 0.481871
O O11 0.286387 0.375239 0.744941
O O12 0.818381 0.720099 0.945713
O O13 0.500000 0.500000 0.000000
O O14 0.485256 0.144890 0.298228
O O15 0.454401 0.287373 0.544610
O O16 0.000000 0.500000 0.500000
O O17 0.903124 0.285240 0.203660
O O18 0.377473 0.025961 0.009112
#
# Coordination Sequence:
#
# PCOD9077450 Si02
#       8
#     2   2   2   2   2   2   2   2
#     4  10  19  39  63  89 122 169 205 260 318 390
#     4  10  18  34  59  92 123 157 209 259 320 378
#     4  11  25  43  64  95 131 173 218 261 326 400
#     4  10  20  36  64  89 121 160 214 260 316 385
#     4  11  23  43  68  92 125 174 221 268 323 392
#     4  10  20  36  61  89 126 160 206 261 326 378
#     4  10  21  35  59  97 122 161 208 265 318 388
#     4  10  22  41  67  91 128 172 210 262 334 392
#
# _framework density 22.961651
#
# number of rings (size 3 to 8) (size 9 to 14) (size 15 to 20)
#    0.000    1.750    2.500    3.750    3.500    0.000 
#    2.250    1.250    0.000    0.000    0.000    0.000 
#    0.000    0.000    0.000    0.000    0.000    0.000 
#
# Total GULP energy -89079.300354 kJ/mol
# GULP energy per Si atom -5567.456272 kJ/mol
# Density = 2.290939 g / cm^3
# Si number density = 22.961651 Si / 1000 Ang^3
#
#
#
# Elastic Constant Matrix: (Units=GPa)
#
#
# Indices 1 2 3 4 5 6 
#
# 1 117.1352 46.6435 44.6546 0.1149 -20.5914 -8.2848
# 2 46.6435 84.9886 3.5756 -18.8037 -3.8007 -10.3969
# 3 44.6546 3.5756 79.4227 -11.6083 -32.5511 7.1009
# 4 0.1149 -18.8037 -11.6083 36.8309 -1.9997 -0.5214
# 5 -20.5914 -3.8007 -32.5511 -1.9997 32.3244 4.9019
# 6 -8.2848 -10.3969 7.1009 -0.5214 4.9019 14.4639
#
#
#
# Elastic Compliance Matrix: (Units=1/GPa)
#
#
# Indices 1 2 3 4 5 6 
#
# 1 0.018280 -0.010487 -0.015967 -0.010709 -0.008333 0.013210
# 2 -0.010487 0.020849 0.008522 0.013667 0.004635 0.003718
# 3 -0.015967 0.008522 0.046058 0.020771 0.044561 -0.039985
# 4 -0.010709 0.013667 0.020771 0.041631 0.020068 -0.011807
# 5 -0.008333 0.004635 0.044561 0.020068 0.079816 -0.049645
# 6 0.013210 0.003718 -0.039985 -0.011807 -0.049645 0.115406
#
#
# Mechanical properties :
#
#
# Convention : Reuss Voigt Hill
#
# Bulk Modulus (GPa) = 20.27408 52.36598 36.32003
# Shear Modulus (GPa) = 13.35665 29.16867 21.26266
#
# Velocity S-wave (km/s) = 2.41445 3.56802 3.04634
# Velocity P-wave (km/s) = 4.07694 6.31108 5.31278
#
# Compressibility (1/GPa) = 0.04932407
#
# Stress axis : x y z
#
# Youngs Moduli (GPa) = 54.70489 47.96385 21.71159
#
# Poissons Ratio (x) = 0.50298 0.34667
# Poissons Ratio (y) = 0.57367 -0.18503
# Poissons Ratio (z) = 0.87348 -0.40876
#
# Static dielectric constant tensor:
#      x y z
#    x 2.030850 -0.070850 -0.028590 
#    y -0.070850 1.974200 0.092080 
#    z -0.028590 0.092080 1.957740 
# 
# From -- ./inp_files/402134.got.cif
#   From: 2010.05.17/outbox.cif.g08.bks.cpg/sg2_202_cif.got.tgz:402134.got - 2010.06.03 11:33:40.
