data_PCOD9077113
_publ_section_title
;
Structure prediction by ZEFSAII (Michael W. Deem and Ramdas Pophale) SiO2 
 PCOD9077113
Probable space group: P -1
;
_chemical_formula_sum "Si O2"
_cell_formula_units_Z 16
_cell_length_a 18.489993
_cell_length_b 24.074740
_cell_length_c 9.994753
_cell_angle_alpha 155.553988
_cell_angle_beta 153.264772
_cell_angle_gamma 20.823324
_cell_volume 627.004245
_symmetry_space_group_name_H-M "P -1"
_symmetry_group_IT_number 2
_symmetry_cell_setting 'triclinic'
loop_
_space_group_symop_operation_xyz
x,y,z
-x,-y,-z
loop_
_atom_site_type_symbol
_atom_site_label
_atom_site_fract_x
_atom_site_fract_y
_atom_site_fract_z
Si Si1 0.047466 0.744272 0.566855
Si Si2 0.569316 0.797961 0.763885
Si Si3 0.542264 0.798595 0.279292
Si Si4 0.511105 0.569946 0.316913
Si Si5 0.222984 0.201658 0.537593
Si Si6 0.753279 0.102950 0.770613
Si Si7 0.209873 0.215367 0.117891
Si Si8 0.036317 0.819477 0.168781
O O1 0.292531 0.578390 0.589736
O O2 0.084294 0.876840 0.975810
O O3 0.945983 0.697136 0.399867
O O4 0.872549 0.894125 0.503437
O O5 0.557142 0.701189 0.650981
O O6 0.436631 0.798152 0.428825
O O7 0.790471 0.705459 0.849759
O O8 0.425620 0.006031 0.014406
O O9 0.406214 0.008307 0.481607
O O10 0.361350 0.812624 0.088946
O O11 0.730810 0.711396 0.507285
O O12 0.673137 0.722457 0.189628
O O13 0.284535 0.666269 0.217480
O O14 0.500000 0.500000 0.000000
O O15 0.104455 0.178676 0.174799
O O16 0.031626 0.214516 0.879123
O O17 0.000000 0.000000 0.500000
#
# Coordination Sequence:
#
# PCOD9077113 Si02
#       8
#     2   2   2   2   2   2   2   2
#     4  10  19  31  51  79 109 139 180 222 270 319
#     4  10  18  34  56  80 108 145 182 229 271 329
#     4   8  16  29  50  76 103 133 184 224 256 314
#     4  12  21  34  54  85 115 141 183 234 276 318
#     4   9  16  30  49  76 105 137 175 227 260 319
#     4   9  17  31  51  78 105 144 179 218 267 329
#     4   9  19  33  54  81 106 144 190 219 270 333
#     4  11  20  33  53  84 112 146 184 224 278 330
#
# _framework density 25.518169
#
# number of rings (size 3 to 8) (size 9 to 14) (size 15 to 20)
#    0.000    2.250    3.750    0.000    0.000    0.000 
#    0.000    1.875    0.000   12.750    0.000    0.000 
#    0.000    0.000    0.000    0.000    0.000    0.000 
#
# Total GULP energy -89085.638155 kJ/mol
# GULP energy per Si atom -5567.852385 kJ/mol
# Density = 2.546009 g / cm^3
# Si number density = 25.518169 Si / 1000 Ang^3
#
#
#
# Elastic Constant Matrix: (Units=GPa)
#
#
# Indices 1 2 3 4 5 6 
#
# 1 142.0612 41.2628 38.0343 -14.7087 41.5018 -19.1784
# 2 41.2628 106.8305 10.7854 -15.1573 25.7977 -22.0936
# 3 38.0343 10.7854 58.3264 -14.9628 19.9733 -6.4821
# 4 -14.7087 -15.1573 -14.9628 21.7492 -10.4149 17.5982
# 5 41.5018 25.7977 19.9733 -10.4149 35.5218 -7.5970
# 6 -19.1784 -22.0936 -6.4821 17.5982 -7.5970 36.1716
#
#
#
# Elastic Compliance Matrix: (Units=1/GPa)
#
#
# Indices 1 2 3 4 5 6 
#
# 1 0.011966 -0.001212 -0.004608 -0.005241 -0.010971 0.005024
# 2 -0.001212 0.012693 0.001964 0.001788 -0.007301 0.005059
# 3 -0.004608 0.001964 0.026114 0.018721 -0.006754 -0.007090
# 4 -0.005241 0.001788 0.018721 0.098103 0.013832 -0.043156
# 5 -0.010971 -0.007301 -0.006754 0.013832 0.052592 -0.007171
# 6 0.005024 0.005059 -0.007090 -0.043156 -0.007171 0.051619
#
#
# Mechanical properties :
#
#
# Convention : Reuss Voigt Hill
#
# Bulk Modulus (GPa) = 23.22240 54.15367 38.68804
# Shear Modulus (GPa) = 18.17180 33.16425 25.66802
#
# Velocity S-wave (km/s) = 2.67144 3.60895 3.17499
# Velocity P-wave (km/s) = 4.31689 6.21560 5.35113
#
# Compressibility (1/GPa) = 0.04306187
#
# Stress axis : x y z
#
# Youngs Moduli (GPa) = 83.57313 78.78100 38.29390
#
# Poissons Ratio (x) = 0.09546 0.17645
# Poissons Ratio (y) = 0.10126 -0.07521
# Poissons Ratio (z) = 0.38509 -0.15473
#
# Static dielectric constant tensor:
#      x y z
#    x 2.111160 0.007530 -0.037570 
#    y 0.007530 2.150080 -0.034620 
#    z -0.037570 -0.034620 2.156390 
# 
# From -- ./inp_files/389149.got.cif
#   From: 2010.05.17/outbox.cif.g08.bks.cpg/sg2_195_cif.got.tgz:389149.got - 2010.06.03 11:33:40.
