data_PCOD9077568
_publ_section_title
;
Structure prediction by ZEFSAII (Michael W. Deem and Ramdas Pophale) SiO2 
 PCOD9077568
Probable space group: P -1
;
_chemical_formula_sum "Si O2"
_cell_formula_units_Z 15
_cell_length_a 9.737658
_cell_length_b 8.672362
_cell_length_c 18.465145
_cell_angle_alpha 57.999935
_cell_angle_beta 138.721934
_cell_angle_gamma 133.629513
_cell_volume 744.398527
_symmetry_space_group_name_H-M "P -1"
_symmetry_group_IT_number 2
_symmetry_cell_setting 'triclinic'
loop_
_space_group_symop_operation_xyz
x,y,z
-x,-y,-z
loop_
_atom_site_type_symbol
_atom_site_label
_atom_site_fract_x
_atom_site_fract_y
_atom_site_fract_z
Si Si1 0.375006 0.598852 0.379455
Si Si2 0.497085 0.170903 0.011963
Si Si3 0.102986 0.811896 0.755140
Si Si4 0.717419 0.162831 0.597683
Si Si5 0.747094 0.497692 0.912913
Si Si6 0.671739 0.724110 0.317908
Si Si7 0.000000 0.500000 0.500000
Si Si8 0.966556 0.926362 0.823845
O O1 0.500000 0.500000 0.500000
O O2 0.385255 0.780645 0.387396
O O3 0.517248 0.677875 0.341068
O O4 0.098101 0.408874 0.303666
O O5 0.635964 0.167434 0.138871
O O6 0.649749 0.399433 0.977487
O O7 0.500000 0.000000 0.000000
O O8 0.214400 0.088987 0.923110
O O9 0.018087 0.817906 0.802265
O O10 0.139859 0.022523 0.678945
O O11 0.885776 0.368650 0.564032
O O12 0.500000 0.000000 0.500000
O O13 0.853223 0.050258 0.711383
O O14 0.524712 0.347861 0.807541
O O15 0.802231 0.732972 0.860463
O O16 0.000000 0.500000 0.000000
O O17 0.812544 0.596193 0.405245
#
# Coordination Sequence:
#
# PCOD9077568 Si02
#       8
#     2   2   2   2   2   2   1   2
#     4  12  26  43  63  92 129 173 215 267 324 381
#     4  10  18  34  61 100 124 160 212 267 310 376
#     4  11  21  39  66  95 128 163 218 272 313 382
#     4  12  26  45  64  91 130 169 218 272 323 385
#     4  12  18  33  65  98 126 164 215 262 314 381
#     4  12  23  39  65  99 130 170 218 261 326 380
#     4  12  24  40  68  92 126 172 216 262 322 382
#     4  11  20  36  63  94 125 165 211 264 314 379
#
# _framework density 20.150497000000001
#
# number of rings (size 3 to 8) (size 9 to 14) (size 15 to 20)
#    0.000    0.533    9.333    1.600    0.000    1.600 
#    0.000    0.667    0.000    5.600    0.000    0.000 
#    0.000    0.000    0.000    0.000    0.000    0.000 
#
# Total GULP energy -83507.392161 kJ/mol
# GULP energy per Si atom -5567.159477 kJ/mol
# Density = 2.010463 g / cm^3
# Si number density = 20.150497 Si / 1000 Ang^3
#
#
#
# Elastic Constant Matrix: (Units=GPa)
#
#
# Indices 1 2 3 4 5 6 
#
# 1 53.5473 20.0408 26.0223 2.0950 8.5269 -2.4648
# 2 20.0408 79.0634 38.4045 -11.7775 -3.2519 15.1347
# 3 26.0223 38.4045 122.9104 -11.2975 8.6808 -17.3832
# 4 2.0950 -11.7775 -11.2975 45.9337 6.1260 -11.3221
# 5 8.5269 -3.2519 8.6808 6.1260 13.3213 -6.6045
# 6 -2.4648 15.1347 -17.3832 -11.3221 -6.6045 28.1607
#
#
#
# Elastic Compliance Matrix: (Units=1/GPa)
#
#
# Indices 1 2 3 4 5 6 
#
# 1 0.024456 -0.005725 -0.002498 -0.001285 -0.015013 -0.000362
# 2 -0.005725 0.021272 -0.008276 -0.001157 0.006905 -0.015888
# 3 -0.002498 -0.008276 0.014113 0.005607 -0.005276 0.013957
# 4 -0.001285 -0.001157 0.005607 0.027302 -0.009345 0.012756
# 5 -0.015013 0.006905 -0.005276 -0.009345 0.099726 0.011349
# 6 -0.000362 -0.015888 0.013957 0.012756 0.011349 0.060423
#
#
# Mechanical properties :
#
#
# Convention : Reuss Voigt Hill
#
# Bulk Modulus (GPa) = 37.25327 47.16182 42.20754
# Shear Modulus (GPa) = 17.28685 28.88670 23.08677
#
# Velocity S-wave (km/s) = 2.93215 3.79033 3.38852
# Velocity P-wave (km/s) = 5.47640 6.52772 6.02503
#
# Compressibility (1/GPa) = 0.02684328
#
# Stress axis : x y z
#
# Youngs Moduli (GPa) = 40.88987 47.00996 70.85845
#
# Poissons Ratio (x) = 0.26915 0.17699
# Poissons Ratio (y) = 0.23411 0.58639
# Poissons Ratio (z) = 0.10213 0.38903
#
# Static dielectric constant tensor:
#      x y z
#    x 1.711100 0.014710 0.023980 
#    y 0.014710 1.658620 0.010510 
#    z 0.023980 0.010510 1.718740 
# 
# From -- ./inp_files/556125.got.cif
#   From: 2010.05.17/outbox.cif.g08.bks.cpg/sg2_279_cif.got.tgz:556125.got - 2010.06.03 11:33:40.
