data_PCOD9077251
_publ_section_title
;
Structure prediction by ZEFSAII (Michael W. Deem and Ramdas Pophale) SiO2 
 PCOD9077251
Probable space group: P -1
;
_chemical_formula_sum "Si O2"
_cell_formula_units_Z 16
_cell_length_a 7.165504
_cell_length_b 14.030877
_cell_length_c 7.918167
_cell_angle_alpha 78.282341
_cell_angle_beta 64.916658
_cell_angle_gamma 59.215413
_cell_volume 619.312901
_symmetry_space_group_name_H-M "P -1"
_symmetry_group_IT_number 2
_symmetry_cell_setting 'triclinic'
loop_
_space_group_symop_operation_xyz
x,y,z
-x,-y,-z
loop_
_atom_site_type_symbol
_atom_site_label
_atom_site_fract_x
_atom_site_fract_y
_atom_site_fract_z
Si Si1 0.207318 0.561138 0.242610
Si Si2 0.727053 0.155588 0.617187
Si Si3 0.784763 0.436671 0.385764
Si Si4 0.420642 0.376661 0.814041
Si Si5 0.465455 0.896607 0.597600
Si Si6 0.903153 0.279837 0.076708
Si Si7 0.038217 0.058724 0.220945
Si Si8 0.611953 0.692202 0.809165
O O1 0.109202 0.596592 0.457495
O O2 0.465918 0.556324 0.156915
O O3 0.249086 0.436447 0.253097
O O4 0.078339 0.650930 0.112764
O O5 0.637029 0.278111 0.671125
O O6 0.533530 0.160625 0.560045
O O7 0.957882 0.108496 0.426076
O O8 0.769237 0.067380 0.779049
O O9 0.500000 0.500000 0.500000
O O10 0.787614 0.540827 0.254268
O O11 0.870120 0.342647 0.245142
O O12 0.346530 0.316341 0.003782
O O13 0.196862 0.944070 0.750939
O O14 0.633989 0.794843 0.687747
O O15 0.500000 0.000000 0.500000
O O16 0.081699 0.148290 0.072417
O O17 0.655341 0.278981 0.142151
#
# Coordination Sequence:
#
# PCOD9077251 Si02
#       8
#     2   2   2   2   2   2   2   2
#     4  10  17  24  40  69 101 125 147 194 254 292
#     4   9  17  31  48  69  97 126 166 191 238 296
#     4  10  15  21  40  63  96 125 147 183 250 285
#     4  10  16  25  43  71  99 124 152 195 250 289
#     4   9  18  32  49  67  91 129 169 198 237 276
#     4  10  15  27  39  66  99 123 149 194 240 292
#     4   8  17  30  50  65  99 127 161 195 238 286
#     4  10  16  27  42  67 101 124 150 206 242 284
#
# _framework density 25.835080999999999
#
# number of rings (size 3 to 8) (size 9 to 14) (size 15 to 20)
#    0.750    1.750    3.750    3.000    0.000    0.000 
#    0.000    6.250    0.000    0.000    0.000    1.750 
#    0.000    0.000    0.000    0.500    0.000    0.000 
#
# Total GULP energy -89304.315230 kJ/mol
# GULP energy per Si atom -5581.519702 kJ/mol
# Density = 2.577628 g / cm^3
# Si number density = 25.835081 Si / 1000 Ang^3
#
#
#
# Elastic Constant Matrix: (Units=GPa)
#
#
# Indices 1 2 3 4 5 6 
#
# 1 38.7055 13.9182 25.3440 -12.0919 -18.6038 -9.4358
# 2 13.9182 152.9272 62.6610 -51.7123 12.0231 11.7395
# 3 25.3440 62.6610 136.7987 -49.1522 35.3362 11.8859
# 4 -12.0919 -51.7123 -49.1522 61.5258 -2.2708 3.7672
# 5 -18.6038 12.0231 35.3362 -2.2708 19.3807 -23.1346
# 6 -9.4358 11.7395 11.8859 3.7672 -23.1346 17.1790
#
#
#
# Elastic Compliance Matrix: (Units=1/GPa)
#
#
# Indices 1 2 3 4 5 6 
#
# 1 0.014610 0.002107 0.004244 0.008531 -0.013336 -0.016181
# 2 0.002107 0.009461 -0.003454 0.005722 0.003061 -0.000050
# 3 0.004244 -0.003454 0.006097 0.002454 0.007718 0.010329
# 4 0.008531 0.005722 0.002454 0.024750 0.007431 0.003658
# 5 -0.013336 0.003061 0.007718 0.007431 -0.006809 -0.025556
# 6 -0.016181 -0.000050 0.010329 0.003658 -0.025556 0.006994
#
#
# Mechanical properties :
#
#
# Convention : Reuss Voigt Hill
#
# Bulk Modulus (GPa) = 27.80785 59.14198 43.47492
# Shear Modulus (GPa) = 81.57025 34.71763 58.14394
#
# Velocity S-wave (km/s) = 5.62512 3.66979 4.74918
# Velocity P-wave (km/s) = 7.27848 6.39518 6.85108
#
# Compressibility (1/GPa) = 0.03596107
#
# Stress axis : x y z
#
# Youngs Moduli (GPa) = 68.44449 105.69846 164.02409
#
# Poissons Ratio (x) = -0.22267 -0.69614
# Poissons Ratio (y) = -0.14419 0.56657
# Poissons Ratio (z) = -0.29049 0.36510
#
# Static dielectric constant tensor:
#      x y z
#    x 2.157210 0.027920 -0.062490 
#    y 0.027920 2.078390 -0.026050 
#    z -0.062490 -0.026050 2.160340 
# 
# From -- ./inp_files/252967.got.cif
#   From: 2010.05.17/outbox.cif.g08.bks.cpg/sg2_127_cif.got.tgz:252967.got - 2010.06.03 11:33:40.
