data_PCOD9077984
_publ_section_title
;
Structure prediction by ZEFSAII (Michael W. Deem and Ramdas Pophale) SiO2 
 PCOD9077984
Probable space group: P -1
;
_chemical_formula_sum "Si O2"
_cell_formula_units_Z 16
_cell_length_a 14.487580
_cell_length_b 21.226443
_cell_length_c 8.381601
_cell_angle_alpha 51.757300
_cell_angle_beta 49.574497
_cell_angle_gamma 20.154622
_cell_volume 675.544773
_symmetry_space_group_name_H-M "P -1"
_symmetry_group_IT_number 2
_symmetry_cell_setting 'triclinic'
loop_
_space_group_symop_operation_xyz
x,y,z
-x,-y,-z
loop_
_atom_site_type_symbol
_atom_site_label
_atom_site_fract_x
_atom_site_fract_y
_atom_site_fract_z
Si Si1 0.128450 0.157676 0.253942
Si Si2 0.467927 0.400833 0.118737
Si Si3 0.635556 0.775432 0.368372
Si Si4 0.334544 0.649262 0.719994
Si Si5 0.123049 0.032295 0.681770
Si Si6 0.660648 0.180374 0.955871
Si Si7 0.997207 0.588786 0.537553
Si Si8 0.772021 0.492920 0.272663
O O1 0.962664 0.198151 0.256723
O O2 0.963487 0.339033 0.162220
O O3 0.056326 0.162375 0.502389
O O4 0.460304 0.947537 0.202677
O O5 0.675808 0.288837 0.209457
O O6 0.189465 0.535880 0.304370
O O7 0.453268 0.494455 0.896261
O O8 0.533532 0.299376 0.066981
O O9 0.884799 0.573185 0.343058
O O10 0.720371 0.753476 0.485206
O O11 0.388466 0.859662 0.542812
O O12 0.542700 0.567317 0.488020
O O13 0.895561 0.104762 0.768868
O O14 0.192793 0.981768 0.869423
O O15 0.420909 0.321197 0.873654
O O16 0.023967 0.600406 0.670197
#
# Coordination Sequence:
#
# PCOD9077984 Si02
#       8
#     2   2   2   2   2   2   2   2
#     4  10  18  35  57  81 110 142 180 230 271 321
#     4  10  19  32  56  81 114 145 179 219 278 333
#     4   9  20  40  58  73 112 152 188 222 274 322
#     4  10  19  32  53  87 113 144 174 224 283 329
#     4   9  20  33  56  82 111 150 174 229 280 324
#     4  11  18  35  55  86 114 141 180 230 282 327
#     4  10  21  39  58  78 106 157 189 220 268 337
#     4  11  20  33  62  85 110 143 188 224 275 331
#
# _framework density 23.68459
#
# number of rings (size 3 to 8) (size 9 to 14) (size 15 to 20)
#    0.750    1.250    3.750    1.125    0.000    0.500 
#    4.500    3.750    0.000    0.000    0.000    0.000 
#    0.000    0.000    0.000    0.000    0.000    0.000 
#
# Total GULP energy -89085.158925 kJ/mol
# GULP energy per Si atom -5567.822433 kJ/mol
# Density = 2.363068 g / cm^3
# Si number density = 23.684590 Si / 1000 Ang^3
#
#
#
# Elastic Constant Matrix: (Units=GPa)
#
#
# Indices 1 2 3 4 5 6 
#
# 1 65.5599 17.8640 5.7655 -12.3687 20.6206 -24.4764
# 2 17.8640 84.8262 10.3898 -22.2461 12.3449 -24.7445
# 3 5.7655 10.3898 54.1392 -15.1370 -9.6759 1.8156
# 4 -12.3687 -22.2461 -15.1370 35.3468 0.2791 8.0946
# 5 20.6206 12.3449 -9.6759 0.2791 26.4772 -14.1860
# 6 -24.4764 -24.7445 1.8156 8.0946 -14.1860 28.2562
#
#
#
# Elastic Compliance Matrix: (Units=1/GPa)
#
#
# Indices 1 2 3 4 5 6 
#
# 1 0.027364 0.003929 -0.005454 0.005696 -0.015512 0.018076
# 2 0.003929 0.018639 -0.003023 0.008398 -0.004870 0.015069
# 3 -0.005454 -0.003023 0.023986 0.007587 0.011495 -0.005316
# 4 0.005696 0.008398 0.007587 0.039690 -0.007888 -0.003529
# 5 -0.015512 -0.004870 0.011495 -0.007888 0.065299 0.016603
# 6 0.018076 0.015069 -0.005316 -0.003529 0.016603 0.073933
#
#
# Mechanical properties :
#
#
# Convention : Reuss Voigt Hill
#
# Bulk Modulus (GPa) = 16.42220 30.28487 23.35354
# Shear Modulus (GPa) = 17.96595 29.38309 23.67452
#
# Velocity S-wave (km/s) = 2.75717 3.52604 3.16504
# Velocity P-wave (km/s) = 4.13337 5.42141 4.82060
#
# Compressibility (1/GPa) = 0.06089319
#
# Stress axis : x y z
#
# Youngs Moduli (GPa) = 36.54387 53.65192 41.69120
#
# Poissons Ratio (x) = -0.21082 0.22740
# Poissons Ratio (y) = -0.14359 0.12603
# Poissons Ratio (z) = 0.19932 0.16218
#
# Static dielectric constant tensor:
#      x y z
#    x 1.892430 0.014980 -0.045260 
#    y 0.014980 2.034440 -0.058780 
#    z -0.045260 -0.058780 1.993430 
# 
# From -- ./inp_files/319287.got.cif
#   From: 2010.05.17/outbox.cif.g08.bks.cpg/sg2_160_cif.got.tgz:319287.got - 2010.06.03 11:33:40.
