data_PCOD9077692
_publ_section_title
;
Structure prediction by ZEFSAII (Michael W. Deem and Ramdas Pophale) SiO2 
 PCOD9077692
Probable space group: P -1
;
_chemical_formula_sum "Si O2"
_cell_formula_units_Z 16
_cell_length_a 17.099960
_cell_length_b 11.300192
_cell_length_c 11.157330
_cell_angle_alpha 58.114139
_cell_angle_beta 37.076146
_cell_angle_gamma 34.362008
_cell_volume 677.636678
_symmetry_space_group_name_H-M "P -1"
_symmetry_group_IT_number 2
_symmetry_cell_setting 'triclinic'
loop_
_space_group_symop_operation_xyz
x,y,z
-x,-y,-z
loop_
_atom_site_type_symbol
_atom_site_label
_atom_site_fract_x
_atom_site_fract_y
_atom_site_fract_z
Si Si1 0.369015 0.099435 0.820529
Si Si2 0.329821 0.232052 0.160242
Si Si3 0.212274 0.750281 0.694891
Si Si4 0.226229 0.871187 0.265751
Si Si5 0.260847 0.902015 0.943731
Si Si6 0.652901 0.608724 0.462212
Si Si7 0.462722 0.400479 0.778301
Si Si8 0.061050 0.319217 0.273737
O O1 0.264679 0.062552 0.891889
O O2 0.404900 0.200543 0.639003
O O3 0.574755 0.868566 0.767859
O O4 0.189223 0.299222 0.028571
O O5 0.107558 0.349536 0.329176
O O6 0.349640 0.366770 0.001232
O O7 0.500000 0.000000 0.000000
O O8 0.257457 0.581625 0.638832
O O9 0.300747 0.628777 0.779409
O O10 0.344373 0.769216 0.467761
O O11 0.962750 0.970872 0.888942
O O12 0.186608 0.065416 0.248341
O O13 0.402157 0.655864 0.247390
O O14 0.298437 0.798556 0.080982
O O15 0.000000 0.000000 0.500000
O O16 0.439029 0.742366 0.713808
O O17 0.828503 0.490832 0.413876
#
# Coordination Sequence:
#
# PCOD9077692 Si02
#       8
#     2   2   2   2   2   2   2   2
#     4  10  20  37  60  88 130 164 206 257 309 359
#     4  10  18  34  62  94 118 167 210 251 310 367
#     4  11  24  41  65  93 122 169 202 258 319 362
#     4  11  19  40  68  87 128 165 201 257 306 368
#     4  11  23  40  63  95 126 162 210 256 312 364
#     4  12  23  40  63  96 127 161 213 254 305 380
#     4  11  21  39  67  89 125 164 210 254 312 373
#     4  10  20  35  61  96 121 163 213 247 315 362
#
# _framework density 23.611471999999999
#
# number of rings (size 3 to 8) (size 9 to 14) (size 15 to 20)
#    0.000    1.250    7.500    2.250    1.750    0.000 
#    0.000    6.875    0.000    0.000    0.000    0.000 
#    0.000    0.000    0.000    0.000    0.000    0.000 
#
# Total GULP energy -89274.470072 kJ/mol
# GULP energy per Si atom -5579.654380 kJ/mol
# Density = 2.355773 g / cm^3
# Si number density = 23.611472 Si / 1000 Ang^3
#
#
#
# Elastic Constant Matrix: (Units=GPa)
#
#
# Indices 1 2 3 4 5 6 
#
# 1 86.9370 27.7588 14.9505 10.6216 -20.0165 -23.2876
# 2 27.7588 75.7989 33.2357 -19.7470 0.7793 -29.1768
# 3 14.9505 33.2357 72.7341 -4.1687 0.9695 -9.9639
# 4 10.6216 -19.7470 -4.1687 33.2501 -3.3338 -4.9690
# 5 -20.0165 0.7793 0.9695 -3.3338 29.1817 6.1825
# 6 -23.2876 -29.1768 -9.9639 -4.9690 6.1825 39.8687
#
#
#
# Elastic Compliance Matrix: (Units=1/GPa)
#
#
# Indices 1 2 3 4 5 6 
#
# 1 0.018624 -0.008918 -0.000309 -0.009934 0.011627 0.001234
# 2 -0.008918 0.037179 -0.010225 0.026360 -0.008865 0.024104
# 3 -0.000309 -0.010225 0.017727 -0.004333 -0.000231 -0.003737
# 4 -0.009934 0.026360 -0.004333 0.050717 -0.005736 0.019616
# 5 0.011627 -0.008865 -0.000231 -0.005736 0.043356 -0.007192
# 6 0.001234 0.024104 -0.003737 0.019616 -0.007192 0.046069
#
#
# Mechanical properties :
#
#
# Convention : Reuss Voigt Hill
#
# Bulk Modulus (GPa) = 28.87830 43.04003 35.95916
# Shear Modulus (GPa) = 18.93100 31.09509 25.01304
#
# Velocity S-wave (km/s) = 2.83463 3.63292 3.25831
# Velocity P-wave (km/s) = 4.79277 5.98878 5.42384
#
# Compressibility (1/GPa) = 0.03462807
#
# Stress axis : x y z
#
# Youngs Moduli (GPa) = 53.69301 26.89723 56.41077
#
# Poissons Ratio (x) = 0.23986 0.01741
# Poissons Ratio (y) = 0.47882 0.57678
# Poissons Ratio (z) = 0.01657 0.27501
#
# Static dielectric constant tensor:
#      x y z
#    x 2.015940 0.005500 -0.016660 
#    y 0.005500 1.911660 -0.023790 
#    z -0.016660 -0.023790 1.999940 
# 
# From -- ./inp_files/471921.got.cif
#   From: 2010.05.17/outbox.cif.g08.bks.cpg/sg2_236_cif.got.tgz:471921.got - 2010.06.03 11:33:40.
