data_PCOD9077769
_publ_section_title
;
Structure prediction by ZEFSAII (Michael W. Deem and Ramdas Pophale) SiO2 
 PCOD9077769
Probable space group: P -1
;
_chemical_formula_sum "Si O2"
_cell_formula_units_Z 14
_cell_length_a 9.482628
_cell_length_b 8.446654
_cell_length_c 12.021269
_cell_angle_alpha 70.966162
_cell_angle_beta 137.227826
_cell_angle_gamma 117.045292
_cell_volume 582.316205
_symmetry_space_group_name_H-M "P -1"
_symmetry_group_IT_number 2
_symmetry_cell_setting 'triclinic'
loop_
_space_group_symop_operation_xyz
x,y,z
-x,-y,-z
loop_
_atom_site_type_symbol
_atom_site_label
_atom_site_fract_x
_atom_site_fract_y
_atom_site_fract_z
Si Si1 0.249534 0.277092 0.390586
Si Si2 0.065088 0.514386 0.369049
Si Si3 0.254773 0.513376 0.139229
Si Si4 0.715423 0.639896 0.037613
Si Si5 0.557352 0.896614 0.271337
Si Si6 0.891365 0.927096 0.256711
Si Si7 0.750330 0.243861 0.407408
O O1 0.141813 0.359685 0.405066
O O2 0.325076 0.434142 0.309789
O O3 0.395628 0.186470 0.565202
O O4 0.050766 0.114865 0.261136
O O5 0.270075 0.664916 0.509346
O O6 0.946197 0.600466 0.193363
O O7 0.859998 0.412921 0.354043
O O8 0.377068 0.725926 0.151547
O O9 0.315941 0.397926 0.103387
O O10 0.000000 0.500000 0.000000
O O11 0.761812 0.812919 0.103780
O O12 0.500000 0.500000 0.000000
O O13 0.742473 0.948125 0.269052
O O14 0.557470 0.089305 0.271095
O O15 0.053071 0.832853 0.428486
#
# Coordination Sequence:
#
# PCOD9077769 Si02
#       7
#     2   2   2   2   2   2   2
#     4  11  21  40  66  94 124 165 204 265 317 364
#     4  10  18  34  64  95 124 152 210 260 310 352
#     4  12  26  42  61  90 135 169 203 258 316 370
#     4  11  23  41  61  89 126 173 209 247 307 381
#     4  11  20  40  65  95 122 164 214 253 313 373
#     4  10  19  37  68  91 122 157 216 258 305 370
#     4   9  18  33  62  98 120 151 207 273 299 354
#
# _framework density 24.041919
#
# number of rings (size 3 to 8) (size 9 to 14) (size 15 to 20)
#    0.000    1.429    5.714    1.286    0.000    0.571 
#    2.571    2.857    3.143    0.000    0.000    0.000 
#    0.000    0.000    0.000    0.000    0.000    0.000 
#
# Total GULP energy -78036.520736 kJ/mol
# GULP energy per Si atom -5574.037195 kJ/mol
# Density = 2.398720 g / cm^3
# Si number density = 24.041919 Si / 1000 Ang^3
#
#
#
# Elastic Constant Matrix: (Units=GPa)
#
#
# Indices 1 2 3 4 5 6 
#
# 1 43.8221 2.5540 11.2329 7.8015 -10.2802 -0.9509
# 2 2.5540 103.7921 21.9112 51.5147 -9.9005 -11.8083
# 3 11.2329 21.9112 78.5606 16.0439 -11.5106 -6.2648
# 4 7.8015 51.5147 16.0439 52.9617 -5.0640 -11.4803
# 5 -10.2802 -9.9005 -11.5106 -5.0640 31.7743 4.5279
# 6 -0.9509 -11.8083 -6.2648 -11.4803 4.5279 29.6327
#
#
#
# Elastic Compliance Matrix: (Units=1/GPa)
#
#
# Indices 1 2 3 4 5 6 
#
# 1 0.026157 0.003453 -0.002439 -0.006122 0.007949 -0.001887
# 2 0.003453 0.019475 -0.001595 -0.018674 0.003669 -0.000261
# 3 -0.002439 -0.001595 0.014515 -0.001917 0.003513 0.001075
# 4 -0.006122 -0.018674 -0.001917 0.039935 -0.003259 0.007926
# 5 0.007949 0.003669 0.003513 -0.003259 0.036566 -0.004390
# 6 -0.001887 -0.000261 0.001075 0.007926 -0.004390 0.037551
#
#
# Mechanical properties :
#
#
# Convention : Reuss Voigt Hill
#
# Bulk Modulus (GPa) = 16.95321 33.06344 25.00833
# Shear Modulus (GPa) = 25.63822 35.57218 30.60520
#
# Velocity S-wave (km/s) = 3.26912 3.85072 3.57177
# Velocity P-wave (km/s) = 4.61696 5.79249 5.23781
#
# Compressibility (1/GPa) = 0.05898586
#
# Stress axis : x y z
#
# Youngs Moduli (GPa) = 38.23064 51.34723 68.89593
#
# Poissons Ratio (x) = -0.17732 0.16802
# Poissons Ratio (y) = -0.13202 0.10990
# Poissons Ratio (z) = 0.09323 0.08191
#
# Static dielectric constant tensor:
#      x y z
#    x 1.960410 -0.032340 0.004680 
#    y -0.032340 1.932010 0.023120 
#    z 0.004680 0.023120 2.029750 
# 
# From -- ./inp_files/159212.got.cif
#   From: 2010.05.17/outbox.cif.g08.bks.cpg/sg2_80_cif.got.tgz:159212.got - 2010.06.03 11:33:40.
