data_PCOD9077280
_publ_section_title
;
Structure prediction by ZEFSAII (Michael W. Deem and Ramdas Pophale) SiO2 
 PCOD9077280
Probable space group: P -1
;
_chemical_formula_sum "Si O2"
_cell_formula_units_Z 16
_cell_length_a 9.716447
_cell_length_b 13.101500
_cell_length_c 9.737487
_cell_angle_alpha 94.678638
_cell_angle_beta 72.407554
_cell_angle_gamma 146.092739
_cell_volume 624.869454
_symmetry_space_group_name_H-M "P -1"
_symmetry_group_IT_number 2
_symmetry_cell_setting 'triclinic'
loop_
_space_group_symop_operation_xyz
x,y,z
-x,-y,-z
loop_
_atom_site_type_symbol
_atom_site_label
_atom_site_fract_x
_atom_site_fract_y
_atom_site_fract_z
Si Si1 0.167673 0.500117 0.523175
Si Si2 0.310010 0.424428 0.268482
Si Si3 0.917173 0.345331 0.852848
Si Si4 0.081258 0.214153 0.849182
Si Si5 0.130565 0.890720 0.831880
Si Si6 0.226905 0.212166 0.515215
Si Si7 0.510085 0.884642 0.499526
Si Si8 0.335080 0.784110 0.822579
O O1 0.161993 0.433844 0.378117
O O2 0.922423 0.333006 0.686139
O O3 0.465147 0.640438 0.517744
O O4 0.235207 0.660636 0.517023
O O5 0.620436 0.634676 0.173600
O O6 0.283524 0.326970 0.389375
O O7 0.168013 0.302490 0.160933
O O8 0.048383 0.317917 0.862467
O O9 0.111282 0.560566 0.839798
O O10 0.651542 0.203793 0.013560
O O11 0.085797 0.174394 0.689810
O O12 0.877358 0.057321 0.014459
O O13 0.241588 0.842536 0.818823
O O14 0.285345 0.031323 0.670312
O O15 0.000000 0.000000 0.500000
O O16 0.557167 0.894692 0.649641
O O17 0.500000 0.000000 0.500000
#
# Coordination Sequence:
#
# PCOD9077280 Si02
#       8
#     2   2   2   2   2   2   2   2
#     4  10  18  34  58  78 111 150 190 227 277 330
#     4  11  20  35  54  86 113 146 188 228 276 337
#     4   9  14  31  56  83 101 142 190 232 270 318
#     4  10  19  36  57  82 113 149 185 228 277 333
#     4  10  20  34  55  83 117 148 183 228 282 332
#     4  11  21  35  56  85 112 149 185 229 282 332
#     4   9  18  35  53  80 109 154 184 228 281 330
#     4   8  17  29  56  82 105 143 189 230 277 322
#
# _framework density 25.605350000000001
#
# number of rings (size 3 to 8) (size 9 to 14) (size 15 to 20)
#    0.000    2.250    2.500    1.875    0.000    0.000 
#    0.000   12.500    0.000    0.750   16.250    0.000 
#    0.000    0.000    0.000    0.000    0.000    0.000 
#
# Total GULP energy -89289.929200 kJ/mol
# GULP energy per Si atom -5580.620575 kJ/mol
# Density = 2.554707 g / cm^3
# Si number density = 25.605350 Si / 1000 Ang^3
#
#
#
# Elastic Constant Matrix: (Units=GPa)
#
#
# Indices 1 2 3 4 5 6 
#
# 1 54.1265 -3.0075 24.0173 -6.3050 0.7844 -2.9602
# 2 -3.0075 64.0599 20.5795 3.9366 3.3516 -1.4077
# 3 24.0173 20.5795 266.4546 -9.6423 -16.3501 7.0356
# 4 -6.3050 3.9366 -9.6423 22.0141 -6.1530 5.8547
# 5 0.7844 3.3516 -16.3501 -6.1530 17.1548 6.3487
# 6 -2.9602 -1.4077 7.0356 5.8547 6.3487 31.3348
#
#
#
# Elastic Compliance Matrix: (Units=1/GPa)
#
#
# Indices 1 2 3 4 5 6 
#
# 1 0.020018 0.001634 -0.002074 0.003021 -0.003047 0.002483
# 2 0.001634 0.017744 -0.002639 -0.008365 -0.011034 0.005342
# 3 -0.002074 -0.002639 0.005026 0.005780 0.009089 -0.004364
# 4 0.003021 -0.008365 0.005780 0.067073 0.039150 -0.021852
# 5 -0.003047 -0.011034 0.009089 0.039150 0.094101 -0.029205
# 6 0.002483 0.005342 -0.004364 -0.021852 -0.029205 0.043368
#
#
# Mechanical properties :
#
#
# Convention : Reuss Voigt Hill
#
# Bulk Modulus (GPa) = 27.29897 51.97996 39.63947
# Shear Modulus (GPa) = 18.81853 36.97084 27.89469
#
# Velocity S-wave (km/s) = 2.71393 3.80395 3.30420
# Velocity P-wave (km/s) = 4.52826 6.29587 5.48375
#
# Compressibility (1/GPa) = 0.03663142
#
# Stress axis : x y z
#
# Youngs Moduli (GPa) = 49.95489 56.35853 198.97244
#
# Poissons Ratio (x) = -0.09211 0.41263
# Poissons Ratio (y) = -0.08164 0.52500
# Poissons Ratio (z) = 0.10360 0.14871
#
# Static dielectric constant tensor:
#      x y z
#    x 2.175440 0.134150 0.035440 
#    y 0.134150 2.237710 0.038090 
#    z 0.035440 0.038090 2.056430 
# 
# From -- ./inp_files/176144.got.cif
#   From: 2010.05.17/outbox.cif.g08.bks.cpg/sg2_89_cif.got.tgz:176144.got - 2010.06.03 11:33:40.
