data_PCOD9077553
_publ_section_title
;
Structure prediction by ZEFSAII (Michael W. Deem and Ramdas Pophale) SiO2 
 PCOD9077553
Probable space group: P -1
;
_chemical_formula_sum "Si O2"
_cell_formula_units_Z 16
_cell_length_a 9.932463
_cell_length_b 19.944253
_cell_length_c 11.885991
_cell_angle_alpha 150.534608
_cell_angle_beta 55.192486
_cell_angle_gamma 114.162177
_cell_volume 928.299012
_symmetry_space_group_name_H-M "P -1"
_symmetry_group_IT_number 2
_symmetry_cell_setting 'triclinic'
loop_
_space_group_symop_operation_xyz
x,y,z
-x,-y,-z
loop_
_atom_site_type_symbol
_atom_site_label
_atom_site_fract_x
_atom_site_fract_y
_atom_site_fract_z
Si Si1 0.083161 0.129279 0.120234
Si Si2 0.028190 0.650472 0.069993
Si Si3 0.475664 0.635788 0.551612
Si Si4 0.839752 0.677922 0.434242
Si Si5 0.623174 0.872399 0.194755
Si Si6 0.124589 0.342252 0.083418
Si Si7 0.609911 0.312154 0.076715
Si Si8 0.160918 0.637972 0.568428
O O1 0.128324 0.209587 0.326421
O O2 0.946590 0.242676 0.282905
O O3 0.247990 0.089547 0.903796
O O4 0.000000 0.000000 0.000000
O O5 0.930189 0.686936 0.286048
O O6 0.915616 0.694011 0.077186
O O7 0.090584 0.480847 0.785482
O O8 0.194039 0.714159 0.085257
O O9 0.642495 0.690482 0.527803
O O10 0.529291 0.468811 0.301403
O O11 0.403274 0.693573 0.790850
O O12 0.337034 0.666212 0.565872
O O13 0.500000 0.000000 0.500000
O O14 0.740747 0.775151 0.088112
O O15 0.502152 0.785095 0.065126
O O16 0.182531 0.488824 0.279214
O O17 0.950454 0.367504 0.274078
#
# Coordination Sequence:
#
# PCOD9077553 Si02
#       8
#     2   2   2   2   2   2   2   2
#     4  11  24  42  60  83 124 167 191 230 302 364
#     4  10  20  36  60  92 120 149 193 250 298 342
#     4  10  18  34  60  94 112 147 200 248 294 336
#     4  10  21  37  58  87 126 156 189 237 302 357
#     4  11  24  41  60  88 121 157 199 243 290 352
#     4  10  19  36  62  92 116 147 197 255 291 331
#     4  10  19  33  62  88 118 149 195 249 292 341
#     4  10  19  35  64  91 115 146 204 247 289 341
#
# _framework density 17.235825999999999
#
# number of rings (size 3 to 8) (size 9 to 14) (size 15 to 20)
#    0.000    1.750    5.000    0.000    1.750    0.000 
#    2.250    3.125    0.000    0.000    0.000    0.000 
#    0.000    0.000    0.000    0.000    0.000    0.000 
#
# Total GULP energy -89288.553638 kJ/mol
# GULP energy per Si atom -5580.534602 kJ/mol
# Density = 1.719660 g / cm^3
# Si number density = 17.235826 Si / 1000 Ang^3
#
#
#
# Elastic Constant Matrix: (Units=GPa)
#
#
# Indices 1 2 3 4 5 6 
#
# 1 148.6783 63.1454 51.9481 -10.9687 10.7850 23.6379
# 2 63.1454 109.0109 54.3526 -13.8385 3.6541 25.6498
# 3 51.9481 54.3526 81.3820 -10.6137 2.3525 12.7200
# 4 -10.9687 -13.8385 -10.6137 18.5104 4.4423 -2.7598
# 5 10.7850 3.6541 2.3525 4.4423 18.8268 -0.7567
# 6 23.6379 25.6498 12.7200 -2.7598 -0.7567 29.4818
#
#
#
# Elastic Compliance Matrix: (Units=1/GPa)
#
#
# Indices 1 2 3 4 5 6 
#
# 1 0.010471 -0.002624 -0.003699 0.002879 -0.005883 -0.004398
# 2 -0.002624 0.017689 -0.007734 0.006523 -0.002881 -0.009412
# 3 -0.003699 -0.007734 0.020066 0.003667 0.000303 0.001387
# 4 0.002879 0.006523 0.003667 0.066768 -0.019280 -0.003810
# 5 -0.005883 -0.002881 0.000303 -0.019280 0.061833 0.006875
# 6 -0.004398 -0.009412 0.001387 -0.003810 0.006875 0.044856
#
#
# Mechanical properties :
#
#
# Convention : Reuss Voigt Hill
#
# Bulk Modulus (GPa) = 49.71711 75.32928 62.52320
# Shear Modulus (GPa) = 19.49325 24.67214 22.08269
#
# Velocity S-wave (km/s) = 3.36664 3.78755 3.58328
# Velocity P-wave (km/s) = 6.63477 7.93267 7.31258
#
# Compressibility (1/GPa) = 0.02011380
#
# Stress axis : x y z
#
# Youngs Moduli (GPa) = 95.50231 56.53378 49.83466
#
# Poissons Ratio (x) = 0.14833 0.18432
# Poissons Ratio (y) = 0.25057 0.38541
# Poissons Ratio (z) = 0.35323 0.43722
#
# Static dielectric constant tensor:
#      x y z
#    x 1.564960 0.004200 -0.001450 
#    y 0.004200 1.576860 -0.000550 
#    z -0.001450 -0.000550 1.578980 
# 
# From -- ./inp_files/217115.got.cif
#   From: 2010.05.17/outbox.cif.g08.bks.cpg/sg2_109_cif.got.tgz:217115.got - 2010.06.03 11:33:40.
