data_PCOD9077936
_publ_section_title
;
Structure prediction by ZEFSAII (Michael W. Deem and Ramdas Pophale) SiO2 
 PCOD9077936
Probable space group: P -1
;
_chemical_formula_sum "Si O2"
_cell_formula_units_Z 16
_cell_length_a 7.062180
_cell_length_b 12.282433
_cell_length_c 13.027695
_cell_angle_alpha 120.311208
_cell_angle_beta 99.175055
_cell_angle_gamma 63.294930
_cell_volume 868.162024
_symmetry_space_group_name_H-M "P -1"
_symmetry_group_IT_number 2
_symmetry_cell_setting 'triclinic'
loop_
_space_group_symop_operation_xyz
x,y,z
-x,-y,-z
loop_
_atom_site_type_symbol
_atom_site_label
_atom_site_fract_x
_atom_site_fract_y
_atom_site_fract_z
Si Si1 0.767847 0.155053 0.178210
Si Si2 0.090327 0.932448 0.632215
Si Si3 0.899096 0.854091 0.958810
Si Si4 0.255222 0.072985 0.547178
Si Si5 0.394453 0.391381 0.937497
Si Si6 0.972267 0.628660 0.219418
Si Si7 0.325139 0.346752 0.146399
Si Si8 0.840187 0.230286 0.856117
O O1 0.784050 0.160943 0.305296
O O2 0.559510 0.287334 0.185295
O O3 0.980781 0.143892 0.134601
O O4 0.763686 0.010701 0.066998
O O5 0.911541 0.898753 0.546806
O O6 0.224443 0.961998 0.568278
O O7 0.969814 0.081321 0.746904
O O8 0.765378 0.765965 0.892419
O O9 0.080498 0.777685 0.024356
O O10 0.171079 0.224720 0.667300
O O11 0.500000 0.000000 0.500000
O O12 0.187358 0.429012 0.869529
O O13 0.594920 0.260585 0.845560
O O14 0.500000 0.500000 0.000000
O O15 0.347901 0.354780 0.029351
O O16 0.154778 0.502626 0.237557
O O17 0.095427 0.666427 0.156018
#
# Coordination Sequence:
#
# PCOD9077936 Si02
#       8
#     2   2   2   2   2   2   2   2
#     4  10  22  37  56  83 118 158 184 229 280 339
#     4   9  21  39  62  85 111 140 193 245 281 337
#     4  10  20  36  54  82 121 156 192 219 273 347
#     4  10  21  42  65  85 105 143 194 249 294 327
#     4  12  21  32  54  85 123 158 183 222 286 343
#     4  11  23  35  57  86 116 150 195 240 281 337
#     4  12  22  34  53  85 122 158 186 224 279 349
#     4  10  18  35  56  85 116 150 187 233 286 330
#
# _framework density 18.429738
#
# number of rings (size 3 to 8) (size 9 to 14) (size 15 to 20)
#    0.000    1.500    3.750    2.250    0.000    1.000 
#    0.000    0.625    0.000    1.500    0.000    0.000 
#    0.000    0.000    0.000    0.000    0.000    0.000 
#
# Total GULP energy -89221.676770 kJ/mol
# GULP energy per Si atom -5576.354798 kJ/mol
# Density = 1.838779 g / cm^3
# Si number density = 18.429738 Si / 1000 Ang^3
#
#
#
# Elastic Constant Matrix: (Units=GPa)
#
#
# Indices 1 2 3 4 5 6 
#
# 1 82.1907 25.1311 30.2984 8.6184 -8.4029 -12.0234
# 2 25.1311 73.4756 16.6192 -1.9080 0.1809 -15.7575
# 3 30.2984 16.6192 56.0955 -10.9896 2.1152 -7.3741
# 4 8.6184 -1.9080 -10.9896 20.6770 -3.0578 3.9357
# 5 -8.4029 0.1809 2.1152 -3.0578 25.8955 2.9255
# 6 -12.0234 -15.7575 -7.3741 3.9357 2.9255 38.3007
#
#
#
# Elastic Compliance Matrix: (Units=1/GPa)
#
#
# Indices 1 2 3 4 5 6 
#
# 1 0.020896 -0.003848 -0.012976 -0.015836 0.005582 0.003679
# 2 -0.003848 0.016508 -0.001886 0.000872 -0.001701 0.005261
# 3 -0.012976 -0.001886 0.029427 0.020457 -0.004075 -0.000974
# 4 -0.015836 0.000872 0.020457 0.067704 0.002059 -0.007788
# 5 0.005582 -0.001701 -0.004075 0.002059 0.041366 -0.003104
# 6 0.003679 0.005261 -0.000974 -0.007788 -0.003104 0.030278
#
#
# Mechanical properties :
#
#
# Convention : Reuss Voigt Hill
#
# Bulk Modulus (GPa) = 33.99949 39.53992 36.76970
# Shear Modulus (GPa) = 19.73146 26.28885 23.01015
#
# Velocity S-wave (km/s) = 3.27560 3.78092 3.53729
# Velocity P-wave (km/s) = 5.72663 6.36879 6.05622
#
# Compressibility (1/GPa) = 0.02941221
#
# Stress axis : x y z
#
# Youngs Moduli (GPa) = 47.85570 60.57758 33.98225
#
# Poissons Ratio (x) = 0.23311 0.44094
# Poissons Ratio (y) = 0.18416 0.06408
# Poissons Ratio (z) = 0.62096 0.11423
#
# Static dielectric constant tensor:
#      x y z
#    x 1.636920 -0.011080 -0.009890 
#    y -0.011080 1.717160 0.022800 
#    z -0.009890 0.022800 1.648700 
# 
# From -- ./inp_files/77177.got.cif
#   From: 2010.05.17/outbox.cif.g08.bks.cpg/sg2_39_cif.got.tgz:77177.got - 2010.06.03 11:33:40.
