data_PCOD9077497
_publ_section_title
;
Structure prediction by ZEFSAII (Michael W. Deem and Ramdas Pophale) SiO2 
 PCOD9077497
Probable space group: P -1
;
_chemical_formula_sum "Si O2"
_cell_formula_units_Z 15
_cell_length_a 13.278831
_cell_length_b 10.954612
_cell_length_c 15.089176
_cell_angle_alpha 117.062467
_cell_angle_beta 151.694910
_cell_angle_gamma 80.438391
_cell_volume 770.813251
_symmetry_space_group_name_H-M "P -1"
_symmetry_group_IT_number 2
_symmetry_cell_setting 'triclinic'
loop_
_space_group_symop_operation_xyz
x,y,z
-x,-y,-z
loop_
_atom_site_type_symbol
_atom_site_label
_atom_site_fract_x
_atom_site_fract_y
_atom_site_fract_z
Si Si1 0.043114 0.613060 0.896460
Si Si2 0.385678 0.753575 0.033791
Si Si3 0.000000 0.500000 0.500000
Si Si4 0.477095 0.614816 0.330995
Si Si5 0.174995 0.245403 0.526557
Si Si6 0.600002 0.977243 0.978117
Si Si7 0.801392 0.814283 0.813630
Si Si8 0.469860 0.678392 0.678005
O O1 0.938674 0.715750 0.891161
O O2 0.802670 0.440237 0.618537
O O3 0.211606 0.707094 0.971284
O O4 0.217654 0.592032 0.091901
O O5 0.633383 0.755626 0.255234
O O6 0.455302 0.928440 0.108146
O O7 0.215803 0.619727 0.782854
O O8 0.890242 0.620546 0.458009
O O9 0.683451 0.709031 0.443729
O O10 0.586680 0.717958 0.540000
O O11 0.449866 0.442638 0.266479
O O12 0.905147 0.070542 0.252532
O O13 0.500000 0.000000 0.000000
O O14 0.462876 0.785560 0.786228
O O15 0.670064 0.800152 0.800113
O O16 0.000000 0.000000 0.000000
#
# Coordination Sequence:
#
# PCOD9077497 Si02
#       8
#     2   2   1   2   2   2   2   2
#     4  10  22  40  64  92 122 157 201 250 305 364
#     4  10  22  39  61  87 118 157 206 252 302 365
#     4  10  18  34  60  86 112 154 200 246 306 342
#     4  10  22  40  64  92 122 157 201 250 305 364
#     4  10  22  39  61  87 118 157 206 252 302 365
#     4  11  25  40  61  85 126 168 202 257 308 359
#     4  11  22  39  64  91 125 160 197 244 302 369
#     4  11  23  39  61  92 122 159 206 253 301 359
#
# _framework density 19.459965
#
# number of rings (size 3 to 8) (size 9 to 14) (size 15 to 20)
#    0.000    1.600    0.000    6.800    7.467    4.267 
#    0.000    0.000    0.000    0.000    0.000    0.000 
#    0.000    0.000    0.000    0.000    0.000    0.000 
#
# Total GULP energy -83602.973654 kJ/mol
# GULP energy per Si atom -5573.531577 kJ/mol
# Density = 1.941567 g / cm^3
# Si number density = 19.459965 Si / 1000 Ang^3
#
#
#
# Elastic Constant Matrix: (Units=GPa)
#
#
# Indices 1 2 3 4 5 6 
#
# 1 66.9318 26.0880 24.8744 -2.5906 -4.0672 -3.2577
# 2 26.0880 64.8913 63.5118 -19.7370 -14.2844 0.8159
# 3 24.8744 63.5118 79.9184 -30.2236 0.5196 -4.8212
# 4 -2.5906 -19.7370 -30.2236 45.7590 0.7548 -5.2206
# 5 -4.0672 -14.2844 0.5196 0.7548 31.7853 9.3884
# 6 -3.2577 0.8159 -4.8212 -5.2206 9.3884 34.6613
#
#
#
# Elastic Compliance Matrix: (Units=1/GPa)
#
#
# Indices 1 2 3 4 5 6 
#
# 1 0.018324 -0.015551 0.006749 -0.000588 -0.006096 0.004590
# 2 -0.015551 0.288556 -0.252869 -0.057025 0.161457 -0.095748
# 3 0.006749 -0.252869 0.241671 0.063462 -0.144492 0.088898
# 4 -0.000588 -0.057025 0.063462 0.042710 -0.035480 0.026157
# 5 -0.006096 0.161457 -0.144492 -0.035480 0.125274 -0.063747
# 6 0.004590 -0.095748 0.088898 0.026157 -0.063747 0.065107
#
#
# Mechanical properties :
#
#
# Convention : Reuss Voigt Hill
#
# Bulk Modulus (GPa) = 39.66705 48.96552 44.31628
# Shear Modulus (GPa) = 3.80695 28.92563 16.36629
#
# Velocity S-wave (km/s) = 1.40019 3.85959 2.90319
# Velocity P-wave (km/s) = 4.80023 6.71407 5.83614
#
# Compressibility (1/GPa) = 0.02520984
#
# Stress axis : x y z
#
# Youngs Moduli (GPa) = 54.57402 3.46553 4.13785
#
# Poissons Ratio (x) = 0.05389 -0.02793
# Poissons Ratio (y) = 0.84868 1.04633
# Poissons Ratio (z) = -0.36835 0.87633
#
# Static dielectric constant tensor:
#      x y z
#    x 1.687830 0.019730 0.021040 
#    y 0.019730 1.660050 0.008350 
#    z 0.021040 0.008350 1.663570 
# 
# From -- ./inp_files/357633.got.cif
#   From: 2010.05.17/outbox.cif.g08.bks.cpg/sg2_179_cif.got.tgz:357633.got - 2010.06.03 11:33:40.
