data_PCOD9077653
_publ_section_title
;
Structure prediction by ZEFSAII (Michael W. Deem and Ramdas Pophale) SiO2 
 PCOD9077653
Probable space group: P -1
;
_chemical_formula_sum "Si O2"
_cell_formula_units_Z 14
_cell_length_a 13.654751
_cell_length_b 12.073276
_cell_length_c 13.505607
_cell_angle_alpha 33.670504
_cell_angle_beta 30.405631
_cell_angle_gamma 31.387462
_cell_volume 546.609181
_symmetry_space_group_name_H-M "P -1"
_symmetry_group_IT_number 2
_symmetry_cell_setting 'triclinic'
loop_
_space_group_symop_operation_xyz
x,y,z
-x,-y,-z
loop_
_atom_site_type_symbol
_atom_site_label
_atom_site_fract_x
_atom_site_fract_y
_atom_site_fract_z
Si Si1 0.874024 0.249060 0.222998
Si Si2 0.874023 0.376911 0.902983
Si Si3 0.605136 0.295639 0.935457
Si Si4 0.394866 0.400768 0.540595
Si Si5 0.027856 0.736068 0.486073
Si Si6 0.660288 0.904576 0.023345
Si Si7 0.660286 0.935143 0.316364
O O1 0.616842 0.419951 0.333653
O O2 0.884095 0.005396 0.408000
O O3 0.933766 0.283115 0.033119
O O4 0.075464 0.226644 0.130847
O O5 0.884091 0.610505 0.707909
O O6 0.616841 0.463202 0.049511
O O7 0.075465 0.197886 0.793693
O O8 0.613410 0.124140 0.968302
O O9 0.620368 0.152684 0.125083
O O10 0.812718 0.329594 0.700202
O O11 0.187283 0.642304 0.512921
O O12 0.379629 0.273048 0.745456
O O13 0.386596 0.237542 0.581712
O O14 0.500000 0.000000 0.000000
O O15 0.500000 0.000000 0.500000
#
# Coordination Sequence:
#
# PCOD9077653 Si02
#       7
#     2   2   2   2   2   2   2
#     4  11  20  37  65  85 119 162 196 244 302 354
#     4  11  20  37  65  85 119 162 196 244 302 354
#     4  10  20  38  62  85 120 160 198 243 300 356
#     4  10  20  38  62  85 120 160 198 243 300 356
#     4  10  18  34  62  86 108 158 200 234 298 356
#     4  10  21  40  62  91 125 155 200 253 296 355
#     4  10  21  40  62  91 125 155 200 253 296 355
#
# _framework density 25.612451
#
# number of rings (size 3 to 8) (size 9 to 14) (size 15 to 20)
#    0.000    1.714    7.143    1.714    0.000    1.143 
#    0.000    7.143    0.000    0.000    0.000    0.000 
#    0.000    0.000    0.000    0.000    0.000    0.000 
#
# Total GULP energy -78419.489933 kJ/mol
# GULP energy per Si atom -5601.392138 kJ/mol
# Density = 2.555416 g / cm^3
# Si number density = 25.612451 Si / 1000 Ang^3
#
#
#
# Elastic Constant Matrix: (Units=GPa)
#
#
# Indices 1 2 3 4 5 6 
#
# 1 71.8483 36.3561 30.2344 -8.1945 -1.6263 14.5861
# 2 36.3561 87.1974 1.7288 0.0351 -1.1333 -11.6163
# 3 30.2344 1.7288 124.0899 -15.9956 14.9870 4.4378
# 4 -8.1945 0.0351 -15.9956 47.5230 -25.7211 -2.6561
# 5 -1.6263 -1.1333 14.9870 -25.7211 28.0291 -2.6565
# 6 14.5861 -11.6163 4.4378 -2.6561 -2.6565 26.7313
#
#
#
# Elastic Compliance Matrix: (Units=1/GPa)
#
#
# Indices 1 2 3 4 5 6 
#
# 1 0.028611 -0.014271 -0.006283 0.006285 0.008380 -0.019313
# 2 -0.014271 0.019418 0.002623 -0.001412 -0.001269 0.015523
# 3 -0.006283 0.002623 0.010118 -0.001028 -0.006408 0.002150
# 4 0.006285 -0.001412 -0.001028 0.045235 0.042830 0.004879
# 5 0.008380 -0.001269 -0.006408 0.042830 0.079610 0.008107
# 6 -0.019313 0.015523 0.002150 0.004879 0.008107 0.055627
#
#
# Mechanical properties :
#
#
# Convention : Reuss Voigt Hill
#
# Bulk Modulus (GPa) = 44.87575 46.64158 45.75866
# Shear Modulus (GPa) = 17.73624 34.77778 26.25701
#
# Velocity S-wave (km/s) = 2.63437 3.68889 3.20529
# Velocity P-wave (km/s) = 5.17806 6.03274 5.62167
#
# Compressibility (1/GPa) = 0.02228375
#
# Stress axis : x y z
#
# Youngs Moduli (GPa) = 34.95202 51.49769 98.83763
#
# Poissons Ratio (x) = 0.73491 0.62103
# Poissons Ratio (y) = 0.49879 -0.25922
# Poissons Ratio (z) = 0.21962 -0.13506
#
# Static dielectric constant tensor:
#      x y z
#    x 2.093840 0.044860 -0.021820 
#    y 0.044860 2.031070 0.028500 
#    z -0.021820 0.028500 1.963660 
# 
# From -- ./inp_files/534040.got.cif
#   From: 2010.05.17/outbox.cif.g08.bks.cpg/sg2_268_cif.got.tgz:534040.got - 2010.06.03 11:33:40.
