data_PCOD9077531
_publ_section_title
;
Structure prediction by ZEFSAII (Michael W. Deem and Ramdas Pophale) SiO2 
 PCOD9077531
Probable space group: P -1
;
_chemical_formula_sum "Si O2"
_cell_formula_units_Z 16
_cell_length_a 8.794374
_cell_length_b 14.333232
_cell_length_c 17.427616
_cell_angle_alpha 131.593331
_cell_angle_beta 32.582819
_cell_angle_gamma 141.257846
_cell_volume 740.202532
_symmetry_space_group_name_H-M "P -1"
_symmetry_group_IT_number 2
_symmetry_cell_setting 'triclinic'
loop_
_space_group_symop_operation_xyz
x,y,z
-x,-y,-z
loop_
_atom_site_type_symbol
_atom_site_label
_atom_site_fract_x
_atom_site_fract_y
_atom_site_fract_z
Si Si1 0.170805 0.700762 0.161638
Si Si2 0.116385 0.287963 0.993466
Si Si3 0.732132 0.248305 0.681850
Si Si4 0.194388 0.899380 0.705321
Si Si5 0.187780 0.662537 0.467497
Si Si6 0.297691 0.399499 0.821428
Si Si7 0.616172 0.960943 0.005860
Si Si8 0.796470 0.664097 0.858683
O O1 0.084892 0.713630 0.292594
O O2 0.868097 0.577702 0.169712
O O3 0.317845 0.848330 0.127417
O O4 0.495698 0.689054 0.017405
O O5 0.454825 0.291244 0.833787
O O6 0.049031 0.333973 0.964928
O O7 0.138759 0.379561 0.109036
O O8 0.849350 0.117735 0.034695
O O9 0.932335 0.333918 0.566327
O O10 0.515407 0.069001 0.662382
O O11 0.193918 0.792536 0.582857
O O12 0.860730 0.906109 0.847790
O O13 0.128330 0.808571 0.762894
O O14 0.570270 0.703697 0.317657
O O15 0.000000 0.500000 0.500000
O O16 0.626685 0.543770 0.797534
O O17 0.500000 0.000000 0.000000
#
# Coordination Sequence:
#
# PCOD9077531 Si02
#       8
#     2   2   2   2   2   2   2   2
#     4  10  20  35  57  85 120 147 184 241 301 335
#     4   9  18  32  55  87 110 146 188 233 285 339
#     4   9  20  37  60  84 111 153 192 240 284 340
#     4  10  20  37  62  85 112 154 195 231 285 340
#     4  11  22  40  61  80 113 155 205 234 274 343
#     4  11  20  34  56  81 117 152 188 235 282 340
#     4  10  18  34  60  89 119 144 185 241 294 342
#     4  10  19  33  56  84 117 147 186 232 286 348
#
# _framework density 21.615704999999998
#
# number of rings (size 3 to 8) (size 9 to 14) (size 15 to 20)
#    0.000    2.000    2.500    1.875    0.000    3.000 
#    0.000    1.250    2.750    0.000    0.000    0.000 
#    0.000    0.000    0.000    0.000    0.000    0.000 
#
# Total GULP energy -89119.608184 kJ/mol
# GULP energy per Si atom -5569.975512 kJ/mol
# Density = 2.156651 g / cm^3
# Si number density = 21.615705 Si / 1000 Ang^3
#
#
#
# Elastic Constant Matrix: (Units=GPa)
#
#
# Indices 1 2 3 4 5 6 
#
# 1 101.3504 28.2519 55.6377 2.7068 52.0661 -3.3168
# 2 28.2519 109.4630 39.7377 6.7634 23.3981 -8.9788
# 3 55.6377 39.7377 96.6246 11.9731 44.3313 -1.3672
# 4 2.7068 6.7634 11.9731 27.0555 -0.4194 6.8144
# 5 52.0661 23.3981 44.3313 -0.4194 42.9019 -1.8119
# 6 -3.3168 -8.9788 -1.3672 6.8144 -1.8119 21.0905
#
#
#
# Elastic Compliance Matrix: (Units=1/GPa)
#
#
# Indices 1 2 3 4 5 6 
#
# 1 0.026636 0.000602 -0.000209 -0.003963 -0.032353 0.002933
# 2 0.000602 0.011474 -0.002829 -0.003114 -0.003865 0.005471
# 3 -0.000209 -0.002829 0.023033 -0.010226 -0.022033 0.001667
# 4 -0.003963 -0.003114 -0.010226 0.047045 0.016844 -0.016365
# 5 -0.032353 -0.003865 -0.022033 0.016844 0.087355 -0.006099
# 6 0.002933 0.005471 0.001667 -0.016365 -0.006099 0.055077
#
#
# Mechanical properties :
#
#
# Convention : Reuss Voigt Hill
#
# Bulk Modulus (GPa) = 17.77100 61.63252 39.70176
# Shear Modulus (GPa) = 18.23165 30.46363 24.34764
#
# Velocity S-wave (km/s) = 2.90736 3.75817 3.35981
# Velocity P-wave (km/s) = 4.41696 6.88524 5.78429
#
# Compressibility (1/GPa) = 0.05627146
#
# Stress axis : x y z
#
# Youngs Moduli (GPa) = 37.54321 87.15040 43.41657
#
# Poissons Ratio (x) = -0.05249 0.00906
# Poissons Ratio (y) = -0.02261 0.12284
# Poissons Ratio (z) = 0.00784 0.24657
#
# Static dielectric constant tensor:
#      x y z
#    x 1.856670 0.008580 0.041320 
#    y 0.008580 1.947680 -0.018240 
#    z 0.041320 -0.018240 1.802680 
# 
# From -- ./inp_files/267798.got.cif
#   From: 2010.05.17/outbox.cif.g08.bks.cpg/sg2_134_cif.got.tgz:267798.got - 2010.06.03 11:33:40.
