data_PCOD9077105
_publ_section_title
;
Structure prediction by ZEFSAII (Michael W. Deem and Ramdas Pophale) SiO2 
 PCOD9077105
Probable space group: P -1
;
_chemical_formula_sum "Si O2"
_cell_formula_units_Z 16
_cell_length_a 12.225232
_cell_length_b 15.029419
_cell_length_c 10.392669
_cell_angle_alpha 47.693922
_cell_angle_beta 121.417718
_cell_angle_gamma 147.250451
_cell_volume 759.150625
_symmetry_space_group_name_H-M "P -1"
_symmetry_group_IT_number 2
_symmetry_cell_setting 'triclinic'
loop_
_space_group_symop_operation_xyz
x,y,z
-x,-y,-z
loop_
_atom_site_type_symbol
_atom_site_label
_atom_site_fract_x
_atom_site_fract_y
_atom_site_fract_z
Si Si1 0.122889 0.121691 0.328481
Si Si2 0.406792 0.119632 0.456702
Si Si3 0.358108 0.087276 0.985120
Si Si4 0.164440 0.601132 0.682950
Si Si5 0.971229 0.259351 0.052426
Si Si6 0.896109 0.192296 0.653097
Si Si7 0.274762 0.797663 0.833834
Si Si8 0.129711 0.143513 0.819005
O O1 0.326478 0.190653 0.383546
O O2 0.132532 0.272786 0.172179
O O3 0.000000 0.000000 0.500000
O O4 0.992529 0.981650 0.262389
O O5 0.371842 0.716753 0.627546
O O6 0.250252 0.958558 0.406885
O O7 0.393576 0.007642 0.666697
O O8 0.579307 0.190685 0.017388
O O9 0.236444 0.939490 0.175149
O O10 0.334791 0.214181 0.868847
O O11 0.232726 0.957005 0.909257
O O12 0.066685 0.639733 0.506501
O O13 0.217271 0.696086 0.762490
O O14 0.039438 0.392604 0.846806
O O15 0.913227 0.297839 0.101483
O O16 0.104845 0.268073 0.698637
O O17 0.000000 0.000000 0.000000
#
# Coordination Sequence:
#
# PCOD9077105 Si02
#       8
#     2   2   2   2   2   2   2   2
#     4  10  19  35  56  81 112 146 185 230 275 329
#     4  10  18  34  61  77 102 147 195 219 256 334
#     4  10  18  34  56  79 107 141 189 220 265 326
#     4  11  21  35  56  83 112 140 183 230 276 319
#     4  11  24  34  52  87 114 141 174 233 287 318
#     4   9  16  33  56  80 102 146 185 220 259 329
#     4  11  19  37  57  79 107 147 186 221 266 333
#     4   8  17  30  54  83 103 138 192 230 255 321
#
# _framework density 21.076184999999999
#
# number of rings (size 3 to 8) (size 9 to 14) (size 15 to 20)
#    0.000    2.000    3.750    1.500    0.000    1.000 
#    0.000    0.000    0.000    0.750    0.000    0.000 
#    0.000    0.000    0.000    0.000    0.000    0.000 
#
# Total GULP energy -89260.558416 kJ/mol
# GULP energy per Si atom -5578.784901 kJ/mol
# Density = 2.102821 g / cm^3
# Si number density = 21.076185 Si / 1000 Ang^3
#
#
#
# Elastic Constant Matrix: (Units=GPa)
#
#
# Indices 1 2 3 4 5 6 
#
# 1 157.1598 18.7767 68.1079 -0.2709 33.6245 6.3578
# 2 18.7767 20.1401 6.7367 4.1098 10.4948 -1.7827
# 3 68.1079 6.7367 84.6932 2.1390 18.2915 9.2086
# 4 -0.2709 4.1098 2.1390 21.7623 0.6239 -1.4064
# 5 33.6245 10.4948 18.2915 0.6239 52.6635 12.4952
# 6 6.3578 -1.7827 9.2086 -1.4064 12.4952 11.8416
#
#
#
# Elastic Compliance Matrix: (Units=1/GPa)
#
#
# Indices 1 2 3 4 5 6 
#
# 1 0.011400 -0.005721 -0.008314 0.002442 -0.004303 0.004314
# 2 -0.005721 0.068790 -0.000219 -0.010592 -0.017051 0.030332
# 3 -0.008314 -0.000219 0.019634 -0.002872 0.001626 -0.012894
# 4 0.002442 -0.010592 -0.002872 0.048624 -0.000317 0.005437
# 5 -0.004303 -0.017051 0.001626 -0.000317 0.033273 -0.036668
# 6 0.004314 0.030332 -0.012894 0.005437 -0.036668 0.136062
#
#
# Mechanical properties :
#
#
# Convention : Reuss Voigt Hill
#
# Bulk Modulus (GPa) = 14.02196 49.91504 31.96850
# Shear Modulus (GPa) = 13.51122 28.47827 20.99475
#
# Velocity S-wave (km/s) = 2.53467 3.67986 3.15959
# Velocity P-wave (km/s) = 3.90302 6.46450 5.33963
#
# Compressibility (1/GPa) = 0.07131670
#
# Stress axis : x y z
#
# Youngs Moduli (GPa) = 87.72160 14.53690 50.93290
#
# Poissons Ratio (x) = 0.08317 0.42343
# Poissons Ratio (y) = 0.50187 0.01115
# Poissons Ratio (z) = 0.72928 0.00318
#
# Static dielectric constant tensor:
#      x y z
#    x 1.771240 -0.021990 0.055270 
#    y -0.021990 1.759880 0.014770 
#    z 0.055270 0.014770 1.782870 
# 
# From -- ./inp_files/433743.got.cif
#   From: 2010.05.17/outbox.cif.g08.bks.cpg/sg2_217_cif.got.tgz:433743.got - 2010.06.03 11:33:40.
