data_PCOD9077264
_publ_section_title
;
Structure prediction by ZEFSAII (Michael W. Deem and Ramdas Pophale) SiO2 
 PCOD9077264
Probable space group: P -1
;
_chemical_formula_sum "Si O2"
_cell_formula_units_Z 16
_cell_length_a 27.868960
_cell_length_b 25.649390
_cell_length_c 20.180918
_cell_angle_alpha 159.219489
_cell_angle_beta 22.147151
_cell_angle_gamma 170.781364
_cell_volume 818.507679
_symmetry_space_group_name_H-M "P -1"
_symmetry_group_IT_number 2
_symmetry_cell_setting 'triclinic'
loop_
_space_group_symop_operation_xyz
x,y,z
-x,-y,-z
loop_
_atom_site_type_symbol
_atom_site_label
_atom_site_fract_x
_atom_site_fract_y
_atom_site_fract_z
Si Si1 0.164432 0.669331 0.702180
Si Si2 0.059415 0.698778 0.320145
Si Si3 0.172353 0.701050 0.586188
Si Si4 0.483780 0.545716 0.714475
Si Si5 0.218695 0.612058 0.924736
Si Si6 0.785119 0.483096 0.902274
Si Si7 0.276981 0.511513 0.603851
Si Si8 0.111246 0.229210 0.687112
O O1 0.108096 0.502401 0.636087
O O2 0.116994 0.554958 0.552638
O O3 0.908101 0.527701 0.863307
O O4 0.489921 0.086901 0.784709
O O5 0.937356 0.709906 0.448277
O O6 0.416425 0.086514 0.332431
O O7 0.012318 0.508090 0.105934
O O8 0.000000 0.500000 0.500000
O O9 0.056484 0.738245 0.806655
O O10 0.500000 0.000000 0.500000
O O11 0.608453 0.522490 0.554352
O O12 0.296703 0.347191 0.649319
O O13 0.293776 0.435371 0.880555
O O14 0.792006 0.957907 0.798166
O O15 0.105859 0.416545 0.769560
O O16 0.294854 0.554682 0.806755
O O17 0.500000 0.000000 0.000000
O O18 0.000000 0.000000 0.500000
#
# Coordination Sequence:
#
# PCOD9077264 Si02
#       8
#     2   2   2   2   2   2   2   2
#     4  10  20  35  58  89 120 147 191 231 308 356
#     4  11  22  38  55  81 114 154 201 249 298 343
#     4  10  18  34  57  91 124 145 177 232 301 374
#     4  12  24  41  58  86 119 155 208 251 303 361
#     4  10  23  40  59  83 115 158 209 259 305 350
#     4  10  20  34  59  87 119 147 184 236 299 355
#     4  11  24  37  56  78 114 159 203 249 293 348
#     4  12  25  40  63  82 118 162 212 258 312 353
#
# _framework density 19.54777
#
# number of rings (size 3 to 8) (size 9 to 14) (size 15 to 20)
#    0.750    0.500    2.500    4.500    0.000    4.000 
#    0.000    0.000    0.000    0.000    0.000    5.250 
#    0.000    0.000    0.000    0.000    0.000    0.000 
#
# Total GULP energy -89132.388254 kJ/mol
# GULP energy per Si atom -5570.774266 kJ/mol
# Density = 1.950328 g / cm^3
# Si number density = 19.547770 Si / 1000 Ang^3
#
#
#
# Elastic Constant Matrix: (Units=GPa)
#
#
# Indices 1 2 3 4 5 6 
#
# 1 142.9753 36.3485 40.1699 -6.7315 9.2709 2.4926
# 2 36.3485 80.4724 24.9978 -11.5532 3.7454 9.1017
# 3 40.1699 24.9978 72.0223 -13.2486 5.0671 -12.5383
# 4 -6.7315 -11.5532 -13.2486 28.0438 -5.4282 0.9852
# 5 9.2709 3.7454 5.0671 -5.4282 28.5936 -4.9587
# 6 2.4926 9.1017 -12.5383 0.9852 -4.9587 41.3143
#
#
#
# Elastic Compliance Matrix: (Units=1/GPa)
#
#
# Indices 1 2 3 4 5 6 
#
# 1 0.009034 -0.002595 -0.004513 -0.001429 -0.002336 -0.001589
# 2 -0.002595 0.016051 -0.004171 0.004075 -0.000583 -0.004812
# 3 -0.004513 -0.004171 0.020288 0.006711 0.000955 0.007303
# 4 -0.001429 0.004075 0.006711 0.041442 0.006790 0.001052
# 5 -0.002336 -0.000583 0.000955 0.006790 0.037782 0.004932
# 6 -0.001589 -0.004812 0.007303 0.001052 0.004932 0.028144
#
#
# Mechanical properties :
#
#
# Convention : Reuss Voigt Hill
#
# Bulk Modulus (GPa) = 43.83082 55.38915 49.60999
# Shear Modulus (GPa) = 27.33677 32.52058 29.92867
#
# Velocity S-wave (km/s) = 3.74366 4.08321 3.91711
# Velocity P-wave (km/s) = 6.41543 7.11526 6.77439
#
# Compressibility (1/GPa) = 0.02281499
#
# Stress axis : x y z
#
# Youngs Moduli (GPa) = 110.69438 62.30149 49.29033
#
# Poissons Ratio (x) = 0.16169 0.22245
# Poissons Ratio (y) = 0.28729 0.20557
# Poissons Ratio (z) = 0.49956 0.25984
#
# Static dielectric constant tensor:
#      x y z
#    x 1.738510 -0.002120 0.003150 
#    y -0.002120 1.747130 0.004790 
#    z 0.003150 0.004790 1.750890 
# 
# From -- ./inp_files/602592.got.cif
#   From: 2010.05.17/outbox.cif.g08.bks.cpg/sg2_302_cif.got.tgz:602592.got - 2010.06.03 11:33:40.
