data_PCOD9077861
_publ_section_title
;
Structure prediction by ZEFSAII (Michael W. Deem and Ramdas Pophale) SiO2 
 PCOD9077861
Probable space group: P -1
;
_chemical_formula_sum "Si O2"
_cell_formula_units_Z 16
_cell_length_a 7.678646
_cell_length_b 17.357654
_cell_length_c 17.639503
_cell_angle_alpha 160.037123
_cell_angle_beta 75.663561
_cell_angle_gamma 97.518622
_cell_volume 739.866235
_symmetry_space_group_name_H-M "P -1"
_symmetry_group_IT_number 2
_symmetry_cell_setting 'triclinic'
loop_
_space_group_symop_operation_xyz
x,y,z
-x,-y,-z
loop_
_atom_site_type_symbol
_atom_site_label
_atom_site_fract_x
_atom_site_fract_y
_atom_site_fract_z
Si Si1 0.731085 0.444370 0.253821
Si Si2 0.668958 0.370191 0.032641
Si Si3 0.026186 0.583478 0.420499
Si Si4 0.129442 0.756002 0.795016
Si Si5 0.356689 0.762827 0.244157
Si Si6 0.396298 0.901552 0.522364
Si Si7 0.331026 0.171671 0.926964
Si Si8 0.674717 0.256177 0.383835
O O1 0.792638 0.360394 0.084919
O O2 0.825305 0.645692 0.457148
O O3 0.797071 0.244751 0.127297
O O4 0.506228 0.554316 0.384671
O O5 0.543872 0.645722 0.290183
O O6 0.757272 0.268007 0.847240
O O7 0.521227 0.231435 0.942469
O O8 0.989922 0.425991 0.348856
O O9 0.134622 0.750331 0.597942
O O10 0.168240 0.409630 0.185231
O O11 0.297988 0.677566 0.644029
O O12 0.000000 0.000000 0.000000
O O13 0.274503 0.858263 0.423824
O O14 0.481196 0.931129 0.363207
O O15 0.500000 0.500000 0.000000
O O16 0.291286 0.028767 0.726148
O O17 0.352600 0.998415 0.836102
#
# Coordination Sequence:
#
# PCOD9077861 Si02
#       8
#     2   2   2   2   2   2   2   2
#     4  10  22  37  59  84 114 153 196 243 293 344
#     4  10  18  35  54  87 119 148 196 237 287 349
#     4  10  23  38  57  82 114 152 192 246 293 341
#     4  10  22  41  58  83 114 152 201 244 298 343
#     4   8  16  28  53  87 121 151 187 233 281 345
#     4   9  16  30  54  86 118 154 190 232 285 344
#     4  11  19  34  60  80 119 152 194 243 287 346
#     4  12  20  42  57  80 116 152 199 247 288 347
#
# _framework density 21.625530999999999
#
# number of rings (size 3 to 8) (size 9 to 14) (size 15 to 20)
#    0.750    1.250    3.750    0.750    0.000    0.000 
#    4.500    1.250    0.000    0.750    0.000   35.875 
#    0.000    0.000    0.000    0.000    0.000    0.000 
#
# Total GULP energy -89072.109877 kJ/mol
# GULP energy per Si atom -5567.006867 kJ/mol
# Density = 2.157631 g / cm^3
# Si number density = 21.625531 Si / 1000 Ang^3
#
#
#
# Elastic Constant Matrix: (Units=GPa)
#
#
# Indices 1 2 3 4 5 6 
#
# 1 45.4821 13.3784 8.2359 0.2113 10.9640 -11.3961
# 2 13.3784 100.1414 25.5159 -13.3505 16.6016 -25.0392
# 3 8.2359 25.5159 59.1374 -4.8211 10.8827 -12.3231
# 4 0.2113 -13.3505 -4.8211 49.1668 6.7006 20.6313
# 5 10.9640 16.6016 10.8827 6.7006 21.5122 -6.6038
# 6 -11.3961 -25.0392 -12.3231 20.6313 -6.6038 20.8300
#
#
#
# Elastic Compliance Matrix: (Units=1/GPa)
#
#
# Indices 1 2 3 4 5 6 
#
# 1 0.029558 0.002388 0.000880 -0.010519 -0.005398 0.028270
# 2 0.002388 0.015901 -0.002126 -0.004975 -0.003842 0.022873
# 3 0.000880 -0.002126 0.020745 -0.002458 -0.005161 0.010998
# 4 -0.010519 -0.004975 -0.002458 0.055944 -0.031063 -0.078448
# 5 -0.005398 -0.003842 -0.005161 -0.031063 0.078290 0.044963
# 6 0.028270 0.022873 0.010998 -0.078448 0.044963 0.189431
#
#
# Mechanical properties :
#
#
# Convention : Reuss Voigt Hill
#
# Bulk Modulus (GPa) = 14.60079 33.22459 23.91269
# Shear Modulus (GPa) = 12.18279 28.81053 20.49666
#
# Velocity S-wave (km/s) = 2.37608 3.65395 3.08197
# Velocity P-wave (km/s) = 3.78074 5.76184 4.87303
#
# Compressibility (1/GPa) = 0.06848944
#
# Stress axis : x y z
#
# Youngs Moduli (GPa) = 33.83129 62.88796 48.20326
#
# Poissons Ratio (x) = -0.15018 -0.04241
# Poissons Ratio (y) = -0.08079 0.10247
# Poissons Ratio (z) = -0.02977 0.13368
#
# Static dielectric constant tensor:
#      x y z
#    x 1.793110 -0.021120 0.022450 
#    y -0.021120 1.845420 -0.049890 
#    z 0.022450 -0.049890 1.825290 
# 
# From -- ./inp_files/561973.got.cif
#   From: 2010.05.17/outbox.cif.g08.bks.cpg/sg2_281_cif.got.tgz:561973.got - 2010.06.03 11:33:40.
