data_PCOD9077461
_publ_section_title
;
Structure prediction by ZEFSAII (Michael W. Deem and Ramdas Pophale) SiO2 
 PCOD9077461
Probable space group: P -1
;
_chemical_formula_sum "Si O2"
_cell_formula_units_Z 14
_cell_length_a 10.273734
_cell_length_b 14.385353
_cell_length_c 12.091767
_cell_angle_alpha 152.574756
_cell_angle_beta 79.501586
_cell_angle_gamma 116.851750
_cell_volume 621.700932
_symmetry_space_group_name_H-M "P -1"
_symmetry_group_IT_number 2
_symmetry_cell_setting 'triclinic'
loop_
_space_group_symop_operation_xyz
x,y,z
-x,-y,-z
loop_
_atom_site_type_symbol
_atom_site_label
_atom_site_fract_x
_atom_site_fract_y
_atom_site_fract_z
Si Si1 0.261344 0.155444 0.395673
Si Si2 0.102874 0.920768 0.838944
Si Si3 0.875600 0.487340 0.092287
Si Si4 0.446481 0.213616 0.228588
Si Si5 0.908961 0.925130 0.223417
Si Si6 0.681330 0.610671 0.133392
Si Si7 0.234279 0.576891 0.734080
O O1 0.399215 0.165133 0.314949
O O2 0.280424 0.199352 0.570343
O O3 0.274989 0.396658 0.594058
O O4 0.059092 0.919122 0.155994
O O5 0.947843 0.618999 0.509159
O O6 0.179820 0.085158 0.885364
O O7 0.263835 0.002227 0.971016
O O8 0.000000 0.000000 0.000000
O O9 0.714203 0.424276 0.984758
O O10 0.800185 0.322421 0.044052
O O11 0.997158 0.789138 0.435122
O O12 0.000000 0.500000 0.000000
O O13 0.500000 0.500000 0.500000
O O14 0.606811 0.244818 0.186709
O O15 0.801922 0.734589 0.138765
O O16 0.500000 0.500000 0.000000
#
# Coordination Sequence:
#
# PCOD9077461 Si02
#       7
#     2   2   2   2   2   2   2
#     4   8  15  27  39  66  96 126 157 196 257 293
#     4  10  15  25  42  70 100 128 158 205 264 290
#     4   9  18  36  52  69 101 141 171 200 252 308
#     4  10  15  23  42  66 100 122 160 208 253 293
#     4   9  18  30  49  72 102 130 166 209 252 305
#     4  10  20  30  49  77 103 128 166 215 254 297
#     4   8  17  26  42  69  94 124 162 206 245 295
#
# _framework density 22.518864000000001
#
# number of rings (size 3 to 8) (size 9 to 14) (size 15 to 20)
#    0.000    3.429    4.286    1.714    6.000    0.000 
#    0.000    0.714    0.000    0.000    0.000   13.000 
#    0.000    0.000    0.000    0.000    0.000    0.000 
#
# Total GULP energy -77953.185867 kJ/mol
# GULP energy per Si atom -5568.084705 kJ/mol
# Density = 2.246761 g / cm^3
# Si number density = 22.518864 Si / 1000 Ang^3
#
#
#
# Elastic Constant Matrix: (Units=GPa)
#
#
# Indices 1 2 3 4 5 6 
#
# 1 83.6277 26.6774 30.5323 -13.6876 6.7523 18.3029
# 2 26.6774 198.7189 28.2564 -21.2089 5.6610 29.9247
# 3 30.5323 28.2564 51.7355 -19.7091 16.1676 9.5429
# 4 -13.6876 -21.2089 -19.7091 31.3119 3.8089 -4.6256
# 5 6.7523 5.6610 16.1676 3.8089 41.1588 -9.2367
# 6 18.3029 29.9247 9.5429 -4.6256 -9.2367 38.4386
#
#
#
# Elastic Compliance Matrix: (Units=1/GPa)
#
#
# Indices 1 2 3 4 5 6 
#
# 1 0.016408 -0.000008 -0.007539 0.001681 -0.001238 -0.006030
# 2 -0.000008 0.006261 -0.000612 0.003388 -0.002009 -0.004793
# 3 -0.007539 -0.000612 0.039576 0.022292 -0.017946 -0.007389
# 4 0.001681 0.003388 0.022292 0.049906 -0.015625 -0.006722
# 5 -0.001238 -0.002009 -0.017946 -0.015625 0.036289 0.013448
# 6 -0.006030 -0.004793 -0.007389 -0.006722 0.013448 0.036875
#
#
# Mechanical properties :
#
#
# Convention : Reuss Voigt Hill
#
# Bulk Modulus (GPa) = 21.77400 56.11270 38.94335
# Shear Modulus (GPa) = 23.04749 38.75627 30.90188
#
# Velocity S-wave (km/s) = 3.20265 4.15306 3.70843
# Velocity P-wave (km/s) = 4.83386 6.92600 5.97225
#
# Compressibility (1/GPa) = 0.04592633
#
# Stress axis : x y z
#
# Youngs Moduli (GPa) = 60.94688 159.71818 25.26758
#
# Poissons Ratio (x) = 0.00126 0.19050
# Poissons Ratio (y) = 0.00048 0.01547
# Poissons Ratio (z) = 0.45949 0.09779
#
# Static dielectric constant tensor:
#      x y z
#    x 1.890770 -0.094150 -0.086160 
#    y -0.094150 1.913110 0.000340 
#    z -0.086160 0.000340 1.893080 
# 
# From -- ./inp_files/437090.got.cif
#   From: 2010.05.17/outbox.cif.g08.bks.cpg/sg2_219_cif.got.tgz:437090.got - 2010.06.03 11:33:40.
