data_PCOD9077234
_publ_section_title
;
Structure prediction by ZEFSAII (Michael W. Deem and Ramdas Pophale) SiO2 
 PCOD9077234
Probable space group: P -1
;
_chemical_formula_sum "Si O2"
_cell_formula_units_Z 16
_cell_length_a 14.639842
_cell_length_b 10.021205
_cell_length_c 7.868558
_cell_angle_alpha 105.288895
_cell_angle_beta 125.401226
_cell_angle_gamma 113.822878
_cell_volume 641.014337
_symmetry_space_group_name_H-M "P -1"
_symmetry_group_IT_number 2
_symmetry_cell_setting 'triclinic'
loop_
_space_group_symop_operation_xyz
x,y,z
-x,-y,-z
loop_
_atom_site_type_symbol
_atom_site_label
_atom_site_fract_x
_atom_site_fract_y
_atom_site_fract_z
Si Si1 0.926369 0.712821 0.781594
Si Si2 0.586819 0.789460 0.327100
Si Si3 0.824305 0.246548 0.759033
Si Si4 0.914936 0.957031 0.659690
Si Si5 0.325516 0.894522 0.970666
Si Si6 0.296456 0.634340 0.123711
Si Si7 0.588518 0.287673 0.227418
Si Si8 0.959872 0.235395 0.559689
O O1 0.957370 0.834730 0.689221
O O2 0.744912 0.508763 0.514121
O O3 0.049698 0.696675 0.944868
O O4 0.966480 0.851260 0.027947
O O5 0.735740 0.816758 0.493936
O O6 0.447715 0.667250 0.276167
O O7 0.675080 0.013464 0.520123
O O8 0.503470 0.716994 0.028717
O O9 0.763658 0.347827 0.761588
O O10 0.906762 0.284061 0.681992
O O11 0.919849 0.045560 0.518798
O O12 0.353813 0.807379 0.822518
O O13 0.155246 0.811710 0.726036
O O14 0.334006 0.806548 0.114984
O O15 0.457699 0.128871 0.172002
O O16 0.145730 0.427320 0.807555
#
# Coordination Sequence:
#
# PCOD9077234 Si02
#       8
#     2   2   2   2   2   2   2   2
#     4   9  19  35  63  80 106 152 201 225 275 333
#     4   9  19  36  54  83 116 143 182 238 280 326
#     4  10  20  38  55  83 114 149 189 230 280 338
#     4   9  19  39  58  81 112 148 196 239 265 332
#     4  10  20  34  54  84 127 142 181 234 283 340
#     4  11  21  32  57  87 117 150 181 232 289 336
#     4  10  18  34  57  85 111 154 184 227 286 341
#     4  10  19  36  56  81 114 152 188 231 278 334
#
# _framework density 24.960440999999999
#
# number of rings (size 3 to 8) (size 9 to 14) (size 15 to 20)
#    0.000    2.500    2.500    1.875    0.000    2.500 
#    4.500    0.000    2.750    8.250    0.000    0.000 
#    0.000    0.000    0.000    0.000    0.000    0.000 
#
# Total GULP energy -89454.411885 kJ/mol
# GULP energy per Si atom -5590.900743 kJ/mol
# Density = 2.490363 g / cm^3
# Si number density = 24.960441 Si / 1000 Ang^3
#
#
#
# Elastic Constant Matrix: (Units=GPa)
#
#
# Indices 1 2 3 4 5 6 
#
# 1 98.3660 10.2174 37.7561 7.4498 19.6588 -3.0489
# 2 10.2174 89.0909 29.3236 -4.2848 -2.7191 -1.3085
# 3 37.7561 29.3236 164.7945 19.2721 35.9072 -4.1740
# 4 7.4498 -4.2848 19.2721 43.0676 7.8664 8.8588
# 5 19.6588 -2.7191 35.9072 7.8664 24.6445 1.1405
# 6 -3.0489 -1.3085 -4.1740 8.8588 1.1405 28.9358
#
#
#
# Elastic Compliance Matrix: (Units=1/GPa)
#
#
# Indices 1 2 3 4 5 6 
#
# 1 0.012474 -0.001602 -0.000388 -0.000799 -0.009391 0.001801
# 2 -0.001602 0.013027 -0.003931 0.002133 0.007812 -0.001108
# 3 -0.000388 -0.003931 0.010430 -0.002904 -0.014520 0.002747
# 4 -0.000799 0.002133 -0.002904 0.027223 -0.003187 -0.008616
# 5 -0.009391 0.007812 -0.014520 -0.003187 0.071315 -0.004566
# 6 0.001801 -0.001108 0.002747 -0.008616 -0.004566 0.037913
#
#
# Mechanical properties :
#
#
# Convention : Reuss Voigt Hill
#
# Bulk Modulus (GPa) = 41.51064 56.31619 48.91342
# Shear Modulus (GPa) = 26.00750 37.65988 31.83369
#
# Velocity S-wave (km/s) = 3.23142 3.88852 3.57510
# Velocity P-wave (km/s) = 5.53078 6.54003 6.05646
#
# Compressibility (1/GPa) = 0.02409021
#
# Stress axis : x y z
#
# Youngs Moduli (GPa) = 80.16411 76.76526 95.88173
#
# Poissons Ratio (x) = 0.12294 0.03719
# Poissons Ratio (y) = 0.12839 0.37689
# Poissons Ratio (z) = 0.03109 0.30175
#
# Static dielectric constant tensor:
#      x y z
#    x 2.064340 0.087460 -0.052610 
#    y 0.087460 2.008380 -0.053890 
#    z -0.052610 -0.053890 1.998110 
# 
# From -- ./inp_files/332222.got.cif
#   From: 2010.05.17/outbox.cif.g08.bks.cpg/sg2_167_cif.got.tgz:332222.got - 2010.06.03 11:33:40.
