data_PCOD9077193
_publ_section_title
;
Structure prediction by ZEFSAII (Michael W. Deem and Ramdas Pophale) SiO2 
 PCOD9077193
Probable space group: P -1
;
_chemical_formula_sum "Si O2"
_cell_formula_units_Z 16
_cell_length_a 13.623637
_cell_length_b 9.362946
_cell_length_c 8.751482
_cell_angle_alpha 88.252365
_cell_angle_beta 46.802264
_cell_angle_gamma 73.754024
_cell_volume 760.340448
_symmetry_space_group_name_H-M "P -1"
_symmetry_group_IT_number 2
_symmetry_cell_setting 'triclinic'
loop_
_space_group_symop_operation_xyz
x,y,z
-x,-y,-z
loop_
_atom_site_type_symbol
_atom_site_label
_atom_site_fract_x
_atom_site_fract_y
_atom_site_fract_z
Si Si1 0.457071 0.022944 0.323800
Si Si2 0.261568 0.743686 0.848435
Si Si3 0.899163 0.076148 0.463509
Si Si4 0.143209 0.477197 0.947705
Si Si5 0.848811 0.942909 0.233916
Si Si6 0.314013 0.916622 0.075079
Si Si7 0.538738 0.742608 0.435920
Si Si8 0.093532 0.220940 0.142505
O O1 0.505292 0.117557 0.400563
O O2 0.288684 0.073652 0.534616
O O3 0.520676 0.841080 0.295898
O O4 0.526001 0.079015 0.105717
O O5 0.170593 0.632768 0.949002
O O6 0.191104 0.893285 0.812782
O O7 0.417737 0.670418 0.601277
O O8 0.287554 0.795549 0.989570
O O9 0.940619 0.959001 0.281074
O O10 0.741148 0.107936 0.698475
O O11 0.940253 0.219853 0.363384
O O12 0.000000 0.000000 0.500000
O O13 0.297673 0.369276 0.716620
O O14 0.119598 0.379009 0.118949
O O15 0.000000 0.500000 0.000000
O O16 0.893434 0.827135 0.049346
O O17 0.213140 0.082548 0.108884
#
# Coordination Sequence:
#
# PCOD9077193 Si02
#       8
#     2   2   2   2   2   2   2   2
#     4   9  15  31  60  79 100 139 181 231 266 307
#     4   9  20  34  57  81 104 145 182 224 271 322
#     4  10  21  32  50  77 110 148 172 220 274 327
#     4  12  21  30  50  88 116 139 177 227 275 322
#     4  10  18  34  57  81 102 135 189 227 266 308
#     4   9  18  36  55  77 107 139 185 216 271 317
#     4   9  16  33  53  82 111 137 179 227 275 315
#     4  10  19  35  54  75 111 140 179 223 267 320
#
# _framework density 21.043205
#
# number of rings (size 3 to 8) (size 9 to 14) (size 15 to 20)
#    0.000    2.250    2.500    3.000    0.000    2.500 
#    0.000    0.625    0.000    3.000    0.000    8.750 
#    0.000    0.000    0.000    0.000    0.000    0.000 
#
# Total GULP energy -89087.957303 kJ/mol
# GULP energy per Si atom -5567.997331 kJ/mol
# Density = 2.099531 g / cm^3
# Si number density = 21.043205 Si / 1000 Ang^3
#
#
#
# Elastic Constant Matrix: (Units=GPa)
#
#
# Indices 1 2 3 4 5 6 
#
# 1 66.0162 17.6142 25.7737 -11.2571 -0.5369 14.0941
# 2 17.6142 101.4934 28.8526 -17.1032 -11.3747 23.8314
# 3 25.7737 28.8526 144.6574 -32.9878 -26.8004 16.9228
# 4 -11.2571 -17.1032 -32.9878 28.8448 15.2273 -20.4578
# 5 -0.5369 -11.3747 -26.8004 15.2273 34.8706 -3.5781
# 6 14.0941 23.8314 16.9228 -20.4578 -3.5781 30.4854
#
#
#
# Elastic Compliance Matrix: (Units=1/GPa)
#
#
# Indices 1 2 3 4 5 6 
#
# 1 0.017830 -0.001230 -0.002656 0.000883 -0.003127 -0.005581
# 2 -0.001230 0.012756 -0.001292 -0.004382 0.003916 -0.011166
# 3 -0.002656 -0.001292 0.010320 0.012059 0.002708 0.004920
# 4 0.000883 -0.004382 0.012059 0.112225 -0.034215 0.067617
# 5 -0.003127 0.003916 0.002708 -0.034215 0.044793 -0.020823
# 6 -0.005581 -0.011166 0.004920 0.067617 -0.020823 0.084313
#
#
# Mechanical properties :
#
#
# Convention : Reuss Voigt Hill
#
# Bulk Modulus (GPa) = 32.73520 50.73868 41.73694
# Shear Modulus (GPa) = 16.51377 34.83527 25.67452
#
# Velocity S-wave (km/s) = 2.80439 4.07309 3.49676
# Velocity P-wave (km/s) = 5.10647 6.80325 6.01499
#
# Compressibility (1/GPa) = 0.03054815
#
# Stress axis : x y z
#
# Youngs Moduli (GPa) = 56.08573 78.39269 96.89856
#
# Poissons Ratio (x) = 0.09645 0.25739
# Poissons Ratio (y) = 0.06900 0.12523
# Poissons Ratio (z) = 0.14898 0.10131
#
# Static dielectric constant tensor:
#      x y z
#    x 1.854250 0.000740 -0.074290 
#    y 0.000740 1.787060 -0.011580 
#    z -0.074290 -0.011580 1.880790 
# 
# From -- ./inp_files/239179.got.cif
#   From: 2010.05.17/outbox.cif.g08.bks.cpg/sg2_120_cif.got.tgz:239179.got - 2010.06.03 11:33:40.
