data_PCOD9077324
_publ_section_title
;
Structure prediction by ZEFSAII (Michael W. Deem and Ramdas Pophale) SiO2 
 PCOD9077324
Probable space group: P -1
;
_chemical_formula_sum "Si O2"
_cell_formula_units_Z 16
_cell_length_a 11.624783
_cell_length_b 9.637176
_cell_length_c 12.461484
_cell_angle_alpha 47.611031
_cell_angle_beta 124.823513
_cell_angle_gamma 112.403442
_cell_volume 846.436461
_symmetry_space_group_name_H-M "P -1"
_symmetry_group_IT_number 2
_symmetry_cell_setting 'triclinic'
loop_
_space_group_symop_operation_xyz
x,y,z
-x,-y,-z
loop_
_atom_site_type_symbol
_atom_site_label
_atom_site_fract_x
_atom_site_fract_y
_atom_site_fract_z
Si Si1 0.435554 0.469872 0.129791
Si Si2 0.760961 0.985372 0.869811
Si Si3 0.357783 0.834220 0.695042
Si Si4 0.030808 0.733570 0.125093
Si Si5 0.685308 0.854129 0.660606
Si Si6 0.143364 0.627586 0.796888
Si Si7 0.000788 0.274111 0.129809
Si Si8 0.518037 0.892002 0.954331
O O1 0.534408 0.338415 0.177627
O O2 0.403280 0.337161 0.283503
O O3 0.280888 0.513192 0.974408
O O4 0.509265 0.667498 0.088371
O O5 0.696144 0.924543 0.752982
O O6 0.653794 0.955089 0.925720
O O7 0.827732 0.192456 0.785033
O O8 0.895550 0.850821 0.031067
O O9 0.203715 0.745729 0.669162
O O10 0.395052 0.921700 0.784907
O O11 0.370619 0.984989 0.530246
O O12 0.980101 0.518823 0.218016
O O13 0.051444 0.788229 0.981981
O O14 0.842467 0.801465 0.735524
O O15 0.091973 0.759996 0.797624
O O16 0.000000 0.500000 0.000000
O O17 0.500000 0.000000 0.000000
#
# Coordination Sequence:
#
# PCOD9077324 Si02
#       8
#     2   2   2   2   2   2   2   2
#     4  11  20  38  63  84 114 157 200 237 281 354
#     4  10  19  33  54  84 114 142 196 238 286 332
#     4  11  23  37  62  86 122 155 197 240 284 353
#     4   9  17  31  56  82 107 147 191 247 270 334
#     4  11  21  37  59  89 113 159 202 233 288 351
#     4  10  18  34  58  86 109 151 199 238 289 340
#     4   9  17  32  57  84 109 147 196 239 283 343
#     4  11  24  37  60  91 115 149 195 249 294 343
#
# _framework density 18.902777
#
# number of rings (size 3 to 8) (size 9 to 14) (size 15 to 20)
#    0.000    1.750    5.000    2.625    3.500    0.500 
#    0.000    1.250    5.500    0.000    0.000    0.000 
#    0.000    0.000    0.000    0.000    0.000    0.000 
#
# Total GULP energy -89143.983375 kJ/mol
# GULP energy per Si atom -5571.498961 kJ/mol
# Density = 1.885975 g / cm^3
# Si number density = 18.902777 Si / 1000 Ang^3
#
#
#
# Elastic Constant Matrix: (Units=GPa)
#
#
# Indices 1 2 3 4 5 6 
#
# 1 133.7728 55.1191 34.3075 -2.3411 -20.1006 0.5388
# 2 55.1191 109.4475 33.4044 -1.8391 -12.0865 5.4387
# 3 34.3075 33.4044 70.8950 -12.5751 -15.8779 -1.2956
# 4 -2.3411 -1.8391 -12.5751 14.6480 4.6968 -6.8418
# 5 -20.1006 -12.0865 -15.8779 4.6968 29.8424 -6.9548
# 6 0.5388 5.4387 -1.2956 -6.8418 -6.9548 39.4510
#
#
#
# Elastic Compliance Matrix: (Units=1/GPa)
#
#
# Indices 1 2 3 4 5 6 
#
# 1 0.010431 -0.004073 -0.002452 -0.002048 0.004578 0.000790
# 2 -0.004073 0.012725 -0.004887 -0.004452 -0.000107 -0.002650
# 3 -0.002452 -0.004887 0.022590 0.018986 0.006784 0.005938
# 4 -0.002048 -0.004452 0.018986 0.092682 -0.003783 0.016672
# 5 0.004578 -0.000107 0.006784 -0.003783 0.042384 0.006991
# 6 0.000790 -0.002650 0.005938 0.016672 0.006991 0.030021
#
#
# Mechanical properties :
#
#
# Convention : Reuss Voigt Hill
#
# Bulk Modulus (GPa) = 43.62570 62.19748 52.91159
# Shear Modulus (GPa) = 20.72130 29.54056 25.13093
#
# Velocity S-wave (km/s) = 3.31449 3.95747 3.65016
# Velocity P-wave (km/s) = 6.14629 7.33876 6.76884
#
# Compressibility (1/GPa) = 0.02292227
#
# Stress axis : x y z
#
# Youngs Moduli (GPa) = 95.86416 78.58840 44.26713
#
# Poissons Ratio (x) = 0.32009 0.10856
# Poissons Ratio (y) = 0.39046 0.21631
# Poissons Ratio (z) = 0.23509 0.38402
#
# Static dielectric constant tensor:
#      x y z
#    x 1.714340 0.018140 -0.021240 
#    y 0.018140 1.711170 -0.009880 
#    z -0.021240 -0.009880 1.663260 
# 
# From -- ./inp_files/416375.got.cif
#   From: 2010.05.17/outbox.cif.g08.bks.cpg/sg2_209_cif.got.tgz:416375.got - 2010.06.03 11:33:40.
