data_PCOD9077954
_publ_section_title
;
Structure prediction by ZEFSAII (Michael W. Deem and Ramdas Pophale) SiO2 
 PCOD9077954
Probable space group: P -1
;
_chemical_formula_sum "Si O2"
_cell_formula_units_Z 16
_cell_length_a 13.248786
_cell_length_b 13.543604
_cell_length_c 9.560806
_cell_angle_alpha 44.083172
_cell_angle_beta 131.781592
_cell_angle_gamma 141.038055
_cell_volume 727.368136
_symmetry_space_group_name_H-M "P -1"
_symmetry_group_IT_number 2
_symmetry_cell_setting 'triclinic'
loop_
_space_group_symop_operation_xyz
x,y,z
-x,-y,-z
loop_
_atom_site_type_symbol
_atom_site_label
_atom_site_fract_x
_atom_site_fract_y
_atom_site_fract_z
Si Si1 0.114389 0.285748 0.668968
Si Si2 0.319577 0.992614 0.717297
Si Si3 0.424385 0.312467 0.977803
Si Si4 0.630118 0.992044 0.943445
Si Si5 0.199842 0.047116 0.289854
Si Si6 0.691526 0.148867 0.566616
Si Si7 0.786732 0.506957 0.180999
Si Si8 0.058863 0.592593 0.810301
O O1 0.109195 0.337645 0.772288
O O2 0.000187 0.073098 0.765477
O O3 0.067369 0.382508 0.418830
O O4 0.304826 0.354143 0.754173
O O5 0.274998 0.091965 0.468657
O O6 0.206851 0.788718 0.787170
O O7 0.297013 0.013811 0.837226
O O8 0.502499 0.042368 0.807631
O O9 0.610613 0.473858 0.017331
O O10 0.315006 0.193769 0.132765
O O11 0.446784 0.189319 0.023053
O O12 0.740792 0.127850 0.787109
O O13 0.213305 0.890507 0.414169
O O14 0.730273 0.334271 0.391272
O O15 0.500000 0.000000 0.500000
O O16 0.879757 0.498421 0.141279
O O17 0.000000 0.500000 0.000000
#
# Coordination Sequence:
#
# PCOD9077954 Si02
#       8
#     2   2   2   2   2   2   2   2
#     4  11  25  38  61  91 125 157 198 242 307 356
#     4  10  18  35  56  89 113 151 202 241 290 347
#     4  11  21  41  62  91 121 156 198 251 294 359
#     4  10  19  31  61  88 115 149 197 249 293 340
#     4  10  19  37  59  87 120 152 195 251 293 347
#     4  11  16  33  60  90 111 149 201 254 285 334
#     4  12  21  40  63  87 121 158 204 249 292 355
#     4  11  24  41  57  85 123 160 196 249 296 356
#
# _framework density 21.997115000000001
#
# number of rings (size 3 to 8) (size 9 to 14) (size 15 to 20)
#    0.000    1.250    7.500    1.125    1.750    1.000 
#    0.000    4.375    0.000    0.000    0.000    0.000 
#    0.000    0.000    0.000    0.000    0.000    0.000 
#
# Total GULP energy -89249.868924 kJ/mol
# GULP energy per Si atom -5578.116808 kJ/mol
# Density = 2.194705 g / cm^3
# Si number density = 21.997115 Si / 1000 Ang^3
#
#
#
# Elastic Constant Matrix: (Units=GPa)
#
#
# Indices 1 2 3 4 5 6 
#
# 1 58.5802 18.1249 58.8107 5.2439 -15.3258 3.1761
# 2 18.1249 52.7896 25.5018 16.1453 -7.6137 -7.0242
# 3 58.8107 25.5018 130.6344 24.8892 -24.6599 6.1698
# 4 5.2439 16.1453 24.8892 29.3605 -3.6954 1.2779
# 5 -15.3258 -7.6137 -24.6599 -3.6954 45.2054 7.7461
# 6 3.1761 -7.0242 6.1698 1.2779 7.7461 28.6943
#
#
#
# Elastic Compliance Matrix: (Units=1/GPa)
#
#
# Indices 1 2 3 4 5 6 
#
# 1 0.035720 -0.008374 -0.015896 0.012353 0.003749 -0.004148
# 2 -0.008374 0.026830 0.000800 -0.014344 -0.000441 0.008081
# 3 -0.015896 0.000800 0.017805 -0.012103 0.003877 -0.002381
# 4 0.012353 -0.014344 -0.012103 0.050204 0.000049 -0.004525
# 5 0.003749 -0.000441 0.003877 0.000049 0.026915 -0.008624
# 6 -0.004148 0.008081 -0.002381 -0.004525 -0.008624 0.040329
#
#
# Mechanical properties :
#
#
# Convention : Reuss Voigt Hill
#
# Bulk Modulus (GPa) = 29.92611 49.65324 39.78968
# Shear Modulus (GPa) = 19.54017 29.95649 24.74833
#
# Velocity S-wave (km/s) = 2.98368 3.69431 3.35785
# Velocity P-wave (km/s) = 5.05014 6.38896 5.75859
#
# Compressibility (1/GPa) = 0.03341564
#
# Stress axis : x y z
#
# Youngs Moduli (GPa) = 27.99523 37.27112 56.16280
#
# Poissons Ratio (x) = 0.31213 0.89278
# Poissons Ratio (y) = 0.23445 -0.04496
# Poissons Ratio (z) = 0.44502 -0.02984
#
# Static dielectric constant tensor:
#      x y z
#    x 1.876530 0.066730 0.032860 
#    y 0.066730 1.879390 0.063300 
#    z 0.032860 0.063300 1.895060 
# 
# From -- ./inp_files/311036.got.cif
#   From: 2010.05.17/outbox.cif.g08.bks.cpg/sg2_156_cif.got.tgz:311036.got - 2010.06.03 11:33:40.
