data_PCOD9077103
_publ_section_title
;
Structure prediction by ZEFSAII (Michael W. Deem and Ramdas Pophale) SiO2 
 PCOD9077103
Probable space group: P -1
;
_chemical_formula_sum "Si O2"
_cell_formula_units_Z 16
_cell_length_a 14.746400
_cell_length_b 9.071380
_cell_length_c 7.635758
_cell_angle_alpha 131.929070
_cell_angle_beta 119.536287
_cell_angle_gamma 81.563852
_cell_volume 634.280231
_symmetry_space_group_name_H-M "P -1"
_symmetry_group_IT_number 2
_symmetry_cell_setting 'triclinic'
loop_
_space_group_symop_operation_xyz
x,y,z
-x,-y,-z
loop_
_atom_site_type_symbol
_atom_site_label
_atom_site_fract_x
_atom_site_fract_y
_atom_site_fract_z
Si Si1 0.666539 0.563367 0.676796
Si Si2 0.596817 0.647312 0.312452
Si Si3 0.680252 0.036486 0.031757
Si Si4 0.907681 0.710662 0.039990
Si Si5 0.027993 0.784393 0.883674
Si Si6 0.911003 0.197979 0.433079
Si Si7 0.463229 0.847059 0.592839
Si Si8 0.734983 0.036725 0.671222
O O1 0.647632 0.545276 0.435029
O O2 0.578027 0.373262 0.525215
O O3 0.661689 0.799274 0.891138
O O4 0.787309 0.575907 0.863422
O O5 0.531694 0.797583 0.455746
O O6 0.698228 0.788580 0.413068
O O7 0.500000 0.500000 0.000000
O O8 0.722130 0.060622 0.888879
O O9 0.555241 0.040510 0.919251
O O10 0.784875 0.184392 0.342882
O O11 0.936828 0.658472 0.829214
O O12 0.999919 0.702936 0.259121
O O13 0.905585 0.951665 0.226415
O O14 0.140960 0.844359 0.147502
O O15 0.047292 0.715706 0.651738
O O16 0.000000 0.000000 0.000000
O O17 0.353975 0.893695 0.466913
#
# Coordination Sequence:
#
# PCOD9077103 Si02
#       8
#     2   2   2   2   2   2   2   2
#     4   9  18  33  51  77 110 145 181 223 279 331
#     4  10  19  35  55  84 111 141 191 229 270 334
#     4   8  14  29  53  75 101 139 188 220 264 338
#     4   9  16  30  48  76 107 134 187 233 274 316
#     4   9  16  31  53  78 105 141 192 234 271 328
#     4   8  15  27  49  79  97 135 184 235 274 322
#     4  10  18  34  56  78 113 150 176 225 289 339
#     4   9  18  33  56  81 107 149 184 222 289 338
#
# _framework density 25.225442000000001
#
# number of rings (size 3 to 8) (size 9 to 14) (size 15 to 20)
#    0.000    3.250    0.000    5.250    0.000    0.000 
#   13.500    1.250    5.500    3.000    0.000    0.000 
#    0.000    0.000    0.000    0.000    0.000    0.000 
#
# Total GULP energy -89310.594992 kJ/mol
# GULP energy per Si atom -5581.912187 kJ/mol
# Density = 2.516803 g / cm^3
# Si number density = 25.225442 Si / 1000 Ang^3
#
#
#
# Elastic Constant Matrix: (Units=GPa)
#
#
# Indices 1 2 3 4 5 6 
#
# 1 63.3952 3.7080 35.5998 -5.6119 19.5573 2.3880
# 2 3.7080 87.6136 13.6329 -4.9336 14.9299 -10.1719
# 3 35.5998 13.6329 119.5577 -25.6725 28.3729 -9.2605
# 4 -5.6119 -4.9336 -25.6725 36.8968 -13.0329 13.8296
# 5 19.5573 14.9299 28.3729 -13.0329 49.7144 -1.9413
# 6 2.3880 -10.1719 -9.2605 13.8296 -1.9413 28.8270
#
#
#
# Elastic Compliance Matrix: (Units=1/GPa)
#
#
# Indices 1 2 3 4 5 6 
#
# 1 0.020473 0.000507 -0.005350 -0.001438 -0.005644 -0.002926
# 2 0.000507 0.012621 -0.000700 -0.001917 -0.003903 0.004843
# 3 -0.005350 -0.000700 0.012130 0.006128 -0.002964 0.000953
# 4 -0.001438 -0.001917 0.006128 0.040001 0.007455 -0.017277
# 5 -0.005644 -0.003903 -0.002964 0.007455 0.027012 -0.003620
# 6 -0.002926 0.004843 0.000953 -0.017277 -0.003620 0.044992
#
#
# Mechanical properties :
#
#
# Convention : Reuss Voigt Hill
#
# Bulk Modulus (GPa) = 29.29285 41.82755 35.56020
# Shear Modulus (GPa) = 27.82516 37.59603 32.71060
#
# Velocity S-wave (km/s) = 3.32484 3.86476 3.60492
# Velocity P-wave (km/s) = 5.13586 6.04422 5.60846
#
# Compressibility (1/GPa) = 0.03413803
#
# Stress axis : x y z
#
# Youngs Moduli (GPa) = 48.84553 79.23460 82.43879
#
# Poissons Ratio (x) = -0.04018 0.44103
# Poissons Ratio (y) = -0.02477 0.05772
# Poissons Ratio (z) = 0.26131 0.05548
#
# Static dielectric constant tensor:
#      x y z
#    x 2.755540 -0.827110 -1.255870 
#    y -0.827110 2.853270 1.282910 
#    z -1.255870 1.282910 4.076260 
# 
# From -- ./inp_files/329486.got.cif
#   From: 2010.05.17/outbox.cif.g08.bks.cpg/sg2_165_cif.got.tgz:329486.got - 2010.06.03 11:33:40.
