data_PCOD9077097
_publ_section_title
;
Structure prediction by ZEFSAII (Michael W. Deem and Ramdas Pophale) SiO2 
 PCOD9077097
Probable space group: P -1
;
_chemical_formula_sum "Si O2"
_cell_formula_units_Z 14
_cell_length_a 6.327877
_cell_length_b 7.545164
_cell_length_c 18.452946
_cell_angle_alpha 110.261334
_cell_angle_beta 116.158662
_cell_angle_gamma 111.042936
_cell_volume 589.141365
_symmetry_space_group_name_H-M "P -1"
_symmetry_group_IT_number 2
_symmetry_cell_setting 'triclinic'
loop_
_space_group_symop_operation_xyz
x,y,z
-x,-y,-z
loop_
_atom_site_type_symbol
_atom_site_label
_atom_site_fract_x
_atom_site_fract_y
_atom_site_fract_z
Si Si1 0.579516 0.083742 0.626357
Si Si2 0.696864 0.798497 0.131863
Si Si3 0.241409 0.530930 0.737047
Si Si4 0.652986 0.397386 0.803812
Si Si5 0.034425 0.258511 0.341134
Si Si6 0.699636 0.359127 0.078894
Si Si7 0.634555 0.762118 0.500559
O O1 0.588766 0.171214 0.720041
O O2 0.349969 0.090509 0.543683
O O3 0.914131 0.292770 0.675707
O O4 0.533924 0.845306 0.565191
O O5 0.444524 0.665738 0.136998
O O6 0.938421 0.048368 0.241451
O O7 0.780880 0.619618 0.109282
O O8 0.564021 0.815190 0.040218
O O9 0.455428 0.460929 0.743556
O O10 0.371916 0.680650 0.852714
O O11 0.923427 0.799138 0.579377
O O12 0.183302 0.669634 0.691620
O O13 0.999691 0.609141 0.882106
O O14 0.363499 0.491795 0.404790
#
# Coordination Sequence:
#
# PCOD9077097 Si02
#       7
#     2   2   2   2   2   2   2
#     4   9  18  36  58  77 101 140 181 214 251 305
#     4  10  20  35  56  81 105 133 175 220 260 307
#     4   9  19  34  54  80 108 137 172 211 258 314
#     4  10  18  34  56  78 103 137 177 215 253 310
#     4  10  19  34  52  78 111 136 169 219 265 307
#     4   9  19  36  58  78 101 139 178 212 255 311
#     4   9  18  35  57  76 103 141 177 215 261 305
#
# _framework density 23.763397000000001
#
# number of rings (size 3 to 8) (size 9 to 14) (size 15 to 20)
#    0.000    2.571    0.000    3.000    0.000    0.571 
#    0.000   23.571    0.000    0.000    0.000    0.000 
#    0.000    0.000    0.000    0.000    0.000    0.000 
#
# Total GULP energy -78216.793516 kJ/mol
# GULP energy per Si atom -5586.913823 kJ/mol
# Density = 2.370931 g / cm^3
# Si number density = 23.763397 Si / 1000 Ang^3
#
#
#
# Elastic Constant Matrix: (Units=GPa)
#
#
# Indices 1 2 3 4 5 6 
#
# 1 53.4254 14.7150 25.1047 -6.3723 7.0722 -13.1985
# 2 14.7150 68.3454 6.8235 8.2102 8.1144 -3.4954
# 3 25.1047 6.8235 111.4278 0.8503 8.8104 -6.0340
# 4 -6.3723 8.2102 0.8503 44.9294 -3.5826 4.5547
# 5 7.0722 8.1144 8.8104 -3.5826 27.9571 -0.0804
# 6 -13.1985 -3.4954 -6.0340 4.5547 -0.0804 14.5481
#
#
#
# Elastic Compliance Matrix: (Units=1/GPa)
#
#
# Indices 1 2 3 4 5 6 
#
# 1 0.028331 -0.004308 -0.004622 0.002336 -0.004097 0.021997
# 2 -0.004308 0.016618 0.000415 -0.004161 -0.004393 0.001535
# 3 -0.004622 0.000415 0.010209 -0.001159 -0.002316 0.000491
# 4 0.002336 -0.004161 -0.001159 0.024404 0.004089 -0.006979
# 5 -0.004097 -0.004393 -0.002316 0.004089 0.039315 -0.006796
# 6 0.021997 0.001535 0.000491 -0.006979 -0.006796 0.091413
#
#
# Mechanical properties :
#
#
# Convention : Reuss Voigt Hill
#
# Bulk Modulus (GPa) = 26.22676 36.27610 31.25143
# Shear Modulus (GPa) = 20.83085 29.92396 25.37741
#
# Velocity S-wave (km/s) = 2.96394 3.55244 3.27145
# Velocity P-wave (km/s) = 4.77220 5.66790 5.23922
#
# Compressibility (1/GPa) = 0.03812899
#
# Stress axis : x y z
#
# Youngs Moduli (GPa) = 35.29680 60.17731 97.95436
#
# Poissons Ratio (x) = 0.25922 0.45274
# Poissons Ratio (y) = 0.15204 -0.04066
# Poissons Ratio (z) = 0.16314 -0.02498
#
# Static dielectric constant tensor:
#      x y z
#    x 1.892540 0.002720 0.004790 
#    y 0.002720 1.970840 -0.020810 
#    z 0.004790 -0.020810 1.911040 
# 
# From -- ./inp_files/581642.got.cif
#   From: 2010.05.17/outbox.cif.g08.bks.cpg/sg2_291_cif.got.tgz:581642.got - 2010.06.03 11:33:40.
