data_PCOD9077187
_publ_section_title
;
Structure prediction by ZEFSAII (Michael W. Deem and Ramdas Pophale) SiO2 
 PCOD9077187
Probable space group: P -1
;
_chemical_formula_sum "Si O2"
_cell_formula_units_Z 10
_cell_length_a 7.668568
_cell_length_b 7.492420
_cell_length_c 9.993745
_cell_angle_alpha 70.588214
_cell_angle_beta 48.472619
_cell_angle_gamma 72.299413
_cell_volume 402.575113
_symmetry_space_group_name_H-M "P -1"
_symmetry_group_IT_number 2
_symmetry_cell_setting 'triclinic'
loop_
_space_group_symop_operation_xyz
x,y,z
-x,-y,-z
loop_
_atom_site_type_symbol
_atom_site_label
_atom_site_fract_x
_atom_site_fract_y
_atom_site_fract_z
Si Si1 0.169142 0.854947 0.736407
Si Si2 0.387304 0.828819 0.917832
Si Si3 0.586187 0.588272 0.660468
Si Si4 0.056579 0.280125 0.715080
Si Si5 0.717480 0.750673 0.097712
O O1 0.213552 0.875838 0.867451
O O2 0.408573 0.722885 0.614630
O O3 0.136858 0.073663 0.653244
O O4 0.930652 0.756394 0.881094
O O5 0.593465 0.700012 0.770113
O O6 0.426742 0.039341 0.889140
O O7 0.221472 0.722156 0.125105
O O8 0.831019 0.563792 0.466976
O O9 0.445076 0.411772 0.802681
O O10 0.170988 0.287125 0.802408
#
# Coordination Sequence:
#
# PCOD9077187 Si02
#       5
#     2   2   2   2   2
#     4   7  14  21  26  28  40  43  44  55  62  60
#     4   7  16  23  25  29  42  42  45  57  61  61
#     4  10  15  19  29  31  36  44  49  53  61  63
#     4   9  14  22  25  33  37  42  50  54  57  69
#     4   9  14  22  25  33  37  42  50  54  57  69
#
# _framework density 24.840084000000001
#
# number of rings (size 3 to 8) (size 9 to 14) (size 15 to 20)
#    1.200    2.400    0.000    4.200    0.000    0.000 
#    0.000    0.000    0.000    0.000    0.000    0.000 
#    0.000    0.000    0.000    0.000    0.000    0.000 
#
# Total GULP energy -55677.503223 kJ/mol
# GULP energy per Si atom -5567.750322 kJ/mol
# Density = 2.478355 g / cm^3
# Si number density = 24.840084 Si / 1000 Ang^3
#
#
#
# Elastic Constant Matrix: (Units=GPa)
#
#
# Indices 1 2 3 4 5 6 
#
# 1 45.1291 0.2033 -2.1371 -6.0657 21.4589 -15.2547
# 2 0.2033 24.8858 0.3590 5.8102 9.4694 -3.2323
# 3 -2.1371 0.3590 106.5970 3.2681 -22.5287 1.7182
# 4 -6.0657 5.8102 3.2681 16.5842 15.4999 1.2849
# 5 21.4589 9.4694 -22.5287 15.4999 -16.3646 -3.8813
# 6 -15.2547 -3.2323 1.7182 1.2849 -3.8813 -1.8094
#
#
#
# Elastic Compliance Matrix: (Units=1/GPa)
#
#
# Indices 1 2 3 4 5 6 
#
# 1 0.004862 -0.008341 0.002438 0.000029 0.007849 -0.040593
# 2 -0.008341 0.041840 0.000576 -0.016930 0.000441 -0.016846
# 3 0.002438 0.000576 0.008403 0.003350 -0.004486 -0.001600
# 4 0.000029 -0.016930 0.003350 0.043023 0.022930 0.014541
# 5 0.007849 0.000441 -0.004486 0.022930 -0.019616 -0.012858
# 6 -0.040593 -0.016846 -0.001600 0.014541 -0.012858 -0.143959
#
#
# Mechanical properties :
#
#
# Convention : Reuss Voigt Hill
#
# Bulk Modulus (GPa) = 22.49664 19.27360 20.88512
# Shear Modulus (GPa) = -125.07632 11.56116 -56.75758
#
# Velocity S-wave (km/s) = -7.10366 2.15971 -4.78527
# Velocity P-wave (km/s) = 7.62931 3.74099 4.70166
#
# Compressibility (1/GPa) = 0.04445109
#
# Stress axis : x y z
#
# Youngs Moduli (GPa) = 205.66832 23.90043 119.00362
#
# Poissons Ratio (x) = 0.19935 -0.29011
# Poissons Ratio (y) = 1.71542 -0.06851
# Poissons Ratio (z) = -0.50138 -0.01376
#
# Static dielectric constant tensor:
#      x y z
#    x 1.958010 -0.029000 0.016300 
#    y -0.029000 2.091890 -0.003530 
#    z 0.016300 -0.003530 1.923310 
# 
# From -- ./inp_files/148125.got.cif
#   From: 2010.05.17/outbox.cif.g08.bks.cpg/sg2_75_cif.got.tgz:148125.got - 2010.06.03 11:33:40.
