data_PCOD9077327
_publ_section_title
;
Structure prediction by ZEFSAII (Michael W. Deem and Ramdas Pophale) SiO2 
 PCOD9077327
Probable space group: P -1
;
_chemical_formula_sum "Si O2"
_cell_formula_units_Z 16
_cell_length_a 11.820486
_cell_length_b 21.093351
_cell_length_c 8.844209
_cell_angle_alpha 114.710649
_cell_angle_beta 79.335898
_cell_angle_gamma 152.311456
_cell_volume 836.550588
_symmetry_space_group_name_H-M "P -1"
_symmetry_group_IT_number 2
_symmetry_cell_setting 'triclinic'
loop_
_space_group_symop_operation_xyz
x,y,z
-x,-y,-z
loop_
_atom_site_type_symbol
_atom_site_label
_atom_site_fract_x
_atom_site_fract_y
_atom_site_fract_z
Si Si1 0.435706 0.409788 0.600738
Si Si2 0.335467 0.467774 0.915011
Si Si3 0.579764 0.945783 0.860518
Si Si4 0.336806 0.247161 0.731187
Si Si5 0.383917 0.004280 0.612300
Si Si6 0.776560 0.200875 0.945765
Si Si7 0.052690 0.230547 0.264723
Si Si8 0.707446 0.926595 0.537902
O O1 0.408627 0.332843 0.650444
O O2 0.269326 0.303624 0.381748
O O3 0.749304 0.601943 0.685679
O O4 0.309067 0.411653 0.708845
O O5 0.517377 0.636775 0.046726
O O6 0.500000 0.500000 0.000000
O O7 0.066971 0.340118 0.946293
O O8 0.564351 0.876401 0.673217
O O9 0.633928 0.047536 0.858111
O O10 0.306538 0.805135 0.885931
O O11 0.848475 0.087802 0.045129
O O12 0.410639 0.208036 0.641236
O O13 0.015146 0.077963 0.659479
O O14 0.630636 0.165316 0.815961
O O15 0.287566 0.008819 0.522176
O O16 0.500000 0.000000 0.500000
O O17 0.153922 0.858652 0.644015
#
# Coordination Sequence:
#
# PCOD9077327 Si02
#       8
#     2   2   2   2   2   2   2   2
#     4  10  18  34  58  86 115 145 190 242 288 330
#     4  10  19  35  59  83 108 144 193 240 283 330
#     4  10  19  34  53  86 114 146 193 233 285 335
#     4  10  21  36  61  82 118 151 193 232 288 349
#     4  11  20  35  59  84 117 146 197 236 282 336
#     4  10  20  33  57  83 110 147 192 246 279 330
#     4  10  20  32  58  86 115 141 187 246 279 324
#     4  11  21  38  58  86 115 158 187 232 289 343
#
# _framework density 19.126159999999999
#
# number of rings (size 3 to 8) (size 9 to 14) (size 15 to 20)
#    0.000    1.750    2.500    4.500    0.000    0.000 
#    0.000    1.875   11.000    0.000    0.000    0.000 
#    0.000    0.000    0.000    0.000    0.000    0.000 
#
# Total GULP energy -89092.487744 kJ/mol
# GULP energy per Si atom -5568.280484 kJ/mol
# Density = 1.908263 g / cm^3
# Si number density = 19.126160 Si / 1000 Ang^3
#
#
#
# Elastic Constant Matrix: (Units=GPa)
#
#
# Indices 1 2 3 4 5 6 
#
# 1 56.6310 17.3811 36.9711 -4.7560 -16.2251 13.7724
# 2 17.3811 76.8169 14.6331 -12.7437 -16.5926 24.5705
# 3 36.9711 14.6331 85.2004 -7.0301 -12.3709 2.5242
# 4 -4.7560 -12.7437 -7.0301 25.4457 4.8625 -2.4513
# 5 -16.2251 -16.5926 -12.3709 4.8625 39.0915 2.0815
# 6 13.7724 24.5705 2.5242 -2.4513 2.0815 31.2649
#
#
#
# Elastic Compliance Matrix: (Units=1/GPa)
#
#
# Indices 1 2 3 4 5 6 
#
# 1 0.031932 0.002683 -0.012176 0.000243 0.011357 -0.015928
# 2 0.002683 0.022082 -0.002388 0.007251 0.009810 -0.018427
# 3 -0.012176 -0.002388 0.017251 0.002110 -0.001195 0.006092
# 4 0.000243 0.007251 0.002110 0.043598 -0.001446 -0.002461
# 5 0.011357 0.009810 -0.001195 -0.001446 0.035062 -0.015063
# 6 -0.015928 -0.018427 0.006092 -0.002461 -0.015063 0.053801
#
#
# Mechanical properties :
#
#
# Convention : Reuss Voigt Hill
#
# Bulk Modulus (GPa) = 21.05204 39.62434 30.33819
# Shear Modulus (GPa) = 20.54893 29.13797 24.84345
#
# Velocity S-wave (km/s) = 3.28134 3.90739 3.60797
# Velocity P-wave (km/s) = 5.03856 6.41243 5.76656
#
# Compressibility (1/GPa) = 0.04750134
#
# Stress axis : x y z
#
# Youngs Moduli (GPa) = 31.31695 45.28626 57.96856
#
# Poissons Ratio (x) = -0.12148 0.70582
# Poissons Ratio (y) = -0.08401 0.13843
# Poissons Ratio (z) = 0.38131 0.10814
#
# Static dielectric constant tensor:
#      x y z
#    x 1.681340 0.035940 0.039960 
#    y 0.035940 1.704510 0.000080 
#    z 0.039960 0.000080 1.799730 
# 
# From -- ./inp_files/282173.got.cif
#   From: 2010.05.17/outbox.cif.g08.bks.cpg/sg2_142_cif.got.tgz:282173.got - 2010.06.03 11:33:40.
