data_PCOD9077236
_publ_section_title
;
Structure prediction by ZEFSAII (Michael W. Deem and Ramdas Pophale) SiO2 
 PCOD9077236
Probable space group: P -1
;
_chemical_formula_sum "Si O2"
_cell_formula_units_Z 14
_cell_length_a 11.347417
_cell_length_b 9.038106
_cell_length_c 9.210973
_cell_angle_alpha 106.429791
_cell_angle_beta 47.456454
_cell_angle_gamma 97.354561
_cell_volume 664.900699
_symmetry_space_group_name_H-M "P -1"
_symmetry_group_IT_number 2
_symmetry_cell_setting 'triclinic'
loop_
_space_group_symop_operation_xyz
x,y,z
-x,-y,-z
loop_
_atom_site_type_symbol
_atom_site_label
_atom_site_fract_x
_atom_site_fract_y
_atom_site_fract_z
Si Si1 0.187730 0.123108 0.473707
Si Si2 0.661508 0.988166 0.959266
Si Si3 0.202965 0.139269 0.914187
Si Si4 0.133129 0.380141 0.788890
Si Si5 0.370793 0.586541 0.478511
Si Si6 0.150922 0.868058 0.662981
Si Si7 0.521778 0.277698 0.280750
O O1 0.075914 0.261260 0.681439
O O2 0.363140 0.184080 0.379052
O O3 0.198794 0.082694 0.283913
O O4 0.158185 0.969187 0.541219
O O5 0.664853 0.163766 0.062887
O O6 0.500000 0.000000 0.000000
O O7 0.667768 0.883257 0.070087
O O8 0.208212 0.275226 0.830224
O O9 0.211734 0.980593 0.769618
O O10 0.027810 0.160332 0.142983
O O11 0.249791 0.487224 0.640257
O O12 0.000000 0.500000 0.000000
O O13 0.265701 0.710943 0.506083
O O14 0.489603 0.445895 0.276527
O O15 0.449249 0.682898 0.565428
#
# Coordination Sequence:
#
# PCOD9077236 Si02
#       7
#     2   2   2   2   2   2   2
#     4   9  21  35  56  83 110 149 186 223 283 331
#     4  10  20  40  57  78 117 154 186 225 274 342
#     4  10  20  35  60  84 111 148 190 228 281 327
#     4  10  19  36  59  84 112 144 184 239 280 329
#     4  10  18  34  57  85 113 140 186 236 282 313
#     4  10  19  34  58  89 108 141 191 241 271 331
#     4   9  19  35  55  78 112 152 180 231 273 327
#
# _framework density 21.055774
#
# number of rings (size 3 to 8) (size 9 to 14) (size 15 to 20)
#    0.000    2.286    2.857    0.000    0.000    1.143 
#   12.857    1.429    6.286    0.000    0.000    0.000 
#    0.000    0.000    0.000    0.000    0.000    0.000 
#
# Total GULP energy -77974.227769 kJ/mol
# GULP energy per Si atom -5569.587698 kJ/mol
# Density = 2.100785 g / cm^3
# Si number density = 21.055774 Si / 1000 Ang^3
#
#
#
# Elastic Constant Matrix: (Units=GPa)
#
#
# Indices 1 2 3 4 5 6 
#
# 1 52.1109 24.6988 4.2990 0.4514 9.6904 -9.4000
# 2 24.6988 113.3680 40.9079 23.3008 0.9374 -7.9774
# 3 4.2990 40.9079 87.5126 28.3839 21.7474 -3.0537
# 4 0.4514 23.3008 28.3839 36.0960 -4.8941 -8.1043
# 5 9.6904 0.9374 21.7474 -4.8941 18.4320 -2.2931
# 6 -9.4000 -7.9774 -3.0537 -8.1043 -2.2931 21.7322
#
#
#
# Elastic Compliance Matrix: (Units=1/GPa)
#
#
# Indices 1 2 3 4 5 6 
#
# 1 0.029592 -0.009174 0.014742 -0.009780 -0.034558 0.004210
# 2 -0.009174 0.014634 -0.012891 0.004409 0.020887 0.003440
# 3 0.014742 -0.012891 0.053494 -0.049679 -0.085692 -0.018407
# 4 -0.009780 0.004409 -0.049679 0.083093 0.089431 0.030831
# 5 -0.034558 0.020887 -0.085692 0.089431 0.200590 0.035195
# 6 0.004210 0.003440 -0.018407 0.030831 0.035195 0.061723
#
#
# Mechanical properties :
#
#
# Convention : Reuss Voigt Hill
#
# Bulk Modulus (GPa) = 12.03740 43.64477 27.84108
# Shear Modulus (GPa) = 10.29941 27.45775 18.87858
#
# Velocity S-wave (km/s) = 2.21407 3.61508 2.99757
# Velocity P-wave (km/s) = 3.50221 6.18047 5.02313
#
# Compressibility (1/GPa) = 0.08307442
#
# Stress axis : x y z
#
# Youngs Moduli (GPa) = 33.79237 68.33270 18.69363
#
# Poissons Ratio (x) = 0.62691 -0.27558
# Poissons Ratio (y) = 0.31003 0.24097
# Poissons Ratio (z) = -0.49816 0.88085
#
# Static dielectric constant tensor:
#      x y z
#    x 1.833390 -0.007620 -0.056340 
#    y -0.007620 1.771830 0.067210 
#    z -0.056340 0.067210 1.866250 
# 
# From -- ./inp_files/167791.got.cif
#   From: 2010.05.17/outbox.cif.g08.bks.cpg/sg2_84_cif.got.tgz:167791.got - 2010.06.03 11:33:40.
