data_PCOD9077380
_publ_section_title
;
Structure prediction by ZEFSAII (Michael W. Deem and Ramdas Pophale) SiO2 
 PCOD9077380
Probable space group: P -1
;
_chemical_formula_sum "Si O2"
_cell_formula_units_Z 16
_cell_length_a 19.445282
_cell_length_b 8.855543
_cell_length_c 23.717452
_cell_angle_alpha 37.509109
_cell_angle_beta 163.921967
_cell_angle_gamma 144.431713
_cell_volume 656.195176
_symmetry_space_group_name_H-M "P -1"
_symmetry_group_IT_number 2
_symmetry_cell_setting 'triclinic'
loop_
_space_group_symop_operation_xyz
x,y,z
-x,-y,-z
loop_
_atom_site_type_symbol
_atom_site_label
_atom_site_fract_x
_atom_site_fract_y
_atom_site_fract_z
Si Si1 0.660858 0.928202 0.884373
Si Si2 0.686679 0.323948 0.532491
Si Si3 0.261020 0.493577 0.853222
Si Si4 0.091922 0.735068 0.544432
Si Si5 0.063411 0.859429 0.646140
Si Si6 0.868536 0.435123 0.826023
Si Si7 0.630079 0.826885 0.570033
Si Si8 0.885380 0.733392 0.022853
O O1 0.382564 0.899572 0.702582
O O2 0.815784 0.219066 0.898711
O O3 0.797958 0.780700 0.080215
O O4 0.647067 0.755068 0.867298
O O5 0.431837 0.276642 0.383824
O O6 0.804990 0.619894 0.522690
O O7 0.899228 0.277447 0.757738
O O8 0.653485 0.127871 0.511952
O O9 0.082028 0.580223 0.641473
O O10 0.285304 0.720477 0.851744
O O11 0.500000 0.500000 0.000000
O O12 0.000000 0.500000 0.500000
O O13 0.918839 0.930061 0.353714
O O14 0.000000 0.000000 0.500000
O O15 0.844268 0.708624 0.747582
O O16 0.618147 0.303908 0.626880
O O17 0.114760 0.467362 0.968381
O O18 0.000000 0.000000 0.000000
#
# Coordination Sequence:
#
# PCOD9077380 Si02
#       8
#     2   2   2   2   2   2   2   2
#     4  10  18  36  60  82 117 162 189 237 311 351
#     4  10  18  34  59  81 116 160 195 239 298 349
#     4   9  19  37  61  81 112 158 194 237 300 360
#     4  10  22  38  61  88 115 147 207 257 296 354
#     4  10  20  36  60  85 113 156 200 243 294 357
#     4   9  18  33  56  88 121 152 195 242 298 352
#     4   9  19  33  55  89 121 150 198 246 289 360
#     4   9  18  33  56  77 111 160 192 231 294 357
#
# _framework density 24.382989999999999
#
# number of rings (size 3 to 8) (size 9 to 14) (size 15 to 20)
#    0.000    2.500    1.250    0.750    0.000    2.000 
#    0.000    5.000    5.500    3.000    0.000    0.000 
#    0.000    0.000    0.000    0.000    0.000    0.000 
#
# Total GULP energy -89093.925900 kJ/mol
# GULP energy per Si atom -5568.370369 kJ/mol
# Density = 2.432749 g / cm^3
# Si number density = 24.382990 Si / 1000 Ang^3
#
#
#
# Elastic Constant Matrix: (Units=GPa)
#
#
# Indices 1 2 3 4 5 6 
#
# 1 111.4125 44.2997 31.4055 -20.4505 15.3926 -11.0121
# 2 44.2997 112.1181 20.3481 -37.0141 -1.7418 -20.8277
# 3 31.4055 20.3481 51.3964 -20.3220 9.5941 -18.0562
# 4 -20.4505 -37.0141 -20.3220 34.3736 -8.9575 12.3686
# 5 15.3926 -1.7418 9.5941 -8.9575 49.1360 -18.2015
# 6 -11.0121 -20.8277 -18.0562 12.3686 -18.2015 50.6368
#
#
#
# Elastic Compliance Matrix: (Units=1/GPa)
#
#
# Indices 1 2 3 4 5 6 
#
# 1 0.012868 -0.005071 -0.006799 -0.001939 -0.004263 -0.002771
# 2 -0.005071 0.017096 0.003914 0.017476 0.006631 0.005439
# 3 -0.006799 0.003914 0.030818 0.016081 0.002131 0.007958
# 4 -0.001939 0.017476 0.016081 0.058091 0.009288 0.001650
# 5 -0.004263 0.006631 0.002131 0.009288 0.026888 0.009956
# 6 -0.002771 0.005439 0.007958 0.001650 0.009956 0.027397
#
#
# Mechanical properties :
#
#
# Convention : Reuss Voigt Hill
#
# Bulk Modulus (GPa) = 22.28771 51.89262 37.09017
# Shear Modulus (GPa) = 24.50648 38.75420 31.63034
#
# Velocity S-wave (km/s) = 3.17371 3.99105 3.60561
# Velocity P-wave (km/s) = 4.75294 6.52430 5.70775
#
# Compressibility (1/GPa) = 0.04486777
#
# Stress axis : x y z
#
# Youngs Moduli (GPa) = 77.71217 58.49431 32.44820
#
# Poissons Ratio (x) = 0.29665 0.22063
# Poissons Ratio (y) = 0.39411 -0.12699
# Poissons Ratio (z) = 0.52840 -0.22893
#
# Static dielectric constant tensor:
#      x y z
#    x 2.063230 -0.032680 0.079480 
#    y -0.032680 2.139500 0.025870 
#    z 0.079480 0.025870 2.056400 
# 
# From -- ./inp_files/620653.got.cif
#   From: 2010.05.17/outbox.cif.g08.bks.cpg/sg2_311_cif.got.tgz:620653.got - 2010.06.03 11:33:40.
