data_PCOD9077526
_publ_section_title
;
Structure prediction by ZEFSAII (Michael W. Deem and Ramdas Pophale) SiO2 
 PCOD9077526
Probable space group: P -1
;
_chemical_formula_sum "Si O2"
_cell_formula_units_Z 15
_cell_length_a 25.161357
_cell_length_b 6.596564
_cell_length_c 19.499447
_cell_angle_alpha 44.218218
_cell_angle_beta 17.391890
_cell_angle_gamma 51.302179
_cell_volume 647.349822
_symmetry_space_group_name_H-M "P -1"
_symmetry_group_IT_number 2
_symmetry_cell_setting 'triclinic'
loop_
_space_group_symop_operation_xyz
x,y,z
-x,-y,-z
loop_
_atom_site_type_symbol
_atom_site_label
_atom_site_fract_x
_atom_site_fract_y
_atom_site_fract_z
Si Si1 0.000000 0.000000 0.000000
Si Si2 0.214592 0.740888 0.309338
Si Si3 0.030663 0.029008 0.701549
Si Si4 0.909599 0.840431 0.749853
Si Si5 0.587094 0.062321 0.723492
Si Si6 0.551441 0.348480 0.280157
Si Si7 0.639280 0.009442 0.517952
Si Si8 0.226851 0.285373 0.784199
O O1 0.892751 0.779925 0.122103
O O2 0.810599 0.903659 0.304051
O O3 0.129356 0.385048 0.492421
O O4 0.113291 0.838061 0.475417
O O5 0.152159 0.916793 0.279863
O O6 0.436264 0.844030 0.011237
O O7 0.200769 0.879128 0.530788
O O8 0.912956 0.925647 0.803614
O O9 0.898041 0.924752 0.954538
O O10 0.763481 0.512413 0.997685
O O11 0.522308 0.366158 0.723221
O O12 0.575143 0.917454 0.696607
O O13 0.419481 0.229770 0.536669
O O14 0.518167 0.113867 0.315359
O O15 0.715805 0.373594 0.340325
#
# Coordination Sequence:
#
# PCOD9077526 Si02
#       8
#     1   2   2   2   2   2   2   2
#     4  10  18  34  60  88 134 166 198 250 318 382
#     4  10  24  45  64  88 127 178 218 266 324 377
#     4  12  24  39  66 100 132 161 216 273 326 379
#     4  10  24  45  66  90 125 176 223 262 320 383
#     4  10  22  40  65 100 126 164 219 270 323 375
#     4   9  22  41  65  92 131 177 212 257 315 389
#     4  10  20  36  63  93 131 169 212 251 316 391
#     4  10  22  37  62 100 131 171 206 260 323 389
#
# _framework density 23.171396999999999
#
# number of rings (size 3 to 8) (size 9 to 14) (size 15 to 20)
#    0.000    1.867    1.333    1.200    3.733   10.667 
#    0.000    1.333    0.000    0.000    0.000    0.000 
#    0.000    0.000    0.000    0.000    0.000    0.000 
#
# Total GULP energy -83623.077424 kJ/mol
# GULP energy per Si atom -5574.871828 kJ/mol
# Density = 2.311866 g / cm^3
# Si number density = 23.171397 Si / 1000 Ang^3
#
#
#
# Elastic Constant Matrix: (Units=GPa)
#
#
# Indices 1 2 3 4 5 6 
#
# 1 62.1097 31.2772 17.5565 -9.8010 23.4898 22.6480
# 2 31.2772 87.7379 23.0061 -8.3621 13.5951 5.8073
# 3 17.5565 23.0061 110.0342 -19.2285 77.5898 -27.6145
# 4 -9.8010 -8.3621 -19.2285 27.9088 15.7328 -16.2598
# 5 23.4898 13.5951 77.5898 15.7328 -45.3045 32.8813
# 6 22.6480 5.8073 -27.6145 -16.2598 32.8813 15.2900
#
#
#
# Elastic Compliance Matrix: (Units=1/GPa)
#
#
# Indices 1 2 3 4 5 6 
#
# 1 0.038302 -0.008712 -0.003429 -0.003089 -0.013806 -0.033213
# 2 -0.008712 0.014527 -0.001256 0.002054 0.001446 0.004192
# 3 -0.003429 -0.001256 0.005225 -0.001519 0.006238 -0.000037
# 4 -0.003089 0.002054 -0.001519 0.031449 0.012641 0.007312
# 5 -0.013806 0.001446 0.006238 0.012641 0.007284 0.028946
# 6 -0.033213 0.004192 -0.000037 0.007312 0.028946 0.058466
#
#
# Mechanical properties :
#
#
# Convention : Reuss Voigt Hill
#
# Bulk Modulus (GPa) = 31.99108 44.84017 38.41562
# Shear Modulus (GPa) = 25.97871 12.11499 19.04685
#
# Velocity S-wave (km/s) = 3.35200 2.28906 2.87016
# Velocity P-wave (km/s) = 5.36819 5.13614 5.25344
#
# Compressibility (1/GPa) = 0.03125872
#
# Stress axis : x y z
#
# Youngs Moduli (GPa) = 26.10838 68.83839 191.40549
#
# Poissons Ratio (x) = 0.59969 0.65640
# Poissons Ratio (y) = 0.22745 0.24046
# Poissons Ratio (z) = 0.08953 0.08648
#
# Static dielectric constant tensor:
#      x y z
#    x 1.852110 -0.079790 -0.009900 
#    y -0.079790 1.885880 0.016840 
#    z -0.009900 0.016840 1.870510 
# 
# From -- ./inp_files/578621.got.cif
#   From: 2010.05.17/outbox.cif.g08.bks.cpg/sg2_290_cif.got.tgz:578621.got - 2010.06.03 11:33:40.
