data_PCOD9077572
_publ_section_title
;
Structure prediction by ZEFSAII (Michael W. Deem and Ramdas Pophale) SiO2 
 PCOD9077572
Probable space group: P -1
;
_chemical_formula_sum "Si O2"
_cell_formula_units_Z 14
_cell_length_a 20.187067
_cell_length_b 8.248374
_cell_length_c 8.449050
_cell_angle_alpha 50.575752
_cell_angle_beta 137.695982
_cell_angle_gamma 142.912361
_cell_volume 567.484173
_symmetry_space_group_name_H-M "P -1"
_symmetry_group_IT_number 2
_symmetry_cell_setting 'triclinic'
loop_
_space_group_symop_operation_xyz
x,y,z
-x,-y,-z
loop_
_atom_site_type_symbol
_atom_site_label
_atom_site_fract_x
_atom_site_fract_y
_atom_site_fract_z
Si Si1 0.903548 0.527633 0.402028
Si Si2 0.356305 0.630625 0.959661
Si Si3 0.886053 0.238109 0.835401
Si Si4 0.780257 0.920439 0.146833
Si Si5 0.568626 0.742935 0.099912
Si Si6 0.075226 0.134182 0.296714
Si Si7 0.298886 0.306512 0.358809
O O1 0.750926 0.334852 0.236180
O O2 0.917488 0.487569 0.636816
O O3 0.000000 0.500000 0.500000
O O4 0.956171 0.818891 0.250890
O O5 0.292823 0.355315 0.913654
O O6 0.484538 0.825534 0.960539
O O7 0.366561 0.546776 0.203680
O O8 0.786382 0.980430 0.705926
O O9 0.011451 0.270388 0.067929
O O10 0.823469 0.145903 0.953516
O O11 0.701836 0.947767 0.120030
O O12 0.875483 0.902343 0.428706
O O13 0.598851 0.656130 0.366223
O O14 0.500000 0.500000 0.000000
O O15 0.195096 0.278181 0.304398
#
# Coordination Sequence:
#
# PCOD9077572 Si02
#       7
#     2   2   2   2   2   2   2
#     4  12  23  35  58  88 122 150 192 238 282 344
#     4  10  20  37  58  88 115 149 200 235 281 346
#     4  11  21  35  58  88 117 154 192 229 292 343
#     4   9  20  37  61  83 117 156 188 242 288 331
#     4   9  19  36  61  87 111 148 199 239 284 341
#     4  11  20  38  58  85 124 149 190 239 288 339
#     4  10  18  34  61  81 113 154 186 238 286 335
#
# _framework density 24.670290000000001
#
# number of rings (size 3 to 8) (size 9 to 14) (size 15 to 20)
#    0.000    1.714    4.286    2.143    0.000    0.571 
#    0.000    1.429    0.000    0.000    0.000    0.000 
#    0.000    0.000    0.000    0.000    0.000    0.000 
#
# Total GULP energy -78138.545797 kJ/mol
# GULP energy per Si atom -5581.324700 kJ/mol
# Density = 2.461414 g / cm^3
# Si number density = 24.670290 Si / 1000 Ang^3
#
#
#
# Elastic Constant Matrix: (Units=GPa)
#
#
# Indices 1 2 3 4 5 6 
#
# 1 179.9628 17.1090 77.6897 -7.9521 12.9196 34.3403
# 2 17.1090 40.9139 31.0584 -12.0637 -1.4115 0.2482
# 3 77.6897 31.0584 142.0364 4.7770 -19.5343 12.7634
# 4 -7.9521 -12.0637 4.7770 36.5482 1.5966 -7.4643
# 5 12.9196 -1.4115 -19.5343 1.5966 45.8757 8.6596
# 6 34.3403 0.2482 12.7634 -7.4643 8.6596 34.4919
#
#
#
# Elastic Compliance Matrix: (Units=1/GPa)
#
#
# Indices 1 2 3 4 5 6 
#
# 1 0.009239 0.000538 -0.005214 0.001820 -0.003748 -0.005938
# 2 0.000538 0.036126 -0.010110 0.015136 -0.005297 0.007551
# 3 -0.005214 -0.010110 0.013740 -0.007304 0.007901 -0.003384
# 4 0.001820 0.015136 -0.007304 0.036063 -0.006333 0.010175
# 5 -0.003748 -0.005297 0.007901 -0.006333 0.027686 -0.007475
# 6 -0.005938 0.007551 -0.003384 0.010175 -0.007475 0.040181
#
#
# Mechanical properties :
#
#
# Convention : Reuss Voigt Hill
#
# Bulk Modulus (GPa) = 33.86125 68.29193 51.07659
# Shear Modulus (GPa) = 24.69742 39.18688 31.94215
#
# Velocity S-wave (km/s) = 3.16745 3.98983 3.60218
# Velocity P-wave (km/s) = 5.20887 6.99764 6.16844
#
# Compressibility (1/GPa) = 0.02953228
#
# Stress axis : x y z
#
# Youngs Moduli (GPa) = 108.23480 27.68127 72.78233
#
# Poissons Ratio (x) = -0.01490 0.37952
# Poissons Ratio (y) = -0.05826 0.73582
# Poissons Ratio (z) = 0.56438 0.27985
#
# Static dielectric constant tensor:
#      x y z
#    x 2.026840 0.008200 0.070930 
#    y 0.008200 2.061310 0.100190 
#    z 0.070930 0.100190 1.951600 
# 
# From -- ./inp_files/231647.got.cif
#   From: 2010.05.17/outbox.cif.g08.bks.cpg/sg2_116_cif.got.tgz:231647.got - 2010.06.03 11:33:40.
