data_PCOD9077843
_publ_section_title
;
Structure prediction by ZEFSAII (Michael W. Deem and Ramdas Pophale) SiO2 
 PCOD9077843
Probable space group: P -1
;
_chemical_formula_sum "Si O2"
_cell_formula_units_Z 14
_cell_length_a 8.643643
_cell_length_b 9.772945
_cell_length_c 12.053205
_cell_angle_alpha 47.054431
_cell_angle_beta 54.487993
_cell_angle_gamma 63.308183
_cell_volume 604.232326
_symmetry_space_group_name_H-M "P -1"
_symmetry_group_IT_number 2
_symmetry_cell_setting 'triclinic'
loop_
_space_group_symop_operation_xyz
x,y,z
-x,-y,-z
loop_
_atom_site_type_symbol
_atom_site_label
_atom_site_fract_x
_atom_site_fract_y
_atom_site_fract_z
Si Si1 0.015775 0.437057 0.211925
Si Si2 0.487537 0.704726 0.702616
Si Si3 0.283452 0.998734 0.466629
Si Si4 0.873046 0.130158 0.604062
Si Si5 0.819144 0.192483 0.036247
Si Si6 0.784934 0.015796 0.929338
Si Si7 0.296852 0.361586 0.935177
O O1 0.932647 0.303889 0.410954
O O2 0.845518 0.513838 0.157487
O O3 0.093337 0.616264 0.140109
O O4 0.183226 0.355946 0.102499
O O5 0.666946 0.796287 0.628483
O O6 0.325230 0.756325 0.833122
O O7 0.476137 0.485441 0.806150
O O8 0.425615 0.837011 0.550828
O O9 0.066398 0.987864 0.604453
O O10 0.278269 0.963042 0.358287
O O11 0.801850 0.158456 0.742152
O O12 0.714696 0.103162 0.026547
O O13 0.997622 0.062199 0.083958
O O14 0.681460 0.841823 0.018665
#
# Coordination Sequence:
#
# PCOD9077843 Si02
#       7
#     2   2   2   2   2   2   2
#     4   9  17  29  53  75 106 132 175 211 256 293
#     4  10  18  35  54  79 101 138 173 214 252 313
#     4  10  20  30  55  80 107 128 171 222 265 290
#     4  11  19  33  50  86 103 133 166 228 253 306
#     4   9  19  35  52  77 103 146 172 205 248 328
#     4  10  19  32  55  76 108 138 175 205 259 304
#     4   9  16  31  51  77 100 140 172 210 245 317
#
# _framework density 23.169896000000001
#
# number of rings (size 3 to 8) (size 9 to 14) (size 15 to 20)
#    0.000    2.286    2.857    2.571    0.000    0.571 
#    0.000    7.143    0.000    5.143    0.000    0.000 
#    0.000    0.000    0.000    0.000    0.000    0.000 
#
# Total GULP energy -78208.824700 kJ/mol
# GULP energy per Si atom -5586.344621 kJ/mol
# Density = 2.311716 g / cm^3
# Si number density = 23.169896 Si / 1000 Ang^3
#
#
#
# Elastic Constant Matrix: (Units=GPa)
#
#
# Indices 1 2 3 4 5 6 
#
# 1 77.0135 32.3379 40.1551 -6.2153 -4.3339 31.1382
# 2 32.3379 79.5715 32.1165 -7.8849 4.2674 33.9648
# 3 40.1551 32.1165 127.1882 -24.8276 13.9938 24.7934
# 4 -6.2153 -7.8849 -24.8276 21.2395 9.8265 -4.6019
# 5 -4.3339 4.2674 13.9938 9.8265 34.5685 -6.9249
# 6 31.1382 33.9648 24.7934 -4.6019 -6.9249 43.8437
#
#
#
# Elastic Compliance Matrix: (Units=1/GPa)
#
#
# Indices 1 2 3 4 5 6 
#
# 1 0.020721 -0.003285 -0.005890 -0.006455 0.005490 -0.008651
# 2 -0.003285 0.021461 0.001768 0.010206 -0.009838 -0.015775
# 3 -0.005890 0.001768 0.017472 0.025562 -0.016702 -0.007021
# 4 -0.006455 0.010206 0.025562 0.095353 -0.042421 -0.014468
# 5 0.005490 -0.009838 -0.016702 -0.042421 0.053076 0.017098
# 6 -0.008651 -0.015775 -0.007021 -0.014468 0.017098 0.046325
#
#
# Mechanical properties :
#
#
# Convention : Reuss Voigt Hill
#
# Bulk Modulus (GPa) = 22.30227 54.77692 38.53960
# Shear Modulus (GPa) = 17.59514 31.87458 24.73486
#
# Velocity S-wave (km/s) = 2.75871 3.71305 3.27087
# Velocity P-wave (km/s) = 4.44901 6.48653 5.56187
#
# Compressibility (1/GPa) = 0.04483849
#
# Stress axis : x y z
#
# Youngs Moduli (GPa) = 48.26010 46.59580 57.23514
#
# Poissons Ratio (x) = 0.15307 0.33712
# Poissons Ratio (y) = 0.15854 -0.10117
# Poissons Ratio (z) = 0.28426 -0.08236
#
# Static dielectric constant tensor:
#      x y z
#    x 1.914470 0.002830 -0.015250 
#    y 0.002830 1.892030 -0.071740 
#    z -0.015250 -0.071740 1.870960 
# 
# From -- ./inp_files/154903.got.cif
#   From: 2010.05.17/outbox.cif.g08.bks.cpg/sg2_78_cif.got.tgz:154903.got - 2010.06.03 11:33:40.
