data_PCOD9077623
_publ_section_title
;
Structure prediction by ZEFSAII (Michael W. Deem and Ramdas Pophale) SiO2 
 PCOD9077623
Probable space group: P -1
;
_chemical_formula_sum "Si O2"
_cell_formula_units_Z 16
_cell_length_a 9.059366
_cell_length_b 8.692878
_cell_length_c 13.169257
_cell_angle_alpha 53.947396
_cell_angle_beta 92.983079
_cell_angle_gamma 73.419289
_cell_volume 770.543819
_symmetry_space_group_name_H-M "P -1"
_symmetry_group_IT_number 2
_symmetry_cell_setting 'triclinic'
loop_
_space_group_symop_operation_xyz
x,y,z
-x,-y,-z
loop_
_atom_site_type_symbol
_atom_site_label
_atom_site_fract_x
_atom_site_fract_y
_atom_site_fract_z
Si Si1 0.534401 0.748652 0.501272
Si Si2 0.351163 0.608100 0.701108
Si Si3 0.181114 0.481805 0.001452
Si Si4 0.692935 0.796824 0.701889
Si Si5 0.456983 0.211661 0.978082
Si Si6 0.014041 0.212175 0.391203
Si Si7 0.286723 0.849845 0.810720
Si Si8 0.159184 0.304123 0.560526
O O1 0.410716 0.655579 0.576531
O O2 0.618820 0.759865 0.607771
O O3 0.680608 0.649593 0.466449
O O4 0.429540 0.973077 0.363746
O O5 0.462713 0.384499 0.832928
O O6 0.345200 0.772026 0.727251
O O7 0.167975 0.625050 0.682186
O O8 0.278262 0.382413 0.146363
O O9 0.279659 0.317566 0.981542
O O10 0.193721 0.701297 0.893753
O O11 0.000000 0.500000 0.000000
O O12 0.869800 0.802052 0.692567
O O13 0.575973 0.191758 0.084159
O O14 0.500000 0.000000 0.000000
O O15 0.114994 0.245268 0.472681
O O16 0.000000 0.000000 0.500000
O O17 0.192872 0.097904 0.707852
O O18 0.000000 0.500000 0.500000
#
# Coordination Sequence:
#
# PCOD9077623 Si02
#       8
#     2   2   2   2   2   2   2   2
#     4  10  19  35  61  89 114 157 205 252 295 372
#     4  11  20  39  67  93 118 163 215 255 313 366
#     4  11  23  40  67  95 122 166 215 259 304 382
#     4  10  18  34  61  92 116 146 206 254 298 354
#     4  11  25  42  63  92 132 169 210 261 320 377
#     4  11  20  37  65  94 122 154 201 265 306 369
#     4  11  22  43  66  88 126 171 210 255 314 380
#     4  11  25  41  60  88 130 166 200 254 328 371
#
# _framework density 20.764555999999999
#
# number of rings (size 3 to 8) (size 9 to 14) (size 15 to 20)
#    0.000    1.250    2.500    6.750    1.750    0.000 
#    2.250    1.250    0.000    0.000    0.000    0.000 
#    0.000    0.000    0.000    0.000    0.000    0.000 
#
# Total GULP energy -89205.087322 kJ/mol
# GULP energy per Si atom -5575.317958 kJ/mol
# Density = 2.071729 g / cm^3
# Si number density = 20.764556 Si / 1000 Ang^3
#
#
#
# Elastic Constant Matrix: (Units=GPa)
#
#
# Indices 1 2 3 4 5 6 
#
# 1 134.1541 31.0441 39.3694 -4.5037 -5.9842 -22.1679
# 2 31.0441 44.5613 21.0575 -20.7622 -17.2838 -4.5082
# 3 39.3694 21.0575 141.0550 -24.0721 -0.4312 -15.3723
# 4 -4.5037 -20.7622 -24.0721 26.0666 1.8272 9.9664
# 5 -5.9842 -17.2838 -0.4312 1.8272 33.7665 8.1985
# 6 -22.1679 -4.5082 -15.3723 9.9664 8.1985 30.2538
#
#
#
# Elastic Compliance Matrix: (Units=1/GPa)
#
#
# Indices 1 2 3 4 5 6 
#
# 1 0.015648 -0.024631 -0.003164 -0.025897 -0.012896 0.018213
# 2 -0.024631 0.092932 0.002998 0.086050 0.049366 -0.044402
# 3 -0.003164 0.002998 0.009252 0.010673 0.000729 -0.000884
# 4 -0.025897 0.086050 0.010673 0.130556 0.046187 -0.056255
# 5 -0.012896 0.049366 0.000729 0.046187 0.058039 -0.032666
# 6 0.018213 -0.044402 -0.000884 -0.056255 -0.032666 0.066718
#
#
# Mechanical properties :
#
#
# Convention : Reuss Voigt Hill
#
# Bulk Modulus (GPa) = 14.65472 55.85695 35.25583
# Shear Modulus (GPa) = 11.22373 33.23732 22.23052
#
# Velocity S-wave (km/s) = 2.32744 4.00518 3.27555
# Velocity P-wave (km/s) = 3.78094 6.95322 5.59655
#
# Compressibility (1/GPa) = 0.06823742
#
# Stress axis : x y z
#
# Youngs Moduli (GPa) = 63.90797 10.76059 108.08156
#
# Poissons Ratio (x) = 0.26505 0.34201
# Poissons Ratio (y) = 1.57413 -0.32408
# Poissons Ratio (z) = 0.20223 -0.03227
#
# Static dielectric constant tensor:
#      x y z
#    x 1.855200 -0.041150 -0.038070 
#    y -0.041150 1.765630 0.033410 
#    z -0.038070 0.033410 1.787140 
# 
# From -- ./inp_files/492044.got.cif
#   From: 2010.05.17/outbox.cif.g08.bks.cpg/sg2_247_cif.got.tgz:492044.got - 2010.06.03 11:33:40.
