data_PCOD9077559
_publ_section_title
;
Structure prediction by ZEFSAII (Michael W. Deem and Ramdas Pophale) SiO2 
 PCOD9077559
Probable space group: P -1
;
_chemical_formula_sum "Si O2"
_cell_formula_units_Z 16
_cell_length_a 14.293737
_cell_length_b 8.982872
_cell_length_c 21.587826
_cell_angle_alpha 144.439664
_cell_angle_beta 155.699098
_cell_angle_gamma 39.647128
_cell_volume 658.641501
_symmetry_space_group_name_H-M "P -1"
_symmetry_group_IT_number 2
_symmetry_cell_setting 'triclinic'
loop_
_space_group_symop_operation_xyz
x,y,z
-x,-y,-z
loop_
_atom_site_type_symbol
_atom_site_label
_atom_site_fract_x
_atom_site_fract_y
_atom_site_fract_z
Si Si1 0.879279 0.487956 0.989464
Si Si2 0.256784 0.092076 0.854529
Si Si3 0.348653 0.609676 0.675084
Si Si4 0.737342 0.943831 0.586111
Si Si5 0.028303 0.068301 0.152400
Si Si6 0.859563 0.634580 0.242289
Si Si7 0.485019 0.207211 0.410708
Si Si8 0.692601 0.091546 0.376906
O O1 0.603197 0.503979 0.817788
O O2 0.989304 0.205329 0.983637
O O3 0.891699 0.720399 0.123953
O O4 0.000000 0.500000 0.000000
O O5 0.286172 0.263138 0.870038
O O6 0.200414 0.820006 0.700017
O O7 0.500000 0.000000 0.000000
O O8 0.222376 0.360500 0.504839
O O9 0.386359 0.749456 0.679215
O O10 0.920125 0.997211 0.766281
O O11 0.500000 0.000000 0.500000
O O12 0.680701 0.095225 0.539456
O O13 0.250379 0.166440 0.288250
O O14 0.857056 0.329639 0.139516
O O15 0.106686 0.747665 0.421134
O O16 0.778305 0.802014 0.309648
O O17 0.500000 0.500000 0.500000
O O18 0.514231 0.068998 0.315705
#
# Coordination Sequence:
#
# PCOD9077559 Si02
#       8
#     2   2   2   2   2   2   2   2
#     4  11  24  41  62  90 122 172 216 252 296 361
#     4   9  22  41  63  85 120 177 211 240 306 372
#     4  10  18  41  67  86 125 167 203 255 311 376
#     4  10  18  34  60  94 123 157 199 252 320 363
#     4  11  22  39  63  90 129 159 204 260 311 367
#     4  10  20  38  61  89 129 157 196 261 312 365
#     4  11  20  33  58  97 128 159 197 244 318 382
#     4  10  20  35  62  96 124 157 196 253 328 363
#
# _framework density 24.292425999999999
#
# number of rings (size 3 to 8) (size 9 to 14) (size 15 to 20)
#    0.000    1.750    5.000    0.750    0.000    2.500 
#    2.250    0.625    0.000    3.750    0.000    0.000 
#    0.000    0.000    0.000    0.000    0.000    0.000 
#
# Total GULP energy -89310.102902 kJ/mol
# GULP energy per Si atom -5581.881431 kJ/mol
# Density = 2.423714 g / cm^3
# Si number density = 24.292426 Si / 1000 Ang^3
#
#
#
# Elastic Constant Matrix: (Units=GPa)
#
#
# Indices 1 2 3 4 5 6 
#
# 1 107.3052 58.5237 24.5757 30.7111 -28.7113 -6.2688
# 2 58.5237 202.6803 39.4816 36.3984 -27.7681 -10.5270
# 3 24.5757 39.4816 48.5315 11.7189 -18.1983 -8.3548
# 4 30.7111 36.3984 11.7189 43.5659 -3.1031 -19.0665
# 5 -28.7113 -27.7681 -18.1983 -3.1031 25.4521 6.4815
# 6 -6.2688 -10.5270 -8.3548 -19.0665 6.4815 40.4394
#
#
#
# Elastic Compliance Matrix: (Units=1/GPa)
#
#
# Indices 1 2 3 4 5 6 
#
# 1 0.019045 -0.000398 0.001319 -0.015193 0.022071 -0.007579
# 2 -0.000398 0.007198 -0.002665 -0.005618 0.005387 -0.002251
# 3 0.001319 -0.002665 0.030975 -0.005578 0.020030 0.000070
# 4 -0.015193 -0.005618 -0.005578 0.047443 -0.027004 0.021727
# 5 0.022071 0.005387 0.020030 -0.027004 0.085544 -0.017481
# 6 -0.007579 -0.002251 0.000070 0.021727 -0.017481 0.036028
#
#
# Mechanical properties :
#
#
# Convention : Reuss Voigt Hill
#
# Bulk Modulus (GPa) = 18.61130 67.07543 42.84337
# Shear Modulus (GPa) = 20.19144 37.62056 28.90600
#
# Velocity S-wave (km/s) = 2.88615 3.93956 3.45326
# Velocity P-wave (km/s) = 4.33411 6.95451 5.79438
#
# Compressibility (1/GPa) = 0.05373080
#
# Stress axis : x y z
#
# Youngs Moduli (GPa) = 52.50767 138.93003 32.28406
#
# Poissons Ratio (x) = 0.05523 -0.04259
# Poissons Ratio (y) = 0.02088 0.08605
# Poissons Ratio (z) = -0.06928 0.37029
#
# Static dielectric constant tensor:
#      x y z
#    x 1.925430 -0.027990 0.037460 
#    y -0.027990 1.959780 -0.027740 
#    z 0.037460 -0.027740 1.911760 
# 
# From -- ./inp_files/597463.got.cif
#   From: 2010.05.17/outbox.cif.g08.bks.cpg/sg2_299_cif.got.tgz:597463.got - 2010.06.03 11:33:40.
