data_PCOD9077242
_publ_section_title
;
Structure prediction by ZEFSAII (Michael W. Deem and Ramdas Pophale) SiO2 
 PCOD9077242
Probable space group: P -1
;
_chemical_formula_sum "Si O2"
_cell_formula_units_Z 13
_cell_length_a 7.577148
_cell_length_b 10.641562
_cell_length_c 13.078422
_cell_angle_alpha 32.501511
_cell_angle_beta 88.934951
_cell_angle_gamma 79.500731
_cell_volume 538.622611
_symmetry_space_group_name_H-M "P -1"
_symmetry_group_IT_number 2
_symmetry_cell_setting 'triclinic'
loop_
_space_group_symop_operation_xyz
x,y,z
-x,-y,-z
loop_
_atom_site_type_symbol
_atom_site_label
_atom_site_fract_x
_atom_site_fract_y
_atom_site_fract_z
Si Si1 0.500000 0.500000 0.500000
Si Si2 0.580259 0.113771 0.578334
Si Si3 0.953529 0.747389 0.762274
Si Si4 0.704212 0.533797 0.791481
Si Si5 0.931466 0.793579 0.286277
Si Si6 0.724618 0.140736 0.230262
Si Si7 0.255548 0.855102 0.113966
O O1 0.529321 0.281637 0.563772
O O2 0.447772 0.711970 0.262505
O O3 0.492948 0.291686 0.363134
O O4 0.795130 0.965780 0.668864
O O5 0.463218 0.921868 0.706508
O O6 0.851089 0.679365 0.711799
O O7 0.141508 0.820923 0.707390
O O8 0.000000 0.500000 0.000000
O O9 0.780317 0.337993 0.834913
O O10 0.682732 0.381543 0.994760
O O11 0.000000 0.500000 0.500000
O O12 0.108488 0.872926 0.194359
O O13 0.844029 0.921803 0.303806
O O14 0.788665 0.898436 0.121708
#
# Coordination Sequence:
#
# PCOD9077242 Si02
#       7
#     1   2   2   2   2   2   2
#     4  10  20  38  60  88 122 160 198 248 312 354
#     4  11  22  41  64  88 126 160 199 260 303 358
#     4  10  22  40  63  90 121 160 206 250 302 366
#     4   9  20  39  59  88 123 157 203 253 303 362
#     4  10  18  34  57  85 117 155 200 245 300 362
#     4  10  22  39  62  90 119 161 205 249 311 366
#     4   9  19  34  57  83 121 159 193 252 304 352
#
# _framework density 24.135636000000002
#
# number of rings (size 3 to 8) (size 9 to 14) (size 15 to 20)
#    0.000    2.154    0.000    3.231    0.000    4.308 
#    0.000   16.923    0.000    1.846    0.000    0.000 
#    0.000    0.000    0.000    0.000    0.000    0.000 
#
# Total GULP energy -72403.991152 kJ/mol
# GULP energy per Si atom -5569.537781 kJ/mol
# Density = 2.408070 g / cm^3
# Si number density = 24.135636 Si / 1000 Ang^3
#
#
#
# Elastic Constant Matrix: (Units=GPa)
#
#
# Indices 1 2 3 4 5 6 
#
# 1 84.2006 22.1894 34.1474 6.8992 -3.1765 19.9517
# 2 22.1894 127.5732 40.2915 -1.7514 8.6758 13.2886
# 3 34.1474 40.2915 170.2314 -18.8807 26.1916 20.9960
# 4 6.8992 -1.7514 -18.8807 22.4113 2.6531 7.3197
# 5 -3.1765 8.6758 26.1916 2.6531 22.9595 8.4007
# 6 19.9517 13.2886 20.9960 7.3197 8.4007 24.6828
#
#
#
# Elastic Compliance Matrix: (Units=1/GPa)
#
#
# Indices 1 2 3 4 5 6 
#
# 1 0.018254 -0.001421 -0.004715 -0.007245 0.013871 -0.012552
# 2 -0.001421 0.008820 -0.001150 0.001134 -0.001447 -0.002465
# 3 -0.004715 -0.001150 0.011210 0.013913 -0.012834 -0.004863
# 4 -0.007245 0.001134 0.013913 0.067475 -0.017554 -0.020624
# 5 0.013871 -0.001447 -0.012834 -0.017554 0.069230 -0.017873
# 6 -0.012552 -0.002465 -0.004863 -0.020624 -0.017873 0.068323
#
#
# Mechanical properties :
#
#
# Convention : Reuss Voigt Hill
#
# Bulk Modulus (GPa) = 42.17344 63.91798 53.04571
# Shear Modulus (GPa) = 18.81199 33.03586 25.92393
#
# Velocity S-wave (km/s) = 2.79485 3.70369 3.28089
# Velocity P-wave (km/s) = 5.28454 6.69552 6.03144
#
# Compressibility (1/GPa) = 0.02371161
#
# Stress axis : x y z
#
# Youngs Moduli (GPa) = 54.78162 113.38135 89.20685
#
# Poissons Ratio (x) = 0.16114 0.42061
# Poissons Ratio (y) = 0.07786 0.10258
# Poissons Ratio (z) = 0.25829 0.13038
#
# Static dielectric constant tensor:
#      x y z
#    x 2.003320 -0.002170 0.044480 
#    y -0.002170 1.905360 0.005400 
#    z 0.044480 0.005400 1.962080 
# 
# From -- ./inp_files/496044.got.cif
#   From: 2010.05.17/outbox.cif.g08.bks.cpg/sg2_249_cif.got.tgz:496044.got - 2010.06.03 11:33:40.
