data_PCOD9077652
_publ_section_title
;
Structure prediction by ZEFSAII (Michael W. Deem and Ramdas Pophale) SiO2 
 PCOD9077652
Probable space group: P -1
;
_chemical_formula_sum "Si O2"
_cell_formula_units_Z 12
_cell_length_a 9.720326
_cell_length_b 9.452120
_cell_length_c 7.592732
_cell_angle_alpha 71.618765
_cell_angle_beta 86.317010
_cell_angle_gamma 47.952652
_cell_volume 480.794831
_symmetry_space_group_name_H-M "P -1"
_symmetry_group_IT_number 2
_symmetry_cell_setting 'triclinic'
loop_
_space_group_symop_operation_xyz
x,y,z
-x,-y,-z
loop_
_atom_site_type_symbol
_atom_site_label
_atom_site_fract_x
_atom_site_fract_y
_atom_site_fract_z
Si Si1 0.090351 0.299681 0.224984
Si Si2 0.718883 0.862638 0.096496
Si Si3 0.297636 0.782162 0.070252
Si Si4 0.694446 0.170233 0.548517
Si Si5 0.347182 0.234172 0.494628
Si Si6 0.262446 0.613129 0.830491
O O1 0.182247 0.359214 0.314464
O O2 0.872723 0.417697 0.206673
O O3 0.189005 0.070205 0.369633
O O4 0.154854 0.272001 0.029400
O O5 0.735787 0.765894 0.316893
O O6 0.753103 0.013249 0.063884
O O7 0.500000 0.000000 0.000000
O O8 0.730911 0.210752 0.722160
O O9 0.523172 0.601415 0.090713
O O10 0.203140 0.727700 0.977757
O O11 0.473413 0.286734 0.498256
O O12 0.745697 0.246132 0.362704
O O13 0.500000 0.000000 0.500000
#
# Coordination Sequence:
#
# PCOD9077652 Si02
#       6
#     2   2   2   2   2   2
#     4  10  22  35  58  92 111 147 193 240 278 326
#     4  11  19  37  64  82 112 147 198 232 275 338
#     4  10  22  38  59  82 115 159 185 227 292 340
#     4  10  20  36  63  80 112 153 192 231 280 340
#     4  10  18  34  62  86 106 147 195 234 278 325
#     4  11  23  38  56  87 121 148 186 234 289 341
#
# _framework density 24.958670000000001
#
# number of rings (size 3 to 8) (size 9 to 14) (size 15 to 20)
#    0.000    1.667    5.000    3.000    0.000    4.000 
#    0.000    1.667    0.000    0.000    0.000    0.000 
#    0.000    0.000    0.000    0.000    0.000    0.000 
#
# Total GULP energy -67267.591294 kJ/mol
# GULP energy per Si atom -5605.632608 kJ/mol
# Density = 2.490186 g / cm^3
# Si number density = 24.958670 Si / 1000 Ang^3
#
#
#
# Elastic Constant Matrix: (Units=GPa)
#
#
# Indices 1 2 3 4 5 6 
#
# 1 85.5243 2.4383 64.2005 -6.7899 5.1858 -1.4201
# 2 2.4383 63.6172 37.4612 4.2758 -4.0149 13.1616
# 3 64.2005 37.4612 137.3005 19.9440 -5.9474 16.9315
# 4 -6.7899 4.2758 19.9440 36.7763 8.8821 -3.8925
# 5 5.1858 -4.0149 -5.9474 8.8821 34.4085 1.8298
# 6 -1.4201 13.1616 16.9315 -3.8925 1.8298 28.5122
#
#
#
# Elastic Compliance Matrix: (Units=1/GPa)
#
#
# Indices 1 2 3 4 5 6 
#
# 1 0.030552 0.006003 -0.021583 0.021674 -0.014050 0.015428
# 2 0.006003 0.021096 -0.008531 0.002981 -0.000478 -0.003935
# 3 -0.021583 -0.008531 0.025381 -0.021608 0.013073 -0.015998
# 4 0.021674 0.002981 -0.021608 0.049721 -0.020586 0.020644
# 5 -0.014050 -0.000478 0.013073 -0.020586 0.039420 -0.013582
# 6 0.015428 -0.003935 -0.015998 0.020644 -0.013582 0.050848
#
#
# Mechanical properties :
#
#
# Convention : Reuss Voigt Hill
#
# Bulk Modulus (GPa) = 34.71459 54.96022 44.83741
# Shear Modulus (GPa) = 18.19221 32.09553 25.14387
#
# Velocity S-wave (km/s) = 2.70273 3.58990 3.17743
# Velocity P-wave (km/s) = 4.86608 6.26510 5.60938
#
# Compressibility (1/GPa) = 0.02880633
#
# Stress axis : x y z
#
# Youngs Moduli (GPa) = 32.73109 47.40163 39.39990
#
# Poissons Ratio (x) = -0.28455 0.85037
# Poissons Ratio (y) = -0.19649 0.33613
# Poissons Ratio (z) = 0.70644 0.40440
#
# Static dielectric constant tensor:
#      x y z
#    x 1.959710 -0.051250 0.055220 
#    y -0.051250 2.038490 -0.022230 
#    z 0.055220 -0.022230 1.913570 
# 
# From -- ./inp_files/145678.got.cif
#   From: 2010.05.17/outbox.cif.g08.bks.cpg/sg2_73_cif.got.tgz:145678.got - 2010.06.03 11:33:40.
