data_PCOD9077953
_publ_section_title
;
Structure prediction by ZEFSAII (Michael W. Deem and Ramdas Pophale) SiO2 
 PCOD9077953
Probable space group: P -1
;
_chemical_formula_sum "Si O2"
_cell_formula_units_Z 16
_cell_length_a 9.592276
_cell_length_b 11.756718
_cell_length_c 11.808767
_cell_angle_alpha 72.626659
_cell_angle_beta 65.347218
_cell_angle_gamma 118.639829
_cell_volume 829.231284
_symmetry_space_group_name_H-M "P -1"
_symmetry_group_IT_number 2
_symmetry_cell_setting 'triclinic'
loop_
_space_group_symop_operation_xyz
x,y,z
-x,-y,-z
loop_
_atom_site_type_symbol
_atom_site_label
_atom_site_fract_x
_atom_site_fract_y
_atom_site_fract_z
Si Si1 0.747982 0.614924 0.536743
Si Si2 0.157896 0.504307 0.023993
Si Si3 0.994774 0.283678 0.364160
Si Si4 0.439022 0.058976 0.407200
Si Si5 0.170616 0.835795 0.199998
Si Si6 0.628642 0.418209 0.291597
Si Si7 0.394185 0.862728 0.914158
Si Si8 0.882567 0.481137 0.403221
O O1 0.819580 0.654930 0.631622
O O2 0.536128 0.575591 0.606234
O O3 0.729359 0.467811 0.545529
O O4 0.948688 0.769112 0.344367
O O5 0.282277 0.498805 0.886573
O O6 0.302723 0.678547 0.991263
O O7 0.057269 0.364055 0.194350
O O8 0.000000 0.500000 0.000000
O O9 0.813759 0.086111 0.481742
O O10 0.889558 0.344341 0.439554
O O11 0.500000 0.000000 0.500000
O O12 0.510617 0.229235 0.365431
O O13 0.564175 0.084810 0.245551
O O14 0.115034 0.665478 0.293892
O O15 0.375214 0.999862 0.144552
O O16 0.235386 0.862906 0.037882
O O17 0.809768 0.487450 0.302055
#
# Coordination Sequence:
#
# PCOD9077953 Si02
#       8
#     2   2   2   2   2   2   2   2
#     4  10  23  36  58  89 118 151 191 240 300 336
#     4  11  20  37  61  83 116 154 197 237 285 347
#     4  12  20  38  59  89 115 148 195 252 279 333
#     4  11  21  35  59  86 113 148 201 240 279 344
#     4   9  19  34  58  82 116 148 188 243 280 346
#     4  11  22  38  61  84 117 161 187 235 297 355
#     4  10  18  35  56  89 107 150 196 237 285 333
#     4  10  19  37  61  82 115 150 195 236 280 345
#
# _framework density 19.294979000000001
#
# number of rings (size 3 to 8) (size 9 to 14) (size 15 to 20)
#    0.750    0.750    5.000    1.500    0.000    1.000 
#    0.000    0.000    0.000    0.750    0.000    0.000 
#    0.000    0.000    0.000    0.000    0.000    0.000 
#
# Total GULP energy -89092.029356 kJ/mol
# GULP energy per Si atom -5568.251835 kJ/mol
# Density = 1.925106 g / cm^3
# Si number density = 19.294979 Si / 1000 Ang^3
#
#
#
# Elastic Constant Matrix: (Units=GPa)
#
#
# Indices 1 2 3 4 5 6 
#
# 1 38.8622 5.0983 12.0625 3.7886 -5.6858 3.3092
# 2 5.0983 81.5520 20.5696 -3.0885 -2.8073 14.4669
# 3 12.0625 20.5696 109.2806 19.6079 2.3567 -0.7579
# 4 3.7886 -3.0885 19.6079 34.5235 5.6011 -2.3784
# 5 -5.6858 -2.8073 2.3567 5.6011 27.7986 4.9484
# 6 3.3092 14.4669 -0.7579 -2.3784 4.9484 17.3796
#
#
#
# Elastic Compliance Matrix: (Units=1/GPa)
#
#
# Indices 1 2 3 4 5 6 
#
# 1 0.028923 0.000725 -0.002959 -0.003449 0.008564 -0.009150
# 2 0.000725 0.015906 -0.003567 0.001669 0.004308 -0.014532
# 3 -0.002959 -0.003567 0.011266 -0.005923 -0.001368 0.003603
# 4 -0.003449 0.001669 -0.005923 0.034584 -0.008078 0.006042
# 5 0.008564 0.004308 -0.001368 -0.008078 0.043230 -0.018690
# 6 -0.009150 -0.014532 0.003603 0.006042 -0.018690 0.077683
#
#
# Mechanical properties :
#
#
# Convention : Reuss Voigt Hill
#
# Bulk Modulus (GPa) = 22.47456 33.90616 28.19036
# Shear Modulus (GPa) = 21.00622 28.73797 24.87210
#
# Velocity S-wave (km/s) = 3.30311 3.86346 3.59422
# Velocity P-wave (km/s) = 5.12060 6.12474 5.64504
#
# Compressibility (1/GPa) = 0.04449476
#
# Stress axis : x y z
#
# Youngs Moduli (GPa) = 34.57409 62.86985 88.76281
#
# Poissons Ratio (x) = -0.04561 0.26261
# Poissons Ratio (y) = -0.02508 0.31664
# Poissons Ratio (z) = 0.10229 0.22427
#
# Static dielectric constant tensor:
#      x y z
#    x 1.654760 0.038560 -0.018400 
#    y 0.038560 1.714800 0.010570 
#    z -0.018400 0.010570 1.755030 
# 
# From -- ./inp_files/389741.got.cif
#   From: 2010.05.17/outbox.cif.g08.bks.cpg/sg2_195_cif.got.tgz:389741.got - 2010.06.03 11:33:40.
