data_PCOD9077850
_publ_section_title
;
Structure prediction by ZEFSAII (Michael W. Deem and Ramdas Pophale) SiO2 
 PCOD9077850
Probable space group: P -1
;
_chemical_formula_sum "Si O2"
_cell_formula_units_Z 16
_cell_length_a 11.314335
_cell_length_b 9.103625
_cell_length_c 17.649356
_cell_angle_alpha 101.976660
_cell_angle_beta 49.084148
_cell_angle_gamma 66.316269
_cell_volume 922.378046
_symmetry_space_group_name_H-M "P -1"
_symmetry_group_IT_number 2
_symmetry_cell_setting 'triclinic'
loop_
_space_group_symop_operation_xyz
x,y,z
-x,-y,-z
loop_
_atom_site_type_symbol
_atom_site_label
_atom_site_fract_x
_atom_site_fract_y
_atom_site_fract_z
Si Si1 0.523284 0.340062 0.162051
Si Si2 0.442438 0.950348 0.405771
Si Si3 0.912307 0.276576 0.935686
Si Si4 0.362243 0.253176 0.082334
Si Si5 0.375828 0.983186 0.799916
Si Si6 0.113821 0.293123 0.711592
Si Si7 0.452013 0.225230 0.878952
Si Si8 0.734630 0.174171 0.640694
O O1 0.405477 0.319358 0.145828
O O2 0.554397 0.219544 0.211359
O O3 0.373644 0.588957 0.272381
O O4 0.758539 0.239477 0.015749
O O5 0.683034 0.776607 0.330860
O O6 0.383026 0.834104 0.379349
O O7 0.475290 0.050804 0.335387
O O8 0.242993 0.136694 0.567454
O O9 0.003013 0.242701 0.808027
O O10 0.746638 0.533881 0.047421
O O11 0.126279 0.137073 0.886208
O O12 0.090111 0.451159 0.199342
O O13 0.465660 0.256074 0.963957
O O14 0.500000 0.000000 0.000000
O O15 0.386432 0.101101 0.874277
O O16 0.681878 0.108093 0.728494
O O17 0.000000 0.000000 0.500000
#
# Coordination Sequence:
#
# PCOD9077850 Si02
#       8
#     2   2   2   2   2   2   2   2
#     4  11  22  34  53  83 114 140 179 225 281 321
#     4   9  19  38  62  81 105 145 192 221 266 327
#     4   9  19  33  57  81 106 144 176 229 271 316
#     4  11  21  36  52  81 113 142 181 226 273 322
#     4  10  18  35  54  82 113 139 178 224 273 327
#     4   9  19  37  62  79 105 148 190 224 260 326
#     4   9  19  35  56  77 106 144 190 214 264 330
#     4  10  21  37  55  83 109 146 181 226 271 324
#
# _framework density 17.346465999999999
#
# number of rings (size 3 to 8) (size 9 to 14) (size 15 to 20)
#    0.000    2.250    1.250    1.500    0.000    8.500 
#    4.500    1.875    0.000    2.250    0.000    0.000 
#    0.000    0.000    0.000    0.000    0.000    0.000 
#
# Total GULP energy -89085.854371 kJ/mol
# GULP energy per Si atom -5567.865898 kJ/mol
# Density = 1.730699 g / cm^3
# Si number density = 17.346466 Si / 1000 Ang^3
#
#
#
# Elastic Constant Matrix: (Units=GPa)
#
#
# Indices 1 2 3 4 5 6 
#
# 1 87.2368 56.4002 57.2889 1.1235 5.5486 -0.6625
# 2 56.4002 88.0049 43.2777 11.8298 -5.9381 -3.2127
# 3 57.2889 43.2777 117.8722 -4.8359 -6.0715 -5.0552
# 4 1.1235 11.8298 -4.8359 19.7937 0.8306 4.9801
# 5 5.5486 -5.9381 -6.0715 0.8306 24.7122 -0.4489
# 6 -0.6625 -3.2127 -5.0552 4.9801 -0.4489 22.8475
#
#
#
# Elastic Compliance Matrix: (Units=1/GPa)
#
#
# Indices 1 2 3 4 5 6 
#
# 1 0.027702 -0.015763 -0.008221 0.007653 -0.012378 -0.005144
# 2 -0.015763 0.025391 -0.001552 -0.016741 0.009942 0.006614
# 3 -0.008221 -0.001552 0.013533 0.004065 0.004693 0.001744
# 4 0.007653 -0.016741 0.004065 0.065316 -0.007221 -0.015612
# 5 -0.012378 0.009942 0.004693 -0.007221 0.047113 0.004577
# 6 -0.005144 0.006614 0.001744 -0.015612 0.004577 0.048428
#
#
# Mechanical properties :
#
#
# Convention : Reuss Voigt Hill
#
# Bulk Modulus (GPa) = 64.29283 67.44972 65.87128
# Shear Modulus (GPa) = 17.62178 22.54715 20.08446
#
# Velocity S-wave (km/s) = 3.19073 3.60920 3.40640
# Velocity P-wave (km/s) = 7.12171 7.50578 7.31626
#
# Compressibility (1/GPa) = 0.01555383
#
# Stress axis : x y z
#
# Youngs Moduli (GPa) = 36.09813 39.38385 73.89595
#
# Poissons Ratio (x) = 0.62080 0.60748
# Poissons Ratio (y) = 0.56901 0.11472
# Poissons Ratio (z) = 0.29675 0.06114
#
# Static dielectric constant tensor:
#      x y z
#    x 1.584110 -0.012720 -0.001050 
#    y -0.012720 1.602770 -0.021040 
#    z -0.001050 -0.021040 1.600740 
# 
# From -- ./inp_files/254589.got.cif
#   From: 2010.05.17/outbox.cif.g08.bks.cpg/sg2_128_cif.got.tgz:254589.got - 2010.06.03 11:33:40.
