data_PCOD9077027
_publ_section_title
;
Structure prediction by ZEFSAII (Michael W. Deem and Ramdas Pophale) SiO2 
 PCOD9077027
Probable space group: P -1
;
_chemical_formula_sum "Si O2"
_cell_formula_units_Z 16
_cell_length_a 14.504667
_cell_length_b 21.349818
_cell_length_c 24.349137
_cell_angle_alpha 11.640608
_cell_angle_beta 153.970753
_cell_angle_gamma 154.877494
_cell_volume 639.776169
_symmetry_space_group_name_H-M "P -1"
_symmetry_group_IT_number 2
_symmetry_cell_setting 'triclinic'
loop_
_space_group_symop_operation_xyz
x,y,z
-x,-y,-z
loop_
_atom_site_type_symbol
_atom_site_label
_atom_site_fract_x
_atom_site_fract_y
_atom_site_fract_z
Si Si1 0.892044 0.958485 0.572335
Si Si2 0.488300 0.917739 0.856986
Si Si3 0.990537 0.564031 0.863306
Si Si4 0.108480 0.041025 0.815956
Si Si5 0.641652 0.418198 0.598991
Si Si6 0.566210 0.922793 0.740722
Si Si7 0.746574 0.458277 0.444718
Si Si8 0.378401 0.256105 0.201360
O O1 0.863266 0.715206 0.711758
O O2 0.025232 0.298083 0.323952
O O3 0.663781 0.977996 0.461599
O O4 0.034709 0.810569 0.817376
O O5 0.247504 0.719234 0.881418
O O6 0.487704 0.148029 0.709766
O O7 0.597094 0.169240 0.651423
O O8 0.629530 0.684525 0.153737
O O9 0.254635 0.267625 0.653002
O O10 0.102613 0.305507 0.633186
O O11 0.875334 0.865867 0.816179
O O12 0.193652 0.765020 0.128418
O O13 0.500000 0.500000 0.500000
O O14 0.618136 0.783834 0.829367
O O15 0.775645 0.204913 0.631343
O O16 0.491130 0.566631 0.033391
O O17 0.500000 0.000000 0.500000
#
# Coordination Sequence:
#
# PCOD9077027 Si02
#       8
#     2   2   2   2   2   2   2   2
#     4  10  21  33  59  87 130 168 214 270 334 406
#     4  10  18  35  60  96 132 163 215 277 339 402
#     4  10  18  34  54  94 129 162 213 269 343 403
#     4  10  24  47  70 102 141 178 237 292 341 417
#     4  10  22  41  72 103 137 182 228 280 354 425
#     4  11  24  44  68  95 135 184 238 284 363 398
#     4  10  21  39  71  95 123 173 218 290 340 398
#     4  11  29  47  68  97 143 189 241 292 347 422
#
# _framework density 25.008745000000001
#
# number of rings (size 3 to 8) (size 9 to 14) (size 15 to 20)
#    0.000    1.750    2.500    0.375    7.000    1.500 
#    0.000    0.625    0.000    0.000    0.000    0.000 
#    0.000    0.000    0.000    0.000    0.000    0.000 
#
# Total GULP energy -89224.096262 kJ/mol
# GULP energy per Si atom -5576.506016 kJ/mol
# Density = 2.495182 g / cm^3
# Si number density = 25.008745 Si / 1000 Ang^3
#
#
#
# Elastic Constant Matrix: (Units=GPa)
#
#
# Indices 1 2 3 4 5 6 
#
# 1 102.8229 -3.8885 5.9763 -14.0842 -9.1847 9.4431
# 2 -3.8885 -109.6382 -67.1670 84.0419 14.1454 -30.9440
# 3 5.9763 -67.1670 75.9905 41.7137 -11.3030 -12.4685
# 4 -14.0842 84.0419 41.7137 -34.5252 -26.4103 18.7360
# 5 -9.1847 14.1454 -11.3030 -26.4103 46.0550 -3.1835
# 6 9.4431 -30.9440 -12.4685 18.7360 -3.1835 29.5904
#
#
#
# Elastic Compliance Matrix: (Units=1/GPa)
#
#
# Indices 1 2 3 4 5 6 
#
# 1 0.011979 0.007765 0.001075 0.010151 0.006018 -0.001030
# 2 0.007765 0.022607 0.000389 0.038722 0.016810 -0.001383
# 3 0.001075 0.000389 0.010289 0.007697 0.007054 0.000284
# 4 0.010151 0.038722 0.007697 0.055860 0.024591 0.007773
# 5 0.006018 0.016810 0.007054 0.024591 0.034048 0.006724
# 6 -0.001030 -0.001383 0.000284 0.007773 0.006724 0.028598
#
#
# Mechanical properties :
#
#
# Convention : Reuss Voigt Hill
#
# Bulk Modulus (GPa) = 15.78976 -6.77592 4.50692
# Shear Modulus (GPa) = 30.11419 17.17433 23.64426
#
# Velocity S-wave (km/s) = 3.47385 2.62340 3.07814
# Velocity P-wave (km/s) = 4.73472 2.54185 3.79990
#
# Compressibility (1/GPa) = 0.06333220
#
# Stress axis : x y z
#
# Youngs Moduli (GPa) = 83.47785 44.23478 97.19030
#
# Poissons Ratio (x) = -0.34348 -0.10448
# Poissons Ratio (y) = -0.64820 -0.03778
# Poissons Ratio (z) = -0.08974 -0.01719
#
# Static dielectric constant tensor:
#      x y z
#    x 1.355420 -0.151120 0.447180 
#    y -0.151120 1.982690 0.086080 
#    z 0.447180 0.086080 1.702360 
# 
# From -- ./inp_files/619919.got.cif
#   From: 2010.05.17/outbox.cif.g08.bks.cpg/sg2_310_cif.got.tgz:619919.got - 2010.06.03 11:33:40.
