data_PCOD9077925
_publ_section_title
;
Structure prediction by ZEFSAII (Michael W. Deem and Ramdas Pophale) SiO2 
 PCOD9077925
Probable space group: P -1
;
_chemical_formula_sum "Si O2"
_cell_formula_units_Z 16
_cell_length_a 7.323120
_cell_length_b 13.756726
_cell_length_c 9.588144
_cell_angle_alpha 123.687076
_cell_angle_beta 118.840156
_cell_angle_gamma 92.502739
_cell_volume 636.638413
_symmetry_space_group_name_H-M "P -1"
_symmetry_group_IT_number 2
_symmetry_cell_setting 'triclinic'
loop_
_space_group_symop_operation_xyz
x,y,z
-x,-y,-z
loop_
_atom_site_type_symbol
_atom_site_label
_atom_site_fract_x
_atom_site_fract_y
_atom_site_fract_z
Si Si1 0.294957 0.966731 0.146192
Si Si2 0.332293 0.410844 0.249064
Si Si3 0.241237 0.909263 0.439081
Si Si4 0.783989 0.502541 0.011225
Si Si5 0.987817 0.027189 0.277813
Si Si6 0.461924 0.170905 0.117469
Si Si7 0.190057 0.715918 0.017612
Si Si8 0.959746 0.262804 0.502570
O O1 0.279629 0.821704 0.011321
O O2 0.491147 0.032663 0.385043
O O3 0.380632 0.061342 0.123541
O O4 0.064140 0.963370 0.124684
O O5 0.500000 0.500000 0.500000
O O6 0.352834 0.466972 0.141903
O O7 0.373404 0.282243 0.160632
O O8 0.074408 0.379736 0.182990
O O9 0.177970 0.800059 0.211235
O O10 0.119247 0.832085 0.469432
O O11 0.149818 0.013313 0.445444
O O12 0.674023 0.364799 0.941846
O O13 0.000000 0.500000 0.000000
O O14 0.876197 0.604872 0.254788
O O15 0.052313 0.175266 0.376615
O O16 0.720358 0.935778 0.142959
O O17 0.731993 0.252567 0.329733
#
# Coordination Sequence:
#
# PCOD9077925 Si02
#       8
#     2   2   2   2   2   2   2   2
#     4  10  22  36  61  88 117 158 192 238 290 351
#     4  11  21  32  56  89 115 146 193 248 287 331
#     4  10  19  36  58  84 111 154 196 241 285 348
#     4  10  19  37  57  82 114 151 199 242 283 340
#     4  11  20  35  54  89 122 147 194 246 297 338
#     4  11  21  36  56  88 123 152 197 231 298 350
#     4  10  18  35  56  83 115 146 198 240 280 338
#     4  11  21  34  58  86 115 158 191 247 293 338
#
# _framework density 25.132003999999998
#
# number of rings (size 3 to 8) (size 9 to 14) (size 15 to 20)
#    0.000    1.500    5.000    4.125    1.750    0.000 
#    0.000    0.000    0.000    3.750    6.500    0.000 
#    0.000    0.000    0.000    0.000    0.000    0.000 
#
# Total GULP energy -89162.302977 kJ/mol
# GULP energy per Si atom -5572.643936 kJ/mol
# Density = 2.507480 g / cm^3
# Si number density = 25.132004 Si / 1000 Ang^3
#
#
#
# Elastic Constant Matrix: (Units=GPa)
#
#
# Indices 1 2 3 4 5 6 
#
# 1 23.6520 13.4151 14.6970 -5.1622 15.3304 -19.7191
# 2 13.4151 188.6415 49.2267 -9.1190 -3.2279 -27.9252
# 3 14.6970 49.2267 150.3512 -9.6707 -2.3055 -11.6505
# 4 -5.1622 -9.1190 -9.6707 53.6775 -13.6822 -0.6698
# 5 15.3304 -3.2279 -2.3055 -13.6822 28.8266 1.2645
# 6 -19.7191 -27.9252 -11.6505 -0.6698 1.2645 28.2148
#
#
#
# Elastic Compliance Matrix: (Units=1/GPa)
#
#
# Indices 1 2 3 4 5 6 
#
# 1 -11.068663 -0.479683 0.739696 0.544366 6.509305 -8.183939
# 2 -0.479683 -0.014113 0.030416 0.024733 0.282993 -0.348751
# 3 0.739696 0.030416 -0.042035 -0.035059 -0.434031 0.548335
# 4 0.544366 0.024733 -0.035059 -0.005017 -0.309649 0.404214
# 5 6.509305 0.282993 -0.434031 -0.309649 -3.788163 4.812598
# 6 -8.183939 -0.348751 0.548335 0.404214 4.812598 -6.009098
#
#
# Mechanical properties :
#
#
# Convention : Reuss Voigt Hill
#
# Bulk Modulus (GPa) = -0.09484 57.48027 28.69271
# Shear Modulus (GPa) = -0.19982 41.16416 20.48217
#
# Velocity S-wave (km/s) = -0.28228 4.05151 2.85789
# Velocity P-wave (km/s) = 0.37955 6.69383 4.72563
#
# Compressibility (1/GPa) = -10.54395292
#
# Stress axis : x y z
#
# Youngs Moduli (GPa) = -0.09035 -70.85837 -23.78997
#
# Poissons Ratio (x) = -33.98959 17.59734
# Poissons Ratio (y) = -0.04334 0.72360
# Poissons Ratio (z) = 0.06683 2.15525
#
# Static dielectric constant tensor:
#      x y z
#    x 2.298670 0.044650 -0.139080 
#    y 0.044650 2.104360 0.011720 
#    z -0.139080 0.011720 2.077970 
# 
# From -- ./inp_files/399675.got.cif
#   From: 2010.05.17/outbox.cif.g08.bks.cpg/sg2_200_cif.got.tgz:399675.got - 2010.06.03 11:33:40.
