data_PCOD9077647
_publ_section_title
;
Structure prediction by ZEFSAII (Michael W. Deem and Ramdas Pophale) SiO2 
 PCOD9077647
Probable space group: P -1
;
_chemical_formula_sum "Si O2"
_cell_formula_units_Z 16
_cell_length_a 13.350967
_cell_length_b 7.590247
_cell_length_c 12.099682
_cell_angle_alpha 50.288358
_cell_angle_beta 53.576334
_cell_angle_gamma 77.290213
_cell_volume 733.394599
_symmetry_space_group_name_H-M "P -1"
_symmetry_group_IT_number 2
_symmetry_cell_setting 'triclinic'
loop_
_space_group_symop_operation_xyz
x,y,z
-x,-y,-z
loop_
_atom_site_type_symbol
_atom_site_label
_atom_site_fract_x
_atom_site_fract_y
_atom_site_fract_z
Si Si1 0.061780 0.590667 0.688684
Si Si2 0.320387 0.002909 0.378838
Si Si3 0.439201 0.228571 0.677273
Si Si4 0.647699 0.000961 0.395456
Si Si5 0.808875 0.630662 0.734990
Si Si6 0.786398 0.101716 0.949820
Si Si7 0.952515 0.780565 0.349554
Si Si8 0.102463 0.795594 0.923706
O O1 0.191617 0.790248 0.538967
O O2 0.076777 0.434290 0.633953
O O3 0.931727 0.676766 0.718042
O O4 0.020445 0.422700 0.890185
O O5 0.445790 0.900677 0.324735
O O6 0.328476 0.094409 0.463232
O O7 0.292124 0.214257 0.240192
O O8 0.500000 0.500000 0.500000
O O9 0.356522 0.149314 0.651454
O O10 0.331853 0.128783 0.880983
O O11 0.500000 0.000000 0.500000
O O12 0.760764 0.237258 0.199054
O O13 0.744252 0.348292 0.888505
O O14 0.878478 0.703996 0.541837
O O15 0.892378 0.141462 0.768728
O O16 0.868561 0.109291 0.007058
O O17 0.920086 0.004784 0.222758
#
# Coordination Sequence:
#
# PCOD9077647 Si02
#       8
#     2   2   2   2   2   2   2   2
#     4  10  21  33  56  89 116 147 196 232 281 340
#     4  11  22  35  59  82 118 157 184 232 290 340
#     4  10  23  38  61  85 112 150 197 242 279 335
#     4   9  19  37  52  80 115 149 186 230 290 330
#     4  10  20  38  57  86 118 153 182 233 292 345
#     4   9  19  35  57  85 114 146 193 233 279 340
#     4  10  18  34  62  83 115 152 188 238 287 330
#     4   9  17  32  57  83 112 148 192 234 282 331
#
# _framework density 21.816358999999999
#
# number of rings (size 3 to 8) (size 9 to 14) (size 15 to 20)
#    0.000    2.500    1.250    3.375    5.250    1.000 
#    0.000    0.000    0.000   11.250    0.000    0.000 
#    0.000    0.000    0.000    0.000    0.000    0.000 
#
# Total GULP energy -89080.004741 kJ/mol
# GULP energy per Si atom -5567.500296 kJ/mol
# Density = 2.176670 g / cm^3
# Si number density = 21.816359 Si / 1000 Ang^3
#
#
#
# Elastic Constant Matrix: (Units=GPa)
#
#
# Indices 1 2 3 4 5 6 
#
# 1 70.3209 16.8444 16.6728 -17.2070 -1.3529 -13.7789
# 2 16.8444 34.3989 17.2728 -8.4029 -4.1956 -17.3363
# 3 16.6728 17.2728 92.6199 -18.2343 -11.0381 -7.9698
# 4 -17.2070 -8.4029 -18.2343 27.9901 -3.3064 3.8365
# 5 -1.3529 -4.1956 -11.0381 -3.3064 38.2218 -3.4160
# 6 -13.7789 -17.3363 -7.9698 3.8365 -3.4160 27.8712
#
#
#
# Elastic Compliance Matrix: (Units=1/GPa)
#
#
# Indices 1 2 3 4 5 6 
#
# 1 0.018651 -0.003584 -0.000081 0.009728 0.001606 0.005826
# 2 -0.003584 0.049402 -0.003910 0.007135 0.007264 0.027747
# 3 -0.000081 -0.003910 0.013725 0.008108 0.004310 0.000865
# 4 0.009728 0.007135 0.008108 0.049313 0.008252 0.005790
# 5 0.001606 0.007264 0.004310 0.008252 0.029786 0.009059
# 6 0.005826 0.027747 0.000865 0.005790 0.009059 0.056579
#
#
# Mechanical properties :
#
#
# Convention : Reuss Voigt Hill
#
# Bulk Modulus (GPa) = 15.00879 33.21329 24.11104
# Shear Modulus (GPa) = 19.62216 28.58663 24.10439
#
# Velocity S-wave (km/s) = 3.00229 3.62378 3.32758
# Velocity P-wave (km/s) = 4.34890 5.72417 5.08326
#
# Compressibility (1/GPa) = 0.06662763
#
# Stress axis : x y z
#
# Youngs Moduli (GPa) = 53.61622 20.24227 72.86010
#
# Poissons Ratio (x) = 0.07255 0.00592
# Poissons Ratio (y) = 0.19216 0.28487
# Poissons Ratio (z) = 0.00435 0.07914
#
# Static dielectric constant tensor:
#      x y z
#    x 1.895030 -0.005230 -0.023710 
#    y -0.005230 1.937530 0.005420 
#    z -0.023710 0.005420 1.894450 
# 
# From -- ./inp_files/310770.got.cif
#   From: 2010.05.17/outbox.cif.g08.bks.cpg/sg2_156_cif.got.tgz:310770.got - 2010.06.03 11:33:40.
