data_PCOD9077940
_publ_section_title
;
Structure prediction by ZEFSAII (Michael W. Deem and Ramdas Pophale) SiO2 
 PCOD9077940
Probable space group: P -1
;
_chemical_formula_sum "Si O2"
_cell_formula_units_Z 14
_cell_length_a 11.626870
_cell_length_b 15.281044
_cell_length_c 9.213289
_cell_angle_alpha 99.518559
_cell_angle_beta 56.653875
_cell_angle_gamma 142.963417
_cell_volume 691.413810
_symmetry_space_group_name_H-M "P -1"
_symmetry_group_IT_number 2
_symmetry_cell_setting 'triclinic'
loop_
_space_group_symop_operation_xyz
x,y,z
-x,-y,-z
loop_
_atom_site_type_symbol
_atom_site_label
_atom_site_fract_x
_atom_site_fract_y
_atom_site_fract_z
Si Si1 0.627761 0.747151 0.812585
Si Si2 0.800931 0.992602 0.585502
Si Si3 0.901358 0.631791 0.927952
Si Si4 0.338752 0.164962 0.651075
Si Si5 0.486760 0.988922 0.684325
Si Si6 0.789109 0.771224 0.014272
Si Si7 0.819256 0.329372 0.496887
O O1 0.696417 0.888183 0.774576
O O2 0.634578 0.729565 0.974671
O O3 0.342342 0.561096 0.894751
O O4 0.877111 0.827410 0.598445
O O5 0.721423 0.874785 0.487011
O O6 0.659830 0.004275 0.634585
O O7 0.783408 0.662844 0.981530
O O8 0.171525 0.798247 0.880060
O O9 0.999606 0.634937 0.716833
O O10 0.618836 0.273380 0.518177
O O11 0.319086 0.247961 0.766619
O O12 0.099607 0.973416 0.835698
O O13 0.500000 0.000000 0.500000
O O14 0.626843 0.158601 0.678742
O O15 0.000000 0.500000 0.500000
#
# Coordination Sequence:
#
# PCOD9077940 Si02
#       7
#     2   2   2   2   2   2   2
#     4  10  21  34  56  89 117 154 193 241 281 355
#     4  10  20  38  58  84 119 159 191 232 300 345
#     4  11  20  36  59  88 116 150 202 237 288 343
#     4  10  18  35  56  86 113 152 191 240 289 335
#     4  10  18  36  59  83 114 151 195 236 289 343
#     4  10  20  34  60  87 115 148 198 240 284 338
#     4  11  20  33  58  88 116 147 195 243 288 339
#
# _framework density 20.248366999999998
#
# number of rings (size 3 to 8) (size 9 to 14) (size 15 to 20)
#    0.000    1.714    4.286    3.857    0.000    1.714 
#    0.000    0.714    0.000    6.857    0.000    0.000 
#    0.000    0.000    0.000    0.000    0.000    0.000 
#
# Total GULP energy -78074.373869 kJ/mol
# GULP energy per Si atom -5576.740991 kJ/mol
# Density = 2.020228 g / cm^3
# Si number density = 20.248367 Si / 1000 Ang^3
#
#
#
# Elastic Constant Matrix: (Units=GPa)
#
#
# Indices 1 2 3 4 5 6 
#
# 1 72.0728 11.9997 15.4249 -5.5754 -19.5700 -5.2364
# 2 11.9997 108.7919 34.3303 -14.1968 -9.6139 -11.0233
# 3 15.4249 34.3303 60.6561 -22.5977 -12.8522 0.1526
# 4 -5.5754 -14.1968 -22.5977 47.6475 2.8700 -9.4957
# 5 -19.5700 -9.6139 -12.8522 2.8700 15.9638 -3.5752
# 6 -5.2364 -11.0233 0.1526 -9.4957 -3.5752 17.7308
#
#
#
# Elastic Compliance Matrix: (Units=1/GPa)
#
#
# Indices 1 2 3 4 5 6 
#
# 1 0.025158 0.002704 0.002551 0.006730 0.037867 0.020329
# 2 0.002704 0.013038 -0.004518 0.004081 0.009727 0.013090
# 3 0.002551 -0.004518 0.027848 0.012594 0.022579 0.009002
# 4 0.006730 0.004081 0.012594 0.032943 0.020805 0.026254
# 5 0.037867 0.009727 0.022579 0.020805 0.142085 0.056828
# 6 0.020329 0.013090 0.009002 0.026254 0.056828 0.095982
#
#
# Mechanical properties :
#
#
# Convention : Reuss Voigt Hill
#
# Bulk Modulus (GPa) = 14.81062 40.55897 27.68479
# Shear Modulus (GPa) = 13.96310 28.25282 21.10796
#
# Velocity S-wave (km/s) = 2.62886 3.73944 3.23221
# Velocity P-wave (km/s) = 4.06754 6.22244 5.25660
#
# Compressibility (1/GPa) = 0.06751911
#
# Stress axis : x y z
#
# Youngs Moduli (GPa) = 39.74848 76.69935 35.90884
#
# Poissons Ratio (x) = -0.20742 -0.09162
# Poissons Ratio (y) = -0.10749 0.16225
# Poissons Ratio (z) = -0.10141 0.34655
#
# Static dielectric constant tensor:
#      x y z
#    x 1.731320 0.018210 0.011920 
#    y 0.018210 1.768410 -0.006100 
#    z 0.011920 -0.006100 1.762230 
# 
# From -- ./inp_files/197264.got.cif
#   From: 2010.05.17/outbox.cif.g08.bks.cpg/sg2_99_cif.got.tgz:197264.got - 2010.06.03 11:33:40.
