data_PCOD9077191
_publ_section_title
;
Structure prediction by ZEFSAII (Michael W. Deem and Ramdas Pophale) SiO2 
 PCOD9077191
Probable space group: P -1
;
_chemical_formula_sum "Si O2"
_cell_formula_units_Z 14
_cell_length_a 10.721028
_cell_length_b 7.206334
_cell_length_c 8.166894
_cell_angle_alpha 104.463063
_cell_angle_beta 86.590936
_cell_angle_gamma 109.165403
_cell_volume 576.934075
_symmetry_space_group_name_H-M "P -1"
_symmetry_group_IT_number 2
_symmetry_cell_setting 'triclinic'
loop_
_space_group_symop_operation_xyz
x,y,z
-x,-y,-z
loop_
_atom_site_type_symbol
_atom_site_label
_atom_site_fract_x
_atom_site_fract_y
_atom_site_fract_z
Si Si1 0.987333 0.248900 0.896368
Si Si2 0.208380 0.113494 0.986880
Si Si3 0.671830 0.478312 0.461850
Si Si4 0.128094 0.694309 0.756511
Si Si5 0.400415 0.227132 0.264630
Si Si6 0.363354 0.878696 0.396280
Si Si7 0.069524 0.831196 0.475762
O O1 0.960539 0.286265 0.719684
O O2 0.894049 0.012396 0.891284
O O3 0.933833 0.356498 0.070236
O O4 0.133491 0.242782 0.922870
O O5 0.340951 0.239746 0.095271
O O6 0.221113 0.929059 0.835056
O O7 0.792053 0.444423 0.349279
O O8 0.546596 0.372268 0.330834
O O9 0.680493 0.698509 0.570993
O O10 0.652963 0.351334 0.606403
O O11 0.029629 0.713952 0.624700
O O12 0.381312 0.989552 0.244330
O O13 0.228660 0.900761 0.483265
O O14 0.500000 0.000000 0.500000
O O15 0.000000 0.000000 0.500000
#
# Coordination Sequence:
#
# PCOD9077191 Si02
#       7
#     2   2   2   2   2   2   2
#     4   9  17  31  50  83 110 144 190 233 277 340
#     4   9  16  30  51  77 107 143 186 221 280 334
#     4   9  20  33  53  86 114 139 198 234 277 348
#     4   9  18  31  51  82 110 143 188 234 273 342
#     4  10  18  34  57  80 112 155 179 238 294 329
#     4   9  18  32  53  80 107 142 188 229 275 338
#     4  11  16  29  57  79 110 148 182 234 286 328
#
# _framework density 24.266203999999998
#
# number of rings (size 3 to 8) (size 9 to 14) (size 15 to 20)
#    0.857    1.714    2.857    0.000    0.000    0.571 
#    0.000    0.714    0.000   13.714    0.000   36.000 
#    0.000    0.000    0.000    0.000    0.000    0.000 
#
# Total GULP energy -78055.666826 kJ/mol
# GULP energy per Si atom -5575.404773 kJ/mol
# Density = 2.421097 g / cm^3
# Si number density = 24.266204 Si / 1000 Ang^3
#
#
#
# Elastic Constant Matrix: (Units=GPa)
#
#
# Indices 1 2 3 4 5 6 
#
# 1 110.7618 19.5522 45.8331 -2.9538 17.2435 -22.4498
# 2 19.5522 49.7914 38.3482 -6.1832 9.4305 0.4560
# 3 45.8331 38.3482 163.0683 -8.8463 16.5202 -5.3271
# 4 -2.9538 -6.1832 -8.8463 39.9753 -11.8427 3.9030
# 5 17.2435 9.4305 16.5202 -11.8427 34.5645 -1.6001
# 6 -22.4498 0.4560 -5.3271 3.9030 -1.6001 19.2824
#
#
#
# Elastic Compliance Matrix: (Units=1/GPa)
#
#
# Indices 1 2 3 4 5 6 
#
# 1 0.014862 -0.003469 -0.002414 -0.003302 -0.005662 0.016917
# 2 -0.003469 0.026150 -0.005008 0.002623 -0.002425 -0.006773
# 3 -0.002414 -0.005008 0.008114 0.000568 -0.001143 -0.000661
# 4 -0.003302 0.002623 0.000568 0.029202 0.010257 -0.008809
# 5 -0.005662 -0.002425 -0.001143 0.010257 0.036204 -0.005923
# 6 0.016917 -0.006773 -0.000661 -0.008809 -0.005923 0.072826
#
#
# Mechanical properties :
#
#
# Convention : Reuss Voigt Hill
#
# Bulk Modulus (GPa) = 36.57205 59.00982 47.79093
# Shear Modulus (GPa) = 22.90901 33.42365 28.16633
#
# Velocity S-wave (km/s) = 3.07591 3.71533 3.41063
# Velocity P-wave (km/s) = 5.26487 6.54029 5.93693
#
# Compressibility (1/GPa) = 0.02734329
#
# Stress axis : x y z
#
# Youngs Moduli (GPa) = 67.28548 38.24079 123.24863
#
# Poissons Ratio (x) = 0.13267 0.29755
# Poissons Ratio (y) = 0.23343 0.61720
# Poissons Ratio (z) = 0.16244 0.19150
#
# Static dielectric constant tensor:
#      x y z
#    x 1.954410 0.006180 -0.010310 
#    y 0.006180 2.101070 -0.023370 
#    z -0.010310 -0.023370 1.915180 
# 
# From -- ./inp_files/241029.got.cif
#   From: 2010.05.17/outbox.cif.g08.bks.cpg/sg2_121_cif.got.tgz:241029.got - 2010.06.03 11:33:40.
