data_PCOD9077867
_publ_section_title
;
Structure prediction by ZEFSAII (Michael W. Deem and Ramdas Pophale) SiO2 
 PCOD9077867
Probable space group: P -1
;
_chemical_formula_sum "Si O2"
_cell_formula_units_Z 16
_cell_length_a 16.929387
_cell_length_b 26.709479
_cell_length_c 5.240180
_cell_angle_alpha 98.244811
_cell_angle_beta 87.463816
_cell_angle_gamma 21.537087
_cell_volume 750.931381
_symmetry_space_group_name_H-M "P -1"
_symmetry_group_IT_number 2
_symmetry_cell_setting 'triclinic'
loop_
_space_group_symop_operation_xyz
x,y,z
-x,-y,-z
loop_
_atom_site_type_symbol
_atom_site_label
_atom_site_fract_x
_atom_site_fract_y
_atom_site_fract_z
Si Si1 0.775906 0.135498 0.839812
Si Si2 0.028354 0.699967 0.828706
Si Si3 0.346780 0.462670 0.998104
Si Si4 0.366975 0.552065 0.321975
Si Si5 0.002997 0.911775 0.893764
Si Si6 0.026903 0.832323 0.343161
Si Si7 0.342442 0.025037 0.526066
Si Si8 0.203119 0.213245 0.458449
O O1 0.527909 0.305876 0.868644
O O2 0.832900 0.142145 0.056482
O O3 0.000000 0.000000 0.500000
O O4 0.769828 0.084752 0.941020
O O5 0.871485 0.746386 0.795526
O O6 0.282423 0.525166 0.780069
O O7 0.110930 0.687722 0.587377
O O8 0.861263 0.833326 0.136480
O O9 0.459786 0.441450 0.125552
O O10 0.068530 0.619629 0.252775
O O11 0.500000 0.500000 0.500000
O O12 0.257696 0.653064 0.181458
O O13 0.980011 0.888061 0.120384
O O14 0.095034 0.827491 0.566225
O O15 0.772552 0.957377 0.541606
O O16 0.605253 0.863539 0.511013
O O17 0.336962 0.077259 0.381159
#
# Coordination Sequence:
#
# PCOD9077867 Si02
#       8
#     2   2   2   2   2   2   2   2
#     4  11  24  47  66  88 120 171 228 267 305 375
#     4  10  18  35  54  91 125 170 206 247 311 383
#     4  10  22  38  60  89 121 162 216 262 316 372
#     4  11  23  35  56  92 137 168 194 254 326 396
#     4  11  26  42  68  93 123 170 219 262 316 371
#     4  12  22  41  63  99 133 165 207 260 324 389
#     4  10  19  34  59  85 135 162 209 250 313 391
#     4   9  19  36  55  92 120 173 206 253 315 380
#
# _framework density 21.306874000000001
#
# number of rings (size 3 to 8) (size 9 to 14) (size 15 to 20)
#    0.000    1.500    5.000    1.875    1.750    4.500 
#    0.000    0.000    0.000    1.500    0.000    0.000 
#    0.000    0.000    0.000    0.000    0.000    0.000 
#
# Total GULP energy -89189.521704 kJ/mol
# GULP energy per Si atom -5574.345106 kJ/mol
# Density = 2.125838 g / cm^3
# Si number density = 21.306874 Si / 1000 Ang^3
#
#
#
# Elastic Constant Matrix: (Units=GPa)
#
#
# Indices 1 2 3 4 5 6 
#
# 1 63.4072 53.4737 9.8276 7.1465 4.1755 -5.6017
# 2 53.4737 156.0929 37.3295 5.6495 1.3793 8.5308
# 3 9.8276 37.3295 53.5953 -4.5425 9.2902 7.7008
# 4 7.1465 5.6495 -4.5425 35.6786 -1.8421 -3.0923
# 5 4.1755 1.3793 9.2902 -1.8421 26.8673 -6.3868
# 6 -5.6017 8.5308 7.7008 -3.0923 -6.3868 50.1035
#
#
#
# Elastic Compliance Matrix: (Units=1/GPa)
#
#
# Indices 1 2 3 4 5 6 
#
# 1 0.023498 -0.008415 0.001365 -0.003079 -0.003128 0.003261
# 2 -0.008415 0.010897 -0.006330 -0.000851 0.002509 -0.001556
# 3 0.001365 -0.006330 0.025209 0.003146 -0.009251 -0.003629
# 4 -0.003079 -0.000851 0.003146 0.029389 0.001772 0.001357
# 5 -0.003128 0.002509 -0.009251 0.001772 0.042360 0.006154
# 6 0.003261 -0.001556 -0.003629 0.001357 0.006154 0.022014
#
#
# Mechanical properties :
#
#
# Convention : Reuss Voigt Hill
#
# Bulk Modulus (GPa) = 30.44821 52.70633 41.57727
# Shear Modulus (GPa) = 26.16775 34.02753 30.09764
#
# Velocity S-wave (km/s) = 3.50828 4.00061 3.76251
# Velocity P-wave (km/s) = 5.54365 6.79193 6.19929
#
# Compressibility (1/GPa) = 0.03284266
#
# Stress axis : x y z
#
# Youngs Moduli (GPa) = 42.55754 91.76952 39.66892
#
# Poissons Ratio (x) = 0.77228 -0.05416
# Poissons Ratio (y) = 0.35814 0.25111
# Poissons Ratio (z) = -0.05810 0.58091
#
# Static dielectric constant tensor:
#      x y z
#    x 1.872270 -0.033890 -0.015970 
#    y -0.033890 1.876060 -0.069330 
#    z -0.015970 -0.069330 1.876060 
# 
# From -- ./inp_files/113253.got.cif
#   From: 2010.05.17/outbox.cif.g08.bks.cpg/sg2_57_cif.got.tgz:113253.got - 2010.06.03 11:33:40.
