data_PCOD9077707
_publ_section_title
;
Structure prediction by ZEFSAII (Michael W. Deem and Ramdas Pophale) SiO2 
 PCOD9077707
Probable space group: P -1
;
_chemical_formula_sum "Si O2"
_cell_formula_units_Z 16
_cell_length_a 9.768177
_cell_length_b 11.376028
_cell_length_c 9.317335
_cell_angle_alpha 120.738044
_cell_angle_beta 74.835767
_cell_angle_gamma 114.397725
_cell_volume 808.759525
_symmetry_space_group_name_H-M "P -1"
_symmetry_group_IT_number 2
_symmetry_cell_setting 'triclinic'
loop_
_space_group_symop_operation_xyz
x,y,z
-x,-y,-z
loop_
_atom_site_type_symbol
_atom_site_label
_atom_site_fract_x
_atom_site_fract_y
_atom_site_fract_z
Si Si1 0.856557 0.656600 0.908487
Si Si2 0.873845 0.596247 0.201839
Si Si3 0.322443 0.722096 0.997926
Si Si4 0.117585 0.104212 0.637401
Si Si5 0.804721 0.345650 0.696822
Si Si6 0.114998 0.896406 0.049855
Si Si7 0.339444 0.954056 0.590346
Si Si8 0.663979 0.853032 0.019477
O O1 0.808783 0.504327 0.743782
O O2 0.894622 0.610481 0.030554
O O3 0.725670 0.729418 0.990895
O O4 0.012376 0.777534 0.891115
O O5 0.817237 0.730663 0.331887
O O6 0.029409 0.633713 0.270108
O O7 0.762824 0.433338 0.149822
O O8 0.304068 0.700155 0.161977
O O9 0.233703 0.830435 0.046408
O O10 0.499053 0.781303 0.953281
O O11 0.015320 0.096860 0.801822
O O12 0.245226 0.037220 0.584670
O O13 0.000000 0.000000 0.500000
O O14 0.746913 0.217406 0.516914
O O15 0.206964 0.053285 0.063998
O O16 0.500000 0.000000 0.500000
O O17 0.349948 0.024872 0.788725
#
# Coordination Sequence:
#
# PCOD9077707 Si02
#       8
#     2   2   2   2   2   2   2   2
#     4  10  20  36  61  87 114 157 201 244 287 345
#     4  10  18  34  63  88 109 151 209 246 279 341
#     4  11  20  37  61  87 117 152 200 249 290 339
#     4  11  21  37  64  88 113 157 201 245 289 344
#     4  11  19  37  63  86 118 150 203 249 288 344
#     4  11  21  40  62  85 117 162 207 230 283 370
#     4  12  24  37  56  94 126 149 187 252 308 338
#     4  12  25  37  58  92 126 157 191 241 302 354
#
# _framework density 19.783384999999999
#
# number of rings (size 3 to 8) (size 9 to 14) (size 15 to 20)
#    0.000    1.000    8.750    1.500    0.000    3.000 
#    0.000    0.625    2.750    0.750    0.000    0.000 
#    0.000    0.000    0.000    0.000    0.000    0.000 
#
# Total GULP energy -89196.482887 kJ/mol
# GULP energy per Si atom -5574.780180 kJ/mol
# Density = 1.973836 g / cm^3
# Si number density = 19.783385 Si / 1000 Ang^3
#
#
#
# Elastic Constant Matrix: (Units=GPa)
#
#
# Indices 1 2 3 4 5 6 
#
# 1 123.8471 45.9620 30.6528 13.8401 -16.2355 19.9577
# 2 45.9620 77.4742 32.6066 30.6338 -6.8515 8.0864
# 3 30.6528 32.6066 76.9833 37.7564 -3.5994 8.4601
# 4 13.8401 30.6338 37.7564 32.6019 5.1403 4.5658
# 5 -16.2355 -6.8515 -3.5994 5.1403 24.8162 4.6575
# 6 19.9577 8.0864 8.4601 4.5658 4.6575 18.4511
#
#
#
# Elastic Compliance Matrix: (Units=1/GPa)
#
#
# Indices 1 2 3 4 5 6 
#
# 1 0.014291 -0.006543 -0.002869 0.004019 0.009025 -0.014547
# 2 -0.006543 0.029198 0.009781 -0.037545 0.013801 -0.004396
# 3 -0.002869 0.009781 0.038839 -0.054597 0.019729 -0.010461
# 4 0.004019 -0.037545 -0.054597 0.132504 -0.046102 0.015990
# 5 0.009025 0.013801 0.019729 -0.046102 0.068175 -0.030657
# 6 -0.014547 -0.004396 -0.010461 0.015990 -0.030657 0.080438
#
#
# Mechanical properties :
#
#
# Convention : Reuss Voigt Hill
#
# Bulk Modulus (GPa) = 12.03891 55.19416 33.61653
# Shear Modulus (GPa) = 12.80750 26.44606 19.62678
#
# Velocity S-wave (km/s) = 2.54714 3.66017 3.15315
# Velocity P-wave (km/s) = 3.84046 6.76921 5.50324
#
# Compressibility (1/GPa) = 0.08306401
#
# Stress axis : x y z
#
# Youngs Moduli (GPa) = 69.97279 34.24920 25.74756
#
# Poissons Ratio (x) = 0.22410 0.07388
# Poissons Ratio (y) = 0.45785 -0.25183
# Poissons Ratio (z) = 0.20077 -0.33498
#
# Static dielectric constant tensor:
#      x y z
#    x 1.696720 -0.011370 0.042030 
#    y -0.011370 1.734600 0.032220 
#    z 0.042030 0.032220 1.839690 
# 
# From -- ./inp_files/389378.got.cif
#   From: 2010.05.17/outbox.cif.g08.bks.cpg/sg2_195_cif.got.tgz:389378.got - 2010.06.03 11:33:40.
