data_PCOD9077228
_publ_section_title
;
Structure prediction by ZEFSAII (Michael W. Deem and Ramdas Pophale) SiO2 
 PCOD9077228
Probable space group: P -1
;
_chemical_formula_sum "Si O2"
_cell_formula_units_Z 14
_cell_length_a 8.188216
_cell_length_b 9.533066
_cell_length_c 9.305060
_cell_angle_alpha 96.155179
_cell_angle_beta 111.275414
_cell_angle_gamma 114.644847
_cell_volume 585.826632
_symmetry_space_group_name_H-M "P -1"
_symmetry_group_IT_number 2
_symmetry_cell_setting 'triclinic'
loop_
_space_group_symop_operation_xyz
x,y,z
-x,-y,-z
loop_
_atom_site_type_symbol
_atom_site_label
_atom_site_fract_x
_atom_site_fract_y
_atom_site_fract_z
Si Si1 0.866847 0.849768 0.651181
Si Si2 0.204354 0.167878 0.714594
Si Si3 0.976597 0.335369 0.824952
Si Si4 0.615233 0.402915 0.981148
Si Si5 0.296370 0.708713 0.702736
Si Si6 0.608212 0.006476 0.687440
Si Si7 0.845414 0.535715 0.599761
O O1 0.826875 0.842278 0.466776
O O2 0.802993 0.671110 0.666711
O O3 0.733405 0.913391 0.692202
O O4 0.097287 0.996319 0.745799
O O5 0.088294 0.260014 0.752895
O O6 0.443916 0.260976 0.819044
O O7 0.778981 0.184484 0.810827
O O8 0.890281 0.426171 0.709199
O O9 0.163969 0.467902 0.992629
O O10 0.658209 0.330447 0.129847
O O11 0.500000 0.500000 0.000000
O O12 0.311968 0.585388 0.580081
O O13 0.061467 0.653762 0.607628
O O14 0.433216 0.894204 0.726908
O O15 0.500000 0.000000 0.500000
#
# Coordination Sequence:
#
# PCOD9077228 Si02
#       7
#     2   2   2   2   2   2   2
#     4  10  21  33  58  85 113 140 188 235 279 325
#     4   9  18  34  56  86 108 147 187 230 272 328
#     4   9  18  35  57  81 112 148 184 227 274 329
#     4   9  17  34  59  84 108 149 192 227 263 333
#     4  10  20  33  60  85 112 147 187 225 280 330
#     4  11  22  37  55  86 117 146 179 234 290 326
#     4  10  18  34  57  85 107 143 195 231 260 329
#
# _framework density 23.897853999999999
#
# number of rings (size 3 to 8) (size 9 to 14) (size 15 to 20)
#    0.000    2.286    1.429    3.429    4.000    0.571 
#    0.000    9.286    0.000    0.857    0.000    0.000 
#    0.000    0.000    0.000    0.000    0.000    0.000 
#
# Total GULP energy -78221.932875 kJ/mol
# GULP energy per Si atom -5587.280920 kJ/mol
# Density = 2.384346 g / cm^3
# Si number density = 23.897854 Si / 1000 Ang^3
#
#
#
# Elastic Constant Matrix: (Units=GPa)
#
#
# Indices 1 2 3 4 5 6 
#
# 1 79.1346 37.2369 7.6473 9.7426 15.1143 9.2965
# 2 37.2369 158.8600 34.2643 20.5798 20.3299 18.9442
# 3 7.6473 34.2643 69.2205 17.7029 18.8577 18.2228
# 4 9.7426 20.5798 17.7029 35.0585 12.2125 13.7165
# 5 15.1143 20.3299 18.8577 12.2125 25.0502 9.3726
# 6 9.2965 18.9442 18.2228 13.7165 9.3726 47.1235
#
#
#
# Elastic Compliance Matrix: (Units=1/GPa)
#
#
# Indices 1 2 3 4 5 6 
#
# 1 0.015518 -0.002911 0.002350 -0.000565 -0.008112 -0.001022
# 2 -0.002911 0.008069 -0.002542 -0.001712 -0.001728 -0.000845
# 3 0.002350 -0.002542 0.020641 -0.004047 -0.011435 -0.003971
# 4 -0.000565 -0.001712 -0.004047 0.038257 -0.011445 -0.006495
# 5 -0.008112 -0.001728 -0.011435 -0.011445 0.061199 -0.002124
# 6 -0.001022 -0.000845 -0.003971 -0.006495 -0.002124 0.025611
#
#
# Mechanical properties :
#
#
# Convention : Reuss Voigt Hill
#
# Bulk Modulus (GPa) = 26.30021 51.72357 39.01189
# Shear Modulus (GPa) = 26.57108 36.65088 31.61098
#
# Velocity S-wave (km/s) = 3.33807 3.92043 3.64091
# Velocity P-wave (km/s) = 5.08784 6.49489 5.83394
#
# Compressibility (1/GPa) = 0.03802252
#
# Stress axis : x y z
#
# Youngs Moduli (GPa) = 64.43947 123.92947 48.44806
#
# Poissons Ratio (x) = 0.36079 -0.11386
# Poissons Ratio (y) = 0.18760 0.12314
# Poissons Ratio (z) = -0.15144 0.31498
#
# Static dielectric constant tensor:
#      x y z
#    x 1.957720 -0.028800 -0.063290 
#    y -0.028800 1.981130 0.078680 
#    z -0.063290 0.078680 1.832670 
# 
# From -- ./inp_files/252145.got.cif
#   From: 2010.05.17/outbox.cif.g08.bks.cpg/sg2_127_cif.got.tgz:252145.got - 2010.06.03 11:33:40.
