data_PCOD9077845
_publ_section_title
;
Structure prediction by ZEFSAII (Michael W. Deem and Ramdas Pophale) SiO2 
 PCOD9077845
Probable space group: P -1
;
_chemical_formula_sum "Si O2"
_cell_formula_units_Z 16
_cell_length_a 7.913303
_cell_length_b 10.874744
_cell_length_c 14.510245
_cell_angle_alpha 74.011105
_cell_angle_beta 142.895027
_cell_angle_gamma 122.019150
_cell_volume 611.606618
_symmetry_space_group_name_H-M "P -1"
_symmetry_group_IT_number 2
_symmetry_cell_setting 'triclinic'
loop_
_space_group_symop_operation_xyz
x,y,z
-x,-y,-z
loop_
_atom_site_type_symbol
_atom_site_label
_atom_site_fract_x
_atom_site_fract_y
_atom_site_fract_z
Si Si1 0.676465 0.567876 0.905117
Si Si2 0.682608 0.963683 0.167189
Si Si3 0.402750 0.298379 0.708863
Si Si4 0.026654 0.260703 0.376111
Si Si5 0.062081 0.161938 0.847982
Si Si6 0.722156 0.180764 0.548699
Si Si7 0.798000 0.445083 0.160242
Si Si8 0.626113 0.829504 0.770132
O O1 0.635928 0.459824 0.826308
O O2 0.311091 0.508512 0.803189
O O3 0.792047 0.736345 0.889800
O O4 0.859922 0.545728 0.075726
O O5 0.912619 0.114278 0.294530
O O6 0.506150 0.822841 0.192067
O O7 0.870474 0.910040 0.195968
O O8 0.500000 0.000000 0.000000
O O9 0.319271 0.295318 0.565898
O O10 0.043620 0.241140 0.611519
O O11 0.060407 0.397757 0.301999
O O12 0.700835 0.220171 0.302535
O O13 0.837847 0.221783 0.696942
O O14 0.431135 0.291829 0.010578
O O15 0.852262 0.010190 0.846640
O O16 0.496501 0.217564 0.379796
O O17 0.500000 0.000000 0.500000
#
# Coordination Sequence:
#
# PCOD9077845 Si02
#       8
#     2   2   2   2   2   2   2   2
#     4  10  19  33  50  81 108 142 172 220 264 323
#     4  11  19  34  56  78 105 143 178 217 263 320
#     4  10  19  33  52  77 109 140 177 222 263 306
#     4  10  20  33  52  85 103 137 182 222 255 316
#     4  10  18  35  54  80 108 143 171 222 269 306
#     4   8  15  29  48  75 106 134 167 211 262 309
#     4  10  19  33  52  77 110 140 177 212 266 321
#     4   9  20  32  55  82 111 131 178 225 265 309
#
# _framework density 26.160605
#
# number of rings (size 3 to 8) (size 9 to 14) (size 15 to 20)
#    0.000    2.250    3.750    0.375    0.000    6.500 
#    0.000    0.000    0.000    3.750    3.250    0.000 
#    0.000    0.000    0.000    0.000    0.000    0.000 
#
# Total GULP energy -89240.849210 kJ/mol
# GULP energy per Si atom -5577.553076 kJ/mol
# Density = 2.610106 g / cm^3
# Si number density = 26.160605 Si / 1000 Ang^3
#
#
#
# Elastic Constant Matrix: (Units=GPa)
#
#
# Indices 1 2 3 4 5 6 
#
# 1 56.2256 35.0724 39.8099 -0.6830 -5.7359 -13.5400
# 2 35.0724 125.9769 68.3908 -19.6150 -16.4308 2.6229
# 3 39.8099 68.3908 191.4071 -23.7536 -36.3533 -4.4058
# 4 -0.6830 -19.6150 -23.7536 49.2238 2.9177 -7.9067
# 5 -5.7359 -16.4308 -36.3533 2.9177 36.7860 11.3545
# 6 -13.5400 2.6229 -4.4058 -7.9067 11.3545 43.0381
#
#
#
# Elastic Compliance Matrix: (Units=1/GPa)
#
#
# Indices 1 2 3 4 5 6 
#
# 1 0.026482 -0.006286 -0.004443 -0.002442 -0.005755 0.009329
# 2 -0.006286 0.011690 -0.002011 0.002917 0.002995 -0.003150
# 3 -0.004443 -0.002011 0.008501 0.002519 0.007176 -0.001836
# 4 -0.002442 0.002917 0.002519 0.023181 0.000512 0.003435
# 5 -0.005755 0.002995 0.007176 0.000512 0.038141 -0.011227
# 6 0.009329 -0.003150 -0.001836 0.003435 -0.011227 0.029767
#
#
# Mechanical properties :
#
#
# Convention : Reuss Voigt Hill
#
# Bulk Modulus (GPa) = 47.18709 73.35063 60.26886
# Shear Modulus (GPa) = 29.35870 41.16533 35.26202
#
# Velocity S-wave (km/s) = 3.35363 3.97112 3.67537
# Velocity P-wave (km/s) = 5.75086 7.00898 6.41086
#
# Compressibility (1/GPa) = 0.02119224
#
# Stress axis : x y z
#
# Youngs Moduli (GPa) = 37.76100 85.54164 117.63904
#
# Poissons Ratio (x) = 0.53768 0.52272
# Poissons Ratio (y) = 0.23735 0.23662
# Poissons Ratio (z) = 0.16779 0.17206
#
# Static dielectric constant tensor:
#      x y z
#    x 2.101560 0.047680 -0.051660 
#    y 0.047680 2.171320 -0.093960 
#    z -0.051660 -0.093960 2.321870 
# 
# From -- ./inp_files/568011.got.cif
#   From: 2010.05.17/outbox.cif.g08.bks.cpg/sg2_285_cif.got.tgz:568011.got - 2010.06.03 11:33:40.
