data_PCOD9077000
_publ_section_title
;
Structure prediction by ZEFSAII (Michael W. Deem and Ramdas Pophale) SiO2 
 PCOD9077000
Probable space group: P -1
;
_chemical_formula_sum "Si O2"
_cell_formula_units_Z 14
_cell_length_a 8.265962
_cell_length_b 16.620168
_cell_length_c 9.317429
_cell_angle_alpha 90.530797
_cell_angle_beta 123.206275
_cell_angle_gamma 41.704201
_cell_volume 496.036819
_symmetry_space_group_name_H-M "P -1"
_symmetry_group_IT_number 2
_symmetry_cell_setting 'triclinic'
loop_
_space_group_symop_operation_xyz
x,y,z
-x,-y,-z
loop_
_atom_site_type_symbol
_atom_site_label
_atom_site_fract_x
_atom_site_fract_y
_atom_site_fract_z
Si Si1 0.519070 0.863131 0.932523
Si Si2 0.574669 0.391409 0.648346
Si Si3 0.180423 0.565937 0.748462
Si Si4 0.267753 0.769576 0.879787
Si Si5 0.631839 0.750337 0.717863
Si Si6 0.497103 0.623504 0.706130
Si Si7 0.967980 0.917964 0.022327
O O1 0.416185 0.806144 0.918447
O O2 0.400556 0.900096 0.705924
O O3 0.345550 0.969936 0.993265
O O4 0.960769 0.744134 0.120312
O O5 0.266240 0.544567 0.621038
O O6 0.476959 0.430966 0.434069
O O7 0.631078 0.277797 0.724516
O O8 0.739587 0.741910 0.612479
O O9 0.500000 0.500000 0.000000
O O10 0.321446 0.423398 0.853683
O O11 0.192961 0.744047 0.699349
O O12 0.928921 0.891723 0.844576
O O13 0.427979 0.739070 0.613369
O O14 0.065277 0.564104 0.008515
O O15 0.000000 0.000000 0.000000
#
# Coordination Sequence:
#
# PCOD9077000 Si02
#       7
#     2   2   2   2   2   2   2
#     4  10  18  34  57  84 105 146 185 222 271 328
#     4  11  21  33  59  88 107 135 200 232 255 323
#     4  10  18  34  54  79 109 145 181 221 274 328
#     4   8  18  36  57  72 111 150 174 216 288 321
#     4   9  18  36  55  75 115 154 171 214 297 319
#     4   9  19  35  57  82 110 144 184 230 265 330
#     4   9  19  37  59  77 109 151 183 219 280 331
#
# _framework density 28.223707999999998
#
# number of rings (size 3 to 8) (size 9 to 14) (size 15 to 20)
#    0.000    2.571    1.429    1.286    0.000    1.143 
#    0.000    7.143    0.000    0.000    0.000    0.000 
#    0.000    0.000    0.000    0.000    0.000    0.000 
#
# Total GULP energy -77963.307908 kJ/mol
# GULP energy per Si atom -5568.807708 kJ/mol
# Density = 2.815947 g / cm^3
# Si number density = 28.223708 Si / 1000 Ang^3
#
#
#
# Elastic Constant Matrix: (Units=GPa)
#
#
# Indices 1 2 3 4 5 6 
#
# 1 120.4629 64.1130 34.0720 24.9183 -43.6083 -37.3582
# 2 64.1130 211.1450 77.7768 74.4322 -33.6689 -51.2604
# 3 34.0720 77.7768 95.0825 43.9936 -25.3044 -22.6714
# 4 24.9183 74.4322 43.9936 74.0257 -14.4976 -35.5691
# 5 -43.6083 -33.6689 -25.3044 -14.4976 41.7249 18.2294
# 6 -37.3582 -51.2604 -22.6714 -35.5691 18.2294 61.7633
#
#
#
# Elastic Compliance Matrix: (Units=1/GPa)
#
#
# Indices 1 2 3 4 5 6 
#
# 1 0.015053 -0.001995 -0.000075 0.001703 0.012626 0.004676
# 2 -0.001995 0.009081 -0.003737 -0.005305 0.000346 0.001801
# 3 -0.000075 -0.003737 0.017850 -0.006694 0.006431 -0.002348
# 4 0.001703 -0.005305 -0.006694 0.026763 -0.001663 0.010073
# 5 0.012626 0.000346 0.006431 -0.001663 0.042120 -0.003105
# 6 0.004676 0.001801 -0.002348 0.010073 -0.003105 0.026369
#
#
# Mechanical properties :
#
#
# Convention : Reuss Voigt Hill
#
# Bulk Modulus (GPa) = 32.92786 86.51267 59.72026
# Shear Modulus (GPa) = 31.45186 52.21802 41.83494
#
# Velocity S-wave (km/s) = 3.34185 4.30600 3.85419
# Velocity P-wave (km/s) = 5.15584 7.44589 6.40406
#
# Compressibility (1/GPa) = 0.03036942
#
# Stress axis : x y z
#
# Youngs Moduli (GPa) = 66.43343 110.11962 56.02252
#
# Poissons Ratio (x) = 0.21967 0.00421
# Poissons Ratio (y) = 0.13252 0.20936
# Poissons Ratio (z) = 0.00499 0.41153
#
# Static dielectric constant tensor:
#      x y z
#    x 2.279770 0.017230 0.052670 
#    y 0.017230 2.302150 0.009200 
#    z 0.052670 0.009200 2.328560 
# 
# From -- ./inp_files/217905.got.cif
#   From: 2010.05.17/outbox.cif.g08.bks.cpg/sg2_109_cif.got.tgz:217905.got - 2010.06.03 11:33:40.
