data_PCOD9077932
_publ_section_title
;
Structure prediction by ZEFSAII (Michael W. Deem and Ramdas Pophale) SiO2 
 PCOD9077932
Probable space group: P -1
;
_chemical_formula_sum "Si O2"
_cell_formula_units_Z 16
_cell_length_a 9.584144
_cell_length_b 9.706757
_cell_length_c 15.267865
_cell_angle_alpha 42.974896
_cell_angle_beta 56.832094
_cell_angle_gamma 66.075640
_cell_volume 810.454921
_symmetry_space_group_name_H-M "P -1"
_symmetry_group_IT_number 2
_symmetry_cell_setting 'triclinic'
loop_
_space_group_symop_operation_xyz
x,y,z
-x,-y,-z
loop_
_atom_site_type_symbol
_atom_site_label
_atom_site_fract_x
_atom_site_fract_y
_atom_site_fract_z
Si Si1 0.879926 0.310327 0.146233
Si Si2 0.108274 0.064796 0.302973
Si Si3 0.635029 0.583072 0.183539
Si Si4 0.682792 0.981176 0.899129
Si Si5 0.180746 0.827061 0.955652
Si Si6 0.983236 0.666951 0.626837
Si Si7 0.283312 0.638450 0.188909
Si Si8 0.820007 0.720980 0.208336
O O1 0.740704 0.380737 0.230791
O O2 0.790284 0.263084 0.107690
O O3 0.983126 0.126641 0.238513
O O4 0.000000 0.500000 0.000000
O O5 0.285831 0.026162 0.211860
O O6 0.088301 0.246786 0.295680
O O7 0.052809 0.860107 0.463468
O O8 0.456850 0.573750 0.203674
O O9 0.655096 0.666783 0.235319
O O10 0.731456 0.758553 0.016460
O O11 0.778588 0.168875 0.821850
O O12 0.500000 0.000000 0.000000
O O13 0.207716 0.067868 0.831217
O O14 0.283278 0.726323 0.048262
O O15 0.986433 0.777146 0.067917
O O16 0.835121 0.552419 0.682191
O O17 0.120702 0.488291 0.671243
#
# Coordination Sequence:
#
# PCOD9077932 Si02
#       8
#     2   2   2   2   2   2   2   2
#     4  12  20  34  59  91 114 154 204 255 303 346
#     4  11  22  40  64  88 121 160 209 247 301 362
#     4  11  20  36  60  87 123 157 195 254 310 352
#     4  10  21  37  59  91 122 155 192 251 311 352
#     4  10  20  32  55  87 121 151 205 254 291 353
#     4  10  23  40  61  90 119 166 207 246 292 368
#     4  10  22  38  56  90 126 161 193 250 309 360
#     4  10  18  35  56  84 119 158 199 250 296 352
#
# _framework density 19.741997000000001
#
# number of rings (size 3 to 8) (size 9 to 14) (size 15 to 20)
#    0.000    1.500    5.000    0.750    3.500    1.000 
#    2.250    0.625    0.000    3.000    0.000    0.000 
#    0.000    0.000    0.000    0.000    0.000    0.000 
#
# Total GULP energy -89070.214177 kJ/mol
# GULP energy per Si atom -5566.888386 kJ/mol
# Density = 1.969706 g / cm^3
# Si number density = 19.741997 Si / 1000 Ang^3
#
#
#
# Elastic Constant Matrix: (Units=GPa)
#
#
# Indices 1 2 3 4 5 6 
#
# 1 114.1258 28.0089 17.9399 -8.5314 4.3938 10.2474
# 2 28.0089 76.8659 23.2823 -11.3445 -4.8969 2.7786
# 3 17.9399 23.2823 56.5774 -14.1631 7.0772 -4.5772
# 4 -8.5314 -11.3445 -14.1631 30.0048 1.9673 -1.5497
# 5 4.3938 -4.8969 7.0772 1.9673 12.6411 -3.0552
# 6 10.2474 2.7786 -4.5772 -1.5497 -3.0552 28.4517
#
#
#
# Elastic Compliance Matrix: (Units=1/GPa)
#
#
# Indices 1 2 3 4 5 6 
#
# 1 0.010484 -0.003461 -0.001242 0.001231 -0.005486 -0.004160
# 2 -0.003461 0.017416 -0.007198 0.001422 0.011691 -0.000279
# 3 -0.001242 -0.007198 0.026254 0.010690 -0.017740 0.004051
# 4 0.001231 0.001422 0.010690 0.040130 -0.011605 0.002077
# 5 -0.005486 0.011691 -0.017740 -0.011605 0.099214 0.008002
# 6 -0.004160 -0.000279 0.004051 0.002077 0.008002 0.038297
#
#
# Mechanical properties :
#
#
# Convention : Reuss Voigt Hill
#
# Bulk Modulus (GPa) = 32.94899 42.89236 37.92068
# Shear Modulus (GPa) = 18.81716 26.10871 22.46293
#
# Velocity S-wave (km/s) = 3.09067 3.64056 3.37683
# Velocity P-wave (km/s) = 5.42792 6.28054 5.86973
#
# Compressibility (1/GPa) = 0.03034994
#
# Stress axis : x y z
#
# Youngs Moduli (GPa) = 95.38573 57.41809 38.08967
#
# Poissons Ratio (x) = 0.19875 0.04731
# Poissons Ratio (y) = 0.33017 0.27419
# Poissons Ratio (z) = 0.11846 0.41332
#
# Static dielectric constant tensor:
#      x y z
#    x 1.760450 -0.020210 0.017890 
#    y -0.020210 1.764730 0.030540 
#    z 0.017890 0.030540 1.704450 
# 
# From -- ./inp_files/494356.got.cif
#   From: 2010.05.17/outbox.cif.g08.bks.cpg/sg2_248_cif.got.tgz:494356.got - 2010.06.03 11:33:40.
