data_PCOD9077200
_publ_section_title
;
Structure prediction by ZEFSAII (Michael W. Deem and Ramdas Pophale) SiO2 
 PCOD9077200
Probable space group: P -1
;
_chemical_formula_sum "Si O2"
_cell_formula_units_Z 16
_cell_length_a 18.015005
_cell_length_b 9.976512
_cell_length_c 9.104606
_cell_angle_alpha 117.135588
_cell_angle_beta 33.471927
_cell_angle_gamma 125.640478
_cell_volume 731.802886
_symmetry_space_group_name_H-M "P -1"
_symmetry_group_IT_number 2
_symmetry_cell_setting 'triclinic'
loop_
_space_group_symop_operation_xyz
x,y,z
-x,-y,-z
loop_
_atom_site_type_symbol
_atom_site_label
_atom_site_fract_x
_atom_site_fract_y
_atom_site_fract_z
Si Si1 0.855143 0.169214 0.433787
Si Si2 0.749531 0.526125 0.566753
Si Si3 0.160583 0.532209 0.304069
Si Si4 0.078703 0.289116 0.873975
Si Si5 0.042311 0.038488 0.278562
Si Si6 0.475411 0.350163 0.090844
Si Si7 0.339553 0.345358 0.860979
Si Si8 0.664651 0.817335 0.492066
O O1 0.770338 0.271043 0.693141
O O2 0.940340 0.110522 0.388935
O O3 0.749811 0.012003 0.436564
O O4 0.971889 0.286608 0.180502
O O5 0.843670 0.551495 0.571492
O O6 0.843386 0.549674 0.276665
O O7 0.675619 0.658038 0.734416
O O8 0.601993 0.364274 0.773883
O O9 0.000000 0.500000 0.500000
O O10 0.250316 0.456818 0.019980
O O11 0.207173 0.245253 0.711392
O O12 0.989076 0.135019 0.836768
O O13 0.210548 0.175360 0.049745
O O14 0.000000 0.000000 0.500000
O O15 0.542291 0.525926 0.158993
O O16 0.436162 0.217478 0.215818
O O17 0.409336 0.286776 0.581564
#
# Coordination Sequence:
#
# PCOD9077200 Si02
#       8
#     2   2   2   2   2   2   2   2
#     4  11  21  36  55  87 119 151 181 233 299 344
#     4   9  20  36  54  83 113 152 189 236 282 335
#     4  11  21  35  55  84 123 146 185 232 295 349
#     4  10  18  34  57  81 116 147 188 238 284 335
#     4  11  19  31  55  84 116 141 188 238 283 328
#     4   9  19  34  58  80 109 150 202 233 270 322
#     4  11  19  35  56  86 112 149 193 237 274 335
#     4  10  18  35  57  81 112 149 195 235 278 330
#
# _framework density 21.863809
#
# number of rings (size 3 to 8) (size 9 to 14) (size 15 to 20)
#    0.000    1.750    3.750    2.625    0.000    1.500 
#    0.000    2.500    0.000    0.750    0.000    0.000 
#    0.000    0.000    0.000    0.000    0.000    0.000 
#
# Total GULP energy -89130.280041 kJ/mol
# GULP energy per Si atom -5570.642503 kJ/mol
# Density = 2.181405 g / cm^3
# Si number density = 21.863809 Si / 1000 Ang^3
#
#
#
# Elastic Constant Matrix: (Units=GPa)
#
#
# Indices 1 2 3 4 5 6 
#
# 1 92.8605 19.7303 8.3100 6.1372 -2.0878 -0.4618
# 2 19.7303 53.4621 36.9725 -3.2618 13.0105 4.6809
# 3 8.3100 36.9725 94.5372 -20.7327 13.8430 -12.3025
# 4 6.1372 -3.2618 -20.7327 30.7687 -0.8418 6.4041
# 5 -2.0878 13.0105 13.8430 -0.8418 33.2654 -0.2897
# 6 -0.4618 4.6809 -12.3025 6.4041 -0.2897 26.1276
#
#
#
# Elastic Compliance Matrix: (Units=1/GPa)
#
#
# Indices 1 2 3 4 5 6 
#
# 1 0.012272 -0.005898 0.000407 -0.003196 0.002847 0.002280
# 2 -0.005898 0.032770 -0.013099 -0.001945 -0.007888 -0.011753
# 3 0.000407 -0.013099 0.019326 0.009594 -0.002572 0.009074
# 4 -0.003196 -0.001945 0.009594 0.040395 -0.002454 -0.005119
# 5 0.002847 -0.007888 -0.002572 -0.002454 0.034344 0.001235
# 6 0.002280 -0.011753 0.009074 -0.005119 0.001235 0.045961
#
#
# Mechanical properties :
#
#
# Convention : Reuss Voigt Hill
#
# Bulk Modulus (GPa) = 36.77947 41.20948 38.99447
# Shear Modulus (GPa) = 21.61607 29.75547 25.68577
#
# Velocity S-wave (km/s) = 3.14772 3.69310 3.43127
# Velocity P-wave (km/s) = 5.48356 6.08889 5.79413
#
# Compressibility (1/GPa) = 0.02718908
#
# Stress axis : x y z
#
# Youngs Moduli (GPa) = 81.48589 30.51580 51.74298
#
# Poissons Ratio (x) = 0.17997 -0.02105
# Poissons Ratio (y) = 0.48058 0.67777
# Poissons Ratio (z) = -0.03315 0.39972
#
# Static dielectric constant tensor:
#      x y z
#    x 1.892040 0.026200 0.018410 
#    y 0.026200 1.822680 -0.051580 
#    z 0.018410 -0.051580 1.866200 
# 
# From -- ./inp_files/329091.got.cif
#   From: 2010.05.17/outbox.cif.g08.bks.cpg/sg2_165_cif.got.tgz:329091.got - 2010.06.03 11:33:40.
