data_PCOD9077901
_publ_section_title
;
Structure prediction by ZEFSAII (Michael W. Deem and Ramdas Pophale) SiO2 
 PCOD9077901
Probable space group: P -1
;
_chemical_formula_sum "Si O2"
_cell_formula_units_Z 14
_cell_length_a 9.500125
_cell_length_b 11.752684
_cell_length_c 18.385718
_cell_angle_alpha 28.304036
_cell_angle_beta 129.277216
_cell_angle_gamma 129.206418
_cell_volume 737.669262
_symmetry_space_group_name_H-M "P -1"
_symmetry_group_IT_number 2
_symmetry_cell_setting 'triclinic'
loop_
_space_group_symop_operation_xyz
x,y,z
-x,-y,-z
loop_
_atom_site_type_symbol
_atom_site_label
_atom_site_fract_x
_atom_site_fract_y
_atom_site_fract_z
Si Si1 0.952071 0.186669 0.203515
Si Si2 0.997569 0.501041 0.189380
Si Si3 0.618114 0.642153 0.024095
Si Si4 0.384933 0.771860 0.135678
Si Si5 0.576389 0.192830 0.702954
Si Si6 0.678474 0.481668 0.880248
Si Si7 0.804800 0.700108 0.503553
O O1 0.947848 0.346134 0.186461
O O2 0.158774 0.281795 0.186467
O O3 0.912786 0.903809 0.370304
O O4 0.792440 0.265041 0.057831
O O5 0.162162 0.738118 0.094284
O O6 0.080825 0.334883 0.367721
O O7 0.819729 0.579972 0.120718
O O8 0.628937 0.932223 0.857198
O O9 0.500000 0.500000 0.000000
O O10 0.498846 0.553799 0.106725
O O11 0.459469 0.772473 0.241557
O O12 0.384880 0.543539 0.210117
O O13 0.500000 0.000000 0.000000
O O14 0.733954 0.427066 0.602266
O O15 0.384965 0.207026 0.592835
#
# Coordination Sequence:
#
# PCOD9077901 Si02
#       7
#     2   2   2   2   2   2   2
#     4  10  18  36  58  87 108 150 198 236 272 335
#     4  10  22  32  60  89 115 151 185 235 290 335
#     4  12  21  38  56  90 118 146 185 243 287 335
#     4  10  18  35  55  86 112 146 191 235 270 331
#     4  10  21  35  60  85 113 152 191 234 283 334
#     4  10  20  33  60  87 111 146 194 240 277 329
#     4  10  19  36  56  84 115 150 192 234 276 342
#
# _framework density 18.978695999999999
#
# number of rings (size 3 to 8) (size 9 to 14) (size 15 to 20)
#    0.000    1.714    4.286    0.429    0.000    2.286 
#    0.000    0.714    0.000    1.714    0.000    0.000 
#    0.000    0.000    0.000    0.000    0.000    0.000 
#
# Total GULP energy -78044.557561 kJ/mol
# GULP energy per Si atom -5574.611254 kJ/mol
# Density = 1.893550 g / cm^3
# Si number density = 18.978696 Si / 1000 Ang^3
#
#
#
# Elastic Constant Matrix: (Units=GPa)
#
#
# Indices 1 2 3 4 5 6 
#
# 1 114.0538 31.1666 45.1550 -6.3864 2.2469 25.8007
# 2 31.1666 70.1950 45.9867 -3.4891 -0.3217 10.9106
# 3 45.1550 45.9867 106.0611 -4.7758 -10.8786 9.4395
# 4 -6.3864 -3.4891 -4.7758 40.3951 16.5765 -11.4189
# 5 2.2469 -0.3217 -10.8786 16.5765 24.9222 -9.0370
# 6 25.8007 10.9106 9.4395 -11.4189 -9.0370 32.5068
#
#
#
# Elastic Compliance Matrix: (Units=1/GPa)
#
#
# Indices 1 2 3 4 5 6 
#
# 1 0.013913 -0.000880 -0.005394 0.002071 -0.008967 -0.010946
# 2 -0.000880 0.021431 -0.009072 0.001985 -0.006752 -0.005040
# 3 -0.005394 -0.009072 0.016251 -0.002962 0.011122 0.004658
# 4 0.002071 0.001985 -0.002962 0.035918 -0.023682 0.004583
# 5 -0.008967 -0.006752 0.011122 -0.023682 0.067469 0.016591
# 6 -0.010946 -0.005040 0.004658 0.004583 0.016591 0.046012
#
#
# Mechanical properties :
#
#
# Convention : Reuss Voigt Hill
#
# Bulk Modulus (GPa) = 47.84079 59.43628 53.63854
# Shear Modulus (GPa) = 20.95081 30.76492 25.85786
#
# Velocity S-wave (km/s) = 3.32612 4.03056 3.69517
# Velocity P-wave (km/s) = 6.32559 7.28326 6.82126
#
# Compressibility (1/GPa) = 0.02090266
#
# Stress axis : x y z
#
# Youngs Moduli (GPa) = 71.87762 46.66038 61.53355
#
# Poissons Ratio (x) = 0.04108 0.33190
# Poissons Ratio (y) = 0.06328 0.55824
# Poissons Ratio (z) = 0.38769 0.42331
#
# Static dielectric constant tensor:
#      x y z
#    x 1.666530 0.025640 -0.040940 
#    y 0.025640 1.716150 -0.004300 
#    z -0.040940 -0.004300 1.666340 
# 
# From -- ./inp_files/168012.got.cif
#   From: 2010.05.17/outbox.cif.g08.bks.cpg/sg2_85_cif.got.tgz:168012.got - 2010.06.03 11:33:40.
