data_PCOD9077281
_publ_section_title
;
Structure prediction by ZEFSAII (Michael W. Deem and Ramdas Pophale) SiO2 
 PCOD9077281
Probable space group: P -1
;
_chemical_formula_sum "Si O2"
_cell_formula_units_Z 15
_cell_length_a 8.887362
_cell_length_b 26.583608
_cell_length_c 9.738253
_cell_angle_alpha 33.172589
_cell_angle_beta 139.896633
_cell_angle_gamma 153.390503
_cell_volume 562.579954
_symmetry_space_group_name_H-M "P -1"
_symmetry_group_IT_number 2
_symmetry_cell_setting 'triclinic'
loop_
_space_group_symop_operation_xyz
x,y,z
-x,-y,-z
loop_
_atom_site_type_symbol
_atom_site_label
_atom_site_fract_x
_atom_site_fract_y
_atom_site_fract_z
Si Si1 0.245224 0.147647 0.396649
Si Si2 0.217492 0.443676 0.714011
Si Si3 0.028429 0.452523 0.828084
Si Si4 0.127111 0.933657 0.418723
Si Si5 0.456464 0.199839 0.134831
Si Si6 0.899246 0.746835 0.458925
Si Si7 0.027119 0.698838 0.392900
Si Si8 0.000000 0.500000 0.000000
O O1 0.398571 0.231633 0.169645
O O2 0.570749 0.194885 0.587010
O O3 0.042887 0.146462 0.372832
O O4 0.000000 0.000000 0.500000
O O5 0.945590 0.443349 0.469850
O O6 0.572391 0.595125 0.610724
O O7 0.147650 0.408554 0.905727
O O8 0.155174 0.350693 0.767055
O O9 0.154615 0.502512 0.956370
O O10 0.636151 0.318781 0.884956
O O11 0.916616 0.840670 0.353932
O O12 0.500000 0.000000 0.500000
O O13 0.172239 0.055408 0.200904
O O14 0.764894 0.216733 0.347095
O O15 0.954657 0.764183 0.293333
O O16 0.915792 0.574640 0.683113
#
# Coordination Sequence:
#
# PCOD9077281 Si02
#       8
#     2   2   2   2   2   2   2   1
#     4   9  17  32  59  82 105 146 194 230 272 326
#     4  10  23  33  56  84 121 150 181 229 294 334
#     4  10  20  36  54  83 117 147 193 231 275 336
#     4   9  19  32  56  88 111 138 189 245 279 320
#     4   9  18  37  57  83 110 148 195 235 268 332
#     4  10  19  35  57  81 112 149 187 233 281 332
#     4  10  20  37  57  81 114 152 186 231 281 342
#     4  10  18  34  58  78 112 146 194 228 266 328
#
# _framework density 26.662876000000001
#
# number of rings (size 3 to 8) (size 9 to 14) (size 15 to 20)
#    0.000    2.400    2.667    1.200    5.600    0.533 
#    0.000    0.667    5.867    0.800    0.000    0.000 
#    0.000    0.000    0.000    0.000    0.000    0.000 
#
# Total GULP energy -83526.625604 kJ/mol
# GULP energy per Si atom -5568.441707 kJ/mol
# Density = 2.660219 g / cm^3
# Si number density = 26.662876 Si / 1000 Ang^3
#
#
#
# Elastic Constant Matrix: (Units=GPa)
#
#
# Indices 1 2 3 4 5 6 
#
# 1 210.4296 81.7723 53.6080 8.3928 -58.4560 -40.7152
# 2 81.7723 163.3072 12.5716 17.3248 -27.4068 -32.0950
# 3 53.6080 12.5716 85.5250 24.9757 -30.5636 -12.9767
# 4 8.3928 17.3248 24.9757 28.0423 -7.1502 -10.1568
# 5 -58.4560 -27.4068 -30.5636 -7.1502 56.6928 1.2062
# 6 -40.7152 -32.0950 -12.9767 -10.1568 1.2062 65.0335
#
#
#
# Elastic Compliance Matrix: (Units=1/GPa)
#
#
# Indices 1 2 3 4 5 6 
#
# 1 0.009503 -0.003091 -0.004230 0.006141 0.006704 0.004414
# 2 -0.003091 0.008859 0.003622 -0.006451 0.002189 0.002111
# 3 -0.004230 0.003622 0.021655 -0.018372 0.006737 0.000466
# 4 0.006141 -0.006451 -0.018372 0.056342 0.000292 0.005789
# 5 0.006704 0.002189 0.006737 0.000292 0.029148 0.006127
# 6 0.004414 0.002111 0.000466 0.005789 0.006127 0.020066
#
#
# Mechanical properties :
#
#
# Convention : Reuss Voigt Hill
#
# Bulk Modulus (GPa) = 30.65733 83.90727 57.28230
# Shear Modulus (GPa) = 30.51686 50.70770 40.61228
#
# Velocity S-wave (km/s) = 3.38678 4.36570 3.90702
# Velocity P-wave (km/s) = 5.17850 7.54656 6.47176
#
# Compressibility (1/GPa) = 0.03261862
#
# Stress axis : x y z
#
# Youngs Moduli (GPa) = 105.23491 112.87499 46.17924
#
# Poissons Ratio (x) = 0.34895 0.19533
# Poissons Ratio (y) = 0.32533 -0.16727
# Poissons Ratio (z) = 0.44512 -0.40886
#
# Static dielectric constant tensor:
#      x y z
#    x 2.279760 0.159040 0.110670 
#    y 0.159040 2.174420 0.166930 
#    z 0.110670 0.166930 2.178740 
# 
# From -- ./inp_files/196652.got.cif
#   From: 2010.05.17/outbox.cif.g08.bks.cpg/sg2_99_cif.got.tgz:196652.got - 2010.06.03 11:33:40.
