data_PCOD9077971
_publ_section_title
;
Structure prediction by ZEFSAII (Michael W. Deem and Ramdas Pophale) SiO2 
 PCOD9077971
Probable space group: P -1
;
_chemical_formula_sum "Si O2"
_cell_formula_units_Z 16
_cell_length_a 20.561968
_cell_length_b 14.637726
_cell_length_c 8.297442
_cell_angle_alpha 73.205259
_cell_angle_beta 91.910030
_cell_angle_gamma 158.391420
_cell_volume 655.653772
_symmetry_space_group_name_H-M "P -1"
_symmetry_group_IT_number 2
_symmetry_cell_setting 'triclinic'
loop_
_space_group_symop_operation_xyz
x,y,z
-x,-y,-z
loop_
_atom_site_type_symbol
_atom_site_label
_atom_site_fract_x
_atom_site_fract_y
_atom_site_fract_z
Si Si1 0.508473 0.200644 0.333471
Si Si2 0.251887 0.751563 0.254335
Si Si3 0.859415 0.213212 0.899665
Si Si4 0.423281 0.640922 0.394516
Si Si5 0.590298 0.734525 0.834278
Si Si6 0.779007 0.490733 0.758934
Si Si7 0.590343 0.561961 0.336598
Si Si8 0.944904 0.691805 0.020529
O O1 0.464309 0.149049 0.546476
O O2 0.559112 0.375005 0.157884
O O3 0.306995 0.864818 0.381067
O O4 0.731340 0.445001 0.211402
O O5 0.171368 0.530459 0.337884
O O6 0.094520 0.611254 0.228843
O O7 0.507211 0.109813 0.000378
O O8 0.048244 0.412041 0.901089
O O9 0.628293 0.893792 0.161432
O O10 0.778716 0.043775 0.816240
O O11 0.227234 0.425306 0.395003
O O12 0.307329 0.387490 0.599248
O O13 0.627811 0.766590 0.632326
O O14 0.500000 0.500000 0.000000
O O15 0.930680 0.696424 0.827740
O O16 0.500000 0.500000 0.500000
O O17 0.809564 0.922020 0.087046
#
# Coordination Sequence:
#
# PCOD9077971 Si02
#       8
#     2   2   2   2   2   2   2   2
#     4   9  21  35  57  85 111 141 186 235 266 326
#     4   8  17  37  59  78 108 150 186 215 286 334
#     4  10  19  36  60  81 108 151 186 221 270 341
#     4  10  20  37  55  82 112 149 187 217 280 327
#     4  10  18  35  57  76 106 152 183 211 270 333
#     4   9  19  35  57  82 110 145 184 234 268 327
#     4  11  21  36  57  83 112 149 184 223 274 332
#     4  11  21  36  55  84 116 139 186 232 271 320
#
# _framework density 24.403120999999999
#
# number of rings (size 3 to 8) (size 9 to 14) (size 15 to 20)
#    0.000    2.250    2.500    0.750    0.000    3.500 
#    2.250    0.000    0.000    1.500    0.000    0.000 
#    0.000    0.000    0.000    0.000    0.000    0.000 
#
# Total GULP energy -89225.460153 kJ/mol
# GULP energy per Si atom -5576.591260 kJ/mol
# Density = 2.434758 g / cm^3
# Si number density = 24.403121 Si / 1000 Ang^3
#
#
#
# Elastic Constant Matrix: (Units=GPa)
#
#
# Indices 1 2 3 4 5 6 
#
# 1 168.0512 67.9119 36.7369 14.5809 8.2270 14.4773
# 2 67.9119 91.9612 30.0475 29.2672 -2.4757 9.5512
# 3 36.7369 30.0475 44.6496 14.5762 -11.5519 3.2646
# 4 14.5809 29.2672 14.5762 45.3654 2.1783 -3.8522
# 5 8.2270 -2.4757 -11.5519 2.1783 39.5190 14.7684
# 6 14.4773 9.5512 3.2646 -3.8522 14.7684 43.5577
#
#
#
# Elastic Compliance Matrix: (Units=1/GPa)
#
#
# Indices 1 2 3 4 5 6 
#
# 1 0.009759 -0.006448 -0.005923 0.003178 -0.004499 0.000421
# 2 -0.006448 0.020884 -0.003998 -0.010661 0.003688 -0.004330
# 3 -0.005923 -0.003998 0.036833 -0.008505 0.014277 -0.005508
# 4 0.003178 -0.010661 -0.008505 0.031678 -0.008389 0.007565
# 5 -0.004499 0.003688 0.014277 -0.008389 0.036102 -0.013366
# 6 0.000421 -0.004330 -0.005508 0.007565 -0.013366 0.029381
#
#
# Mechanical properties :
#
#
# Convention : Reuss Voigt Hill
#
# Bulk Modulus (GPa) = 28.78592 63.78387 46.28489
# Shear Modulus (GPa) = 23.92856 37.01947 30.47402
#
# Velocity S-wave (km/s) = 3.13478 3.89909 3.53764
# Velocity P-wave (km/s) = 4.99240 6.81651 5.97448
#
# Compressibility (1/GPa) = 0.03473921
#
# Stress axis : x y z
#
# Youngs Moduli (GPa) = 102.46496 47.88308 27.14946
#
# Poissons Ratio (x) = 0.30876 0.16080
# Poissons Ratio (y) = 0.66072 0.10854
# Poissons Ratio (z) = 0.60688 0.19142
#
# Static dielectric constant tensor:
#      x y z
#    x 1.985850 0.079140 -0.020470 
#    y 0.079140 2.402900 -0.229290 
#    z -0.020470 -0.229290 2.082530 
# 
# From -- ./inp_files/215119.got.cif
#   From: 2010.05.17/outbox.cif.g08.bks.cpg/sg2_108_cif.got.tgz:215119.got - 2010.06.03 11:33:40.
