data_PCOD9077928
_publ_section_title
;
Structure prediction by ZEFSAII (Michael W. Deem and Ramdas Pophale) SiO2 
 PCOD9077928
Probable space group: P -1
;
_chemical_formula_sum "Si O2"
_cell_formula_units_Z 16
_cell_length_a 8.673431
_cell_length_b 19.175939
_cell_length_c 8.627355
_cell_angle_alpha 150.780228
_cell_angle_beta 85.542965
_cell_angle_gamma 98.379991
_cell_volume 689.342240
_symmetry_space_group_name_H-M "P -1"
_symmetry_group_IT_number 2
_symmetry_cell_setting 'triclinic'
loop_
_space_group_symop_operation_xyz
x,y,z
-x,-y,-z
loop_
_atom_site_type_symbol
_atom_site_label
_atom_site_fract_x
_atom_site_fract_y
_atom_site_fract_z
Si Si1 0.194101 0.748684 0.822504
Si Si2 0.159734 0.031598 0.957892
Si Si3 0.544614 0.851247 0.652075
Si Si4 0.906286 0.853462 0.148124
Si Si5 0.565078 0.408496 0.627972
Si Si6 0.756324 0.566767 0.179052
Si Si7 0.895579 0.284189 0.595298
Si Si8 0.619318 0.938832 0.489379
O O1 0.326079 0.641755 0.614813
O O2 0.137927 0.730532 0.614428
O O3 0.281586 0.912560 0.160865
O O4 0.031186 0.740731 0.917808
O O5 0.183538 0.864855 0.605871
O O6 0.136252 0.110728 0.954607
O O7 0.283563 0.126616 0.242717
O O8 0.000000 0.000000 0.000000
O O9 0.444850 0.722171 0.500298
O O10 0.537837 0.849737 0.466600
O O11 0.500000 0.000000 0.000000
O O12 0.738031 0.839092 0.216107
O O13 0.000000 0.000000 0.500000
O O14 0.379395 0.418477 0.653195
O O15 0.658818 0.542447 0.976793
O O16 0.915733 0.675412 0.337904
O O17 0.825916 0.420880 0.930611
O O18 0.500000 0.000000 0.500000
#
# Coordination Sequence:
#
# PCOD9077928 Si02
#       8
#     2   2   2   2   2   2   2   2
#     4  10  19  35  52  79 117 149 191 233 281 354
#     4  12  20  33  60  89 117 149 191 238 300 351
#     4  12  21  35  58  88 120 145 193 240 299 356
#     4  10  22  36  51  85 129 155 186 225 296 373
#     4  10  20  35  56  84 119 151 192 248 295 333
#     4   9  20  33  52  86 115 149 195 252 294 326
#     4  10  18  35  56  83 120 148 197 247 291 336
#     4  11  22  36  52  85 126 161 184 228 301 369
#
# _framework density 23.210531
#
# number of rings (size 3 to 8) (size 9 to 14) (size 15 to 20)
#    0.000    1.500    3.750    3.000    0.000    0.000 
#    0.000    0.000    0.000    0.000    0.000  110.250 
#    0.000    0.000    0.000    0.000    0.000    0.000 
#
# Total GULP energy -89186.284462 kJ/mol
# GULP energy per Si atom -5574.142779 kJ/mol
# Density = 2.315770 g / cm^3
# Si number density = 23.210531 Si / 1000 Ang^3
#
#
#
# Elastic Constant Matrix: (Units=GPa)
#
#
# Indices 1 2 3 4 5 6 
#
# 1 182.6784 19.9290 49.8048 -10.1235 -31.2158 11.4232
# 2 19.9290 41.9533 5.8232 -13.8647 -3.0377 0.0116
# 3 49.8048 5.8232 67.7073 -3.6613 -27.8656 5.9234
# 4 -10.1235 -13.8647 -3.6613 27.3069 4.9312 -6.5923
# 5 -31.2158 -3.0377 -27.8656 4.9312 76.5124 0.0703
# 6 11.4232 0.0116 5.9234 -6.5923 0.0703 25.2474
#
#
#
# Elastic Compliance Matrix: (Units=1/GPa)
#
#
# Indices 1 2 3 4 5 6 
#
# 1 0.007349 -0.002810 -0.004442 -0.000085 0.001277 -0.002308
# 2 -0.002810 0.030422 -0.000677 0.015877 -0.001214 0.005565
# 3 -0.004442 -0.000677 0.020685 -0.001012 0.005762 -0.003123
# 4 -0.000085 0.015877 -0.001012 0.048137 -0.002887 0.012846
# 5 0.001277 -0.001214 0.005762 -0.002887 0.015830 -0.002727
# 6 -0.002308 0.005565 -0.003123 0.012846 -0.002727 0.044744
#
#
# Mechanical properties :
#
#
# Convention : Reuss Voigt Hill
#
# Bulk Modulus (GPa) = 23.47475 49.27255 36.37365
# Shear Modulus (GPa) = 25.35175 40.26548 32.80861
#
# Velocity S-wave (km/s) = 3.30851 4.16960 3.76376
# Velocity P-wave (km/s) = 4.97300 6.66749 5.88159
#
# Compressibility (1/GPa) = 0.04259896
#
# Stress axis : x y z
#
# Youngs Moduli (GPa) = 136.06649 32.87071 48.34395
#
# Poissons Ratio (x) = 0.09236 0.21473
# Poissons Ratio (y) = 0.38230 0.03275
# Poissons Ratio (z) = 0.60436 0.02227
#
# Static dielectric constant tensor:
#      x y z
#    x 2.015450 -0.032800 -0.099100 
#    y -0.032800 1.850380 0.070580 
#    z -0.099100 0.070580 2.011850 
# 
# From -- ./inp_files/224372.got.cif
#   From: 2010.05.17/outbox.cif.g08.bks.cpg/sg2_113_cif.got.tgz:224372.got - 2010.06.03 11:33:40.
