data_PCOD9077166
_publ_section_title
;
Structure prediction by ZEFSAII (Michael W. Deem and Ramdas Pophale) SiO2 
 PCOD9077166
Probable space group: P -1
;
_chemical_formula_sum "Si O2"
_cell_formula_units_Z 14
_cell_length_a 22.347929
_cell_length_b 9.201406
_cell_length_c 7.912167
_cell_angle_alpha 144.964625
_cell_angle_beta 137.413496
_cell_angle_gamma 40.723720
_cell_volume 579.558313
_symmetry_space_group_name_H-M "P -1"
_symmetry_group_IT_number 2
_symmetry_cell_setting 'triclinic'
loop_
_space_group_symop_operation_xyz
x,y,z
-x,-y,-z
loop_
_atom_site_type_symbol
_atom_site_label
_atom_site_fract_x
_atom_site_fract_y
_atom_site_fract_z
Si Si1 0.112914 0.685930 0.598682
Si Si2 0.615761 0.088112 0.674118
Si Si3 0.984272 0.705936 0.905484
Si Si4 0.646608 0.999131 0.273368
Si Si5 0.295373 0.530254 0.597022
Si Si6 0.149571 0.372041 0.710935
Si Si7 0.590928 0.578500 0.581541
O O1 0.191176 0.639241 0.571900
O O2 0.163004 0.562192 0.767633
O O3 0.051673 0.501503 0.267774
O O4 0.045529 0.004515 0.789822
O O5 0.502002 0.240354 0.548682
O O6 0.664172 0.039612 0.543641
O O7 0.648695 0.786784 0.532950
O O8 0.652215 0.280609 0.042005
O O9 0.093192 0.551327 0.922390
O O10 0.921822 0.752240 0.644387
O O11 0.749431 0.871526 0.274196
O O12 0.582254 0.300506 0.357760
O O13 0.600894 0.776139 0.936374
O O14 0.312070 0.519754 0.421870
#
# Coordination Sequence:
#
# PCOD9077166 Si02
#       7
#     2   2   2   2   2   2   2
#     4  10  18  34  56  89 111 147 200 250 288 336
#     4  12  23  44  66  87 116 167 218 249 288 360
#     4   9  19  31  58  92 114 143 203 260 279 338
#     4  12  24  40  63  91 129 156 201 254 314 357
#     4  12  23  41  67  88 122 162 211 250 294 365
#     4   9  20  33  59  88 118 150 198 251 295 345
#     4  12  27  41  59  93 129 162 195 256 317 360
#
# _framework density 24.156328999999999
#
# number of rings (size 3 to 8) (size 9 to 14) (size 15 to 20)
#    0.857    0.286    1.429    6.429    2.000    0.000 
#    0.000    0.000    0.000    5.143    0.000    0.000 
#    0.000    0.000    0.000    0.000    0.000    0.000 
#
# Total GULP energy -78355.977316 kJ/mol
# GULP energy per Si atom -5596.855523 kJ/mol
# Density = 2.410135 g / cm^3
# Si number density = 24.156329 Si / 1000 Ang^3
#
#
#
# Elastic Constant Matrix: (Units=GPa)
#
#
# Indices 1 2 3 4 5 6 
#
# 1 305.7263 -13.4822 15.2732 2.3915 -101.3480 12.2165
# 2 -13.4822 59.7001 53.6028 30.1815 9.2986 -26.4077
# 3 15.2732 53.6028 144.6648 31.2852 -3.7529 6.3650
# 4 2.3915 30.1815 31.2852 44.6528 6.8089 -8.0511
# 5 -101.3480 9.2986 -3.7529 6.8089 79.4640 -6.1195
# 6 12.2165 -26.4077 6.3650 -8.0511 -6.1195 45.5935
#
#
#
# Elastic Compliance Matrix: (Units=1/GPa)
#
#
# Indices 1 2 3 4 5 6 
#
# 1 0.005869 0.002199 -0.000755 -0.002333 0.007422 0.000391
# 2 0.002199 0.060090 -0.019426 -0.021033 -0.000792 0.033106
# 3 -0.000755 -0.019426 0.014697 0.000399 0.000977 -0.012899
# 4 -0.002333 -0.021033 0.000399 0.036027 -0.004029 -0.005792
# 5 0.007422 -0.000792 0.000977 -0.004029 0.022513 -0.000274
# 6 0.000391 0.033106 -0.012899 -0.005792 -0.000274 0.041745
#
#
# Mechanical properties :
#
#
# Convention : Reuss Voigt Hill
#
# Bulk Modulus (GPa) = 22.37485 68.98654 45.68070
# Shear Modulus (GPa) = 21.57033 64.25520 42.91277
#
# Velocity S-wave (km/s) = 2.99146 5.16309 4.21938
# Velocity P-wave (km/s) = 4.60591 8.01022 6.53369
#
# Compressibility (1/GPa) = 0.04469304
#
# Stress axis : x y z
#
# Youngs Moduli (GPa) = 170.40093 16.64173 68.04217
#
# Poissons Ratio (x) = -0.03660 0.05134
# Poissons Ratio (y) = -0.37478 1.32178
# Poissons Ratio (z) = 0.12858 0.32328
#
# Static dielectric constant tensor:
#      x y z
#    x 1.939950 0.001150 0.006410 
#    y 0.001150 1.925480 -0.024470 
#    z 0.006410 -0.024470 1.861380 
# 
# From -- ./inp_files/51544.got.cif
#   From: 2010.05.17/outbox.cif.g08.bks.cpg/sg2_26_cif.got.tgz:51544.got - 2010.06.03 11:33:40.
