data_PCOD9077924
_publ_section_title
;
Structure prediction by ZEFSAII (Michael W. Deem and Ramdas Pophale) SiO2 
 PCOD9077924
Probable space group: P -1
;
_chemical_formula_sum "Si O2"
_cell_formula_units_Z 16
_cell_length_a 12.566546
_cell_length_b 8.427531
_cell_length_c 7.581050
_cell_angle_alpha 66.319062
_cell_angle_beta 96.797186
_cell_angle_gamma 73.549458
_cell_volume 680.101265
_symmetry_space_group_name_H-M "P -1"
_symmetry_group_IT_number 2
_symmetry_cell_setting 'triclinic'
loop_
_space_group_symop_operation_xyz
x,y,z
-x,-y,-z
loop_
_atom_site_type_symbol
_atom_site_label
_atom_site_fract_x
_atom_site_fract_y
_atom_site_fract_z
Si Si1 0.199370 0.962174 0.445011
Si Si2 0.343234 0.491276 0.135009
Si Si3 0.141657 0.815070 0.810601
Si Si4 0.815608 0.655020 0.596213
Si Si5 0.639477 0.187344 0.764805
Si Si6 0.009468 0.343623 0.929279
Si Si7 0.771021 0.874695 0.142577
Si Si8 0.540412 0.171288 0.400780
O O1 0.123407 0.870317 0.577380
O O2 0.240157 0.881628 0.294975
O O3 0.326038 0.897674 0.593935
O O4 0.154535 0.182520 0.368925
O O5 0.280213 0.386261 0.290856
O O6 0.370789 0.643096 0.189079
O O7 0.461307 0.326568 0.183996
O O8 0.247265 0.615616 0.926497
O O9 0.177395 0.976422 0.833958
O O10 0.042317 0.794077 0.922027
O O11 0.923871 0.461166 0.705076
O O12 0.767930 0.738444 0.359821
O O13 0.543775 0.244301 0.568915
O O14 0.654692 0.003050 0.964002
O O15 0.136128 0.248064 0.923515
O O16 0.000000 0.500000 0.000000
O O17 0.500000 0.000000 0.500000
#
# Coordination Sequence:
#
# PCOD9077924 Si02
#       8
#     2   2   2   2   2   2   2   2
#     4   9  19  36  55  78 111 142 180 215 274 316
#     4  10  18  35  56  82 108 143 177 227 264 318
#     4   9  21  37  57  78 110 144 179 219 273 322
#     4  10  20  36  57  80 111 142 180 221 274 317
#     4   9  20  34  56  79 111 140 179 227 265 312
#     4  11  22  35  58  84 109 139 182 227 268 323
#     4  10  20  39  56  77 110 146 181 220 271 324
#     4  10  19  34  60  78 111 144 182 215 275 320
#
# _framework density 23.525911000000001
#
# number of rings (size 3 to 8) (size 9 to 14) (size 15 to 20)
#    0.750    1.500    1.250    1.875    0.000    1.500 
#    0.000    7.500    0.000    0.000    0.000    0.000 
#    0.000    0.000    0.000    0.000    0.000    0.000 
#
# Total GULP energy -89307.880259 kJ/mol
# GULP energy per Si atom -5581.742516 kJ/mol
# Density = 2.347236 g / cm^3
# Si number density = 23.525911 Si / 1000 Ang^3
#
#
#
# Elastic Constant Matrix: (Units=GPa)
#
#
# Indices 1 2 3 4 5 6 
#
# 1 44.4512 3.7691 18.6953 -16.8347 -0.4402 -5.4784
# 2 3.7691 57.5852 10.9827 -13.6447 -5.2356 -12.5423
# 3 18.6953 10.9827 108.0347 -21.7079 -16.9528 -5.2580
# 4 -16.8347 -13.6447 -21.7079 32.9369 -1.8687 6.2358
# 5 -0.4402 -5.2356 -16.9528 -1.8687 30.5221 -9.2114
# 6 -5.4784 -12.5423 -5.2580 6.2358 -9.2114 24.4888
#
#
#
# Elastic Compliance Matrix: (Units=1/GPa)
#
#
# Indices 1 2 3 4 5 6 
#
# 1 0.028977 0.003057 -0.001926 0.014006 0.002208 0.004899
# 2 0.003057 0.023158 0.001278 0.009911 0.009521 0.013877
# 3 -0.001926 0.001278 0.012592 0.007523 0.008970 0.004385
# 4 0.014006 0.009911 0.007523 0.046846 0.009378 0.001423
# 5 0.002208 0.009521 0.008970 0.009378 0.046775 0.022503
# 6 0.004899 0.013877 0.004385 0.001423 0.022503 0.058082
#
#
# Mechanical properties :
#
#
# Convention : Reuss Voigt Hill
#
# Bulk Modulus (GPa) = 14.37916 30.77394 22.57655
# Shear Modulus (GPa) = 21.29514 29.36448 25.32981
#
# Velocity S-wave (km/s) = 3.01188 3.53679 3.28484
# Velocity P-wave (km/s) = 4.26856 5.45782 4.89940
#
# Compressibility (1/GPa) = 0.06954509
#
# Stress axis : x y z
#
# Youngs Moduli (GPa) = 34.50972 43.18111 79.41429
#
# Poissons Ratio (x) = -0.13201 0.15296
# Poissons Ratio (y) = -0.10550 -0.10146
# Poissons Ratio (z) = 0.06647 -0.05517
#
# Static dielectric constant tensor:
#      x y z
#    x 1.922050 -0.019430 0.056980 
#    y -0.019430 1.856400 0.012700 
#    z 0.056980 0.012700 1.992200 
# 
# From -- ./inp_files/201578.got.cif
#   From: 2010.05.17/outbox.cif.g08.bks.cpg/sg2_101_cif.got.tgz:201578.got - 2010.06.03 11:33:40.
