data_PCOD9077040
_publ_section_title
;
Structure prediction by ZEFSAII (Michael W. Deem and Ramdas Pophale) SiO2 
 PCOD9077040
Probable space group: P -1
;
_chemical_formula_sum "Si O2"
_cell_formula_units_Z 16
_cell_length_a 8.675593
_cell_length_b 7.607586
_cell_length_c 18.120254
_cell_angle_alpha 83.251032
_cell_angle_beta 129.258963
_cell_angle_gamma 129.523897
_cell_volume 627.581980
_symmetry_space_group_name_H-M "P -1"
_symmetry_group_IT_number 2
_symmetry_cell_setting 'triclinic'
loop_
_space_group_symop_operation_xyz
x,y,z
-x,-y,-z
loop_
_atom_site_type_symbol
_atom_site_label
_atom_site_fract_x
_atom_site_fract_y
_atom_site_fract_z
Si Si1 0.771986 0.224411 0.871932
Si Si2 0.973591 0.023812 0.273592
Si Si3 0.416523 0.528000 0.054154
Si Si4 0.624675 0.319740 0.185625
Si Si5 0.617435 0.390153 0.602397
Si Si6 0.981905 0.574041 0.571521
Si Si7 0.314505 0.157452 0.659856
Si Si8 0.188720 0.840480 0.269440
O O1 0.616483 0.298766 0.787938
O O2 0.750023 0.082085 0.800220
O O3 0.559239 0.976233 0.873193
O O4 0.115919 0.440986 0.980254
O O5 0.685871 0.824542 0.146280
O O6 0.887865 0.894186 0.335225
O O7 0.183878 0.018237 0.301633
O O8 0.111586 0.306341 0.308616
O O9 0.417497 0.356768 0.117107
O O10 0.500000 0.500000 0.000000
O O11 0.827745 0.423100 0.314125
O O12 0.875326 0.537695 0.192492
O O13 0.378562 0.296567 0.595760
O O14 0.675483 0.417010 0.530539
O O15 0.617433 0.183809 0.634199
O O16 0.000000 0.500000 0.500000
O O17 0.155019 0.869985 0.608876
#
# Coordination Sequence:
#
# PCOD9077040 Si02
#       8
#     2   2   2   2   2   2   2   2
#     4  10  18  34  55  78 115 152 195 242 277 343
#     4  10  20  35  55  82 118 158 193 245 288 342
#     4  11  20  35  55  83 117 157 206 237 281 352
#     4   9  18  32  54  82 111 144 188 240 285 333
#     4   9  19  37  58  82 118 154 189 244 298 338
#     4   9  18  35  62  88 114 150 191 241 300 355
#     4   9  20  36  55  86 120 146 197 243 286 354
#     4   9  18  35  56  78 111 152 195 237 282 340
#
# _framework density 25.494679000000001
#
# number of rings (size 3 to 8) (size 9 to 14) (size 15 to 20)
#    0.000    2.500    2.500    1.125    0.000    3.000 
#    2.250    2.500    0.000   27.000    0.000   47.250 
#    0.000    0.000    0.000    0.000    0.000    0.000 
#
# Total GULP energy -89158.308562 kJ/mol
# GULP energy per Si atom -5572.394285 kJ/mol
# Density = 2.543665 g / cm^3
# Si number density = 25.494679 Si / 1000 Ang^3
#
#
#
# Elastic Constant Matrix: (Units=GPa)
#
#
# Indices 1 2 3 4 5 6 
#
# 1 57.6093 12.2298 6.9599 -4.2063 -24.9386 -2.9920
# 2 12.2298 63.9737 20.4555 -11.1858 0.9783 2.5487
# 3 6.9599 20.4555 77.9818 -3.7533 -2.9119 -11.3248
# 4 -4.2063 -11.1858 -3.7533 34.2211 -6.7047 -3.3480
# 5 -24.9386 0.9783 -2.9119 -6.7047 47.2429 -8.2692
# 6 -2.9920 2.5487 -11.3248 -3.3480 -8.2692 48.4760
#
#
#
# Elastic Compliance Matrix: (Units=1/GPa)
#
#
# Indices 1 2 3 4 5 6 
#
# 1 0.025442 -0.004529 0.000433 0.005132 0.015127 0.004844
# 2 -0.004529 0.018944 -0.004848 0.004273 -0.002933 -0.002613
# 3 0.000433 -0.004848 0.014782 0.000907 0.002096 0.004155
# 4 0.005132 0.004273 0.000907 0.033327 0.008104 0.003988
# 5 0.015127 -0.002933 0.002096 0.008104 0.031817 0.007565
# 6 0.004844 -0.002613 0.004155 0.003988 0.007565 0.023602
#
#
# Mechanical properties :
#
#
# Convention : Reuss Voigt Hill
#
# Bulk Modulus (GPa) = 24.22570 30.98392 27.60481
# Shear Modulus (GPa) = 27.84553 36.64930 32.24742
#
# Velocity S-wave (km/s) = 3.30844 3.79559 3.56036
# Velocity P-wave (km/s) = 4.91094 5.60251 5.26808
#
# Compressibility (1/GPa) = 0.04127847
#
# Stress axis : x y z
#
# Youngs Moduli (GPa) = 39.30470 52.78813 67.65000
#
# Poissons Ratio (x) = 0.23909 -0.02927
# Poissons Ratio (y) = 0.17802 0.32799
# Poissons Ratio (z) = -0.01701 0.25593
#
# Static dielectric constant tensor:
#      x y z
#    x 2.223380 0.055600 0.088520 
#    y 0.055600 1.951340 -0.029200 
#    z 0.088520 -0.029200 2.108910 
# 
# From -- ./inp_files/557323.got.cif
#   From: 2010.05.17/outbox.cif.g08.bks.cpg/sg2_279_cif.got.tgz:557323.got - 2010.06.03 11:33:40.
