data_PCOD9077226
_publ_section_title
;
Structure prediction by ZEFSAII (Michael W. Deem and Ramdas Pophale) SiO2 
 PCOD9077226
Probable space group: P -1
;
_chemical_formula_sum "Si O2"
_cell_formula_units_Z 10
_cell_length_a 7.294623
_cell_length_b 7.549930
_cell_length_c 12.160333
_cell_angle_alpha 78.115469
_cell_angle_beta 122.159595
_cell_angle_gamma 71.359355
_cell_volume 474.520998
_symmetry_space_group_name_H-M "P -1"
_symmetry_group_IT_number 2
_symmetry_cell_setting 'triclinic'
loop_
_space_group_symop_operation_xyz
x,y,z
-x,-y,-z
loop_
_atom_site_type_symbol
_atom_site_label
_atom_site_fract_x
_atom_site_fract_y
_atom_site_fract_z
Si Si1 0.318540 0.714757 0.351305
Si Si2 0.868618 0.897044 0.042115
Si Si3 0.597576 0.114186 0.144546
Si Si4 0.767795 0.734096 0.412692
Si Si5 0.975099 0.904949 0.619234
O O1 0.500000 0.500000 0.500000
O O2 0.099019 0.716692 0.210347
O O3 0.503923 0.745268 0.328010
O O4 0.185802 0.912992 0.366966
O O5 0.303799 0.186497 0.055657
O O6 0.678457 0.070388 0.048606
O O7 0.000000 0.000000 0.000000
O O8 0.737362 0.230708 0.224584
O O9 0.740791 0.892339 0.286834
O O10 0.822982 0.796959 0.542359
O O11 0.000000 0.500000 0.500000
O O12 0.000000 0.000000 0.500000
#
# Coordination Sequence:
#
# PCOD9077226 Si02
#       5
#     2   2   2   2   2
#     4  11  21  35  59  89 114 151 195 234 285 342
#     4  10  18  34  57  84 115 152 189 229 286 345
#     4   9  19  34  56  83 114 151 187 233 287 340
#     4  11  20  35  59  86 115 152 193 242 284 334
#     4   9  19  35  55  84 117 148 189 240 283 338
#
# _framework density 21.073882000000001
#
# number of rings (size 3 to 8) (size 9 to 14) (size 15 to 20)
#    0.000    2.000    2.000    4.200    0.000    0.000 
#    0.000    0.000    0.000   32.400    0.000    0.000 
#    0.000    0.000    0.000    0.000    0.000    0.000 
#
# Total GULP energy -55672.244575 kJ/mol
# GULP energy per Si atom -5567.224457 kJ/mol
# Density = 2.102592 g / cm^3
# Si number density = 21.073882 Si / 1000 Ang^3
#
#
#
# Elastic Constant Matrix: (Units=GPa)
#
#
# Indices 1 2 3 4 5 6 
#
# 1 121.7395 2.6879 25.3587 6.0723 17.7039 -0.1361
# 2 2.6879 36.4530 26.8747 9.0236 20.6302 -3.4850
# 3 25.3587 26.8747 100.9505 15.3250 36.5306 5.5623
# 4 6.0723 9.0236 15.3250 27.2005 11.2588 6.6226
# 5 17.7039 20.6302 36.5306 11.2588 53.1011 10.3104
# 6 -0.1361 -3.4850 5.5623 6.6226 10.3104 21.0428
#
#
#
# Elastic Compliance Matrix: (Units=1/GPa)
#
#
# Indices 1 2 3 4 5 6 
#
# 1 0.009096 0.003269 -0.001919 -0.001444 -0.003293 0.003175
# 2 0.003269 0.045783 -0.006763 -0.010488 -0.015985 0.020524
# 3 -0.001919 -0.006763 0.014922 -0.002907 -0.006159 -0.001144
# 4 -0.001444 -0.010488 -0.002907 0.046035 -0.000223 -0.015357
# 5 -0.003293 -0.015985 -0.006159 -0.000223 0.033832 -0.017547
# 6 0.003175 0.020524 -0.001144 -0.015357 -0.017547 0.064675
#
#
# Mechanical properties :
#
#
# Convention : Reuss Voigt Hill
#
# Bulk Modulus (GPa) = 16.95699 40.99840 28.97770
# Shear Modulus (GPa) = 20.42246 33.88367 27.15306
#
# Velocity S-wave (km/s) = 3.11640 4.01415 3.59342
# Velocity P-wave (km/s) = 4.58401 6.40167 5.56752
#
# Compressibility (1/GPa) = 0.05897272
#
# Stress axis : x y z
#
# Youngs Moduli (GPa) = 109.93470 21.84211 67.01654
#
# Poissons Ratio (x) = -0.07140 0.12864
# Poissons Ratio (y) = -0.35935 0.45326
# Poissons Ratio (z) = 0.21102 0.14773
#
# Static dielectric constant tensor:
#      x y z
#    x 2.592980 0.552750 -0.758510 
#    y 0.552750 2.103680 -0.450000 
#    z -0.758510 -0.450000 2.588570 
# 
# From -- ./inp_files/364116.got.cif
#   From: 2010.05.17/outbox.cif.g08.bks.cpg/sg2_183_cif.got.tgz:364116.got - 2010.06.03 11:33:40.
