data_PCOD9077102
_publ_section_title
;
Structure prediction by ZEFSAII (Michael W. Deem and Ramdas Pophale) SiO2 
 PCOD9077102
Probable space group: P -1
;
_chemical_formula_sum "Si O2"
_cell_formula_units_Z 10
_cell_length_a 6.716066
_cell_length_b 8.029084
_cell_length_c 9.337480
_cell_angle_alpha 48.671127
_cell_angle_beta 96.641540
_cell_angle_gamma 89.045129
_cell_volume 372.632935
_symmetry_space_group_name_H-M "P -1"
_symmetry_group_IT_number 2
_symmetry_cell_setting 'triclinic'
loop_
_space_group_symop_operation_xyz
x,y,z
-x,-y,-z
loop_
_atom_site_type_symbol
_atom_site_label
_atom_site_fract_x
_atom_site_fract_y
_atom_site_fract_z
Si Si1 0.647945 0.261688 0.235392
Si Si2 0.282753 0.195884 0.411703
Si Si3 0.052604 0.429319 0.879379
Si Si4 0.462741 0.254033 0.679838
Si Si5 0.213499 0.927294 0.955512
O O1 0.413253 0.270651 0.249416
O O2 0.730805 0.486562 0.169818
O O3 0.773171 0.054907 0.452302
O O4 0.694940 0.207857 0.103467
O O5 0.109023 0.394941 0.318570
O O6 0.445625 0.158880 0.573888
O O7 0.999547 0.177712 0.992623
O O8 0.000000 0.500000 0.000000
O O9 0.500000 0.500000 0.500000
O O10 0.643602 0.152685 0.854128
O O11 0.257721 0.179170 0.776476
#
# Coordination Sequence:
#
# PCOD9077102 Si02
#       5
#     2   2   2   2   2
#     4   9  20  35  57  84 108 139 185 227 268 320
#     4  10  19  35  58  82 108 145 182 222 272 320
#     4  10  19  33  53  83 112 140 176 229 271 318
#     4  10  18  34  56  78 107 149 179 218 270 326
#     4   9  19  33  54  81 108 140 185 218 271 325
#
# _framework density 26.836058000000001
#
# number of rings (size 3 to 8) (size 9 to 14) (size 15 to 20)
#    0.000    2.400    2.000    0.600    0.000    3.200 
#    0.000    1.000    0.000    1.200    0.000    0.000 
#    0.000    0.000    0.000    0.000    0.000    0.000 
#
# Total GULP energy -55783.187565 kJ/mol
# GULP energy per Si atom -5578.318756 kJ/mol
# Density = 2.677498 g / cm^3
# Si number density = 26.836058 Si / 1000 Ang^3
#
#
#
# Elastic Constant Matrix: (Units=GPa)
#
#
# Indices 1 2 3 4 5 6 
#
# 1 89.5604 7.2966 48.6431 -13.9220 -2.1808 12.1612
# 2 7.2966 112.1149 41.9284 -43.5262 -5.2290 43.6976
# 3 48.6431 41.9284 150.2546 -30.6720 -3.7080 19.9365
# 4 -13.9220 -43.5262 -30.6720 65.9663 4.2989 -7.3441
# 5 -2.1808 -5.2290 -3.7080 4.2989 26.6148 -7.3528
# 6 12.1612 43.6976 19.9365 -7.3441 -7.3528 31.2190
#
#
#
# Elastic Compliance Matrix: (Units=1/GPa)
#
#
# Indices 1 2 3 4 5 6 
#
# 1 0.015447 0.007583 -0.004425 0.004886 -0.002296 -0.013197
# 2 0.007583 0.034880 -0.002185 0.018841 -0.009164 -0.048107
# 3 -0.004425 -0.002185 0.009151 0.001808 0.000016 -0.000632
# 4 0.004886 0.018841 0.001808 0.027164 -0.006844 -0.024651
# 5 -0.002296 -0.009164 0.000016 -0.006844 0.042822 0.022186
# 6 -0.013197 -0.048107 -0.000632 -0.024651 0.022186 0.104338
#
#
# Mechanical properties :
#
#
# Convention : Reuss Voigt Hill
#
# Bulk Modulus (GPa) = 16.28037 60.85178 38.56607
# Shear Modulus (GPa) = 19.81528 41.69747 30.75637
#
# Velocity S-wave (km/s) = 2.72027 3.94608 3.38906
# Velocity P-wave (km/s) = 3.99328 6.59445 5.45128
#
# Compressibility (1/GPa) = 0.06142365
#
# Stress axis : x y z
#
# Youngs Moduli (GPa) = 64.73829 28.66958 109.27791
#
# Poissons Ratio (x) = -0.21740 0.48354
# Poissons Ratio (y) = -0.49092 0.23881
# Poissons Ratio (z) = 0.28646 0.06265
#
# Static dielectric constant tensor:
#      x y z
#    x 2.175910 -0.048460 -0.103240 
#    y -0.048460 2.450630 -0.197250 
#    z -0.103240 -0.197250 2.306610 
# 
# From -- ./inp_files/22418.got.cif
#   From: 2010.05.17/outbox.cif.g08.bks.cpg/sg2_12_cif.got.tgz:22418.got - 2010.06.03 11:33:40.
