data_PCOD9077440
_publ_section_title
;
Structure prediction by ZEFSAII (Michael W. Deem and Ramdas Pophale) SiO2 
 PCOD9077440
Probable space group: P -1
;
_chemical_formula_sum "Si O2"
_cell_formula_units_Z 16
_cell_length_a 11.941055
_cell_length_b 19.075612
_cell_length_c 9.173745
_cell_angle_alpha 45.384049
_cell_angle_beta 98.050213
_cell_angle_gamma 60.555891
_cell_volume 805.916043
_symmetry_space_group_name_H-M "P -1"
_symmetry_group_IT_number 2
_symmetry_cell_setting 'triclinic'
loop_
_space_group_symop_operation_xyz
x,y,z
-x,-y,-z
loop_
_atom_site_type_symbol
_atom_site_label
_atom_site_fract_x
_atom_site_fract_y
_atom_site_fract_z
Si Si1 0.958779 0.568241 0.117155
Si Si2 0.534602 0.951993 0.325512
Si Si3 0.610345 0.711463 0.545291
Si Si4 0.646483 0.075868 0.255906
Si Si5 0.122226 0.199050 0.058754
Si Si6 0.753015 0.374885 0.589215
Si Si7 0.316327 0.401558 0.949191
Si Si8 0.573279 0.298092 0.716700
O O1 0.902688 0.496903 0.248756
O O2 0.153341 0.440954 0.235661
O O3 0.747285 0.761420 0.720967
O O4 0.991895 0.616235 0.189799
O O5 0.511310 0.892874 0.274761
O O6 0.558860 0.051479 0.174394
O O7 0.340891 0.071500 0.219135
O O8 0.511848 0.707962 0.419105
O O9 0.605748 0.668078 0.769953
O O10 0.832624 0.896269 0.647427
O O11 0.470199 0.235205 0.107239
O O12 0.696941 0.134414 0.084892
O O13 0.987027 0.231093 0.881854
O O14 0.698719 0.476245 0.287204
O O15 0.702535 0.296929 0.686567
O O16 0.613667 0.521482 0.482174
#
# Coordination Sequence:
#
# PCOD9077440 Si02
#       8
#     2   2   2   2   2   2   2   2
#     4  10  18  34  59  91 118 146 187 233 287 355
#     4  10  19  34  60  89 120 146 184 232 296 355
#     4  11  21  36  61  88 122 148 183 242 294 331
#     4  10  19  36  62  82 119 154 186 228 295 348
#     4  11  18  36  62  88 112 154 187 236 287 344
#     4  10  23  39  60  81 113 158 208 229 270 345
#     4  10  19  36  60  86 116 154 186 233 288 348
#     4  10  23  41  55  85 116 153 203 242 266 337
#
# _framework density 19.853183999999999
#
# number of rings (size 3 to 8) (size 9 to 14) (size 15 to 20)
#    0.000    1.750    5.000    2.250    0.000    3.000 
#    0.000    3.125    0.000    0.000    0.000    0.000 
#    0.000    0.000    0.000    0.000    0.000    0.000 
#
# Total GULP energy -89274.591446 kJ/mol
# GULP energy per Si atom -5579.661965 kJ/mol
# Density = 1.980800 g / cm^3
# Si number density = 19.853184 Si / 1000 Ang^3
#
#
#
# Elastic Constant Matrix: (Units=GPa)
#
#
# Indices 1 2 3 4 5 6 
#
# 1 85.1352 10.4996 18.5187 -5.7454 -27.3352 0.3875
# 2 10.4996 78.2044 9.5214 -0.8226 -9.2309 0.5177
# 3 18.5187 9.5214 29.5959 4.1096 -16.4843 -2.5506
# 4 -5.7454 -0.8226 4.1096 20.1331 1.3301 -0.0158
# 5 -27.3352 -9.2309 -16.4843 1.3301 29.8370 1.2895
# 6 0.3875 0.5177 -2.5506 -0.0158 1.2895 23.8011
#
#
#
# Elastic Compliance Matrix: (Units=1/GPa)
#
#
# Indices 1 2 3 4 5 6 
#
# 1 0.017288 -0.000182 -0.004128 0.004886 0.013346 -0.001440
# 2 -0.000182 0.013478 -0.003182 0.001000 0.002233 -0.000751
# 3 -0.004128 -0.003182 0.053896 -0.013986 0.025438 0.004525
# 4 0.004886 0.001000 -0.013986 0.054309 -0.005308 -0.001276
# 5 0.013346 0.002233 0.025438 -0.005308 0.060759 -0.000835
# 6 -0.001440 -0.000751 0.004525 -0.001276 -0.000835 0.042584
#
#
# Mechanical properties :
#
#
# Convention : Reuss Voigt Hill
#
# Bulk Modulus (GPa) = 14.35198 30.00164 22.17681
# Shear Modulus (GPa) = 17.82381 25.04729 21.43555
#
# Velocity S-wave (km/s) = 2.99955 3.55579 3.28945
# Velocity P-wave (km/s) = 4.38647 5.65710 5.06181
#
# Compressibility (1/GPa) = 0.06967679
#
# Stress axis : x y z
#
# Youngs Moduli (GPa) = 57.84475 74.19544 18.55442
#
# Poissons Ratio (x) = 0.01352 0.07659
# Poissons Ratio (y) = 0.01054 0.05904
# Poissons Ratio (z) = 0.23877 0.23609
#
# Static dielectric constant tensor:
#      x y z
#    x 1.690470 0.017810 -0.019770 
#    y 0.017810 1.733430 0.013430 
#    z -0.019770 0.013430 1.734920 
# 
# From -- ./inp_files/179414.got.cif
#   From: 2010.05.17/outbox.cif.g08.bks.cpg/sg2_90_cif.got.tgz:179414.got - 2010.06.03 11:33:40.
