data_PCOD9077736
_publ_section_title
;
Structure prediction by ZEFSAII (Michael W. Deem and Ramdas Pophale) SiO2 
 PCOD9077736
Probable space group: P -1
;
_chemical_formula_sum "Si O2"
_cell_formula_units_Z 16
_cell_length_a 9.359900
_cell_length_b 7.137854
_cell_length_c 18.600246
_cell_angle_alpha 141.745046
_cell_angle_beta 79.702886
_cell_angle_gamma 80.063625
_cell_volume 649.518068
_symmetry_space_group_name_H-M "P -1"
_symmetry_group_IT_number 2
_symmetry_cell_setting 'triclinic'
loop_
_space_group_symop_operation_xyz
x,y,z
-x,-y,-z
loop_
_atom_site_type_symbol
_atom_site_label
_atom_site_fract_x
_atom_site_fract_y
_atom_site_fract_z
Si Si1 0.871286 0.049096 0.092643
Si Si2 0.951348 0.299216 0.532268
Si Si3 0.559570 0.139270 0.340111
Si Si4 0.772407 0.938690 0.384475
Si Si5 0.697268 0.770225 0.929798
Si Si6 0.924000 0.784817 0.793732
Si Si7 0.695326 0.130509 0.688440
Si Si8 0.483382 0.442405 0.665078
O O1 0.697436 0.426610 0.240794
O O2 0.991758 0.977856 0.129796
O O3 0.783824 0.833369 0.009742
O O4 0.000000 0.000000 0.000000
O O5 0.882150 0.676872 0.689099
O O6 0.126346 0.199418 0.449247
O O7 0.000000 0.000000 0.500000
O O8 0.827424 0.234566 0.474875
O O9 0.500000 0.500000 0.500000
O O10 0.565430 0.234607 0.286683
O O11 0.735210 0.895154 0.292186
O O12 0.437386 0.983230 0.311895
O O13 0.927364 0.589196 0.298883
O O14 0.603024 0.106761 0.500513
O O15 0.772260 0.880515 0.889555
O O16 0.735594 0.373398 0.807179
O O17 0.500000 0.000000 0.000000
O O18 0.611947 0.367475 0.695552
#
# Coordination Sequence:
#
# PCOD9077736 Si02
#       8
#     2   2   2   2   2   2   2   2
#     4  10  23  36  60  92 125 170 220 264 308 385
#     4  10  18  34  64 100 122 165 209 262 340 389
#     4  10  26  39  61 103 135 167 219 265 331 409
#     4  10  19  36  60  94 136 165 205 274 334 387
#     4  11  21  36  61  99 126 170 229 264 310 393
#     4  10  19  35  60  97 129 161 220 267 329 390
#     4  12  21  41  70  92 134 177 205 274 338 381
#     4  11  21  41  66  96 130 169 221 266 323 397
#
# _framework density 24.633648999999998
#
# number of rings (size 3 to 8) (size 9 to 14) (size 15 to 20)
#    0.000    1.500    6.250    0.750    3.500    2.500 
#    0.000    3.125    5.500    6.750    0.000    0.000 
#    0.000    0.000    0.000    0.000    0.000    0.000 
#
# Total GULP energy -89208.481292 kJ/mol
# GULP energy per Si atom -5575.530081 kJ/mol
# Density = 2.457758 g / cm^3
# Si number density = 24.633649 Si / 1000 Ang^3
#
#
#
# Elastic Constant Matrix: (Units=GPa)
#
#
# Indices 1 2 3 4 5 6 
#
# 1 188.8838 28.9340 42.9468 -17.3192 8.0999 -2.9672
# 2 28.9340 86.2659 4.5758 -6.9202 6.9244 -2.7534
# 3 42.9468 4.5758 89.2590 -16.3382 0.3946 4.0213
# 4 -17.3192 -6.9202 -16.3382 11.9386 2.1695 -2.1537
# 5 8.0999 6.9244 0.3946 2.1695 54.9561 2.5703
# 6 -2.9672 -2.7534 4.0213 -2.1537 2.5703 14.0992
#
#
#
# Elastic Compliance Matrix: (Units=1/GPa)
#
#
# Indices 1 2 3 4 5 6 
#
# 1 0.006698 -0.001393 -0.002016 0.006910 -0.001210 0.002989
# 2 -0.001393 0.012919 0.001387 0.008340 -0.001924 0.003459
# 3 -0.002016 0.001387 0.015688 0.019188 -0.000674 -0.001574
# 4 0.006910 0.008340 0.019188 0.129787 -0.008216 0.018933
# 5 -0.001210 -0.001924 -0.000674 -0.008216 0.019189 -0.005191
# 6 0.002989 0.003459 -0.001574 0.018933 -0.005191 0.076518
#
#
# Mechanical properties :
#
#
# Convention : Reuss Voigt Hill
#
# Bulk Modulus (GPa) = 31.98718 57.48022 44.73370
# Shear Modulus (GPa) = 18.16432 35.39558 26.77995
#
# Velocity S-wave (km/s) = 2.71842 3.79473 3.30074
# Velocity P-wave (km/s) = 4.78188 6.52569 5.72062
#
# Compressibility (1/GPa) = 0.03126252
#
# Stress axis : x y z
#
# Youngs Moduli (GPa) = 149.28823 77.40244 63.74193
#
# Poissons Ratio (x) = 0.10782 0.12850
# Poissons Ratio (y) = 0.20795 -0.08842
# Poissons Ratio (z) = 0.30097 -0.10737
#
# Static dielectric constant tensor:
#      x y z
#    x 2.066090 0.049960 0.118040 
#    y 0.049960 2.048650 0.065270 
#    z 0.118040 0.065270 2.134730 
# 
# From -- ./inp_files/587609.got.cif
#   From: 2010.05.17/outbox.cif.g08.bks.cpg/sg2_294_cif.got.tgz:587609.got - 2010.06.03 11:33:40.
