data_PCOD9077403
_publ_section_title
;
Structure prediction by ZEFSAII (Michael W. Deem and Ramdas Pophale) SiO2 
 PCOD9077403
Probable space group: P -1
;
_chemical_formula_sum "Si O2"
_cell_formula_units_Z 12
_cell_length_a 9.916722
_cell_length_b 9.385240
_cell_length_c 9.339427
_cell_angle_alpha 48.178319
_cell_angle_beta 81.691356
_cell_angle_gamma 67.202232
_cell_volume 588.904360
_symmetry_space_group_name_H-M "P -1"
_symmetry_group_IT_number 2
_symmetry_cell_setting 'triclinic'
loop_
_space_group_symop_operation_xyz
x,y,z
-x,-y,-z
loop_
_atom_site_type_symbol
_atom_site_label
_atom_site_fract_x
_atom_site_fract_y
_atom_site_fract_z
Si Si1 0.599508 0.611879 0.848053
Si Si2 0.308334 0.950637 0.565642
Si Si3 0.215782 0.187749 0.145063
Si Si4 0.915729 0.228423 0.292644
Si Si5 0.804300 0.585954 0.601144
Si Si6 0.853548 0.606744 0.259416
O O1 0.475208 0.833502 0.669805
O O2 0.712374 0.656021 0.909049
O O3 0.696007 0.512418 0.759105
O O4 0.500000 0.500000 0.000000
O O5 0.223140 0.806632 0.728090
O O6 0.772859 0.817081 0.513488
O O7 0.292212 0.986243 0.371001
O O8 0.039910 0.262121 0.154428
O O9 0.224378 0.198085 0.965487
O O10 0.865897 0.404102 0.303383
O O11 0.000000 0.000000 0.500000
O O12 0.776880 0.612341 0.418906
O O13 0.975180 0.434979 0.703692
#
# Coordination Sequence:
#
# PCOD9077403 Si02
#       6
#     2   2   2   2   2   2
#     4  11  22  39  61  85 115 159 197 232 286 358
#     4  10  21  38  61  86 116 152 200 235 284 348
#     4  10  20  35  59  85 113 156 197 230 279 351
#     4  10  18  34  59  86 112 151 198 231 274 345
#     4  10  22  38  57  90 122 150 186 250 293 330
#     4  11  20  36  61  88 122 147 192 243 299 327
#
# _framework density 20.376823000000002
#
# number of rings (size 3 to 8) (size 9 to 14) (size 15 to 20)
#    0.000    1.667    5.000    3.500    2.333    0.000 
#    0.000   10.833    0.000    0.000    0.000    0.000 
#    0.000    0.000    0.000    0.000    0.000    0.000 
#
# Total GULP energy -66852.130588 kJ/mol
# GULP energy per Si atom -5571.010882 kJ/mol
# Density = 2.033044 g / cm^3
# Si number density = 20.376823 Si / 1000 Ang^3
#
#
#
# Elastic Constant Matrix: (Units=GPa)
#
#
# Indices 1 2 3 4 5 6 
#
# 1 109.4007 9.1626 53.9073 12.6714 -21.5052 -3.9510
# 2 9.1626 10.1139 19.1974 8.7520 -1.5895 -2.5516
# 3 53.9073 19.1974 147.2741 23.8370 -5.4227 -1.9765
# 4 12.6714 8.7520 23.8370 38.6965 -0.7980 -3.2137
# 5 -21.5052 -1.5895 -5.4227 -0.7980 50.3919 -6.7311
# 6 -3.9510 -2.5516 -1.9765 -3.2137 -6.7311 21.1288
#
#
#
# Elastic Compliance Matrix: (Units=1/GPa)
#
#
# Indices 1 2 3 4 5 6 
#
# 1 0.012496 -0.001168 -0.004026 -0.000959 0.005296 0.003360
# 2 -0.001168 0.154171 -0.015488 -0.023635 0.004290 0.014723
# 3 -0.004026 -0.015488 0.010502 -0.001875 -0.001424 -0.002380
# 4 -0.000959 -0.023635 -0.001875 0.032774 -0.000627 0.001576
# 5 0.005296 0.004290 -0.001424 -0.000627 0.023237 0.008683
# 6 0.003360 0.014723 -0.002380 0.001576 0.008683 0.052518
#
#
# Mechanical properties :
#
#
# Convention : Reuss Voigt Hill
#
# Bulk Modulus (GPa) = 7.36354 47.92480 27.64417
# Shear Modulus (GPa) = 13.42890 34.34487 23.88688
#
# Velocity S-wave (km/s) = 2.56994 4.10992 3.42754
# Velocity P-wave (km/s) = 3.52529 6.78913 5.40925
#
# Compressibility (1/GPa) = 0.13580430
#
# Stress axis : x y z
#
# Youngs Moduli (GPa) = 80.02476 6.48630 95.22196
#
# Poissons Ratio (x) = 0.00758 0.38340
# Poissons Ratio (y) = 0.09347 1.47479
# Poissons Ratio (z) = 0.32221 0.10046
#
# Static dielectric constant tensor:
#      x y z
#    x 1.800200 -0.008780 0.003280 
#    y -0.008780 1.700190 -0.030810 
#    z 0.003280 -0.030810 1.808360 
# 
# From -- ./inp_files/149416.got.cif
#   From: 2010.05.17/outbox.cif.g08.bks.cpg/sg2_75_cif.got.tgz:149416.got - 2010.06.03 11:33:40.
