data_PCOD9077666
_publ_section_title
;
Structure prediction by ZEFSAII (Michael W. Deem and Ramdas Pophale) SiO2 
 PCOD9077666
Probable space group: P -1
;
_chemical_formula_sum "Si O2"
_cell_formula_units_Z 14
_cell_length_a 8.486269
_cell_length_b 21.153250
_cell_length_c 10.897311
_cell_angle_alpha 140.793399
_cell_angle_beta 39.597999
_cell_angle_gamma 112.801999
_cell_volume 673.225430
_symmetry_space_group_name_H-M "P -1"
_symmetry_group_IT_number 2
_symmetry_cell_setting 'triclinic'
loop_
_space_group_symop_operation_xyz
x,y,z
-x,-y,-z
loop_
_atom_site_type_symbol
_atom_site_label
_atom_site_fract_x
_atom_site_fract_y
_atom_site_fract_z
Si Si1 0.572963 0.414714 0.443540
Si Si2 0.848814 0.792047 0.318830
Si Si3 0.171749 0.693674 0.454041
Si Si4 0.283083 0.492447 0.269337
Si Si5 0.243783 0.986063 0.190433
Si Si6 0.829147 0.090435 0.130719
Si Si7 0.280428 0.265087 0.421539
O O1 0.500000 0.500000 0.500000
O O2 0.560907 0.480577 0.674275
O O3 0.361485 0.363881 0.504859
O O4 0.901491 0.306663 0.063011
O O5 0.518160 0.852708 0.561320
O O6 0.840710 0.735721 0.370839
O O7 0.914244 0.896370 0.459148
O O8 0.187189 0.592113 0.374855
O O9 0.113265 0.803986 0.734589
O O10 0.940814 0.726829 0.535352
O O11 0.489838 0.633118 0.112041
O O12 0.000000 0.500000 0.500000
O O13 0.084051 0.972563 0.148779
O O14 0.424290 0.860917 0.957949
O O15 0.500000 0.000000 0.000000
O O16 0.000000 0.000000 0.000000
#
# Coordination Sequence:
#
# PCOD9077666 Si02
#       7
#     2   2   2   2   2   2   2
#     4  12  25  39  60  87 117 157 200 237 284 347
#     4  10  21  39  62  87 118 154 192 241 290 340
#     4  11  22  38  61  85 117 156 190 240 296 339
#     4  11  24  40  58  85 118 153 197 242 288 344
#     4   8  17  35  59  85 113 147 191 235 286 345
#     4  10  18  34  62  89 116 151 190 237 295 349
#     4  10  21  39  61  85 116 152 196 240 287 346
#
# _framework density 20.795411000000001
#
# number of rings (size 3 to 8) (size 9 to 14) (size 15 to 20)
#    0.000    2.000    0.000    6.857    0.000    5.143 
#    0.000    1.429    0.000   13.714    0.000    0.000 
#    0.000    0.000    0.000    0.000    0.000    0.000 
#
# Total GULP energy -78214.700471 kJ/mol
# GULP energy per Si atom -5586.764319 kJ/mol
# Density = 2.074808 g / cm^3
# Si number density = 20.795411 Si / 1000 Ang^3
#
#
#
# Elastic Constant Matrix: (Units=GPa)
#
#
# Indices 1 2 3 4 5 6 
#
# 1 113.4591 23.6423 13.3240 17.2649 -14.6995 -1.9002
# 2 23.6423 56.8527 14.3522 7.1140 -5.5062 9.2543
# 3 13.3240 14.3522 46.4677 6.1918 2.8049 -4.2927
# 4 17.2649 7.1140 6.1918 37.2491 1.8530 -3.2148
# 5 -14.6995 -5.5062 2.8049 1.8530 30.6097 11.8979
# 6 -1.9002 9.2543 -4.2927 -3.2148 11.8979 38.0327
#
#
#
# Elastic Compliance Matrix: (Units=1/GPa)
#
#
# Indices 1 2 3 4 5 6 
#
# 1 0.011071 -0.002709 -0.002183 -0.004646 0.005792 -0.001239
# 2 -0.002709 0.023112 -0.007227 -0.003103 0.007245 -0.009104
# 3 -0.002183 -0.007227 0.025559 -0.000916 -0.007249 0.006724
# 4 -0.004646 -0.003103 -0.000916 0.030503 -0.006509 0.005034
# 5 0.005792 0.007245 -0.007249 -0.006509 0.044304 -0.016702
# 6 -0.001239 -0.009104 0.006724 0.005034 -0.016702 0.034856
#
#
# Mechanical properties :
#
#
# Convention : Reuss Voigt Hill
#
# Bulk Modulus (GPa) = 28.16449 35.49074 31.82761
# Shear Modulus (GPa) = 24.33360 32.20902 28.27131
#
# Velocity S-wave (km/s) = 3.42445 3.93982 3.69114
# Velocity P-wave (km/s) = 5.40451 6.14816 5.78829
#
# Compressibility (1/GPa) = 0.03550571
#
# Stress axis : x y z
#
# Youngs Moduli (GPa) = 90.32393 43.26754 39.12520
#
# Poissons Ratio (x) = 0.11721 0.08540
# Poissons Ratio (y) = 0.24468 0.28274
# Poissons Ratio (z) = 0.19716 0.31267
#
# Static dielectric constant tensor:
#      x y z
#    x 1.722900 0.003460 0.020420 
#    y 0.003460 1.744750 0.001330 
#    z 0.020420 0.001330 1.760260 
# 
# From -- ./inp_files/405544.got.cif
#   From: 2010.05.17/outbox.cif.g08.bks.cpg/sg2_203_cif.got.tgz:405544.got - 2010.06.03 11:33:40.
