data_PCOD9077003
_publ_section_title
;
Structure prediction by ZEFSAII (Michael W. Deem and Ramdas Pophale) SiO2 
 PCOD9077003
Probable space group: P -1
;
_chemical_formula_sum "Si O2"
_cell_formula_units_Z 15
_cell_length_a 10.971054
_cell_length_b 14.923611
_cell_length_c 6.817854
_cell_angle_alpha 69.839810
_cell_angle_beta 138.521274
_cell_angle_gamma 117.041340
_cell_volume 658.511154
_symmetry_space_group_name_H-M "P -1"
_symmetry_group_IT_number 2
_symmetry_cell_setting 'triclinic'
loop_
_space_group_symop_operation_xyz
x,y,z
-x,-y,-z
loop_
_atom_site_type_symbol
_atom_site_label
_atom_site_fract_x
_atom_site_fract_y
_atom_site_fract_z
Si Si1 0.118320 0.695785 0.477942
Si Si2 0.044403 0.725104 0.909038
Si Si3 0.500000 0.000000 0.500000
Si Si4 0.472598 0.803872 0.353274
Si Si5 0.209381 0.425841 0.573009
Si Si6 0.876772 0.897228 0.657308
Si Si7 0.534987 0.351024 0.219238
Si Si8 0.913518 0.096482 0.693531
O O1 0.336430 0.692802 0.737843
O O2 0.086090 0.794925 0.457516
O O3 0.970109 0.600399 0.473696
O O4 0.066279 0.702950 0.181185
O O5 0.883628 0.630964 0.692781
O O6 0.984246 0.826041 0.744983
O O7 0.258647 0.745271 0.062882
O O8 0.548420 0.104831 0.607851
O O9 0.706561 0.046695 0.589078
O O10 0.647439 0.850345 0.379439
O O11 0.531776 0.726409 0.624948
O O12 0.320649 0.543604 0.604550
O O13 0.361179 0.374704 0.882806
O O14 0.939712 0.017911 0.622456
O O15 0.922588 0.890243 0.951941
#
# Coordination Sequence:
#
# PCOD9077003 Si02
#       8
#     2   2   1   2   2   2   2   2
#     4  10  20  40  59  86 116 158 195 243 291 353
#     4  10  21  39  57  89 120 152 200 245 287 350
#     4  10  14  30  58  90 108 152 190 240 280 356
#     4  10  19  33  62  87 116 153 203 232 296 349
#     4  11  24  39  61  85 124 153 199 246 293 343
#     4   9  17  31  53  86 116 148 190 243 280 347
#     4  10  21  40  59  88 116 160 195 243 297 351
#     4   9  16  29  55  85 114 149 195 230 290 342
#
# _framework density 22.778658
#
# number of rings (size 3 to 8) (size 9 to 14) (size 15 to 20)
#    0.000    2.133    4.000    2.000    0.000    3.200 
#    0.000    6.667    0.000    2.400    0.000    0.000 
#    0.000    0.000    0.000    0.000    0.000    0.000 
#
# Total GULP energy -83567.572604 kJ/mol
# GULP energy per Si atom -5571.171507 kJ/mol
# Density = 2.272681 g / cm^3
# Si number density = 22.778658 Si / 1000 Ang^3
#
#
#
# Elastic Constant Matrix: (Units=GPa)
#
#
# Indices 1 2 3 4 5 6 
#
# 1 36.7977 2.4309 16.1478 2.1309 0.4072 -11.3351
# 2 2.4309 78.4740 8.6107 11.7298 -2.0324 -7.0252
# 3 16.1478 8.6107 33.1502 16.4951 2.4390 0.3613
# 4 2.1309 11.7298 16.4951 32.9288 2.5376 13.7331
# 5 0.4072 -2.0324 2.4390 2.5376 25.9337 -0.8421
# 6 -11.3351 -7.0252 0.3613 13.7331 -0.8421 32.2692
#
#
#
# Elastic Compliance Matrix: (Units=1/GPa)
#
#
# Indices 1 2 3 4 5 6 
#
# 1 0.040803 0.002306 -0.021203 0.000856 0.001930 0.014758
# 2 0.002306 0.014754 -0.001143 -0.008164 0.002272 0.007568
# 3 -0.021203 -0.001143 0.053997 -0.026281 -0.002172 0.002827
# 4 0.000856 -0.008164 -0.026281 0.057492 -0.004644 -0.025771
# 5 0.001930 0.002272 -0.002172 -0.004644 0.039503 0.004204
# 6 0.014758 0.007568 0.002827 -0.025771 0.004204 0.048867
#
#
# Mechanical properties :
#
#
# Convention : Reuss Voigt Hill
#
# Bulk Modulus (GPa) = 14.39402 22.53340 18.46371
# Shear Modulus (GPa) = 15.69103 26.30849 20.99976
#
# Velocity S-wave (km/s) = 2.62744 3.40216 3.03958
# Velocity P-wave (km/s) = 3.94175 5.03455 4.52129
#
# Compressibility (1/GPa) = 0.06947330
#
# Stress axis : x y z
#
# Youngs Moduli (GPa) = 24.50801 67.77966 18.51959
#
# Poissons Ratio (x) = -0.15629 0.39267
# Poissons Ratio (y) = -0.05651 0.02117
# Poissons Ratio (z) = 0.51964 0.07747
#
# Static dielectric constant tensor:
#      x y z
#    x 1.857800 -0.012130 -0.013440 
#    y -0.012130 1.837750 0.000430 
#    z -0.013440 0.000430 1.854020 
# 
# From -- ./inp_files/197600.got.cif
#   From: 2010.05.17/outbox.cif.g08.bks.cpg/sg2_99_cif.got.tgz:197600.got - 2010.06.03 11:33:40.
