data_PCOD9077252
_publ_section_title
;
Structure prediction by ZEFSAII (Michael W. Deem and Ramdas Pophale) SiO2 
 PCOD9077252
Probable space group: P -1
;
_chemical_formula_sum "Si O2"
_cell_formula_units_Z 16
_cell_length_a 11.799662
_cell_length_b 9.717535
_cell_length_c 7.077916
_cell_angle_alpha 95.494958
_cell_angle_beta 68.614583
_cell_angle_gamma 100.091462
_cell_volume 743.560350
_symmetry_space_group_name_H-M "P -1"
_symmetry_group_IT_number 2
_symmetry_cell_setting 'triclinic'
loop_
_space_group_symop_operation_xyz
x,y,z
-x,-y,-z
loop_
_atom_site_type_symbol
_atom_site_label
_atom_site_fract_x
_atom_site_fract_y
_atom_site_fract_z
Si Si1 0.487058 0.724713 0.309473
Si Si2 0.971439 0.837521 0.429948
Si Si3 0.247469 0.200464 0.726729
Si Si4 0.778356 0.095020 0.837183
Si Si5 0.530721 0.187078 0.113480
Si Si6 0.182188 0.228225 0.173560
Si Si7 0.584573 0.565091 0.784173
Si Si8 0.643283 0.035246 0.552634
O O1 0.620773 0.705539 0.303708
O O2 0.400062 0.576122 0.352399
O O3 0.433622 0.849730 0.463269
O O4 0.497574 0.785228 0.091433
O O5 0.840749 0.798218 0.398031
O O6 0.083723 0.822319 0.221295
O O7 0.941739 0.759397 0.635638
O O8 0.000000 0.000000 0.500000
O O9 0.294658 0.050465 0.652609
O O10 0.169968 0.231762 0.958173
O O11 0.748111 0.112795 0.636128
O O12 0.781747 0.929379 0.843777
O O13 0.669102 0.152268 0.023081
O O14 0.439105 0.065116 0.257195
O O15 0.497172 0.328330 0.245610
O O16 0.291608 0.342996 0.202038
O O17 0.500000 0.500000 0.000000
#
# Coordination Sequence:
#
# PCOD9077252 Si02
#       8
#     2   2   2   2   2   2   2   2
#     4  10  21  32  57  89 115 151 184 235 300 344
#     4  10  22  38  54  84 115 154 201 233 280 341
#     4  12  20  34  60  86 119 149 189 243 284 346
#     4  10  19  36  57  83 113 151 196 233 281 340
#     4  10  18  34  60  81 115 151 186 237 295 337
#     4  11  20  37  58  85 118 152 190 239 288 339
#     4  10  18  34  57  87 116 151 186 230 302 352
#     4  11  19  34  57  89 117 145 192 240 295 342
#
# _framework density 21.518091999999999
#
# number of rings (size 3 to 8) (size 9 to 14) (size 15 to 20)
#    0.000    1.500    6.250    2.625    0.000    2.000 
#    0.000    2.500    0.000    7.500    0.000    0.000 
#    0.000    1.250    0.000    0.000    0.000    0.000 
#
# Total GULP energy -89099.247387 kJ/mol
# GULP energy per Si atom -5568.702962 kJ/mol
# Density = 2.146912 g / cm^3
# Si number density = 21.518092 Si / 1000 Ang^3
#
#
#
# Elastic Constant Matrix: (Units=GPa)
#
#
# Indices 1 2 3 4 5 6 
#
# 1 54.8009 11.8201 22.8469 -7.3220 -0.9343 4.5214
# 2 11.8201 99.9741 31.4563 5.3399 -10.8127 3.9745
# 3 22.8469 31.4563 81.8039 2.0491 -2.3906 14.9665
# 4 -7.3220 5.3399 2.0491 21.7185 2.8211 -4.9103
# 5 -0.9343 -10.8127 -2.3906 2.8211 30.5734 -0.2950
# 6 4.5214 3.9745 14.9665 -4.9103 -0.2950 20.2988
#
#
#
# Elastic Compliance Matrix: (Units=1/GPa)
#
#
# Indices 1 2 3 4 5 6 
#
# 1 0.022186 -0.001314 -0.006345 0.009033 -0.001095 0.002163
# 2 -0.001314 0.012089 -0.004096 -0.003546 0.004244 0.000150
# 3 -0.006345 -0.004096 0.017990 -0.005658 0.000166 -0.012415
# 4 0.009033 -0.003546 -0.005658 0.054947 -0.006336 0.016054
# 5 -0.001095 0.004244 0.000166 -0.006336 0.034756 -0.001737
# 6 0.002163 0.000150 -0.012415 0.016054 -0.001737 0.061765
#
#
# Mechanical properties :
#
#
# Convention : Reuss Voigt Hill
#
# Bulk Modulus (GPa) = 34.77682 40.98061 37.87872
# Shear Modulus (GPa) = 21.11227 25.88183 23.49705
#
# Velocity S-wave (km/s) = 3.13571 3.47189 3.30808
# Velocity P-wave (km/s) = 5.41360 5.92943 5.67737
#
# Compressibility (1/GPa) = 0.02875479
#
# Stress axis : x y z
#
# Youngs Moduli (GPa) = 45.07277 82.71820 55.58737
#
# Poissons Ratio (x) = 0.10865 0.35272
# Poissons Ratio (y) = 0.05920 0.22771
# Poissons Ratio (z) = 0.28600 0.33885
#
# Static dielectric constant tensor:
#      x y z
#    x 1.891360 0.012810 0.007950 
#    y 0.012810 1.832710 0.009000 
#    z 0.007950 0.009000 1.915630 
# 
# From -- ./inp_files/254535.got.cif
#   From: 2010.05.17/outbox.cif.g08.bks.cpg/sg2_128_cif.got.tgz:254535.got - 2010.06.03 11:33:40.
