data_PCOD9077905
_publ_section_title
;
Structure prediction by ZEFSAII (Michael W. Deem and Ramdas Pophale) SiO2 
 PCOD9077905
Probable space group: P -1
;
_chemical_formula_sum "Si O2"
_cell_formula_units_Z 16
_cell_length_a 16.646994
_cell_length_b 27.144647
_cell_length_c 10.355619
_cell_angle_alpha 138.028600
_cell_angle_beta 32.580604
_cell_angle_gamma 160.526126
_cell_volume 805.505045
_symmetry_space_group_name_H-M "P -1"
_symmetry_group_IT_number 2
_symmetry_cell_setting 'triclinic'
loop_
_space_group_symop_operation_xyz
x,y,z
-x,-y,-z
loop_
_atom_site_type_symbol
_atom_site_label
_atom_site_fract_x
_atom_site_fract_y
_atom_site_fract_z
Si Si1 0.213568 0.111196 0.185571
Si Si2 0.384644 0.415722 0.623234
Si Si3 0.818860 0.078625 0.650525
Si Si4 0.471774 0.052481 0.944424
Si Si5 0.797461 0.289343 0.747405
Si Si6 0.375568 0.624051 0.658724
Si Si7 0.854125 0.813964 0.156484
Si Si8 0.302394 0.390110 0.177358
O O1 0.408276 0.220286 0.263465
O O2 0.048858 0.113328 0.360622
O O3 0.486244 0.181834 0.885492
O O4 0.945847 0.936699 0.237906
O O5 0.500000 0.500000 0.500000
O O6 0.573802 0.423198 0.407833
O O7 0.476188 0.506155 0.795700
O O8 0.032564 0.235324 0.731851
O O9 0.626668 0.039201 0.726300
O O10 0.609600 0.958443 0.819451
O O11 0.689629 0.201470 0.855493
O O12 0.144541 0.909203 0.032647
O O13 0.008259 0.454957 0.799337
O O14 0.012851 0.320909 0.450669
O O15 0.551738 0.683184 0.401725
O O16 0.809997 0.741166 0.953723
O O17 0.500000 0.500000 0.000000
#
# Coordination Sequence:
#
# PCOD9077905 Si02
#       8
#     2   2   2   2   2   2   2   2
#     4  10  21  33  56  88 126 154 199 251 307 361
#     4  10  19  34  61  89 116 154 203 251 302 346
#     4  10  19  36  56  85 127 161 193 251 306 362
#     4  10  20  34  57  88 119 156 207 241 304 355
#     4  10  21  33  57  88 113 157 205 255 296 347
#     4  10  18  35  55  87 118 153 200 249 302 352
#     4  11  20  36  61  86 119 165 197 245 305 365
#     4  11  20  38  60  88 125 156 205 255 301 361
#
# _framework density 19.863313999999999
#
# number of rings (size 3 to 8) (size 9 to 14) (size 15 to 20)
#    0.000    1.750    5.000    2.250    1.750    2.000 
#    0.000    0.000    0.000   12.000    0.000   12.250 
#    0.000    0.000    0.000    0.000    0.000    0.000 
#
# Total GULP energy -89086.135510 kJ/mol
# GULP energy per Si atom -5567.883469 kJ/mol
# Density = 1.981810 g / cm^3
# Si number density = 19.863314 Si / 1000 Ang^3
#
#
#
# Elastic Constant Matrix: (Units=GPa)
#
#
# Indices 1 2 3 4 5 6 
#
# 1 47.3464 26.0030 10.4986 2.2084 1.4438 -3.2804
# 2 26.0030 109.7314 29.9271 3.9946 8.9420 -12.7615
# 3 10.4986 29.9271 64.5288 -7.9880 0.3802 -17.7015
# 4 2.2084 3.9946 -7.9880 40.1704 2.7736 -0.0502
# 5 1.4438 8.9420 0.3802 2.7736 30.5097 0.0498
# 6 -3.2804 -12.7615 -17.7015 -0.0502 0.0498 12.0238
#
#
#
# Elastic Compliance Matrix: (Units=1/GPa)
#
#
# Indices 1 2 3 4 5 6 
#
# 1 0.024506 -0.005473 -0.002307 -0.001306 0.000596 -0.002528
# 2 -0.005473 0.012382 -0.003013 -0.001298 -0.003226 0.007221
# 3 -0.002307 -0.003013 0.028494 0.006139 0.000017 0.038147
# 4 -0.001306 -0.001298 0.006139 0.026467 -0.002053 0.007423
# 5 0.000596 -0.003226 0.000017 -0.002053 0.033886 -0.003386
# 6 -0.002528 0.007221 0.038147 0.007423 -0.003386 0.146349
#
#
# Mechanical properties :
#
#
# Convention : Reuss Voigt Hill
#
# Bulk Modulus (GPa) = 22.83340 39.38490 31.10915
# Shear Modulus (GPa) = 16.21969 26.88595 21.55282
#
# Velocity S-wave (km/s) = 2.86066 3.68305 3.29759
# Velocity P-wave (km/s) = 4.73618 6.16097 5.49495
#
# Compressibility (1/GPa) = 0.04379550
#
# Stress axis : x y z
#
# Youngs Moduli (GPa) = 40.80641 80.76487 35.09502
#
# Poissons Ratio (x) = 0.44201 0.08098
# Poissons Ratio (y) = 0.22333 0.10573
# Poissons Ratio (z) = 0.09416 0.24333
#
# Static dielectric constant tensor:
#      x y z
#    x 1.681100 0.015430 -0.001870 
#    y 0.015430 1.776390 0.012390 
#    z -0.001870 0.012390 1.806480 
# 
# From -- ./inp_files/467601.got.cif
#   From: 2010.05.17/outbox.cif.g08.bks.cpg/sg2_234_cif.got.tgz:467601.got - 2010.06.03 11:33:40.
