data_PCOD9077992
_publ_section_title
;
Structure prediction by ZEFSAII (Michael W. Deem and Ramdas Pophale) SiO2 
 PCOD9077992
Probable space group: P -1
;
_chemical_formula_sum "Si O2"
_cell_formula_units_Z 16
_cell_length_a 15.797101
_cell_length_b 11.502664
_cell_length_c 10.340852
_cell_angle_alpha 105.516985
_cell_angle_beta 145.648735
_cell_angle_gamma 97.602874
_cell_volume 776.737064
_symmetry_space_group_name_H-M "P -1"
_symmetry_group_IT_number 2
_symmetry_cell_setting 'triclinic'
loop_
_space_group_symop_operation_xyz
x,y,z
-x,-y,-z
loop_
_atom_site_type_symbol
_atom_site_label
_atom_site_fract_x
_atom_site_fract_y
_atom_site_fract_z
Si Si1 0.570205 0.659277 0.730966
Si Si2 0.883284 0.692396 0.697583
Si Si3 0.427733 0.514810 0.093130
Si Si4 0.366423 0.120416 0.897863
Si Si5 0.154797 0.337942 0.072074
Si Si6 0.741499 0.386538 0.275458
Si Si7 0.112129 0.788239 0.551836
Si Si8 0.894746 0.824669 0.510062
O O1 0.615210 0.560485 0.841914
O O2 0.337256 0.528804 0.370689
O O3 0.724385 0.722885 0.828343
O O4 0.611830 0.791615 0.916436
O O5 0.661192 0.628465 0.413465
O O6 0.952176 0.721417 0.941164
O O7 0.858505 0.548701 0.554993
O O8 0.985258 0.833806 0.764032
O O9 0.338598 0.591249 0.949034
O O10 0.317332 0.356487 0.819630
O O11 0.170123 0.072787 0.565844
O O12 0.317123 0.958817 0.823924
O O13 0.554864 0.247170 0.085529
O O14 0.007618 0.288379 0.755205
O O15 0.864795 0.330431 0.390689
O O16 0.012794 0.827769 0.541102
#
# Coordination Sequence:
#
# PCOD9077992 Si02
#       8
#     2   2   2   2   2   2   2   2
#     4   9  18  34  63  80 107 142 198 225 271 322
#     4  10  18  35  62  78 112 144 192 227 275 324
#     4   9  15  32  60  80  98 144 194 228 253 321
#     4  11  19  39  58  79 111 157 184 223 268 346
#     4  10  19  35  54  91 110 140 182 238 276 327
#     4  11  20  35  57  84 113 147 184 231 277 328
#     4  12  25  32  55  91 120 136 185 232 286 323
#     4  10  18  35  57  83 106 145 190 234 264 317
#
# _framework density 20.598991000000002
#
# number of rings (size 3 to 8) (size 9 to 14) (size 15 to 20)
#    0.000    1.750    7.500    1.500    0.000    2.500 
#    0.000    0.625    0.000    0.000    0.000    9.625 
#    0.000    0.000    0.000    0.000    0.000    0.000 
#
# Total GULP energy -89142.590393 kJ/mol
# GULP energy per Si atom -5571.411900 kJ/mol
# Density = 2.055211 g / cm^3
# Si number density = 20.598991 Si / 1000 Ang^3
#
#
#
# Elastic Constant Matrix: (Units=GPa)
#
#
# Indices 1 2 3 4 5 6 
#
# 1 59.2658 6.1551 2.5342 -1.0551 -7.4038 13.0695
# 2 6.1551 75.7651 3.2916 -3.2992 -11.2871 -2.8721
# 3 2.5342 3.2916 32.0105 7.8924 -11.8024 -0.1457
# 4 -1.0551 -3.2992 7.8924 16.2404 3.1068 2.0726
# 5 -7.4038 -11.2871 -11.8024 3.1068 20.8986 -7.1880
# 6 13.0695 -2.8721 -0.1457 2.0726 -7.1880 20.8113
#
#
#
# Elastic Compliance Matrix: (Units=1/GPa)
#
#
# Indices 1 2 3 4 5 6 
#
# 1 0.020183 -0.001975 -0.002776 0.004154 -0.000799 -0.013656
# 2 -0.001975 0.015324 0.004040 -0.002509 0.013028 0.008133
# 3 -0.002776 0.004040 0.059028 -0.040350 0.048625 0.023527
# 4 0.004154 -0.002509 -0.040350 0.093465 -0.046392 -0.028569
# 5 -0.000799 0.013028 0.048625 -0.046392 0.103787 0.043107
# 6 -0.013656 0.008133 0.023527 -0.028569 0.043107 0.075648
#
#
# Mechanical properties :
#
#
# Convention : Reuss Voigt Hill
#
# Bulk Modulus (GPa) = 10.73967 21.22255 15.98111
# Shear Modulus (GPa) = 12.50335 21.92743 17.21539
#
# Velocity S-wave (km/s) = 2.46639 3.26619 2.89405
# Velocity P-wave (km/s) = 3.65182 4.95470 4.35229
#
# Compressibility (1/GPa) = 0.09311271
#
# Stress axis : x y z
#
# Youngs Moduli (GPa) = 49.54764 65.25910 16.94116
#
# Poissons Ratio (x) = 0.12887 0.04702
# Poissons Ratio (y) = 0.09784 -0.06844
# Poissons Ratio (z) = 0.13752 -0.26363
#
# Static dielectric constant tensor:
#      x y z
#    x 1.829680 0.049550 0.018960 
#    y 0.049550 1.795880 -0.010350 
#    z 0.018960 -0.010350 1.787210 
# 
# From -- ./inp_files/464644.got.cif
#   From: 2010.05.17/outbox.cif.g08.bks.cpg/sg2_233_cif.got.tgz:464644.got - 2010.06.03 11:33:40.
