data_PCOD9077206
_publ_section_title
;
Structure prediction by ZEFSAII (Michael W. Deem and Ramdas Pophale) SiO2 
 PCOD9077206
Probable space group: P -1
;
_chemical_formula_sum "Si O2"
_cell_formula_units_Z 16
_cell_length_a 6.321551
_cell_length_b 9.033025
_cell_length_c 11.279481
_cell_angle_alpha 73.637827
_cell_angle_beta 68.523365
_cell_angle_gamma 92.348151
_cell_volume 567.553719
_symmetry_space_group_name_H-M "P -1"
_symmetry_group_IT_number 2
_symmetry_cell_setting 'triclinic'
loop_
_space_group_symop_operation_xyz
x,y,z
-x,-y,-z
loop_
_atom_site_type_symbol
_atom_site_label
_atom_site_fract_x
_atom_site_fract_y
_atom_site_fract_z
Si Si1 0.987888 0.336960 0.707764
Si Si2 0.560197 0.085125 0.843314
Si Si3 0.860061 0.629450 0.056043
Si Si4 0.670528 0.389679 0.439457
Si Si5 0.801631 0.904461 0.642029
Si Si6 0.673679 0.881479 0.422962
Si Si7 0.815658 0.111890 0.162171
Si Si8 0.486605 0.631564 0.796681
O O1 0.067820 0.339109 0.828730
O O2 0.075285 0.516873 0.610058
O O3 0.141395 0.233959 0.621288
O O4 0.721487 0.254737 0.778413
O O5 0.718994 0.994420 0.748546
O O6 0.309292 0.046655 0.839746
O O7 0.500000 0.000000 0.000000
O O8 0.599418 0.544524 0.102283
O O9 0.000000 0.500000 0.000000
O O10 0.937098 0.797485 0.942502
O O11 0.500000 0.500000 0.500000
O O12 0.570134 0.218807 0.550304
O O13 0.619598 0.385571 0.310644
O O14 0.622896 0.896145 0.568904
O O15 0.750234 0.718677 0.726674
O O16 0.000000 0.000000 0.500000
O O17 0.805285 0.047576 0.311164
O O18 0.653871 0.242456 0.142462
#
# Coordination Sequence:
#
# PCOD9077206 Si02
#       8
#     2   2   2   2   2   2   2   2
#     4  10  18  34  57  82 108 148 190 230 271 336
#     4  11  21  35  54  85 114 150 189 226 279 336
#     4   9  17  33  53  81 108 149 193 227 267 332
#     4   8  16  30  51  77 105 140 184 226 267 326
#     4  10  19  34  56  84 111 148 184 228 279 334
#     4  10  20  35  57  87 113 142 186 236 283 328
#     4  10  20  33  55  86 113 145 180 237 283 328
#     4   8  17  30  52  79 103 144 190 226 261 330
#
# _framework density 28.191165000000002
#
# number of rings (size 3 to 8) (size 9 to 14) (size 15 to 20)
#    0.000    2.500    2.500    0.000    0.000    5.000 
#    0.000    0.625    0.000    0.750    0.000    0.000 
#    0.000    0.000    0.000    0.000    0.000    0.000 
#
# Total GULP energy -89186.876123 kJ/mol
# GULP energy per Si atom -5574.179758 kJ/mol
# Density = 2.812700 g / cm^3
# Si number density = 28.191165 Si / 1000 Ang^3
#
#
#
# Elastic Constant Matrix: (Units=GPa)
#
#
# Indices 1 2 3 4 5 6 
#
# 1 45.1029 49.7138 21.9939 -3.8515 -21.4411 -12.0831
# 2 49.7138 176.0520 73.4178 -44.4594 -55.4990 32.9511
# 3 21.9939 73.4178 143.6324 -26.2682 -35.3961 17.4713
# 4 -3.8515 -44.4594 -26.2682 99.4075 27.0316 -33.7482
# 5 -21.4411 -55.4990 -35.3961 27.0316 36.6871 2.5845
# 6 -12.0831 32.9511 17.4713 -33.7482 2.5845 55.6669
#
#
#
# Elastic Compliance Matrix: (Units=1/GPa)
#
#
# Indices 1 2 3 4 5 6 
#
# 1 0.046222 -0.017129 -0.001476 0.002211 -0.003511 0.022138
# 2 -0.017129 0.022901 0.000195 -0.006627 0.031312 -0.022806
# 3 -0.001476 0.000195 0.010108 -0.002193 0.011185 -0.005457
# 4 0.002211 -0.006627 -0.002193 0.020319 -0.027135 0.018669
# 5 -0.003511 0.031312 0.011185 -0.027135 0.106471 -0.044201
# 6 0.022138 -0.022806 -0.005457 0.018669 -0.044201 0.051352
#
#
# Mechanical properties :
#
#
# Convention : Reuss Voigt Hill
#
# Bulk Modulus (GPa) = 23.57849 72.78203 48.18026
# Shear Modulus (GPa) = 16.21646 52.99643 34.60644
#
# Velocity S-wave (km/s) = 2.40100 4.34048 3.50746
# Velocity P-wave (km/s) = 4.00854 7.14094 5.79057
#
# Compressibility (1/GPa) = 0.04241153
#
# Stress axis : x y z
#
# Youngs Moduli (GPa) = 21.63483 43.66559 98.93621
#
# Poissons Ratio (x) = 0.74793 0.14606
# Poissons Ratio (y) = 0.37057 -0.01932
# Poissons Ratio (z) = 0.03194 -0.00853
#
# Static dielectric constant tensor:
#      x y z
#    x 2.481180 0.174760 0.031860 
#    y 0.174760 2.284700 -0.073620 
#    z 0.031860 -0.073620 2.295570 
# 
# From -- ./inp_files/389980.got.cif
#   From: 2010.05.17/outbox.cif.g08.bks.cpg/sg2_195_cif.got.tgz:389980.got - 2010.06.03 11:33:40.
