data_PCOD9077563
_publ_section_title
;
Structure prediction by ZEFSAII (Michael W. Deem and Ramdas Pophale) SiO2 
 PCOD9077563
Probable space group: P -1
;
_chemical_formula_sum "Si O2"
_cell_formula_units_Z 14
_cell_length_a 8.442770
_cell_length_b 10.655428
_cell_length_c 11.869257
_cell_angle_alpha 49.763266
_cell_angle_beta 85.930510
_cell_angle_gamma 51.666345
_cell_volume 533.761695
_symmetry_space_group_name_H-M "P -1"
_symmetry_group_IT_number 2
_symmetry_cell_setting 'triclinic'
loop_
_space_group_symop_operation_xyz
x,y,z
-x,-y,-z
loop_
_atom_site_type_symbol
_atom_site_label
_atom_site_fract_x
_atom_site_fract_y
_atom_site_fract_z
Si Si1 0.200163 0.773249 0.207467
Si Si2 0.532631 0.025539 0.677053
Si Si3 0.917764 0.414680 0.823533
Si Si4 0.637937 0.597684 0.952684
Si Si5 0.561308 0.110669 0.857069
Si Si6 0.897986 0.077963 0.260716
Si Si7 0.157417 0.163450 0.437428
O O1 0.179934 0.596049 0.278871
O O2 0.438822 0.698070 0.214157
O O3 0.111315 0.875068 0.279772
O O4 0.000000 0.000000 0.000000
O O5 0.669003 0.764325 0.881537
O O6 0.442041 0.193980 0.692089
O O7 0.702220 0.979674 0.603450
O O8 0.337542 0.091753 0.568449
O O9 0.704351 0.547537 0.845681
O O10 0.986008 0.553638 0.733925
O O11 0.149934 0.143272 0.019135
O O12 0.356542 0.770472 0.879660
O O13 0.821720 0.323475 0.155797
O O14 0.500000 0.000000 0.000000
O O15 0.939274 0.925262 0.451213
#
# Coordination Sequence:
#
# PCOD9077563 Si02
#       7
#     2   2   2   2   2   2   2
#     4  10  21  38  60  88 123 163 208 252 291 374
#     4   9  20  39  59  90 126 154 208 252 308 358
#     4  10  21  41  64  92 120 163 213 245 304 367
#     4   9  18  32  64  88 115 158 208 250 288 357
#     4  11  24  39  63  89 127 165 205 257 303 356
#     4  10  18  34  60  95 117 155 205 248 304 355
#     4   9  20  37  66  91 120 163 199 256 308 369
#
# _framework density 26.228932
#
# number of rings (size 3 to 8) (size 9 to 14) (size 15 to 20)
#    0.000    2.286    2.857    0.857    8.000    2.857 
#    0.000    1.429    0.000    0.000    0.000    0.000 
#    0.000    0.000    0.000    0.000    0.000    0.000 
#
# Total GULP energy -78091.237183 kJ/mol
# GULP energy per Si atom -5577.945513 kJ/mol
# Density = 2.616923 g / cm^3
# Si number density = 26.228932 Si / 1000 Ang^3
#
#
#
# Elastic Constant Matrix: (Units=GPa)
#
#
# Indices 1 2 3 4 5 6 
#
# 1 91.2713 17.3391 15.9134 25.2793 -11.8398 5.5234
# 2 17.3391 42.6626 2.0625 14.4625 -2.2182 5.2344
# 3 15.9134 2.0625 100.2116 8.9216 -19.9822 4.2058
# 4 25.2793 14.4625 8.9216 36.8611 2.6329 2.9976
# 5 -11.8398 -2.2182 -19.9822 2.6329 47.8443 0.2817
# 6 5.5234 5.2344 4.2058 2.9976 0.2817 23.7531
#
#
#
# Elastic Compliance Matrix: (Units=1/GPa)
#
#
# Indices 1 2 3 4 5 6 
#
# 1 0.014625 -0.002450 -0.000652 -0.009044 0.003741 -0.001649
# 2 -0.002450 0.028242 0.001193 -0.009433 0.001748 -0.004696
# 3 -0.000652 0.001193 0.011357 -0.002967 0.004811 -0.001805
# 4 -0.009044 -0.009433 -0.002967 0.038183 -0.006016 -0.000040
# 5 0.003741 0.001748 0.004811 -0.006016 0.024258 -0.001636
# 6 -0.001649 -0.004696 -0.001805 -0.000040 -0.001636 0.043862
#
#
# Mechanical properties :
#
#
# Convention : Reuss Voigt Hill
#
# Bulk Modulus (GPa) = 19.83808 33.86394 26.85101
# Shear Modulus (GPa) = 27.60179 34.94707 31.27443
#
# Velocity S-wave (km/s) = 3.24750 3.65415 3.45681
# Velocity P-wave (km/s) = 4.65205 5.54461 5.11782
#
# Compressibility (1/GPa) = 0.05040811
#
# Stress axis : x y z
#
# Youngs Moduli (GPa) = 68.37409 35.40777 88.05091
#
# Poissons Ratio (x) = 0.08674 0.05739
# Poissons Ratio (y) = 0.16751 -0.10506
# Poissons Ratio (z) = 0.04456 -0.04225
#
# Static dielectric constant tensor:
#      x y z
#    x 2.194470 0.095960 -0.079140 
#    y 0.095960 2.134050 -0.098120 
#    z -0.079140 -0.098120 2.081620 
# 
# From -- ./inp_files/377947.got.cif
#   From: 2010.05.17/outbox.cif.g08.bks.cpg/sg2_189_cif.got.tgz:377947.got - 2010.06.03 11:33:40.
