data_PCOD9077792
_publ_section_title
;
Structure prediction by ZEFSAII (Michael W. Deem and Ramdas Pophale) SiO2 
 PCOD9077792
Probable space group: P -1
;
_chemical_formula_sum "Si O2"
_cell_formula_units_Z 12
_cell_length_a 10.804510
_cell_length_b 9.694477
_cell_length_c 9.682696
_cell_angle_alpha 108.788226
_cell_angle_beta 117.427609
_cell_angle_gamma 40.782362
_cell_volume 587.376066
_symmetry_space_group_name_H-M "P -1"
_symmetry_group_IT_number 2
_symmetry_cell_setting 'triclinic'
loop_
_space_group_symop_operation_xyz
x,y,z
-x,-y,-z
loop_
_atom_site_type_symbol
_atom_site_label
_atom_site_fract_x
_atom_site_fract_y
_atom_site_fract_z
Si Si1 0.135933 0.161296 0.442084
Si Si2 0.919921 0.899127 0.915266
Si Si3 0.718985 0.609225 0.422596
Si Si4 0.509982 0.794608 0.661148
Si Si5 0.804064 0.556229 0.971792
Si Si6 0.488645 0.875381 0.136661
O O1 0.151830 0.080702 0.271886
O O2 0.211922 0.272313 0.504368
O O3 0.905222 0.358580 0.429937
O O4 0.269457 0.976462 0.566004
O O5 0.735903 0.014500 0.966378
O O6 0.095106 0.651999 0.961276
O O7 0.000000 0.000000 0.000000
O O8 0.600005 0.680134 0.524666
O O9 0.585392 0.699569 0.246592
O O10 0.649023 0.618084 0.793638
O O11 0.547634 0.937061 0.759216
O O12 0.653759 0.757849 0.062201
O O13 0.000000 0.500000 0.000000
#
# Coordination Sequence:
#
# PCOD9077792 Si02
#       6
#     2   2   2   2   2   2
#     4  10  19  36  59  92 119 166 212 255 309 369
#     4  12  25  43  64  92 134 176 211 249 314 398
#     4  10  18  34  66  92 124 158 215 270 304 367
#     4  11  21  34  65  98 123 155 209 282 317 351
#     4  12  25  40  63 101 131 160 212 272 321 363
#     4  11  21  39  64  96 128 167 212 259 318 379
#
# _framework density 20.429841
#
# number of rings (size 3 to 8) (size 9 to 14) (size 15 to 20)
#    0.000    1.000    6.667    1.500    4.667    0.667 
#    0.000    0.833    0.000    2.000    0.000    0.000 
#    0.000    0.000    0.000    0.000    0.000    0.000 
#
# Total GULP energy -66903.769300 kJ/mol
# GULP energy per Si atom -5575.314108 kJ/mol
# Density = 2.038334 g / cm^3
# Si number density = 20.429841 Si / 1000 Ang^3
#
#
#
# Elastic Constant Matrix: (Units=GPa)
#
#
# Indices 1 2 3 4 5 6 
#
# 1 41.8950 37.3883 4.0626 12.0792 -0.6571 -16.0287
# 2 37.3883 89.9010 27.2509 -11.9879 5.9808 -30.9615
# 3 4.0626 27.2509 80.0059 -25.3725 -11.5351 -7.9101
# 4 12.0792 -11.9879 -25.3725 40.9252 -8.8641 -3.9756
# 5 -0.6571 5.9808 -11.5351 -8.8641 20.0818 8.5253
# 6 -16.0287 -30.9615 -7.9101 -3.9756 8.5253 33.7654
#
#
#
# Elastic Compliance Matrix: (Units=1/GPa)
#
#
# Indices 1 2 3 4 5 6 
#
# 1 0.053241 -0.024108 -0.003248 -0.025717 -0.004516 0.000520
# 2 -0.024108 0.035590 -0.008531 0.009796 -0.023075 0.026171
# 3 -0.003248 -0.008531 0.025099 0.019489 0.029075 -0.008531
# 4 -0.025717 0.009796 0.019489 0.053723 0.031243 -0.000223
# 5 -0.004516 -0.023075 0.029075 0.031243 0.103550 -0.038957
# 6 0.000520 0.026171 -0.008531 -0.000223 -0.038957 0.061672
#
#
# Mechanical properties :
#
#
# Convention : Reuss Voigt Hill
#
# Bulk Modulus (GPa) = 23.72030 38.80063 31.26046
# Shear Modulus (GPa) = 11.94173 28.49450 20.21811
#
# Velocity S-wave (km/s) = 2.42032 3.73869 3.14926
# Velocity P-wave (km/s) = 4.40981 6.13762 5.34400
#
# Compressibility (1/GPa) = 0.04215799
#
# Stress axis : x y z
#
# Youngs Moduli (GPa) = 18.78246 28.09798 39.84252
#
# Poissons Ratio (x) = 0.67737 0.12939
# Poissons Ratio (y) = 0.45280 0.33988
# Poissons Ratio (z) = 0.06100 0.23969
#
# Static dielectric constant tensor:
#      x y z
#    x 1.730360 -0.025380 -0.011250 
#    y -0.025380 1.743160 -0.042290 
#    z -0.011250 -0.042290 1.762210 
# 
# From -- ./inp_files/156403.got.cif
#   From: 2010.05.17/outbox.cif.g08.bks.cpg/sg2_79_cif.got.tgz:156403.got - 2010.06.03 11:33:40.
