data_PCOD9077178
_publ_section_title
;
Structure prediction by ZEFSAII (Michael W. Deem and Ramdas Pophale) SiO2 
 PCOD9077178
Probable space group: P -1
;
_chemical_formula_sum "Si O2"
_cell_formula_units_Z 14
_cell_length_a 11.479147
_cell_length_b 24.285317
_cell_length_c 18.591818
_cell_angle_alpha 12.988318
_cell_angle_beta 147.659642
_cell_angle_gamma 148.788977
_cell_volume 600.677882
_symmetry_space_group_name_H-M "P -1"
_symmetry_group_IT_number 2
_symmetry_cell_setting 'triclinic'
loop_
_space_group_symop_operation_xyz
x,y,z
-x,-y,-z
loop_
_atom_site_type_symbol
_atom_site_label
_atom_site_fract_x
_atom_site_fract_y
_atom_site_fract_z
Si Si1 0.466357 0.058696 0.796201
Si Si2 0.437455 0.459782 0.384307
Si Si3 0.625249 0.275475 0.355304
Si Si4 0.721228 0.211685 0.240777
Si Si5 0.753620 0.972926 0.936751
Si Si6 0.112080 0.578920 0.172189
Si Si7 0.117898 0.277437 0.259762
O O1 0.479716 0.218235 0.673270
O O2 0.341965 0.198917 0.495200
O O3 0.701294 0.053784 0.886901
O O4 0.296796 0.774107 0.069654
O O5 0.242690 0.420938 0.391895
O O6 0.363930 0.619557 0.077886
O O7 0.640488 0.672427 0.254062
O O8 0.888073 0.400609 0.316358
O O9 0.471497 0.045524 0.519624
O O10 0.634023 0.131384 0.618802
O O11 0.500000 0.500000 0.000000
O O12 0.944487 0.171768 0.369435
O O13 0.804463 0.411543 0.093022
O O14 0.000000 0.000000 0.000000
O O15 0.017461 0.763164 0.833665
#
# Coordination Sequence:
#
# PCOD9077178 Si02
#       7
#     2   2   2   2   2   2   2
#     4  10  18  34  57  77 106 150 192 221 264 334
#     4   8  18  36  56  79 106 147 190 223 267 328
#     4  11  21  34  54  86 119 143 176 231 288 322
#     4   8  16  29  49  77 111 146 183 221 266 325
#     4  10  22  40  60  81 108 146 189 227 268 328
#     4  10  19  30  51  81 114 144 179 230 278 323
#     4   9  15  29  51  75 107 150 187 217 262 328
#
# _framework density 23.307001
#
# number of rings (size 3 to 8) (size 9 to 14) (size 15 to 20)
#    0.000    2.571    0.000    3.857    0.000    1.143 
#    0.000    8.571    0.000    1.714    0.000    0.000 
#    0.000    0.000    0.000    0.000    0.000    0.000 
#
# Total GULP energy -78121.141046 kJ/mol
# GULP energy per Si atom -5580.081503 kJ/mol
# Density = 2.325395 g / cm^3
# Si number density = 23.307001 Si / 1000 Ang^3
#
#
#
# Elastic Constant Matrix: (Units=GPa)
#
#
# Indices 1 2 3 4 5 6 
#
# 1 107.5401 54.1177 78.5696 -19.6343 34.5716 25.4586
# 2 54.1177 84.6770 40.6618 -23.2599 23.4938 34.3064
# 3 78.5696 40.6618 131.1131 -0.4585 12.2414 6.6320
# 4 -19.6343 -23.2599 -0.4585 42.8790 -8.2844 -4.8195
# 5 34.5716 23.4938 12.2414 -8.2844 47.1802 2.4788
# 6 25.4586 34.3064 6.6320 -4.8195 2.4788 47.7968
#
#
#
# Elastic Compliance Matrix: (Units=1/GPa)
#
#
# Indices 1 2 3 4 5 6 
#
# 1 0.031530 0.000464 -0.016802 0.009855 -0.016565 -0.012943
# 2 0.000464 0.027774 -0.007086 0.011412 -0.009406 -0.017561
# 3 -0.016802 -0.007086 0.018508 -0.008456 0.009020 0.010147
# 4 0.009855 0.011412 -0.008456 0.032053 -0.004619 -0.008795
# 5 -0.016565 -0.009406 0.009020 -0.004619 0.034231 0.012082
# 6 -0.012943 -0.017561 0.010147 -0.008795 0.012082 0.037499
#
#
# Mechanical properties :
#
#
# Convention : Reuss Voigt Hill
#
# Bulk Modulus (GPa) = 32.29430 74.44761 53.37096
# Shear Modulus (GPa) = 20.94116 37.56993 29.25555
#
# Velocity S-wave (km/s) = 3.00074 4.01928 3.54676
# Velocity P-wave (km/s) = 5.08842 7.31785 6.30250
#
# Compressibility (1/GPa) = 0.03096521
#
# Stress axis : x y z
#
# Youngs Moduli (GPa) = 31.71618 36.00427 54.02982
#
# Poissons Ratio (x) = -0.01672 0.90783
# Poissons Ratio (y) = -0.01473 0.38283
# Poissons Ratio (z) = 0.53291 0.25511
#
# Static dielectric constant tensor:
#      x y z
#    x 1.877920 -0.029580 0.011720 
#    y -0.029580 1.931270 0.029660 
#    z 0.011720 0.029660 1.983930 
# 
# From -- ./inp_files/273551.got.cif
#   From: 2010.05.17/outbox.cif.g08.bks.cpg/sg2_137_cif.got.tgz:273551.got - 2010.06.03 11:33:40.
