data_PCOD9077477
_publ_section_title
;
Structure prediction by ZEFSAII (Michael W. Deem and Ramdas Pophale) SiO2 
 PCOD9077477
Probable space group: P -1
;
_chemical_formula_sum "Si O2"
_cell_formula_units_Z 16
_cell_length_a 15.392935
_cell_length_b 13.485800
_cell_length_c 8.851083
_cell_angle_alpha 138.425944
_cell_angle_beta 49.896553
_cell_angle_gamma 141.624852
_cell_volume 749.461857
_symmetry_space_group_name_H-M "P -1"
_symmetry_group_IT_number 2
_symmetry_cell_setting 'triclinic'
loop_
_space_group_symop_operation_xyz
x,y,z
-x,-y,-z
loop_
_atom_site_type_symbol
_atom_site_label
_atom_site_fract_x
_atom_site_fract_y
_atom_site_fract_z
Si Si1 0.118229 0.763699 0.509641
Si Si2 0.173002 0.459180 0.586760
Si Si3 0.199181 0.562782 0.002712
Si Si4 0.173060 0.150500 0.890590
Si Si5 0.387370 0.442879 0.195042
Si Si6 0.632921 0.585743 0.292229
Si Si7 0.845283 0.877190 0.612898
Si Si8 0.046091 0.795651 0.937259
O O1 0.215365 0.724674 0.265923
O O2 0.113397 0.744251 0.674497
O O3 0.961061 0.614586 0.450601
O O4 0.159271 0.966446 0.659226
O O5 0.313261 0.545963 0.426060
O O6 0.153137 0.279211 0.479004
O O7 0.175424 0.566694 0.854355
O O8 0.068052 0.373906 0.018828
O O9 0.331020 0.553334 0.855544
O O10 0.276241 0.311144 0.840537
O O11 0.254492 0.238666 0.057102
O O12 0.032114 0.136615 0.000950
O O13 0.472789 0.478776 0.295094
O O14 0.500000 0.500000 0.000000
O O15 0.711426 0.758285 0.516792
O O16 0.000000 0.000000 0.500000
O O17 0.845718 0.029096 0.880888
#
# Coordination Sequence:
#
# PCOD9077477 Si02
#       8
#     2   2   2   2   2   2   2   2
#     4  12  21  34  57  90 117 144 187 233 293 339
#     4  11  20  35  59  85 115 151 190 236 280 336
#     4  10  23  35  52  86 123 150 174 230 296 352
#     4  10  18  34  60  84 109 146 192 242 272 328
#     4  10  21  37  59  86 107 151 202 238 270 321
#     4   9  20  37  58  78 117 149 187 233 279 333
#     4  11  17  32  58  85 114 139 183 244 285 324
#     4  11  19  34  54  84 118 146 180 230 285 336
#
# _framework density 21.348652999999999
#
# number of rings (size 3 to 8) (size 9 to 14) (size 15 to 20)
#    0.000    1.500    6.250    1.875    0.000    2.000 
#    0.000    0.625    0.000    3.000    0.000    0.000 
#    0.000    0.000    0.000    0.000    0.000    0.000 
#
# Total GULP energy -89166.952666 kJ/mol
# GULP energy per Si atom -5572.934542 kJ/mol
# Density = 2.130006 g / cm^3
# Si number density = 21.348653 Si / 1000 Ang^3
#
#
#
# Elastic Constant Matrix: (Units=GPa)
#
#
# Indices 1 2 3 4 5 6 
#
# 1 78.0802 12.7799 37.1433 20.0658 19.8080 36.4167
# 2 12.7799 30.7395 25.6063 -7.4861 4.6250 10.0696
# 3 37.1433 25.6063 156.4318 5.0517 22.1944 20.2705
# 4 20.0658 -7.4861 5.0517 37.9511 0.1180 7.5076
# 5 19.8080 4.6250 22.1944 0.1180 33.6956 8.2289
# 6 36.4167 10.0696 20.2705 7.5076 8.2289 33.7682
#
#
#
# Elastic Compliance Matrix: (Units=1/GPa)
#
#
# Indices 1 2 3 4 5 6 
#
# 1 0.033761 -0.004936 -0.001521 -0.012965 -0.011182 -0.028417
# 2 -0.004936 0.045318 -0.005988 0.013988 0.002614 -0.008344
# 3 -0.001521 -0.005988 0.008351 -0.001403 -0.003688 -0.000377
# 4 -0.012965 0.013988 -0.001403 0.035903 0.006218 0.001156
# 5 -0.011182 0.002614 -0.003688 0.006218 0.037578 0.002954
# 6 -0.028417 -0.008344 -0.000377 0.001156 0.002954 0.061996
#
#
# Mechanical properties :
#
#
# Convention : Reuss Voigt Hill
#
# Bulk Modulus (GPa) = 15.98934 46.25674 31.12304
# Shear Modulus (GPa) = 18.61211 33.73111 26.17161
#
# Velocity S-wave (km/s) = 2.95586 3.97925 3.50510
# Velocity P-wave (km/s) = 4.37668 6.54422 5.56697
#
# Compressibility (1/GPa) = 0.06254167
#
# Stress axis : x y z
#
# Youngs Moduli (GPa) = 29.62003 22.06648 119.74421
#
# Poissons Ratio (x) = 0.10891 0.18212
# Poissons Ratio (y) = 0.14619 0.71697
# Poissons Ratio (z) = 0.04505 0.13212
#
# Static dielectric constant tensor:
#      x y z
#    x 1.719660 0.160320 -0.171800 
#    y 0.160320 1.539850 0.289220 
#    z -0.171800 0.289220 1.443470 
# 
# From -- ./inp_files/218058.got.cif
#   From: 2010.05.17/outbox.cif.g08.bks.cpg/sg2_110_cif.got.tgz:218058.got - 2010.06.03 11:33:40.
