data_PCOD9077247
_publ_section_title
;
Structure prediction by ZEFSAII (Michael W. Deem and Ramdas Pophale) SiO2 
 PCOD9077247
Probable space group: P -1
;
_chemical_formula_sum "Si O2"
_cell_formula_units_Z 14
_cell_length_a 7.841304
_cell_length_b 7.983046
_cell_length_c 21.714178
_cell_angle_alpha 131.159471
_cell_angle_beta 31.928313
_cell_angle_gamma 127.293487
_cell_volume 537.374920
_symmetry_space_group_name_H-M "P -1"
_symmetry_group_IT_number 2
_symmetry_cell_setting 'triclinic'
loop_
_space_group_symop_operation_xyz
x,y,z
-x,-y,-z
loop_
_atom_site_type_symbol
_atom_site_label
_atom_site_fract_x
_atom_site_fract_y
_atom_site_fract_z
Si Si1 0.684657 0.122502 0.750974
Si Si2 0.688245 0.333871 0.539423
Si Si3 0.801192 0.572249 0.381444
Si Si4 0.833792 0.937312 0.305380
Si Si5 0.671149 0.482854 0.008010
Si Si6 0.728511 0.806441 0.847403
Si Si7 0.751231 0.192348 0.120645
O O1 0.439658 0.310676 0.867680
O O2 0.974925 0.185392 0.628308
O O3 0.474124 0.883471 0.769048
O O4 0.887716 0.157390 0.761661
O O5 0.389753 0.442912 0.627991
O O6 0.778377 0.156841 0.417093
O O7 0.000000 0.500000 0.500000
O O8 0.516452 0.205130 0.619239
O O9 0.500000 0.500000 0.500000
O O10 0.058995 0.399830 0.268988
O O11 0.978934 0.995346 0.207824
O O12 0.508793 0.256765 0.037039
O O13 0.500000 0.500000 0.000000
O O14 0.043105 0.566493 0.896627
O O15 0.490869 0.821414 0.866312
O O16 0.000000 0.000000 0.000000
#
# Coordination Sequence:
#
# PCOD9077247 Si02
#       7
#     2   2   2   2   2   2   2
#     4   8  18  35  55  80 114 155 196 232 306 361
#     4  10  20  36  60  86 119 165 208 244 295 353
#     4  10  18  34  57  86 120 157 196 248 297 362
#     4   9  18  37  59  81 122 162 196 247 300 356
#     4  10  20  36  59  89 117 148 199 267 305 353
#     4  10  19  36  60  85 117 164 200 238 312 368
#     4   9  18  37  59  79 109 158 202 240 303 372
#
# _framework density 26.052574
#
# number of rings (size 3 to 8) (size 9 to 14) (size 15 to 20)
#    0.000    2.571    1.429    0.429    0.000    0.000 
#   15.429    8.571    3.143    0.000    0.000    0.000 
#    0.000    0.000    0.000    0.000    0.000    0.000 
#
# Total GULP energy -77995.274227 kJ/mol
# GULP energy per Si atom -5571.091016 kJ/mol
# Density = 2.599328 g / cm^3
# Si number density = 26.052574 Si / 1000 Ang^3
#
#
#
# Elastic Constant Matrix: (Units=GPa)
#
#
# Indices 1 2 3 4 5 6 
#
# 1 53.5631 29.2688 33.0163 -6.7138 -19.0614 -8.8293
# 2 29.2688 171.2930 105.0292 -93.6151 18.4177 -1.4573
# 3 33.0163 105.0292 153.7357 -38.0304 -2.1945 -10.8586
# 4 -6.7138 -93.6151 -38.0304 91.9899 -19.5925 2.2976
# 5 -19.0614 18.4177 -2.1945 -19.5925 37.7681 -9.3178
# 6 -8.8293 -1.4573 -10.8586 2.2976 -9.3178 41.0231
#
#
#
# Elastic Compliance Matrix: (Units=1/GPa)
#
#
# Indices 1 2 3 4 5 6 
#
# 1 0.034159 -0.009539 -0.000246 -0.002600 0.023601 0.012454
# 2 -0.009539 0.026130 -0.011781 0.019033 -0.010252 -0.007638
# 3 -0.000246 -0.011781 0.013634 -0.005486 0.004679 0.004507
# 4 -0.002600 0.019033 -0.005486 0.028552 0.003364 -0.002171
# 5 0.023601 -0.010252 0.004679 0.003364 0.049607 0.017033
# 6 0.012454 -0.007638 0.004507 -0.002171 0.017033 0.031969
#
#
# Mechanical properties :
#
#
# Convention : Reuss Voigt Hill
#
# Bulk Modulus (GPa) = 32.47542 79.24673 55.86107
# Shear Modulus (GPa) = 21.05727 48.24139 34.64933
#
# Velocity S-wave (km/s) = 2.84608 4.30780 3.65084
# Velocity P-wave (km/s) = 4.82624 7.43148 6.26576
#
# Compressibility (1/GPa) = 0.03079252
#
# Stress axis : x y z
#
# Youngs Moduli (GPa) = 29.27447 38.26966 73.34664
#
# Poissons Ratio (x) = 0.36504 0.01806
# Poissons Ratio (y) = 0.27924 0.86408
# Poissons Ratio (z) = 0.00721 0.45085
#
# Static dielectric constant tensor:
#      x y z
#    x 1.935100 -0.131050 -0.087390 
#    y -0.131050 2.154600 -0.174460 
#    z -0.087390 -0.174460 1.849360 
# 
# From -- ./inp_files/616678.got.cif
#   From: 2010.05.17/outbox.cif.g08.bks.cpg/sg2_309_cif.got.tgz:616678.got - 2010.06.03 11:33:40.
