data_PCOD9077080
_publ_section_title
;
Structure prediction by ZEFSAII (Michael W. Deem and Ramdas Pophale) SiO2 
 PCOD9077080
Probable space group: P -1
;
_chemical_formula_sum "Si O2"
_cell_formula_units_Z 16
_cell_length_a 7.719280
_cell_length_b 21.370716
_cell_length_c 8.696100
_cell_angle_alpha 154.149751
_cell_angle_beta 91.324264
_cell_angle_gamma 85.841937
_cell_volume 620.917395
_symmetry_space_group_name_H-M "P -1"
_symmetry_group_IT_number 2
_symmetry_cell_setting 'triclinic'
loop_
_space_group_symop_operation_xyz
x,y,z
-x,-y,-z
loop_
_atom_site_type_symbol
_atom_site_label
_atom_site_fract_x
_atom_site_fract_y
_atom_site_fract_z
Si Si1 0.211910 0.193760 0.703740
Si Si2 0.431233 0.304689 0.388816
Si Si3 0.691506 0.533125 0.518809
Si Si4 0.003411 0.202826 0.295053
Si Si5 0.207828 0.668236 0.671183
Si Si6 0.734773 0.613643 0.158331
Si Si7 0.469518 0.989911 0.790649
Si Si8 0.149429 0.873635 0.577768
O O1 0.268356 0.271390 0.722594
O O2 0.348335 0.050758 0.384814
O O3 0.012133 0.166865 0.616640
O O4 0.252105 0.311111 0.088556
O O5 0.319138 0.442312 0.608341
O O6 0.603529 0.280979 0.235930
O O7 0.438909 0.357712 0.681535
O O8 0.385229 0.142177 0.053205
O O9 0.500000 0.500000 0.500000
O O10 0.813687 0.407904 0.333932
O O11 0.934508 0.213662 0.143605
O O12 0.857517 0.206433 0.435374
O O13 0.114898 0.334575 0.616789
O O14 0.107885 0.046496 0.986312
O O15 0.220800 0.537548 0.257515
O O16 0.340410 0.866179 0.491539
O O17 0.500000 0.000000 0.000000
#
# Coordination Sequence:
#
# PCOD9077080 Si02
#       8
#     2   2   2   2   2   2   2   2
#     4  10  21  38  63  88 118 160 193 239 305 351
#     4  11  20  36  57  83 117 150 195 247 291 342
#     4   9  22  42  60  79 121 159 195 244 295 352
#     4  10  18  34  55  85 120 151 182 242 310 339
#     4  10  20  34  59  82 110 159 196 234 301 351
#     4  10  19  34  56  87 117 143 197 249 285 347
#     4  12  20  35  63  95 121 151 197 248 298 350
#     4  10  20  35  57  93 126 145 191 255 292 350
#
# _framework density 25.768321
#
# number of rings (size 3 to 8) (size 9 to 14) (size 15 to 20)
#    0.000    1.750    2.500    3.750    0.000    0.500 
#    0.000    1.250    5.500    0.000    0.000    0.000 
#    0.000    0.000    0.000    0.000    0.000    0.000 
#
# Total GULP energy -89285.262473 kJ/mol
# GULP energy per Si atom -5580.328905 kJ/mol
# Density = 2.570967 g / cm^3
# Si number density = 25.768321 Si / 1000 Ang^3
#
#
#
# Elastic Constant Matrix: (Units=GPa)
#
#
# Indices 1 2 3 4 5 6 
#
# 1 88.6747 32.1408 26.4654 6.7992 17.4258 2.8151
# 2 32.1408 114.5901 4.1511 37.5448 3.3188 -2.5494
# 3 26.4654 4.1511 63.0957 8.2661 12.8529 14.2017
# 4 6.7992 37.5448 8.2661 27.6663 2.7197 4.1548
# 5 17.4258 3.3188 12.8529 2.7197 37.6605 8.5068
# 6 2.8151 -2.5494 14.2017 4.1548 8.5068 31.0339
#
#
#
# Elastic Compliance Matrix: (Units=1/GPa)
#
#
# Indices 1 2 3 4 5 6 
#
# 1 0.015981 -0.006298 -0.006417 0.006843 -0.005496 0.001560
# 2 -0.006298 0.018865 0.003771 -0.025817 0.001022 0.003572
# 3 -0.006417 0.003771 0.021535 -0.008661 -0.002478 -0.007124
# 4 0.006843 -0.025817 -0.008661 0.073459 -0.001380 -0.008235
# 5 -0.005496 0.001022 -0.002478 -0.001380 0.031470 -0.006725
# 6 0.001560 0.003572 -0.007124 -0.008235 -0.006725 0.038581
#
#
# Mechanical properties :
#
#
# Convention : Reuss Voigt Hill
#
# Bulk Modulus (GPa) = 25.97855 43.54167 34.76011
# Shear Modulus (GPa) = 21.68152 32.84570 27.26361
#
# Velocity S-wave (km/s) = 2.90384 3.57410 3.25626
# Velocity P-wave (km/s) = 4.62023 5.82806 5.25894
#
# Compressibility (1/GPa) = 0.03849329
#
# Stress axis : x y z
#
# Youngs Moduli (GPa) = 62.57472 53.00729 46.43519
#
# Poissons Ratio (x) = 0.33384 0.29796
# Poissons Ratio (y) = 0.39409 -0.17509
# Poissons Ratio (z) = 0.40153 -0.19987
#
# Static dielectric constant tensor:
#      x y z
#    x 2.198920 -0.048750 -0.026260 
#    y -0.048750 2.019780 -0.030670 
#    z -0.026260 -0.030670 2.077040 
# 
# From -- ./inp_files/184160.got.cif
#   From: 2010.05.17/outbox.cif.g08.bks.cpg/sg2_93_cif.got.tgz:184160.got - 2010.06.03 11:33:40.
