data_PCOD9077814
_publ_section_title
;
Structure prediction by ZEFSAII (Michael W. Deem and Ramdas Pophale) SiO2 
 PCOD9077814
Probable space group: P -1
;
_chemical_formula_sum "Si O2"
_cell_formula_units_Z 16
_cell_length_a 10.340695
_cell_length_b 8.088597
_cell_length_c 12.159255
_cell_angle_alpha 81.938412
_cell_angle_beta 125.070873
_cell_angle_gamma 118.877668
_cell_volume 715.377384
_symmetry_space_group_name_H-M "P -1"
_symmetry_group_IT_number 2
_symmetry_cell_setting 'triclinic'
loop_
_space_group_symop_operation_xyz
x,y,z
-x,-y,-z
loop_
_atom_site_type_symbol
_atom_site_label
_atom_site_fract_x
_atom_site_fract_y
_atom_site_fract_z
Si Si1 0.006547 0.754751 0.529732
Si Si2 0.508330 0.733733 0.781097
Si Si3 0.817250 0.726140 0.047074
Si Si4 0.706841 0.725205 0.240644
Si Si5 0.753538 0.308549 0.515974
Si Si6 0.139642 0.671999 0.187743
Si Si7 0.658850 0.058735 0.173921
Si Si8 0.759218 0.325482 0.001607
O O1 0.858671 0.802853 0.403399
O O2 0.884648 0.531949 0.527012
O O3 0.144966 0.784636 0.493789
O O4 0.135858 0.851971 0.686809
O O5 0.713682 0.795931 0.908015
O O6 0.398220 0.504939 0.775073
O O7 0.444347 0.756497 0.626386
O O8 0.431633 0.840365 0.810532
O O9 0.023857 0.783332 0.117174
O O10 0.793246 0.769086 0.156894
O O11 0.719951 0.492583 0.009807
O O12 0.590799 0.834121 0.178228
O O13 0.759482 0.286415 0.650969
O O14 0.981062 0.447095 0.121974
O O15 0.256759 0.711805 0.132485
O O16 0.678113 0.135691 0.052777
#
# Coordination Sequence:
#
# PCOD9077814 Si02
#       8
#     2   2   2   2   2   2   2   2
#     4   9  15  29  48  76 107 128 168 213 247 309
#     4  10  21  34  51  79 112 130 163 213 256 314
#     4  10  18  35  51  74 107 138 165 210 257 299
#     4  11  20  30  52  78 109 137 164 204 261 312
#     4   9  15  29  55  74  96 141 166 203 263 296
#     4   9  16  33  59  72  97 140 175 210 252 290
#     4  11  20  32  51  83 104 135 169 207 260 302
#     4   9  18  32  55  72 102 134 175 215 245 292
#
# _framework density 22.365818000000001
#
# number of rings (size 3 to 8) (size 9 to 14) (size 15 to 20)
#    0.750    1.500    3.750    1.500    0.000    0.500 
#    0.000    1.250    0.000    0.000    0.000    0.875 
#    0.000    0.000    0.000    0.000    0.000    0.000 
#
# Total GULP energy -89260.216015 kJ/mol
# GULP energy per Si atom -5578.763501 kJ/mol
# Density = 2.231491 g / cm^3
# Si number density = 22.365818 Si / 1000 Ang^3
#
#
#
# Elastic Constant Matrix: (Units=GPa)
#
#
# Indices 1 2 3 4 5 6 
#
# 1 68.3218 32.4668 44.6273 -17.2873 -9.4153 -13.6524
# 2 32.4668 96.2791 28.2978 -20.1338 4.0977 -14.1320
# 3 44.6273 28.2978 180.8165 -18.3329 -2.9946 -14.7126
# 4 -17.2873 -20.1338 -18.3329 23.5193 -8.1499 10.4067
# 5 -9.4153 4.0977 -2.9946 -8.1499 34.5972 -6.4228
# 6 -13.6524 -14.1320 -14.7126 10.4067 -6.4228 29.3521
#
#
#
# Elastic Compliance Matrix: (Units=1/GPa)
#
#
# Indices 1 2 3 4 5 6 
#
# 1 0.024990 -0.004256 -0.003507 0.013434 0.011187 0.005502
# 2 -0.004256 0.013724 -0.000215 0.007437 -0.000730 0.001724
# 3 -0.003507 -0.000215 0.006734 0.002191 0.000345 0.000939
# 4 0.013434 0.007437 0.002191 0.071258 0.017813 -0.010439
# 5 0.011187 -0.000730 0.000345 0.017813 0.037546 0.006925
# 6 0.005502 0.001724 0.000939 -0.010439 0.006925 0.043145
#
#
# Mechanical properties :
#
#
# Convention : Reuss Voigt Hill
#
# Bulk Modulus (GPa) = 33.90690 61.80012 47.85351
# Shear Modulus (GPa) = 22.40308 33.49543 27.94926
#
# Velocity S-wave (km/s) = 3.16834 3.87410 3.53886
# Velocity P-wave (km/s) = 5.34580 6.90674 6.17579
#
# Compressibility (1/GPa) = 0.02949252
#
# Stress axis : x y z
#
# Youngs Moduli (GPa) = 40.01663 72.86445 148.50198
#
# Poissons Ratio (x) = 0.31008 0.52075
# Poissons Ratio (y) = 0.17029 0.03198
# Poissons Ratio (z) = 0.14033 0.01569
#
# Static dielectric constant tensor:
#      x y z
#    x 1.826750 0.041350 0.087690 
#    y 0.041350 1.874950 0.053570 
#    z 0.087690 0.053570 1.844550 
# 
# From -- ./inp_files/344606.got.cif
#   From: 2010.05.17/outbox.cif.g08.bks.cpg/sg2_173_cif.got.tgz:344606.got - 2010.06.03 11:33:40.
