data_PCOD9077711
_publ_section_title
;
Structure prediction by ZEFSAII (Michael W. Deem and Ramdas Pophale) SiO2 
 PCOD9077711
Probable space group: P -1
;
_chemical_formula_sum "Si O2"
_cell_formula_units_Z 16
_cell_length_a 11.108645
_cell_length_b 16.857706
_cell_length_c 9.968943
_cell_angle_alpha 102.204573
_cell_angle_beta 111.016114
_cell_angle_gamma 133.623753
_cell_volume 926.096416
_symmetry_space_group_name_H-M "P -1"
_symmetry_group_IT_number 2
_symmetry_cell_setting 'triclinic'
loop_
_space_group_symop_operation_xyz
x,y,z
-x,-y,-z
loop_
_atom_site_type_symbol
_atom_site_label
_atom_site_fract_x
_atom_site_fract_y
_atom_site_fract_z
Si Si1 0.669107 0.815040 0.887358
Si Si2 0.812200 0.381148 0.266912
Si Si3 0.531366 0.091363 0.443052
Si Si4 0.297309 0.857312 0.772322
Si Si5 0.930880 0.094129 0.949744
Si Si6 0.148701 0.307326 0.346186
Si Si7 0.148788 0.586097 0.225296
Si Si8 0.465623 0.619008 0.480523
O O1 0.437582 0.704614 0.845234
O O2 0.576155 0.737486 0.676966
O O3 0.805751 0.970855 0.968242
O O4 0.861869 0.849379 0.015640
O O5 0.757136 0.258092 0.224067
O O6 0.000000 0.500000 0.500000
O O7 0.951164 0.474713 0.222020
O O8 0.633203 0.118214 0.346757
O O9 0.696271 0.250235 0.627800
O O10 0.500000 0.000000 0.500000
O O11 0.270127 0.986258 0.262691
O O12 0.064664 0.789292 0.672789
O O13 0.500000 0.000000 0.000000
O O14 0.045668 0.226611 0.130352
O O15 0.292862 0.466175 0.436058
O O16 0.326546 0.329929 0.470998
O O17 0.322716 0.600246 0.315678
O O18 0.000000 0.500000 0.000000
#
# Coordination Sequence:
#
# PCOD9077711 Si02
#       8
#     2   2   2   2   2   2   2   2
#     4  10  18  34  63  89 111 150 201 257 288 339
#     4  12  19  38  64  89 116 151 210 253 287 340
#     4  12  26  42  59  88 127 162 193 245 308 362
#     4  12  21  36  62  93 121 151 199 249 291 349
#     4  10  19  36  58  88 121 151 194 242 305 347
#     4  10  20  32  61  93 117 147 193 254 291 343
#     4  12  26  41  62  86 124 164 197 246 302 361
#     4  10  19  36  58  88 120 150 195 245 299 341
#
# _framework density 17.276817999999999
#
# number of rings (size 3 to 8) (size 9 to 14) (size 15 to 20)
#    0.000    1.000    7.500    0.000    3.500    0.000 
#    0.000    1.250    0.000    3.000    0.000    0.000 
#    0.000    0.000    0.000    0.000    0.000    0.000 
#
# Total GULP energy -89253.258104 kJ/mol
# GULP energy per Si atom -5578.328632 kJ/mol
# Density = 1.723750 g / cm^3
# Si number density = 17.276818 Si / 1000 Ang^3
#
#
#
# Elastic Constant Matrix: (Units=GPa)
#
#
# Indices 1 2 3 4 5 6 
#
# 1 116.6804 48.7034 60.2824 -2.7789 32.6314 11.6109
# 2 48.7034 86.5390 45.4007 -0.1467 9.8627 3.4509
# 3 60.2824 45.4007 115.7762 -3.2034 16.4506 5.2828
# 4 -2.7789 -0.1467 -3.2034 31.4578 -3.0825 -0.1255
# 5 32.6314 9.8627 16.4506 -3.0825 36.2154 9.2445
# 6 11.6109 3.4509 5.2828 -0.1255 9.2445 28.3079
#
#
#
# Elastic Compliance Matrix: (Units=1/GPa)
#
#
# Indices 1 2 3 4 5 6 
#
# 1 0.016548 -0.005463 -0.004867 -0.000123 -0.010791 -0.001690
# 2 -0.005463 0.016440 -0.003931 -0.000599 0.002109 0.000279
# 3 -0.004867 -0.003931 0.012773 0.000821 -0.000328 0.000203
# 4 -0.000123 -0.000599 0.000821 0.032134 0.002845 -0.000816
# 5 -0.010791 0.002109 -0.000328 0.002845 0.039350 -0.008608
# 6 -0.001690 0.000279 0.000203 -0.000816 -0.008608 0.038755
#
#
# Mechanical properties :
#
#
# Convention : Reuss Voigt Hill
#
# Bulk Modulus (GPa) = 58.00811 69.75208 63.88010
# Shear Modulus (GPa) = 26.27854 30.17013 28.22434
#
# Velocity S-wave (km/s) = 3.90427 4.18338 4.04623
# Velocity P-wave (km/s) = 7.34663 7.98719 7.67360
#
# Compressibility (1/GPa) = 0.01723897
#
# Stress axis : x y z
#
# Youngs Moduli (GPa) = 60.42862 60.82753 78.28818
#
# Poissons Ratio (x) = 0.33229 0.38105
# Poissons Ratio (y) = 0.33011 0.30778
# Poissons Ratio (z) = 0.29412 0.23913
#
# Static dielectric constant tensor:
#      x y z
#    x 1.624480 0.002980 0.035030 
#    y 0.002980 1.546160 0.028190 
#    z 0.035030 0.028190 1.550270 
# 
# From -- ./inp_files/185983.got.cif
#   From: 2010.05.17/outbox.cif.g08.bks.cpg/sg2_93_cif.got.tgz:185983.got - 2010.06.03 11:33:40.
