data_PCOD9077351
_publ_section_title
;
Structure prediction by ZEFSAII (Michael W. Deem and Ramdas Pophale) SiO2 
 PCOD9077351
Probable space group: P -1
;
_chemical_formula_sum "Si O2"
_cell_formula_units_Z 16
_cell_length_a 11.133308
_cell_length_b 12.171146
_cell_length_c 18.208991
_cell_angle_alpha 28.223052
_cell_angle_beta 44.620887
_cell_angle_gamma 61.056680
_cell_volume 739.532533
_symmetry_space_group_name_H-M "P -1"
_symmetry_group_IT_number 2
_symmetry_cell_setting 'triclinic'
loop_
_space_group_symop_operation_xyz
x,y,z
-x,-y,-z
loop_
_atom_site_type_symbol
_atom_site_label
_atom_site_fract_x
_atom_site_fract_y
_atom_site_fract_z
Si Si1 0.125821 0.066234 0.195150
Si Si2 0.556813 0.054563 0.721307
Si Si3 0.503165 0.067237 0.342500
Si Si4 0.976809 0.169303 0.473440
Si Si5 0.152082 0.377973 0.494776
Si Si6 0.771216 0.375316 0.170826
Si Si7 0.403848 0.804828 0.224827
Si Si8 0.341870 0.483135 0.189345
O O1 0.016737 0.997342 0.359901
O O2 0.237904 0.892998 0.258638
O O3 0.258642 0.365697 0.957292
O O4 0.976218 0.928472 0.276329
O O5 0.468775 0.026052 0.695328
O O6 0.783827 0.197408 0.529350
O O7 0.497333 0.160582 0.758826
O O8 0.505790 0.761811 0.939484
O O9 0.687353 0.220445 0.223093
O O10 0.413043 0.272794 0.257555
O O11 0.350066 0.825194 0.596396
O O12 0.000000 0.000000 0.500000
O O13 0.158962 0.437307 0.246622
O O14 0.308764 0.512973 0.409196
O O15 0.266761 0.457375 0.321037
O O16 0.000000 0.500000 0.500000
O O17 0.000000 0.500000 0.000000
O O18 0.500000 0.000000 0.000000
#
# Coordination Sequence:
#
# PCOD9077351 Si02
#       8
#     2   2   2   2   2   2   2   2
#     4   9  20  35  55  82 113 150 195 231 289 348
#     4  11  22  34  56  89 124 153 187 241 304 352
#     4  11  24  37  57  89 118 152 207 239 288 362
#     4  10  19  30  51  84 119 151 176 225 298 357
#     4   9  18  33  54  85 116 147 193 226 284 352
#     4  11  24  41  58  80 116 164 203 243 288 343
#     4  10  18  34  58  90 115 146 182 238 299 349
#     4  11  20  34  58  87 124 154 183 241 300 355
#
# _framework density 21.635287999999999
#
# number of rings (size 3 to 8) (size 9 to 14) (size 15 to 20)
#    0.000    1.750    2.500    4.125    1.750    0.000 
#    0.000    0.000    0.000    1.500    0.000    0.000 
#    0.000    0.000    0.000    0.000    0.000    0.000 
#
# Total GULP energy -89105.450832 kJ/mol
# GULP energy per Si atom -5569.090677 kJ/mol
# Density = 2.158604 g / cm^3
# Si number density = 21.635288 Si / 1000 Ang^3
#
#
#
# Elastic Constant Matrix: (Units=GPa)
#
#
# Indices 1 2 3 4 5 6 
#
# 1 69.6064 34.4965 41.7928 -3.8774 -22.5442 37.5692
# 2 34.4965 93.4442 17.2085 2.6872 -5.6623 51.6685
# 3 41.7928 17.2085 75.0453 -16.3602 -20.9222 25.2625
# 4 -3.8774 2.6872 -16.3602 30.7743 3.3409 -7.5071
# 5 -22.5442 -5.6623 -20.9222 3.3409 27.7402 -3.9247
# 6 37.5692 51.6685 25.2625 -7.5071 -3.9247 52.0473
#
#
#
# Elastic Compliance Matrix: (Units=1/GPa)
#
#
# Indices 1 2 3 4 5 6 
#
# 1 0.040428 0.004284 -0.009418 -0.009818 0.023779 -0.028487
# 2 0.004284 0.026908 0.002078 -0.009193 0.007178 -0.031598
# 3 -0.009418 0.002078 0.024460 0.009380 0.009370 -0.005077
# 4 -0.009818 -0.009193 0.009380 0.041848 -0.005375 0.017291
# 5 0.023779 0.007178 0.009370 -0.005375 0.061014 -0.025013
# 6 -0.028487 -0.031598 -0.005077 0.017291 -0.025013 0.074217
#
#
# Mechanical properties :
#
#
# Convention : Reuss Voigt Hill
#
# Bulk Modulus (GPa) = 11.67069 47.23238 29.45153
# Shear Modulus (GPa) = 16.47177 31.75225 24.11201
#
# Velocity S-wave (km/s) = 2.76223 3.83510 3.34200
# Velocity P-wave (km/s) = 3.94705 6.44121 5.34174
#
# Compressibility (1/GPa) = 0.08568474
#
# Stress axis : x y z
#
# Youngs Moduli (GPa) = 24.73517 37.16314 40.88265
#
# Poissons Ratio (x) = -0.15922 0.38505
# Poissons Ratio (y) = -0.10598 -0.08495
# Poissons Ratio (z) = 0.23296 -0.07722
#
# Static dielectric constant tensor:
#      x y z
#    x 1.886560 -0.026880 -0.076960 
#    y -0.026880 1.759520 -0.068970 
#    z -0.076960 -0.068970 1.736060 
# 
# From -- ./inp_files/568472.got.cif
#   From: 2010.05.17/outbox.cif.g08.bks.cpg/sg2_285_cif.got.tgz:568472.got - 2010.06.03 11:33:40.
