data_PCOD9077055
_publ_section_title
;
Structure prediction by ZEFSAII (Michael W. Deem and Ramdas Pophale) SiO2 
 PCOD9077055
Probable space group: P -1
;
_chemical_formula_sum "Si O2"
_cell_formula_units_Z 16
_cell_length_a 8.531714
_cell_length_b 11.823438
_cell_length_c 20.455033
_cell_angle_alpha 50.851825
_cell_angle_beta 149.378310
_cell_angle_gamma 118.881760
_cell_volume 805.535399
_symmetry_space_group_name_H-M "P -1"
_symmetry_group_IT_number 2
_symmetry_cell_setting 'triclinic'
loop_
_space_group_symop_operation_xyz
x,y,z
-x,-y,-z
loop_
_atom_site_type_symbol
_atom_site_label
_atom_site_fract_x
_atom_site_fract_y
_atom_site_fract_z
Si Si1 0.643953 0.484287 0.862523
Si Si2 0.562548 0.294087 0.014157
Si Si3 0.573010 0.785361 0.873492
Si Si4 0.726835 0.237719 0.874928
Si Si5 0.890488 0.969705 0.720804
Si Si6 0.375605 0.801928 0.644686
Si Si7 0.201565 0.061464 0.915038
Si Si8 0.235428 0.103212 0.675981
O O1 0.617178 0.348449 0.854328
O O2 0.475621 0.635367 0.716132
O O3 0.516243 0.442644 0.902217
O O4 0.000000 0.500000 0.000000
O O5 0.597076 0.302270 0.101347
O O6 0.869016 0.185920 0.136624
O O7 0.279865 0.205044 0.926451
O O8 0.488019 0.787093 0.765906
O O9 0.465842 0.955262 0.794239
O O10 0.937072 0.725745 0.037195
O O11 0.447569 0.224422 0.729645
O O12 0.816825 0.070279 0.993988
O O13 0.558615 0.914932 0.629199
O O14 0.924406 0.066575 0.762477
O O15 0.021995 0.058753 0.676185
O O16 0.008993 0.849191 0.486517
O O17 0.500000 0.000000 0.000000
#
# Coordination Sequence:
#
# PCOD9077055 Si02
#       8
#     2   2   2   2   2   2   2   2
#     4  12  21  39  62  84 117 150 196 234 278 349
#     4  10  19  32  59  92 107 144 196 244 278 324
#     4  11  22  37  60  87 115 150 192 240 284 335
#     4  12  20  37  63  88 110 151 194 243 282 330
#     4  10  17  35  59  83 113 146 192 241 283 328
#     4  12  24  38  56  86 124 160 178 232 295 345
#     4  10  14  31  59  87 109 134 196 251 277 306
#     4  11  24  37  59  90 119 144 194 242 290 338
#
# _framework density 19.862563999999999
#
# number of rings (size 3 to 8) (size 9 to 14) (size 15 to 20)
#    0.000    1.000   10.000    1.125    0.000    1.000 
#    0.000    0.000    0.000    0.750    0.000    0.000 
#    0.000    0.000    0.000    0.000    0.000    0.000 
#
# Total GULP energy -89165.727659 kJ/mol
# GULP energy per Si atom -5572.857979 kJ/mol
# Density = 1.981736 g / cm^3
# Si number density = 19.862564 Si / 1000 Ang^3
#
#
#
# Elastic Constant Matrix: (Units=GPa)
#
#
# Indices 1 2 3 4 5 6 
#
# 1 60.1240 12.7334 13.7433 11.3754 -6.4378 -8.4429
# 2 12.7334 65.6764 22.6125 13.1750 -5.5476 -0.4023
# 3 13.7433 22.6125 65.7516 22.7730 7.1008 -3.8017
# 4 11.3754 13.1750 22.7730 26.8444 1.9193 -2.7815
# 5 -6.4378 -5.5476 7.1008 1.9193 15.0073 -0.6500
# 6 -8.4429 -0.4023 -3.8017 -2.7815 -0.6500 16.1482
#
#
#
# Elastic Compliance Matrix: (Units=1/GPa)
#
#
# Indices 1 2 3 4 5 6 
#
# 1 0.021158 -0.000984 -0.002632 -0.006029 0.011155 0.009828
# 2 -0.000984 0.019280 -0.005904 -0.004949 0.010051 -0.001872
# 3 -0.002632 -0.005904 0.024781 -0.015976 -0.012949 0.001038
# 4 -0.006029 -0.004949 -0.015976 0.056331 -0.003952 0.002507
# 5 0.011155 0.010051 -0.012949 -0.003952 0.082012 0.005654
# 6 0.009828 -0.001872 0.001038 0.002507 0.005654 0.067922
#
#
# Mechanical properties :
#
#
# Convention : Reuss Voigt Hill
#
# Bulk Modulus (GPa) = 21.65540 32.19225 26.92382
# Shear Modulus (GPa) = 16.34426 21.09752 18.72089
#
# Velocity S-wave (km/s) = 2.87168 3.26264 3.07338
# Velocity P-wave (km/s) = 4.68206 5.51686 5.11651
#
# Compressibility (1/GPa) = 0.04617787
#
# Stress axis : x y z
#
# Youngs Moduli (GPa) = 47.26446 51.86671 40.35301
#
# Poissons Ratio (x) = 0.05103 0.10622
# Poissons Ratio (y) = 0.04650 0.23826
# Poissons Ratio (z) = 0.12441 0.30624
#
# Static dielectric constant tensor:
#      x y z
#    x 1.778240 0.020260 -0.000100 
#    y 0.020260 1.760790 0.055180 
#    z -0.000100 0.055180 1.719020 
# 
# From -- ./inp_files/305634.got.cif
#   From: 2010.05.17/outbox.cif.g08.bks.cpg/sg2_153_cif.got.tgz:305634.got - 2010.06.03 11:33:40.
