data_PCOD9077645
_publ_section_title
;
Structure prediction by ZEFSAII (Michael W. Deem and Ramdas Pophale) SiO2 
 PCOD9077645
Probable space group: P -1
;
_chemical_formula_sum "Si O2"
_cell_formula_units_Z 16
_cell_length_a 11.093808
_cell_length_b 8.686174
_cell_length_c 13.446415
_cell_angle_alpha 148.524991
_cell_angle_beta 77.420413
_cell_angle_gamma 107.574028
_cell_volume 642.904873
_symmetry_space_group_name_H-M "P -1"
_symmetry_group_IT_number 2
_symmetry_cell_setting 'triclinic'
loop_
_space_group_symop_operation_xyz
x,y,z
-x,-y,-z
loop_
_atom_site_type_symbol
_atom_site_label
_atom_site_fract_x
_atom_site_fract_y
_atom_site_fract_z
Si Si1 0.456804 0.913005 0.751518
Si Si2 0.755819 0.691177 0.013995
Si Si3 0.988280 0.454513 0.707371
Si Si4 0.442527 0.809667 0.310333
Si Si5 0.926600 0.074195 0.689045
Si Si6 0.985122 0.814091 0.731383
Si Si7 0.643525 0.412047 0.074640
Si Si8 0.733052 0.556670 0.359306
O O1 0.376997 0.598564 0.632537
O O2 0.346276 0.099848 0.863707
O O3 0.526177 0.958324 0.658658
O O4 0.568436 0.063865 0.891122
O O5 0.745589 0.517790 0.027676
O O6 0.887229 0.939245 0.130017
O O7 0.697452 0.413013 0.794523
O O8 0.927312 0.674497 0.770770
O O9 0.140166 0.579523 0.736421
O O10 0.961316 0.383424 0.789841
O O11 0.970601 0.119999 0.474848
O O12 0.535155 0.582163 0.156549
O O13 0.500000 0.000000 0.500000
O O14 0.794771 0.894182 0.567588
O O15 0.917866 0.997746 0.765679
O O16 0.000000 0.500000 0.500000
O O17 0.689051 0.518369 0.233395
#
# Coordination Sequence:
#
# PCOD9077645 Si02
#       8
#     2   2   2   2   2   2   2   2
#     4   9  16  29  44  70  90 115 153 190 235 281
#     4   9  16  29  46  69  94 118 153 190 232 275
#     4   8  15  23  36  61 100 125 144 174 230 279
#     4   9  19  34  47  63  90 123 159 196 228 278
#     4   8  16  24  35  64 100 125 147 177 227 288
#     4  10  15  24  42  67 101 125 144 186 237 274
#     4   9  18  26  47  67  91 118 149 194 237 276
#     4  10  15  26  40  66  98 120 145 186 234 284
#
# _framework density 24.887041
#
# number of rings (size 3 to 8) (size 9 to 14) (size 15 to 20)
#    0.750    2.250    1.250    2.625    1.750    0.000 
#    0.000    0.625    0.000    0.000    0.000    8.750 
#    0.000    0.000    0.000    0.000    0.000    0.000 
#
# Total GULP energy -89128.804232 kJ/mol
# GULP energy per Si atom -5570.550265 kJ/mol
# Density = 2.483040 g / cm^3
# Si number density = 24.887041 Si / 1000 Ang^3
#
#
#
# Elastic Constant Matrix: (Units=GPa)
#
#
# Indices 1 2 3 4 5 6 
#
# 1 52.3694 53.7300 40.7956 -1.2358 17.6600 -4.0977
# 2 53.7300 199.4933 63.9777 13.8926 30.4494 2.4837
# 3 40.7956 63.9777 134.2114 12.7656 37.5204 3.8336
# 4 -1.2358 13.8926 12.7656 36.0445 -4.6804 13.0210
# 5 17.6600 30.4494 37.5204 -4.6804 39.2779 2.6826
# 6 -4.0977 2.4837 3.8336 13.0210 2.6826 44.6992
#
#
#
# Elastic Compliance Matrix: (Units=1/GPa)
#
#
# Indices 1 2 3 4 5 6 
#
# 1 0.031974 -0.006480 -0.006294 0.004454 -0.002995 0.002713
# 2 -0.006480 0.007604 -0.000525 -0.003415 -0.002900 0.000197
# 3 -0.006294 -0.000525 0.012951 -0.006151 -0.009917 0.000728
# 4 0.004454 -0.003415 -0.006151 0.036589 0.011579 -0.010228
# 5 -0.002995 -0.002900 -0.009917 0.011579 0.040253 -0.005052
# 6 0.002713 0.000197 0.000728 -0.010228 -0.005052 0.025830
#
#
# Mechanical properties :
#
#
# Convention : Reuss Voigt Hill
#
# Bulk Modulus (GPa) = 38.56363 78.12007 58.34185
# Shear Modulus (GPa) = 26.25458 39.17571 32.71514
#
# Velocity S-wave (km/s) = 3.25152 3.97185 3.62960
# Velocity P-wave (km/s) = 5.44294 7.24514 6.40772
#
# Compressibility (1/GPa) = 0.02593117
#
# Stress axis : x y z
#
# Youngs Moduli (GPa) = 31.27588 131.50163 77.21270
#
# Poissons Ratio (x) = 0.85212 0.48596
# Poissons Ratio (y) = 0.20266 0.04056
# Poissons Ratio (z) = 0.19684 0.06908
#
# Static dielectric constant tensor:
#      x y z
#    x 2.044850 0.003930 -0.085800 
#    y 0.003930 1.994970 -0.018920 
#    z -0.085800 -0.018920 2.064140 
# 
# From -- ./inp_files/292146.got.cif
#   From: 2010.05.17/outbox.cif.g08.bks.cpg/sg2_147_cif.got.tgz:292146.got - 2010.06.03 11:33:40.
