data_PCOD9077548
_publ_section_title
;
Structure prediction by ZEFSAII (Michael W. Deem and Ramdas Pophale) SiO2 
 PCOD9077548
Probable space group: P -1
;
_chemical_formula_sum "Si O2"
_cell_formula_units_Z 14
_cell_length_a 12.949649
_cell_length_b 9.666008
_cell_length_c 7.961163
_cell_angle_alpha 109.559338
_cell_angle_beta 88.021872
_cell_angle_gamma 138.363967
_cell_volume 585.677460
_symmetry_space_group_name_H-M "P -1"
_symmetry_group_IT_number 2
_symmetry_cell_setting 'triclinic'
loop_
_space_group_symop_operation_xyz
x,y,z
-x,-y,-z
loop_
_atom_site_type_symbol
_atom_site_label
_atom_site_fract_x
_atom_site_fract_y
_atom_site_fract_z
Si Si1 0.317705 0.059375 0.416831
Si Si2 0.806727 0.320050 0.944888
Si Si3 0.519804 0.152352 0.738233
Si Si4 0.696934 0.353932 0.308658
Si Si5 0.435556 0.479461 0.713349
Si Si6 0.036144 0.713214 0.572141
Si Si7 0.313396 0.179802 0.917359
O O1 0.377330 0.292169 0.507662
O O2 0.456390 0.130323 0.550540
O O3 0.153647 0.865695 0.464697
O O4 0.276677 0.928863 0.196186
O O5 0.762029 0.347176 0.132635
O O6 0.711669 0.321287 0.816713
O O7 0.000000 0.500000 0.000000
O O8 0.454489 0.214327 0.880692
O O9 0.411005 0.895091 0.705319
O O10 0.604249 0.401194 0.292538
O O11 0.855687 0.577147 0.498870
O O12 0.326084 0.309293 0.815543
O O13 0.622108 0.675739 0.857375
O O14 0.000000 0.500000 0.500000
O O15 0.140883 0.901505 0.794340
#
# Coordination Sequence:
#
# PCOD9077548 Si02
#       7
#     2   2   2   2   2   2   2
#     4  10  22  41  60  87 125 161 197 244 311 360
#     4  12  24  37  58  95 126 151 196 261 304 344
#     4  10  21  39  65  86 114 167 207 238 287 373
#     4  12  21  37  66  94 117 154 212 248 292 354
#     4   9  20  36  59  90 118 162 199 249 291 367
#     4  10  18  34  60  92 118 152 202 255 288 346
#     4   9  18  35  59  88 119 154 205 242 294 352
#
# _framework density 23.903942000000001
#
# number of rings (size 3 to 8) (size 9 to 14) (size 15 to 20)
#    0.000    2.000    5.714    0.857    0.000    2.286 
#    0.000    0.714    0.000    0.000    0.000   15.000 
#    0.000    0.000    0.000    0.000    0.000    0.000 
#
# Total GULP energy -78238.460802 kJ/mol
# GULP energy per Si atom -5588.461486 kJ/mol
# Density = 2.384954 g / cm^3
# Si number density = 23.903942 Si / 1000 Ang^3
#
#
#
# Elastic Constant Matrix: (Units=GPa)
#
#
# Indices 1 2 3 4 5 6 
#
# 1 112.4072 43.6627 26.3357 12.6700 12.8270 0.1604
# 2 43.6627 120.9920 29.3385 36.7191 -1.2175 -20.9065
# 3 26.3357 29.3385 155.1281 41.9794 0.4387 3.6317
# 4 12.6700 36.7191 41.9794 41.7208 8.5193 -0.6459
# 5 12.8270 -1.2175 0.4387 8.5193 46.8751 10.0894
# 6 0.1604 -20.9065 3.6317 -0.6459 10.0894 41.1939
#
#
#
# Elastic Compliance Matrix: (Units=1/GPa)
#
#
# Indices 1 2 3 4 5 6 
#
# 1 0.011279 -0.004985 -0.001891 0.003562 -0.003525 -0.001488
# 2 -0.004985 0.015031 0.001566 -0.013764 0.002820 0.006603
# 3 -0.001891 0.001566 0.009412 -0.010821 0.002617 -0.000838
# 4 0.003562 -0.013764 -0.010821 0.047732 -0.009254 -0.003030
# 5 -0.003525 0.002820 0.002617 -0.009254 0.025123 -0.005084
# 6 -0.001488 0.006603 -0.000838 -0.003030 -0.005084 0.028904
#
#
# Mechanical properties :
#
#
# Convention : Reuss Voigt Hill
#
# Bulk Modulus (GPa) = 39.83984 65.24454 52.54219
# Shear Modulus (GPa) = 31.95548 45.23734 38.59641
#
# Velocity S-wave (km/s) = 3.66023 4.35497 4.02263
# Velocity P-wave (km/s) = 5.87928 7.25544 6.60330
#
# Compressibility (1/GPa) = 0.02510050
#
# Stress axis : x y z
#
# Youngs Moduli (GPa) = 88.66377 66.52966 106.24987
#
# Poissons Ratio (x) = 0.33166 0.20092
# Poissons Ratio (y) = 0.44200 -0.16636
# Poissons Ratio (z) = 0.16766 -0.10417
#
# Static dielectric constant tensor:
#      x y z
#    x 1.938910 0.011350 -0.004930 
#    y 0.011350 1.945730 -0.048710 
#    z -0.004930 -0.048710 2.034330 
# 
# From -- ./inp_files/245496.got.cif
#   From: 2010.05.17/outbox.cif.g08.bks.cpg/sg2_123_cif.got.tgz:245496.got - 2010.06.03 11:33:40.
