data_PCOD9077012
_publ_section_title
;
Structure prediction by ZEFSAII (Michael W. Deem and Ramdas Pophale) SiO2 
 PCOD9077012
Probable space group: P -1
;
_chemical_formula_sum "Si O2"
_cell_formula_units_Z 16
_cell_length_a 9.950481
_cell_length_b 14.077854
_cell_length_c 9.363123
_cell_angle_alpha 145.836624
_cell_angle_beta 88.343954
_cell_angle_gamma 74.137421
_cell_volume 624.528630
_symmetry_space_group_name_H-M "P -1"
_symmetry_group_IT_number 2
_symmetry_cell_setting 'triclinic'
loop_
_space_group_symop_operation_xyz
x,y,z
-x,-y,-z
loop_
_atom_site_type_symbol
_atom_site_label
_atom_site_fract_x
_atom_site_fract_y
_atom_site_fract_z
Si Si1 0.466334 0.238218 0.085498
Si Si2 0.922460 0.903519 0.109630
Si Si3 0.294810 0.663038 0.771129
Si Si4 0.272185 0.467666 0.783846
Si Si5 0.763425 0.798847 0.784894
Si Si6 0.916867 0.816602 0.305535
Si Si7 0.311601 0.336183 0.919707
Si Si8 0.036503 0.778804 0.561914
O O1 0.362237 0.473081 0.428529
O O2 0.635195 0.197481 0.079902
O O3 0.408495 0.115504 0.024796
O O4 0.439797 0.229328 0.907546
O O5 0.886673 0.954619 0.342054
O O6 0.868532 0.107993 0.282010
O O7 0.851730 0.768985 0.899933
O O8 0.108043 0.771781 0.908327
O O9 0.339724 0.577310 0.825025
O O10 0.259223 0.326061 0.492918
O O11 0.363999 0.375879 0.814091
O O12 0.088403 0.620178 0.020820
O O13 0.899708 0.821365 0.729565
O O14 0.943361 0.865653 0.523330
O O15 0.775227 0.778700 0.263300
O O16 0.168382 0.547316 0.249631
#
# Coordination Sequence:
#
# PCOD9077012 Si02
#       8
#     2   2   2   2   2   2   2   2
#     4  10  21  35  57  79 108 149 187 223 262 319
#     4  11  22  34  56  83 115 144 173 222 280 326
#     4   9  21  37  52  81 114 143 182 224 270 320
#     4   9  18  31  56  82 109 134 180 232 269 308
#     4  11  19  33  54  84 109 141 181 222 270 322
#     4  10  18  34  54  83 106 142 179 225 270 317
#     4  11  18  34  59  84 106 138 185 230 268 315
#     4  11  21  33  52  88 116 136 173 231 279 318
#
# _framework density 25.619323000000001
#
# number of rings (size 3 to 8) (size 9 to 14) (size 15 to 20)
#    0.000    1.750    3.750    2.250    0.000    2.500 
#    0.000    0.625    0.000    2.250    0.000    0.000 
#    0.000    0.000    0.000    0.000    0.000    0.000 
#
# Total GULP energy -89159.610728 kJ/mol
# GULP energy per Si atom -5572.475671 kJ/mol
# Density = 2.556101 g / cm^3
# Si number density = 25.619323 Si / 1000 Ang^3
#
#
#
# Elastic Constant Matrix: (Units=GPa)
#
#
# Indices 1 2 3 4 5 6 
#
# 1 76.7068 18.5436 17.2163 -13.3804 4.2922 -1.8791
# 2 18.5436 76.6200 12.8307 -31.9750 -0.8924 2.5865
# 3 17.2163 12.8307 68.7182 -17.6743 9.5944 -15.7140
# 4 -13.3804 -31.9750 -17.6743 42.2529 -7.6057 -2.3673
# 5 4.2922 -0.8924 9.5944 -7.6057 20.6255 -12.9640
# 6 -1.8791 2.5865 -15.7140 -2.3673 -12.9640 26.7316
#
#
#
# Elastic Compliance Matrix: (Units=1/GPa)
#
#
# Indices 1 2 3 4 5 6 
#
# 1 0.014589 -0.002661 -0.002960 0.000839 -0.002453 -0.001572
# 2 -0.002661 0.020786 0.000958 0.017490 0.010648 0.005078
# 3 -0.002960 0.000958 0.020405 0.009828 0.003865 0.014439
# 4 0.000839 0.017490 0.009828 0.047318 0.026896 0.021378
# 5 -0.002453 0.010648 0.003865 0.026896 0.085941 0.045130
# 6 -0.001572 0.005078 0.014439 0.021378 0.045130 0.069075
#
#
# Mechanical properties :
#
#
# Convention : Reuss Voigt Hill
#
# Bulk Modulus (GPa) = 21.52572 35.46956 28.49764
# Shear Modulus (GPa) = 17.67261 29.48563 23.57912
#
# Velocity S-wave (km/s) = 2.62928 3.39619 3.03704
# Velocity P-wave (km/s) = 4.19975 5.40867 4.84209
#
# Compressibility (1/GPa) = 0.04645605
#
# Stress axis : x y z
#
# Youngs Moduli (GPa) = 68.54377 48.10876 49.00867
#
# Poissons Ratio (x) = 0.12800 0.14504
# Poissons Ratio (y) = 0.18238 -0.04697
# Poissons Ratio (z) = 0.20286 -0.04610
#
# Static dielectric constant tensor:
#      x y z
#    x 1.951540 0.012290 0.015850 
#    y 0.012290 2.146180 0.020820 
#    z 0.015850 0.020820 2.016710 
# 
# From -- ./inp_files/209367.got.cif
#   From: 2010.05.17/outbox.cif.g08.bks.cpg/sg2_105_cif.got.tgz:209367.got - 2010.06.03 11:33:40.
