data_PCOD9077476
_publ_section_title
;
Structure prediction by ZEFSAII (Michael W. Deem and Ramdas Pophale) SiO2 
 PCOD9077476
Probable space group: P -1
;
_chemical_formula_sum "Si O2"
_cell_formula_units_Z 16
_cell_length_a 9.724115
_cell_length_b 11.900947
_cell_length_c 14.996722
_cell_angle_alpha 70.753173
_cell_angle_beta 141.810138
_cell_angle_gamma 135.620880
_cell_volume 633.188575
_symmetry_space_group_name_H-M "P -1"
_symmetry_group_IT_number 2
_symmetry_cell_setting 'triclinic'
loop_
_space_group_symop_operation_xyz
x,y,z
-x,-y,-z
loop_
_atom_site_type_symbol
_atom_site_label
_atom_site_fract_x
_atom_site_fract_y
_atom_site_fract_z
Si Si1 0.340760 0.724771 0.933031
Si Si2 0.764132 0.676403 0.155392
Si Si3 0.834326 0.374674 0.656350
Si Si4 0.262938 0.339936 0.643492
Si Si5 0.322626 0.269392 0.302112
Si Si6 0.648403 0.258008 0.309355
Si Si7 0.353783 0.724884 0.140695
Si Si8 0.342440 0.976889 0.094236
O O1 0.993716 0.496196 0.797361
O O2 0.302941 0.824607 0.825268
O O3 0.676561 0.777696 0.065858
O O4 0.418582 0.795225 0.054106
O O5 0.663324 0.620065 0.222966
O O6 0.120886 0.748829 0.300818
O O7 0.500000 0.500000 0.000000
O O8 0.446173 0.257284 0.459031
O O9 0.118251 0.555999 0.683583
O O10 0.531895 0.535597 0.675057
O O11 0.335973 0.234897 0.683172
O O12 0.888387 0.245272 0.461444
O O13 0.535510 0.285200 0.329988
O O14 0.940463 0.120847 0.102456
O O15 0.322626 0.059344 0.144431
O O16 0.324275 0.833531 0.151755
O O17 0.000000 0.500000 0.000000
#
# Coordination Sequence:
#
# PCOD9077476 Si02
#       8
#     2   2   2   2   2   2   2   2
#     4   9  21  36  58  82 112 150 187 229 288 331
#     4   9  15  29  55  81 108 144 189 217 273 334
#     4   9  16  32  57  85 111 151 184 225 276 341
#     4  10  18  34  60  84 108 149 195 232 270 331
#     4  11  18  33  59  87 119 141 188 232 278 336
#     4  10  19  33  57  87 119 147 184 230 285 335
#     4  11  22  40  63  80 109 148 202 235 268 337
#     4  11  23  37  55  85 120 152 180 234 289 326
#
# _framework density 25.268934000000002
#
# number of rings (size 3 to 8) (size 9 to 14) (size 15 to 20)
#    0.000    2.000    3.750    1.500    0.000    0.500 
#    0.000    1.250    8.250    0.000    0.000    0.000 
#    0.000    0.000    0.000    0.000    0.000    0.000 
#
# Total GULP energy -89288.663023 kJ/mol
# GULP energy per Si atom -5580.541439 kJ/mol
# Density = 2.521142 g / cm^3
# Si number density = 25.268934 Si / 1000 Ang^3
#
#
#
# Elastic Constant Matrix: (Units=GPa)
#
#
# Indices 1 2 3 4 5 6 
#
# 1 29.3442 17.1002 15.7136 -2.0413 0.9408 -13.4532
# 2 17.1002 101.0879 28.0761 -14.2388 12.4623 -26.2475
# 3 15.7136 28.0761 97.7941 -24.6754 3.0497 -21.4833
# 4 -2.0413 -14.2388 -24.6754 32.9621 -6.7573 -2.9317
# 5 0.9408 12.4623 3.0497 -6.7573 26.1628 -4.4383
# 6 -13.4532 -26.2475 -21.4833 -2.9317 -4.4383 27.8778
#
#
#
# Elastic Compliance Matrix: (Units=1/GPa)
#
#
# Indices 1 2 3 4 5 6 
#
# 1 0.045241 -0.002171 -0.001746 0.003031 0.003676 0.019347
# 2 -0.002171 0.015201 0.001393 0.008238 -0.002691 0.014776
# 3 -0.001746 0.001393 0.017620 0.016018 0.004267 0.016411
# 4 0.003031 0.008238 0.016018 0.051148 0.012211 0.028886
# 5 0.003676 -0.002691 0.004267 0.012211 0.043859 0.010795
# 6 0.019347 0.014776 0.016411 0.028886 0.010795 0.076523
#
#
# Mechanical properties :
#
#
# Convention : Reuss Voigt Hill
#
# Bulk Modulus (GPa) = 13.69570 38.88954 26.29262
# Shear Modulus (GPa) = 17.92256 28.55630 23.23943
#
# Velocity S-wave (km/s) = 2.66611 3.36534 3.03592
# Velocity P-wave (km/s) = 3.86125 5.52488 4.76621
#
# Compressibility (1/GPa) = 0.07301563
#
# Stress axis : x y z
#
# Youngs Moduli (GPa) = 22.10379 65.78336 56.75344
#
# Poissons Ratio (x) = 0.14281 0.09907
# Poissons Ratio (y) = 0.04798 -0.07906
# Poissons Ratio (z) = 0.03859 -0.09164
#
# Static dielectric constant tensor:
#      x y z
#    x 2.028740 0.037150 0.046420 
#    y 0.037150 2.023710 -0.000790 
#    z 0.046420 -0.000790 2.054330 
# 
# From -- ./inp_files/176146.got.cif
#   From: 2010.05.17/outbox.cif.g08.bks.cpg/sg2_89_cif.got.tgz:176146.got - 2010.06.03 11:33:40.
