data_PCOD9077142
_publ_section_title
;
Structure prediction by ZEFSAII (Michael W. Deem and Ramdas Pophale) SiO2 
 PCOD9077142
Probable space group: P -1
;
_chemical_formula_sum "Si O2"
_cell_formula_units_Z 16
_cell_length_a 10.413889
_cell_length_b 5.276805
_cell_length_c 18.526032
_cell_angle_alpha 82.724337
_cell_angle_beta 51.223161
_cell_angle_gamma 98.342804
_cell_volume 753.389912
_symmetry_space_group_name_H-M "P -1"
_symmetry_group_IT_number 2
_symmetry_cell_setting 'triclinic'
loop_
_space_group_symop_operation_xyz
x,y,z
-x,-y,-z
loop_
_atom_site_type_symbol
_atom_site_label
_atom_site_fract_x
_atom_site_fract_y
_atom_site_fract_z
Si Si1 0.006091 0.159251 0.773100
Si Si2 0.135306 0.350475 0.982920
Si Si3 0.367865 0.547444 0.191200
Si Si4 0.154114 0.864081 0.448154
Si Si5 0.211003 0.459380 0.108458
Si Si6 0.008431 0.522733 0.371314
Si Si7 0.521628 0.928352 0.764796
Si Si8 0.194706 0.081822 0.836834
O O1 0.916185 0.358843 0.837974
O O2 0.037302 0.278630 0.677033
O O3 0.177481 0.173018 0.758226
O O4 0.881810 0.854021 0.828402
O O5 0.242631 0.476004 0.010950
O O6 0.003322 0.078986 0.070104
O O7 0.000000 0.500000 0.000000
O O8 0.232733 0.294723 0.880400
O O9 0.428247 0.824407 0.204230
O O10 0.368820 0.575985 0.103331
O O11 0.162319 0.430343 0.284725
O O12 0.453341 0.327630 0.195419
O O13 0.145226 0.713126 0.532980
O O14 0.344978 0.028033 0.351016
O O15 0.097103 0.670524 0.406645
O O16 0.000000 0.000000 0.500000
O O17 0.332246 0.919043 0.804009
#
# Coordination Sequence:
#
# PCOD9077142 Si02
#       8
#     2   2   2   2   2   2   2   2
#     4  10  20  34  58  85 114 149 195 241 279 337
#     4  10  20  39  63  85 109 151 203 242 279 342
#     4  10  20  36  56  86 116 154 189 234 288 342
#     4  10  18  34  56  84 116 151 193 235 282 338
#     4  10  19  35  60  86 113 145 198 241 283 337
#     4   9  19  32  56  86 111 148 199 235 275 337
#     4  11  23  37  58  84 123 155 187 234 297 346
#     4  10  23  39  58  87 116 154 193 239 292 343
#
# _framework density 21.237341000000001
#
# number of rings (size 3 to 8) (size 9 to 14) (size 15 to 20)
#    0.000    2.000    2.500    2.250    3.500    0.000 
#    0.000    1.875    0.000    0.750    0.000    0.000 
#    0.000    0.000    0.000    0.000    0.000    0.000 
#
# Total GULP energy -89187.531823 kJ/mol
# GULP energy per Si atom -5574.220739 kJ/mol
# Density = 2.118900 g / cm^3
# Si number density = 21.237341 Si / 1000 Ang^3
#
#
#
# Elastic Constant Matrix: (Units=GPa)
#
#
# Indices 1 2 3 4 5 6 
#
# 1 103.7750 29.9708 34.0911 -1.9663 12.8722 -23.7383
# 2 29.9708 109.0132 21.7747 4.0801 6.6963 -17.7105
# 3 34.0911 21.7747 70.4444 1.0558 11.6155 -0.3040
# 4 -1.9663 4.0801 1.0558 25.2968 -10.6758 0.8980
# 5 12.8722 6.6963 11.6155 -10.6758 34.4705 -2.3810
# 6 -23.7383 -17.7105 -0.3040 0.8980 -2.3810 35.8966
#
#
#
# Elastic Compliance Matrix: (Units=1/GPa)
#
#
# Indices 1 2 3 4 5 6 
#
# 1 0.014254 -0.001157 -0.006117 0.000246 -0.002364 0.008641
# 2 -0.001157 0.010913 -0.002547 -0.002442 -0.001270 0.004574
# 3 -0.006117 -0.002547 0.018740 -0.002651 -0.004729 -0.005391
# 4 0.000246 -0.002442 -0.002651 0.046705 0.015658 -0.001195
# 5 -0.002364 -0.001270 -0.004729 0.015658 0.036569 -0.000196
# 6 0.008641 0.004574 -0.005391 -0.001195 -0.000196 0.035800
#
#
# Mechanical properties :
#
#
# Convention : Reuss Voigt Hill
#
# Bulk Modulus (GPa) = 41.21512 50.54510 45.88011
# Shear Modulus (GPa) = 26.21753 32.29251 29.25502
#
# Velocity S-wave (km/s) = 3.51736 3.90366 3.71553
# Velocity P-wave (km/s) = 5.99540 6.64604 6.32908
#
# Compressibility (1/GPa) = 0.02426294
#
# Stress axis : x y z
#
# Youngs Moduli (GPa) = 70.15352 91.63637 53.36282
#
# Poissons Ratio (x) = 0.10605 0.32643
# Poissons Ratio (y) = 0.08119 0.13594
# Poissons Ratio (z) = 0.42915 0.23344
#
# Static dielectric constant tensor:
#      x y z
#    x 1.828100 0.039720 -0.001760 
#    y 0.039720 1.832300 -0.033210 
#    z -0.001760 -0.033210 1.916120 
# 
# From -- ./inp_files/81373.got.cif
#   From: 2010.05.17/outbox.cif.g08.bks.cpg/sg2_41_cif.got.tgz:81373.got - 2010.06.03 11:33:40.
