data_PCOD9077189
_publ_section_title
;
Structure prediction by ZEFSAII (Michael W. Deem and Ramdas Pophale) SiO2 
 PCOD9077189
Probable space group: P -1
;
_chemical_formula_sum "Si O2"
_cell_formula_units_Z 14
_cell_length_a 12.684006
_cell_length_b 11.777586
_cell_length_c 11.555479
_cell_angle_alpha 51.363530
_cell_angle_beta 34.359712
_cell_angle_gamma 34.417869
_cell_volume 541.936179
_symmetry_space_group_name_H-M "P -1"
_symmetry_group_IT_number 2
_symmetry_cell_setting 'triclinic'
loop_
_space_group_symop_operation_xyz
x,y,z
-x,-y,-z
loop_
_atom_site_type_symbol
_atom_site_label
_atom_site_fract_x
_atom_site_fract_y
_atom_site_fract_z
Si Si1 0.249442 0.948870 0.247866
Si Si2 0.197583 0.823018 0.146868
Si Si3 0.244382 0.136105 0.482975
Si Si4 0.766394 0.736760 0.349466
Si Si5 0.429464 0.651666 0.807195
Si Si6 0.503060 0.462243 0.655047
Si Si7 0.049047 0.331188 0.295876
O O1 0.249846 0.922598 0.126591
O O2 0.484093 0.717906 0.226756
O O3 0.000000 0.000000 0.500000
O O4 0.234022 0.123825 0.187997
O O5 0.389012 0.581572 0.161689
O O6 0.899859 0.935936 0.368235
O O7 0.251667 0.808547 0.972009
O O8 0.121916 0.247442 0.647425
O O9 0.162784 0.277067 0.358184
O O10 0.552433 0.948989 0.342013
O O11 0.595070 0.701833 0.587555
O O12 0.966569 0.541072 0.211627
O O13 0.305129 0.648576 0.805631
O O14 0.500000 0.500000 0.500000
O O15 0.777600 0.388046 0.493927
#
# Coordination Sequence:
#
# PCOD9077189 Si02
#       7
#     2   2   2   2   2   2   2
#     4   9  16  29  48  79 103 142 172 221 264 316
#     4  10  18  34  57  80 111 140 178 220 277 318
#     4  11  20  35  55  79 111 140 185 222 264 324
#     4  10  22  34  53  84 103 145 183 224 262 320
#     4   9  19  34  53  85 109 141 175 224 272 317
#     4   9  17  29  51  81 110 136 176 221 268 316
#     4  10  19  32  52  75 107 141 176 221 267 310
#
# _framework density 25.833300000000001
#
# number of rings (size 3 to 8) (size 9 to 14) (size 15 to 20)
#    0.000    2.286    5.714    0.429    4.000    0.571 
#    0.000    0.000    0.000    0.857    0.000    6.000 
#    0.000    0.000    0.000    0.000    0.000    0.000 
#
# Total GULP energy -78119.279691 kJ/mol
# GULP energy per Si atom -5579.948549 kJ/mol
# Density = 2.577450 g / cm^3
# Si number density = 25.833300 Si / 1000 Ang^3
#
#
#
# Elastic Constant Matrix: (Units=GPa)
#
#
# Indices 1 2 3 4 5 6 
#
# 1 133.9266 60.9772 19.0260 10.8686 45.7488 0.9021
# 2 60.9772 113.3709 3.0245 17.3344 15.2324 21.1707
# 3 19.0260 3.0245 77.7473 16.6804 17.4055 3.6536
# 4 10.8686 17.3344 16.6804 24.2236 10.7433 3.2108
# 5 45.7488 15.2324 17.4055 10.7433 43.6955 7.1618
# 6 0.9021 21.1707 3.6536 3.2108 7.1618 29.1756
#
#
#
# Elastic Compliance Matrix: (Units=1/GPa)
#
#
# Indices 1 2 3 4 5 6 
#
# 1 0.017875 -0.010271 -0.002031 0.007227 -0.017863 0.010744
# 2 -0.010271 0.017482 0.003136 -0.012080 0.008600 -0.013542
# 3 -0.002031 0.003136 0.016267 -0.011192 -0.002292 -0.002456
# 4 0.007227 -0.012080 -0.011192 0.060031 -0.014799 0.006970
# 5 -0.017863 0.008600 -0.002292 -0.014799 0.045595 -0.014965
# 6 0.010744 -0.013542 -0.002456 0.006970 -0.014965 0.046984
#
#
# Mechanical properties :
#
#
# Convention : Reuss Voigt Hill
#
# Bulk Modulus (GPa) = 30.03740 54.56671 42.30205
# Shear Modulus (GPa) = 21.39840 35.55341 28.47590
#
# Velocity S-wave (km/s) = 2.88119 3.71383 3.32368
# Velocity P-wave (km/s) = 4.76665 6.28955 5.58030
#
# Compressibility (1/GPa) = 0.03329183
#
# Stress axis : x y z
#
# Youngs Moduli (GPa) = 55.94401 57.20220 61.47389
#
# Poissons Ratio (x) = 0.58754 0.12486
# Poissons Ratio (y) = 0.57462 -0.19280
# Poissons Ratio (z) = 0.11363 -0.17941
#
# Static dielectric constant tensor:
#      x y z
#    x 2.071640 0.016280 0.042590 
#    y 0.016280 2.110510 0.098000 
#    z 0.042590 0.098000 2.182740 
# 
# From -- ./inp_files/423417.got.cif
#   From: 2010.05.17/outbox.cif.g08.bks.cpg/sg2_212_cif.got.tgz:423417.got - 2010.06.03 11:33:40.
