data_PCOD9077551
_publ_section_title
;
Structure prediction by ZEFSAII (Michael W. Deem and Ramdas Pophale) SiO2 
 PCOD9077551
Probable space group: P -1
;
_chemical_formula_sum "Si O2"
_cell_formula_units_Z 16
_cell_length_a 23.711351
_cell_length_b 8.952297
_cell_length_c 13.085002
_cell_angle_alpha 64.723772
_cell_angle_beta 159.817823
_cell_angle_gamma 126.012494
_cell_volume 693.204285
_symmetry_space_group_name_H-M "P -1"
_symmetry_group_IT_number 2
_symmetry_cell_setting 'triclinic'
loop_
_space_group_symop_operation_xyz
x,y,z
-x,-y,-z
loop_
_atom_site_type_symbol
_atom_site_label
_atom_site_fract_x
_atom_site_fract_y
_atom_site_fract_z
Si Si1 0.110731 0.248099 0.752615
Si Si2 0.577621 0.280242 0.816516
Si Si3 0.655497 0.240167 0.725959
Si Si4 0.153846 0.074523 0.088380
Si Si5 0.549837 0.675164 0.811032
Si Si6 0.974431 0.335631 0.086077
Si Si7 0.718675 0.746975 0.420583
Si Si8 0.365633 0.036479 0.952535
O O1 0.871702 0.129719 0.371363
O O2 0.241810 0.494365 0.903735
O O3 0.148327 0.178109 0.945089
O O4 0.215368 0.201274 0.857193
O O5 0.641979 0.266770 0.814493
O O6 0.358770 0.238299 0.449211
O O7 0.552011 0.095641 0.889497
O O8 0.574155 0.347065 0.493151
O O9 0.877141 0.334750 0.027161
O O10 0.500000 0.000000 0.500000
O O11 0.177499 0.894562 0.152316
O O12 0.918017 0.936164 0.766098
O O13 0.458944 0.450733 0.764044
O O14 0.525579 0.803423 0.816167
O O15 0.000000 0.500000 0.000000
O O16 0.175192 0.341528 0.436511
O O17 0.636519 0.840359 0.181872
#
# Coordination Sequence:
#
# PCOD9077551 Si02
#       8
#     2   2   2   2   2   2   2   2
#     4  11  24  41  61  91 127 163 205 251 306 365
#     4  12  23  38  66  92 125 163 204 252 309 357
#     4  12  19  34  63  97 118 151 206 258 299 357
#     4   9  19  37  61  85 124 153 195 251 303 350
#     4  12  21  39  66  92 121 159 206 255 311 356
#     4  10  18  34  60  92 123 147 200 257 298 350
#     4   9  22  39  61  93 124 157 201 256 312 360
#     4  11  24  41  63  86 127 165 205 254 300 367
#
# _framework density 23.081219000000001
#
# number of rings (size 3 to 8) (size 9 to 14) (size 15 to 20)
#    0.750    0.500    5.000    1.500    0.000    1.000 
#    0.000    1.250    5.500    0.000    0.000    0.000 
#    0.000    0.000    0.000    0.000    0.000    0.000 
#
# Total GULP energy -89382.728653 kJ/mol
# GULP energy per Si atom -5586.420541 kJ/mol
# Density = 2.302869 g / cm^3
# Si number density = 23.081219 Si / 1000 Ang^3
#
#
#
# Elastic Constant Matrix: (Units=GPa)
#
#
# Indices 1 2 3 4 5 6 
#
# 1 47.6181 18.4371 14.5372 0.6114 6.5342 6.8344
# 2 18.4371 136.9098 20.9479 -8.0829 -18.8446 19.4679
# 3 14.5372 20.9479 68.7095 -5.2812 5.6621 16.7634
# 4 0.6114 -8.0829 -5.2812 30.0816 8.5385 -7.4137
# 5 6.5342 -18.8446 5.6621 8.5385 24.8200 8.9738
# 6 6.8344 19.4679 16.7634 -7.4137 8.9738 30.9713
#
#
#
# Elastic Compliance Matrix: (Units=1/GPa)
#
#
# Indices 1 2 3 4 5 6 
#
# 1 0.024921 -0.004591 -0.003555 0.001340 -0.010682 0.002726
# 2 -0.004591 0.011680 -0.001511 -0.004308 0.015938 -0.011160
# 3 -0.003555 -0.001511 0.017750 0.001822 -0.002456 -0.006725
# 4 0.001340 -0.004308 0.001822 0.044845 -0.026656 0.019884
# 5 -0.010682 0.015938 -0.002456 -0.026656 0.077667 -0.035216
# 6 0.002726 -0.011160 -0.006725 0.019884 -0.035216 0.057305
#
#
# Mechanical properties :
#
#
# Convention : Reuss Voigt Hill
#
# Bulk Modulus (GPa) = 28.54188 40.12019 34.33104
# Shear Modulus (GPa) = 18.85656 30.46225 24.65941
#
# Velocity S-wave (km/s) = 2.86136 3.63683 3.27215
# Velocity P-wave (km/s) = 4.82796 5.92075 5.40206
#
# Compressibility (1/GPa) = 0.03503624
#
# Stress axis : x y z
#
# Youngs Moduli (GPa) = 40.12753 85.61692 56.33759
#
# Poissons Ratio (x) = 0.39306 0.20027
# Poissons Ratio (y) = 0.18422 0.08515
# Poissons Ratio (z) = 0.14265 0.12940
#
# Static dielectric constant tensor:
#      x y z
#    x 1.861400 -0.014310 0.020330 
#    y -0.014310 1.866490 0.002930 
#    z 0.020330 0.002930 1.872670 
# 
# From -- ./inp_files/543833.got.cif
#   From: 2010.05.17/outbox.cif.g08.bks.cpg/sg2_272_cif.got.tgz:543833.got - 2010.06.03 11:33:40.
