data_PCOD9077167
_publ_section_title
;
Structure prediction by ZEFSAII (Michael W. Deem and Ramdas Pophale) SiO2 
 PCOD9077167
Probable space group: P -1
;
_chemical_formula_sum "Si O2"
_cell_formula_units_Z 14
_cell_length_a 9.763415
_cell_length_b 12.398538
_cell_length_c 17.123383
_cell_angle_alpha 26.703723
_cell_angle_beta 44.623281
_cell_angle_gamma 39.180077
_cell_volume 587.115584
_symmetry_space_group_name_H-M "P -1"
_symmetry_group_IT_number 2
_symmetry_cell_setting 'triclinic'
loop_
_space_group_symop_operation_xyz
x,y,z
-x,-y,-z
loop_
_atom_site_type_symbol
_atom_site_label
_atom_site_fract_x
_atom_site_fract_y
_atom_site_fract_z
Si Si1 0.150234 0.770831 0.762701
Si Si2 0.717052 0.212256 0.481777
Si Si3 0.727402 0.449428 0.611072
Si Si4 0.238428 0.106593 0.977400
Si Si5 0.193424 0.253937 0.479964
Si Si6 0.315788 0.174709 0.074043
Si Si7 0.097532 0.343140 0.286903
O O1 0.219453 0.774101 0.643440
O O2 0.887317 0.893145 0.789483
O O3 0.231057 0.948917 0.665418
O O4 0.246241 0.466570 0.948743
O O5 0.471596 0.431752 0.444868
O O6 0.882056 0.287792 0.414405
O O7 0.754376 0.902556 0.672170
O O8 0.677272 0.659004 0.567145
O O9 0.942228 0.420064 0.499295
O O10 0.766154 0.169610 0.816479
O O11 0.006720 0.346055 0.895088
O O12 0.432898 0.031086 0.884061
O O13 0.306130 0.215736 0.956944
O O14 0.211366 0.309384 0.346010
#
# Coordination Sequence:
#
# PCOD9077167 Si02
#       7
#     2   2   2   2   2   2   2
#     4  10  18  34  56  90 113 151 196 244 277 346
#     4  10  20  39  59  88 120 154 193 243 294 350
#     4  11  22  42  63  81 118 164 205 224 284 366
#     4  11  19  37  60  87 115 158 190 247 287 351
#     4  10  24  39  60  86 119 158 199 240 284 353
#     4  10  19  32  59  89 119 147 201 241 291 340
#     4  10  22  37  57  93 121 143 193 252 307 321
#
# _framework density 23.845389999999998
#
# number of rings (size 3 to 8) (size 9 to 14) (size 15 to 20)
#    0.000    1.714    4.286    0.857    0.000    3.429 
#    5.143    0.000    0.000    1.714    0.000    0.000 
#    0.000    0.000    0.000    0.000    0.000    0.000 
#
# Total GULP energy -78172.737237 kJ/mol
# GULP energy per Si atom -5583.766945 kJ/mol
# Density = 2.379112 g / cm^3
# Si number density = 23.845390 Si / 1000 Ang^3
#
#
#
# Elastic Constant Matrix: (Units=GPa)
#
#
# Indices 1 2 3 4 5 6 
#
# 1 54.3186 -6.7191 11.2094 -10.7753 -9.6252 12.3659
# 2 -6.7191 77.8171 11.1720 -5.4771 2.8263 -12.4949
# 3 11.2094 11.1720 108.7409 -34.5222 -7.1716 1.1665
# 4 -10.7753 -5.4771 -34.5222 31.4629 7.8625 -6.9617
# 5 -9.6252 2.8263 -7.1716 7.8625 21.1844 -14.4946
# 6 12.3659 -12.4949 1.1665 -6.9617 -14.4946 41.6122
#
#
#
# Elastic Compliance Matrix: (Units=1/GPa)
#
#
# Indices 1 2 3 4 5 6 
#
# 1 0.021359 0.001559 -0.000325 0.005208 0.005295 -0.003154
# 2 0.001559 0.013993 -0.000609 0.003160 0.000517 0.004464
# 3 -0.000325 -0.000609 0.014358 0.015934 0.000485 0.002346
# 4 0.005208 0.003160 0.015934 0.055117 -0.009878 0.004735
# 5 0.005295 0.000517 0.000485 -0.009878 0.067301 0.020358
# 6 -0.003154 0.004464 0.002346 0.004735 0.020358 0.034127
#
#
# Mechanical properties :
#
#
# Convention : Reuss Voigt Hill
#
# Bulk Modulus (GPa) = 19.62343 30.24457 24.93400
# Shear Modulus (GPa) = 22.52318 33.86618 28.19468
#
# Velocity S-wave (km/s) = 3.07669 3.77270 3.44233
# Velocity P-wave (km/s) = 4.56822 5.62928 5.12628
#
# Compressibility (1/GPa) = 0.05095950
#
# Stress axis : x y z
#
# Youngs Moduli (GPa) = 46.81761 71.46360 69.64840
#
# Poissons Ratio (x) = -0.11139 0.02267
# Poissons Ratio (y) = -0.07298 0.04240
# Poissons Ratio (z) = 0.01524 0.04351
#
# Static dielectric constant tensor:
#      x y z
#    x 1.874710 -0.012930 0.039370 
#    y -0.012930 2.012040 -0.031900 
#    z 0.039370 -0.031900 1.997150 
# 
# From -- ./inp_files/207340.got.cif
#   From: 2010.05.17/outbox.cif.g08.bks.cpg/sg2_104_cif.got.tgz:207340.got - 2010.06.03 11:33:40.
