data_PCOD9077849
_publ_section_title
;
Structure prediction by ZEFSAII (Michael W. Deem and Ramdas Pophale) SiO2 
 PCOD9077849
Probable space group: P -1
;
_chemical_formula_sum "Si O2"
_cell_formula_units_Z 16
_cell_length_a 24.002866
_cell_length_b 14.793263
_cell_length_c 12.066166
_cell_angle_alpha 151.478510
_cell_angle_beta 31.713497
_cell_angle_gamma 150.976799
_cell_volume 927.652702
_symmetry_space_group_name_H-M "P -1"
_symmetry_group_IT_number 2
_symmetry_cell_setting 'triclinic'
loop_
_space_group_symop_operation_xyz
x,y,z
-x,-y,-z
loop_
_atom_site_type_symbol
_atom_site_label
_atom_site_fract_x
_atom_site_fract_y
_atom_site_fract_z
Si Si1 0.271454 0.669565 0.196459
Si Si2 0.248493 0.617331 0.922514
Si Si3 0.087674 0.166511 0.937975
Si Si4 0.934558 0.129618 0.707074
Si Si5 0.076996 0.656021 0.640869
Si Si6 0.253346 0.179599 0.486312
Si Si7 0.543422 0.939102 0.974616
Si Si8 0.974440 0.479937 0.180050
O O1 0.213052 0.773980 0.487940
O O2 0.244840 0.692847 0.136984
O O3 0.194432 0.404684 0.059943
O O4 0.417396 0.784974 0.085966
O O5 0.274174 0.419245 0.682853
O O6 0.116627 0.539732 0.010536
O O7 0.356084 0.819702 0.892160
O O8 0.159146 0.089438 0.652786
O O9 0.993346 0.211346 0.074798
O O10 0.000000 0.000000 0.000000
O O11 0.024552 0.330552 0.690384
O O12 0.816766 0.971052 0.662180
O O13 0.905792 0.248309 0.983387
O O14 0.000000 0.000000 0.500000
O O15 0.069855 0.534111 0.634869
O O16 0.000000 0.500000 0.500000
O O17 0.377435 0.179552 0.302845
O O18 0.500000 0.000000 0.000000
#
# Coordination Sequence:
#
# PCOD9077849 Si02
#       8
#     2   2   2   2   2   2   2   2
#     4   9  20  34  50  80 115 148 184 215 278 348
#     4  10  18  35  54  82 110 145 189 226 282 332
#     4  10  21  29  53  84 113 147 180 223 292 339
#     4  11  22  34  58  84 114 144 191 240 288 328
#     4  10  18  35  55  77 119 146 179 228 289 349
#     4  11  21  36  56  80 117 143 190 242 272 337
#     4  10  22  34  55  78 113 158 190 225 279 334
#     4  11  20  35  56  87 111 147 186 233 291 343
#
# _framework density 17.247834999999998
#
# number of rings (size 3 to 8) (size 9 to 14) (size 15 to 20)
#    0.000    1.750    6.250    0.000    7.000    4.500 
#    0.000    0.000    0.000    0.750    0.000    1.750 
#    0.000    0.000    0.000    0.000    0.000    0.000 
#
# Total GULP energy -89114.091629 kJ/mol
# GULP energy per Si atom -5569.630727 kJ/mol
# Density = 1.720858 g / cm^3
# Si number density = 17.247835 Si / 1000 Ang^3
#
#
#
# Elastic Constant Matrix: (Units=GPa)
#
#
# Indices 1 2 3 4 5 6 
#
# 1 69.3261 22.5559 41.3240 -6.9188 -6.5229 -8.8766
# 2 22.5559 108.9409 43.2542 -17.8137 -6.1996 -2.7146
# 3 41.3240 43.2542 90.3068 -16.7084 -17.2716 2.3465
# 4 -6.9188 -17.8137 -16.7084 31.0262 0.7961 -8.7447
# 5 -6.5229 -6.1996 -17.2716 0.7961 34.8045 1.5462
# 6 -8.8766 -2.7146 2.3465 -8.7447 1.5462 28.2009
#
#
#
# Elastic Compliance Matrix: (Units=1/GPa)
#
#
# Indices 1 2 3 4 5 6 
#
# 1 0.021466 -0.000093 -0.009924 0.001729 -0.001321 0.008182
# 2 -0.000093 0.012060 -0.004982 0.005129 -0.000600 0.003170
# 3 -0.009924 -0.004982 0.020368 0.004488 0.007449 -0.004315
# 4 0.001729 0.005129 0.004488 0.041735 0.001911 0.013501
# 5 -0.001321 -0.000600 0.007449 0.001911 0.032131 -0.002263
# 6 0.008182 0.003170 -0.004315 0.013501 -0.002263 0.043010
#
#
# Mechanical properties :
#
#
# Convention : Reuss Voigt Hill
#
# Bulk Modulus (GPa) = 41.84603 53.64910 47.74756
# Shear Modulus (GPa) = 23.95418 29.56898 26.76158
#
# Velocity S-wave (km/s) = 3.73073 4.14497 3.94330
# Velocity P-wave (km/s) = 6.54768 7.35392 6.96248
#
# Compressibility (1/GPa) = 0.02389713
#
# Stress axis : x y z
#
# Youngs Moduli (GPa) = 46.58536 82.91758 49.09735
#
# Poissons Ratio (x) = 0.00770 0.48722
# Poissons Ratio (y) = 0.00433 0.24460
# Poissons Ratio (z) = 0.46229 0.41309
#
# Static dielectric constant tensor:
#      x y z
#    x 1.609570 -0.007360 -0.005010 
#    y -0.007360 1.656770 0.020850 
#    z -0.005010 0.020850 1.642350 
# 
# From -- ./inp_files/470886.got.cif
#   From: 2010.05.17/outbox.cif.g08.bks.cpg/sg2_236_cif.got.tgz:470886.got - 2010.06.03 11:33:40.
