data_PCOD9077041
_publ_section_title
;
Structure prediction by ZEFSAII (Michael W. Deem and Ramdas Pophale) SiO2 
 PCOD9077041
Probable space group: P -1
;
_chemical_formula_sum "Si O2"
_cell_formula_units_Z 14
_cell_length_a 10.121436
_cell_length_b 9.711810
_cell_length_c 13.516048
_cell_angle_alpha 140.914179
_cell_angle_beta 48.938664
_cell_angle_gamma 116.092110
_cell_volume 624.704916
_symmetry_space_group_name_H-M "P -1"
_symmetry_group_IT_number 2
_symmetry_cell_setting 'triclinic'
loop_
_space_group_symop_operation_xyz
x,y,z
-x,-y,-z
loop_
_atom_site_type_symbol
_atom_site_label
_atom_site_fract_x
_atom_site_fract_y
_atom_site_fract_z
Si Si1 0.292143 0.564685 0.907755
Si Si2 0.002768 0.395204 0.076834
Si Si3 0.965641 0.366106 0.302469
Si Si4 0.362102 0.999883 0.201830
Si Si5 0.844944 0.909270 0.462348
Si Si6 0.982304 0.176854 0.391539
Si Si7 0.448348 0.446599 0.385567
O O1 0.130449 0.682004 0.981844
O O2 0.438511 0.452448 0.696930
O O3 0.192200 0.415308 0.945963
O O4 0.386147 0.743089 0.021108
O O5 0.010006 0.299091 0.130202
O O6 0.909673 0.650123 0.279594
O O7 0.064269 0.571354 0.403224
O O8 0.758156 0.462663 0.467928
O O9 0.995881 0.183919 0.271052
O O10 0.328780 0.034950 0.354866
O O11 0.175172 0.090293 0.292121
O O12 0.484419 0.177859 0.206546
O O13 0.000000 0.000000 0.500000
O O14 0.847081 0.030249 0.424266
O O15 0.500000 0.500000 0.500000
#
# Coordination Sequence:
#
# PCOD9077041 Si02
#       7
#     2   2   2   2   2   2   2
#     4  11  21  31  54  83 106 136 180 224 262 304
#     4  11  19  33  55  80 105 137 185 217 256 311
#     4  10  18  33  53  81 103 144 173 219 265 312
#     4  10  18  33  56  83 105 138 180 217 264 311
#     4  10  14  31  54  80  99 133 180 218 251 308
#     4   9  17  29  56  81 106 132 182 219 259 316
#     4  11  20  35  54  78 111 141 176 218 264 319
#
# _framework density 22.410581000000001
#
# number of rings (size 3 to 8) (size 9 to 14) (size 15 to 20)
#    0.000    1.714    8.571    0.429    0.000    0.000 
#    0.000    0.714    0.000   18.857    0.000    0.000 
#    0.000    0.000    0.000    0.000    0.000    0.000 
#
# Total GULP energy -78115.421618 kJ/mol
# GULP energy per Si atom -5579.672973 kJ/mol
# Density = 2.235957 g / cm^3
# Si number density = 22.410581 Si / 1000 Ang^3
#
#
#
# Elastic Constant Matrix: (Units=GPa)
#
#
# Indices 1 2 3 4 5 6 
#
# 1 30.8716 26.2404 14.2332 -10.4210 14.6685 -2.0455
# 2 26.2404 95.7417 35.3180 -43.5047 10.9081 -14.2735
# 3 14.2332 35.3180 91.0894 -32.3051 17.3282 5.0738
# 4 -10.4210 -43.5047 -32.3051 58.3905 4.1009 12.4280
# 5 14.6685 10.9081 17.3282 4.1009 28.1300 -8.1471
# 6 -2.0455 -14.2735 5.0738 12.4280 -8.1471 36.5632
#
#
#
# Elastic Compliance Matrix: (Units=1/GPa)
#
#
# Indices 1 2 3 4 5 6 
#
# 1 0.059280 -0.011617 0.007016 0.011392 -0.036502 -0.014198
# 2 -0.011617 0.020052 -0.002000 0.011108 -0.001111 0.003432
# 3 0.007016 -0.002000 0.021420 0.016136 -0.022440 -0.013846
# 4 0.011392 0.011108 0.016136 0.042612 -0.031859 -0.018848
# 5 -0.036502 -0.001111 -0.022440 -0.031859 0.082102 0.029761
# 6 -0.014198 0.003432 -0.013846 -0.018848 0.029761 0.042855
#
#
# Mechanical properties :
#
#
# Convention : Reuss Voigt Hill
#
# Bulk Modulus (GPa) = 11.42188 41.03173 26.22681
# Shear Modulus (GPa) = 16.09240 34.07747 25.08493
#
# Velocity S-wave (km/s) = 2.68259 3.90371 3.34928
# Velocity P-wave (km/s) = 3.83442 6.21832 5.16577
#
# Compressibility (1/GPa) = 0.08755129
#
# Stress axis : x y z
#
# Youngs Moduli (GPa) = 16.86907 49.87014 46.68504
#
# Poissons Ratio (x) = 0.57933 -0.32755
# Poissons Ratio (y) = 0.19597 0.09336
# Poissons Ratio (z) = -0.11836 0.09973
#
# Static dielectric constant tensor:
#      x y z
#    x 1.831340 0.016790 0.037600 
#    y 0.016790 1.897890 0.003770 
#    z 0.037600 0.003770 1.905450 
# 
# From -- ./inp_files/344735.got.cif
#   From: 2010.05.17/outbox.cif.g08.bks.cpg/sg2_173_cif.got.tgz:344735.got - 2010.06.03 11:33:40.
