data_PCOD9077698
_publ_section_title
;
Structure prediction by ZEFSAII (Michael W. Deem and Ramdas Pophale) SiO2 
 PCOD9077698
Probable space group: P -1
;
_chemical_formula_sum "Si O2"
_cell_formula_units_Z 14
_cell_length_a 9.936412
_cell_length_b 14.407844
_cell_length_c 14.187557
_cell_angle_alpha 37.701216
_cell_angle_beta 66.149244
_cell_angle_gamma 40.272621
_cell_volume 693.405716
_symmetry_space_group_name_H-M "P -1"
_symmetry_group_IT_number 2
_symmetry_cell_setting 'triclinic'
loop_
_space_group_symop_operation_xyz
x,y,z
-x,-y,-z
loop_
_atom_site_type_symbol
_atom_site_label
_atom_site_fract_x
_atom_site_fract_y
_atom_site_fract_z
Si Si1 0.252314 0.210999 0.220674
Si Si2 0.830083 0.685129 0.230277
Si Si3 0.682781 0.617278 0.591462
Si Si4 0.491760 0.186000 0.319760
Si Si5 0.719752 0.907016 0.887723
Si Si6 0.399025 0.667421 0.485603
Si Si7 0.009757 0.748275 0.570288
O O1 0.336954 0.295711 0.181023
O O2 0.082969 0.249993 0.306927
O O3 0.501436 0.905326 0.388986
O O4 0.175306 0.276915 0.080579
O O5 0.561101 0.908870 0.166153
O O6 0.885340 0.471289 0.348220
O O7 0.038441 0.564410 0.339787
O O8 0.838021 0.778983 0.057679
O O9 0.622391 0.632051 0.706496
O O10 0.606592 0.550947 0.592845
O O11 0.500000 0.000000 0.500000
O O12 0.769289 0.005399 0.379711
O O13 0.728521 0.074764 0.721001
O O14 0.500000 0.500000 0.500000
O O15 0.208342 0.714309 0.552875
#
# Coordination Sequence:
#
# PCOD9077698 Si02
#       7
#     2   2   2   2   2   2   2
#     4   9  17  34  57  88 103 139 192 227 256 321
#     4  11  19  39  57  79 112 149 178 226 274 318
#     4   9  18  33  58  77 109 143 183 223 268 318
#     4   8  14  30  55  87 102 132 189 227 256 312
#     4  10  24  33  55  85 116 137 184 227 275 320
#     4  11  22  36  55  84 110 143 187 223 270 329
#     4  10  18  34  63  77 111 143 182 226 270 319
#
# _framework density 20.190200000000001
#
# number of rings (size 3 to 8) (size 9 to 14) (size 15 to 20)
#    0.000    2.571    5.714    0.000    0.000    9.143 
#    0.000    0.714    3.143    4.286    0.000    0.000 
#    0.000    0.000    0.000    0.000    0.000    0.000 
#
# Total GULP energy -78053.467926 kJ/mol
# GULP energy per Si atom -5575.247709 kJ/mol
# Density = 2.014425 g / cm^3
# Si number density = 20.190200 Si / 1000 Ang^3
#
#
#
# Elastic Constant Matrix: (Units=GPa)
#
#
# Indices 1 2 3 4 5 6 
#
# 1 141.0918 41.2464 44.2334 11.0070 19.8091 2.6076
# 2 41.2464 88.1788 19.1354 15.0704 8.5787 15.0582
# 3 44.2334 19.1354 53.2381 16.0254 7.0612 -5.9023
# 4 11.0070 15.0704 16.0254 21.9090 5.6106 4.4647
# 5 19.8091 8.5787 7.0612 5.6106 22.2807 1.8776
# 6 2.6076 15.0582 -5.9023 4.4647 1.8776 41.2397
#
#
#
# Elastic Compliance Matrix: (Units=1/GPa)
#
#
# Indices 1 2 3 4 5 6 
#
# 1 0.011597 -0.003465 -0.009132 0.005323 -0.007337 -0.001017
# 2 -0.003465 0.015194 -0.000964 -0.006968 -0.000313 -0.004698
# 3 -0.009132 -0.000964 0.033819 -0.021780 0.002582 0.008010
# 4 0.005323 -0.006968 -0.021780 0.068268 -0.011684 -0.007768
# 5 -0.007337 -0.000313 0.002582 -0.011684 0.053669 -0.000231
# 6 -0.001017 -0.004698 0.008010 -0.007768 -0.000231 0.028026
#
#
# Mechanical properties :
#
#
# Convention : Reuss Voigt Hill
#
# Bulk Modulus (GPa) = 29.86162 54.63768 42.24965
# Shear Modulus (GPa) = 20.09165 28.94544 24.51854
#
# Velocity S-wave (km/s) = 3.15797 3.79045 3.48857
# Velocity P-wave (km/s) = 5.30277 6.80271 6.09903
#
# Compressibility (1/GPa) = 0.03348780
#
# Stress axis : x y z
#
# Youngs Moduli (GPa) = 86.22732 65.81381 29.56900
#
# Poissons Ratio (x) = 0.22806 0.27003
# Poissons Ratio (y) = 0.29880 0.02851
# Poissons Ratio (z) = 0.78744 0.06345
#
# Static dielectric constant tensor:
#      x y z
#    x 1.733890 0.011440 0.062820 
#    y 0.011440 1.772760 -0.025340 
#    z 0.062820 -0.025340 1.814360 
# 
# From -- ./inp_files/271209.got.cif
#   From: 2010.05.17/outbox.cif.g08.bks.cpg/sg2_136_cif.got.tgz:271209.got - 2010.06.03 11:33:40.
