data_PCOD9077126
_publ_section_title
;
Structure prediction by ZEFSAII (Michael W. Deem and Ramdas Pophale) SiO2 
 PCOD9077126
Probable space group: P -1
;
_chemical_formula_sum "Si O2"
_cell_formula_units_Z 16
_cell_length_a 16.085118
_cell_length_b 10.558894
_cell_length_c 8.097260
_cell_angle_alpha 49.732515
_cell_angle_beta 111.389757
_cell_angle_gamma 75.314230
_cell_volume 708.503218
_symmetry_space_group_name_H-M "P -1"
_symmetry_group_IT_number 2
_symmetry_cell_setting 'triclinic'
loop_
_space_group_symop_operation_xyz
x,y,z
-x,-y,-z
loop_
_atom_site_type_symbol
_atom_site_label
_atom_site_fract_x
_atom_site_fract_y
_atom_site_fract_z
Si Si1 0.402778 0.767494 0.742489
Si Si2 0.982300 0.289862 0.981831
Si Si3 0.173020 0.064315 0.850987
Si Si4 0.797366 0.158261 0.634512
Si Si5 0.569283 0.263564 0.842969
Si Si6 0.599038 0.704201 0.070861
Si Si7 0.944138 0.420408 0.189701
Si Si8 0.826692 0.592583 0.302259
O O1 0.290406 0.886060 0.440736
O O2 0.500000 0.500000 0.000000
O O3 0.369992 0.771652 0.905222
O O4 0.483659 0.831203 0.755760
O O5 0.893994 0.413560 0.654155
O O6 0.048419 0.387227 0.971494
O O7 0.907959 0.381643 0.023548
O O8 0.084050 0.018669 0.246360
O O9 0.130169 0.274005 0.754202
O O10 0.081587 0.180433 0.533399
O O11 0.164548 0.915802 0.085758
O O12 0.311698 0.925985 0.017704
O O13 0.704565 0.432003 0.330614
O O14 0.500000 0.500000 0.500000
O O15 0.465615 0.263957 0.828617
O O16 0.680090 0.762681 0.075624
O O17 0.864780 0.482146 0.242162
#
# Coordination Sequence:
#
# PCOD9077126 Si02
#       8
#     2   2   2   2   2   2   2   2
#     4   8  17  33  52  77 109 145 183 224 272 325
#     4  10  20  35  62  85 108 152 191 233 278 333
#     4  11  19  34  62  82 108 151 193 232 270 336
#     4  11  17  36  59  84 106 149 193 230 277 331
#     4  10  18  34  56  83 106 146 196 226 268 332
#     4   9  22  35  56  80 121 149 175 239 289 327
#     4  10  20  37  58  87 111 147 196 230 275 341
#     4  11  21  40  55  84 123 144 182 235 293 332
#
# _framework density 22.582820000000002
#
# number of rings (size 3 to 8) (size 9 to 14) (size 15 to 20)
#    0.750    1.250    3.750    1.500    0.000    1.000 
#    0.000    5.000    0.000    0.000    0.000    0.000 
#    0.000    0.000    0.000    0.000    0.000    0.000 
#
# Total GULP energy -89088.621729 kJ/mol
# GULP energy per Si atom -5568.038858 kJ/mol
# Density = 2.253142 g / cm^3
# Si number density = 22.582820 Si / 1000 Ang^3
#
#
#
# Elastic Constant Matrix: (Units=GPa)
#
#
# Indices 1 2 3 4 5 6 
#
# 1 67.4293 19.5354 -4.6393 4.2132 12.1859 -17.5779
# 2 19.5354 92.9743 6.3712 1.8458 -5.5304 -42.6537
# 3 -4.6393 6.3712 48.6232 4.8888 0.2254 -8.1898
# 4 4.2132 1.8458 4.8888 30.0130 -7.4214 2.7770
# 5 12.1859 -5.5304 0.2254 -7.4214 23.8523 -2.7685
# 6 -17.5779 -42.6537 -8.1898 2.7770 -2.7685 37.3554
#
#
#
# Elastic Compliance Matrix: (Units=1/GPa)
#
#
# Indices 1 2 3 4 5 6 
#
# 1 0.020398 -0.000966 0.004399 -0.007308 -0.011902 0.009122
# 2 -0.000966 0.024680 0.001719 -0.002140 0.008890 0.028921
# 3 0.004399 0.001719 0.022947 -0.006029 -0.002862 0.009300
# 4 -0.007308 -0.002140 -0.006029 0.039925 0.014662 -0.009086
# 5 -0.011902 0.008890 -0.002862 0.014662 0.055461 0.006944
# 6 0.009122 0.028921 0.009300 -0.009086 0.006944 0.067314
#
#
# Mechanical properties :
#
#
# Convention : Reuss Voigt Hill
#
# Bulk Modulus (GPa) = 12.76639 27.95128 20.35884
# Shear Modulus (GPa) = 20.28151 30.76143 25.52147
#
# Velocity S-wave (km/s) = 3.00007 3.69475 3.36538
# Velocity P-wave (km/s) = 4.20309 5.53224 4.91282
#
# Compressibility (1/GPa) = 0.07833066
#
# Stress axis : x y z
#
# Youngs Moduli (GPa) = 49.02404 40.51834 43.57921
#
# Poissons Ratio (x) = 0.03912 -0.19171
# Poissons Ratio (y) = 0.04734 -0.07492
# Poissons Ratio (z) = -0.21566 -0.06966
#
# Static dielectric constant tensor:
#      x y z
#    x 1.899140 0.045970 -0.033810 
#    y 0.045970 1.886620 -0.004180 
#    z -0.033810 -0.004180 1.815080 
# 
# From -- ./inp_files/332919.got.cif
#   From: 2010.05.17/outbox.cif.g08.bks.cpg/sg2_167_cif.got.tgz:332919.got - 2010.06.03 11:33:40.
