data_PCOD9077654
_publ_section_title
;
Structure prediction by ZEFSAII (Michael W. Deem and Ramdas Pophale) SiO2 
 PCOD9077654
Probable space group: P -1
;
_chemical_formula_sum "Si O2"
_cell_formula_units_Z 13
_cell_length_a 14.596682
_cell_length_b 19.004420
_cell_length_c 6.966056
_cell_angle_alpha 82.715795
_cell_angle_beta 73.149034
_cell_angle_gamma 19.442415
_cell_volume 546.579083
_symmetry_space_group_name_H-M "P -1"
_symmetry_group_IT_number 2
_symmetry_cell_setting 'triclinic'
loop_
_space_group_symop_operation_xyz
x,y,z
-x,-y,-z
loop_
_atom_site_type_symbol
_atom_site_label
_atom_site_fract_x
_atom_site_fract_y
_atom_site_fract_z
Si Si1 0.740015 0.640975 0.360545
Si Si2 0.863293 0.181086 0.772282
Si Si3 0.434026 0.215963 0.018191
Si Si4 0.460263 0.366237 0.557589
Si Si5 0.819327 0.906719 0.211508
Si Si6 0.633521 0.577548 0.948789
Si Si7 0.500000 0.500000 0.500000
O O1 0.738414 0.558590 0.439759
O O2 0.098835 0.415256 0.199661
O O3 0.521140 0.841556 0.566117
O O4 0.563340 0.775768 0.214443
O O5 0.640129 0.284647 0.990673
O O6 0.683969 0.335768 0.636855
O O7 0.972003 0.171219 0.836890
O O8 0.174977 0.916799 0.606927
O O9 0.737298 0.962530 0.015479
O O10 0.437337 0.290844 0.090000
O O11 0.379457 0.417640 0.813571
O O12 0.412149 0.480838 0.488009
O O13 0.021145 0.696209 0.224804
#
# Coordination Sequence:
#
# PCOD9077654 Si02
#       7
#     2   2   2   2   2   2   1
#     4   9  21  43  63  87 119 159 203 240 299 360
#     4  10  22  38  58  91 125 157 200 242 298 364
#     4  10  22  43  64  82 123 164 192 250 300 342
#     4   9  20  38  61  89 120 157 202 242 294 362
#     4  11  23  38  61  92 121 154 202 250 293 353
#     4  10  21  36  57  91 121 154 204 242 292 362
#     4  10  18  34  62  86 116 156 192 246 292 336
#
# _framework density 23.784298
#
# number of rings (size 3 to 8) (size 9 to 14) (size 15 to 20)
#    0.000    2.154    0.000    2.769    0.000   13.538 
#    0.000   11.538    0.000    0.000    0.000    0.000 
#    0.000    0.000    0.000    0.000    0.000    0.000 
#
# Total GULP energy -72454.505347 kJ/mol
# GULP energy per Si atom -5573.423488 kJ/mol
# Density = 2.373016 g / cm^3
# Si number density = 23.784298 Si / 1000 Ang^3
#
#
#
# Elastic Constant Matrix: (Units=GPa)
#
#
# Indices 1 2 3 4 5 6 
#
# 1 0.1070 14.7627 27.8960 -15.7815 -18.9429 -3.7542
# 2 14.7627 89.4247 32.8551 -11.2259 -16.8579 -0.2222
# 3 27.8960 32.8551 51.6967 -2.5998 15.7493 10.8733
# 4 -15.7815 -11.2259 -2.5998 26.7354 -0.9882 13.1611
# 5 -18.9429 -16.8579 15.7493 -0.9882 24.3929 -18.3014
# 6 -3.7542 -0.2222 10.8733 13.1611 -18.3014 41.1335
#
#
#
# Elastic Compliance Matrix: (Units=1/GPa)
#
#
# Indices 1 2 3 4 5 6 
#
# 1 0.008322 -0.015000 0.022140 0.011865 -0.036699 -0.025299
# 2 -0.015000 0.016579 -0.005860 -0.004610 0.007077 0.004894
# 3 0.022140 -0.005860 0.012063 0.014156 0.002448 -0.004640
# 4 0.011865 -0.004610 0.014156 0.059103 -0.025398 -0.032895
# 5 -0.036699 0.007077 0.002448 -0.025398 0.026877 0.016126
# 6 -0.025299 0.004894 -0.004640 -0.032895 0.016126 0.040955
#
#
# Mechanical properties :
#
#
# Convention : Reuss Voigt Hill
#
# Bulk Modulus (GPa) = 25.30028 32.47289 28.88658
# Shear Modulus (GPa) = 28.65100 22.83333 25.74216
#
# Velocity S-wave (km/s) = 3.47453 3.10178 3.29343
# Velocity P-wave (km/s) = 5.17271 5.14886 5.16080
#
# Compressibility (1/GPa) = 0.03952526
#
# Stress axis : x y z
#
# Youngs Moduli (GPa) = 120.15721 60.31545 82.90077
#
# Poissons Ratio (x) = 0.90474 -1.83546
# Poissons Ratio (y) = 1.80238 0.48579
# Poissons Ratio (z) = -2.66033 0.35344
#
# Static dielectric constant tensor:
#      x y z
#    x 1.927420 -0.049730 0.041170 
#    y -0.049730 1.873050 -0.028770 
#    z 0.041170 -0.028770 1.953280 
# 
# From -- ./inp_files/130907.got.cif
#   From: 2010.05.17/outbox.cif.g08.bks.cpg/sg2_66_cif.got.tgz:130907.got - 2010.06.03 11:33:40.
