data_PCOD9077339
_publ_section_title
;
Structure prediction by ZEFSAII (Michael W. Deem and Ramdas Pophale) SiO2 
 PCOD9077339
Probable space group: P -1
;
_chemical_formula_sum "Si O2"
_cell_formula_units_Z 16
_cell_length_a 20.340187
_cell_length_b 23.909948
_cell_length_c 7.343240
_cell_angle_alpha 30.426896
_cell_angle_beta 137.259600
_cell_angle_gamma 156.955452
_cell_volume 675.864180
_symmetry_space_group_name_H-M "P -1"
_symmetry_group_IT_number 2
_symmetry_cell_setting 'triclinic'
loop_
_space_group_symop_operation_xyz
x,y,z
-x,-y,-z
loop_
_atom_site_type_symbol
_atom_site_label
_atom_site_fract_x
_atom_site_fract_y
_atom_site_fract_z
Si Si1 0.337250 0.586901 0.583477
Si Si2 0.966086 0.298345 0.684173
Si Si3 0.599961 0.709797 0.581253
Si Si4 0.899040 0.047931 0.532433
Si Si5 0.472983 0.852534 0.443414
Si Si6 0.840861 0.117647 0.571516
Si Si7 0.843835 0.820418 0.544190
Si Si8 0.111661 0.554311 0.741780
O O1 0.462949 0.680332 0.405778
O O2 0.449290 0.742318 0.540763
O O3 0.170031 0.508799 0.454219
O O4 0.247593 0.383212 0.016467
O O5 0.883679 0.143023 0.798392
O O6 0.866095 0.318246 0.440882
O O7 0.950918 0.214893 0.074187
O O8 0.697638 0.774995 0.407450
O O9 0.734143 0.851065 0.628033
O O10 0.500000 0.500000 0.000000
O O11 0.862910 0.040516 0.688140
O O12 0.059730 0.118531 0.618087
O O13 0.296215 0.686071 0.671522
O O14 0.649157 0.987153 0.527367
O O15 0.500000 0.000000 0.000000
O O16 0.989941 0.347850 0.167234
O O17 0.000000 0.000000 0.500000
O O18 0.000000 0.500000 0.500000
#
# Coordination Sequence:
#
# PCOD9077339 Si02
#       8
#     2   2   2   2   2   2   2   2
#     4  10  18  34  58  87 121 157 200 250 304 362
#     4  11  23  39  60  88 123 164 206 251 307 366
#     4   9  17  31  60  92 112 154 206 243 303 373
#     4  10  18  37  61  84 122 157 196 252 309 359
#     4  12  22  37  64  91 122 167 208 251 307 364
#     4  12  24  40  62  91 124 166 207 254 307 367
#     4   8  16  30  58  90 109 152 206 245 300 367
#     4  12  21  40  61  85 125 164 208 255 303 354
#
# _framework density 23.673396
#
# number of rings (size 3 to 8) (size 9 to 14) (size 15 to 20)
#    0.000    1.500    5.000    1.125    0.000    0.500 
#    2.250    0.000    0.000   28.500    0.000    0.000 
#    0.000    0.000    0.000    0.000    0.000    0.000 
#
# Total GULP energy -89415.913655 kJ/mol
# GULP energy per Si atom -5588.494603 kJ/mol
# Density = 2.361951 g / cm^3
# Si number density = 23.673396 Si / 1000 Ang^3
#
#
#
# Elastic Constant Matrix: (Units=GPa)
#
#
# Indices 1 2 3 4 5 6 
#
# 1 207.2046 31.7257 36.0669 -1.9037 -8.7268 13.2839
# 2 31.7257 54.3812 12.6656 -11.4591 -13.3318 -0.5382
# 3 36.0669 12.6656 91.8804 -13.5717 10.5988 0.1085
# 4 -1.9037 -11.4591 -13.5717 30.3775 -2.1449 -2.5259
# 5 -8.7268 -13.3318 10.5988 -2.1449 35.5991 -10.0253
# 6 13.2839 -0.5382 0.1085 -2.5259 -10.0253 46.8315
#
#
#
# Elastic Compliance Matrix: (Units=1/GPa)
#
#
# Indices 1 2 3 4 5 6 
#
# 1 0.005800 -0.003255 -0.002141 -0.001949 0.000235 -0.001733
# 2 -0.003255 0.025588 -0.002119 0.009633 0.011159 0.004131
# 3 -0.002141 -0.002119 0.013284 0.004620 -0.005075 -0.000285
# 4 -0.001949 0.009633 0.004620 0.039185 0.005209 0.003881
# 5 0.000235 0.011159 -0.005075 0.005209 0.036449 0.008157
# 6 -0.001733 0.004131 -0.000285 0.003881 0.008157 0.023848
#
#
# Mechanical properties :
#
#
# Convention : Reuss Voigt Hill
#
# Bulk Modulus (GPa) = 33.73533 57.15363 45.44448
# Shear Modulus (GPa) = 29.57430 40.76217 35.16823
#
# Velocity S-wave (km/s) = 3.53833 4.15403 3.85848
# Velocity P-wave (km/s) = 5.56545 6.87044 6.25208
#
# Compressibility (1/GPa) = 0.02964252
#
# Stress axis : x y z
#
# Youngs Moduli (GPa) = 172.40430 39.08124 75.27664
#
# Poissons Ratio (x) = 0.12722 0.16117
# Poissons Ratio (y) = 0.56124 0.15948
# Poissons Ratio (z) = 0.36911 0.08280
#
# Static dielectric constant tensor:
#      x y z
#    x 1.940370 0.023910 -0.030960 
#    y 0.023910 1.877200 -0.017480 
#    z -0.030960 -0.017480 1.898790 
# 
# From -- ./inp_files/337473.got.cif
#   From: 2010.05.17/outbox.cif.g08.bks.cpg/sg2_169_cif.got.tgz:337473.got - 2010.06.03 11:33:40.
