data_PCOD9077057
_publ_section_title
;
Structure prediction by ZEFSAII (Michael W. Deem and Ramdas Pophale) SiO2 
 PCOD9077057
Probable space group: P -1
;
_chemical_formula_sum "Si O2"
_cell_formula_units_Z 14
_cell_length_a 11.072944
_cell_length_b 9.146125
_cell_length_c 8.576622
_cell_angle_alpha 97.572266
_cell_angle_beta 136.204985
_cell_angle_gamma 87.154742
_cell_volume 594.583307
_symmetry_space_group_name_H-M "P -1"
_symmetry_group_IT_number 2
_symmetry_cell_setting 'triclinic'
loop_
_space_group_symop_operation_xyz
x,y,z
-x,-y,-z
loop_
_atom_site_type_symbol
_atom_site_label
_atom_site_fract_x
_atom_site_fract_y
_atom_site_fract_z
Si Si1 0.583618 0.489128 0.745248
Si Si2 0.555817 0.896367 0.175656
Si Si3 0.195555 0.881261 0.424248
Si Si4 0.025665 0.656255 0.669130
Si Si5 0.098341 0.345274 0.777918
Si Si6 0.255718 0.826516 0.120686
Si Si7 0.626143 0.342878 0.216679
O O1 0.500000 0.500000 0.500000
O O2 0.992306 0.199704 0.723683
O O3 0.672250 0.335369 0.810618
O O4 0.731308 0.615138 0.953864
O O5 0.410052 0.909304 0.176874
O O6 0.741992 0.962683 0.419094
O O7 0.523057 0.738295 0.041032
O O8 0.500000 0.000000 0.000000
O O9 0.222646 0.891781 0.267014
O O10 0.321386 0.765704 0.609052
O O11 0.996719 0.500443 0.712406
O O12 0.209265 0.641074 0.743498
O O13 0.895717 0.675690 0.407273
O O14 0.077301 0.791925 0.850888
O O15 0.564721 0.488083 0.261275
#
# Coordination Sequence:
#
# PCOD9077057 Si02
#       7
#     2   2   2   2   2   2   2
#     4  11  21  35  55  84 113 139 174 222 277 326
#     4   9  19  34  57  80 105 141 187 223 255 313
#     4  10  18  34  55  82 109 141 179 222 264 310
#     4   8  17  33  50  78 107 141 183 218 261 315
#     4   9  19  33  52  77 112 141 178 219 267 317
#     4  10  19  32  58  84 108 139 179 223 268 313
#     4   9  18  35  55  79 109 143 179 218 265 323
#
# _framework density 23.545904
#
# number of rings (size 3 to 8) (size 9 to 14) (size 15 to 20)
#    0.000    2.571    1.429    1.286    0.000    7.429 
#    2.571    0.714    0.000    0.857    0.000    0.000 
#    0.000    0.000    0.000    0.000    0.000    0.000 
#
# Total GULP energy -78109.577719 kJ/mol
# GULP energy per Si atom -5579.255551 kJ/mol
# Density = 2.349231 g / cm^3
# Si number density = 23.545904 Si / 1000 Ang^3
#
#
#
# Elastic Constant Matrix: (Units=GPa)
#
#
# Indices 1 2 3 4 5 6 
#
# 1 67.7296 24.6780 51.5086 7.4664 -23.5205 14.2225
# 2 24.6780 41.7792 36.8832 13.1180 -5.4549 12.8713
# 3 51.5086 36.8832 194.5618 16.9098 -13.4626 12.7341
# 4 7.4664 13.1180 16.9098 32.1103 0.7305 0.9990
# 5 -23.5205 -5.4549 -13.4626 0.7305 39.6744 1.3127
# 6 14.2225 12.8713 12.7341 0.9990 1.3127 39.1383
#
#
#
# Elastic Compliance Matrix: (Units=1/GPa)
#
#
# Indices 1 2 3 4 5 6 
#
# 1 0.027165 -0.008408 -0.004171 -0.000805 0.013752 -0.006190
# 2 -0.008408 0.037981 -0.003487 -0.011466 -0.000470 -0.007992
# 3 -0.004171 -0.003487 0.006944 -0.001263 -0.000588 0.000455
# 4 -0.000805 -0.011466 -0.001263 0.036640 -0.003278 0.003649
# 5 0.013752 -0.000470 -0.000588 -0.003278 0.033343 -0.005686
# 6 -0.006190 -0.007992 0.000455 0.003649 -0.005686 0.030378
#
#
# Mechanical properties :
#
#
# Convention : Reuss Voigt Hill
#
# Bulk Modulus (GPa) = 25.02620 58.91225 41.96922
# Shear Modulus (GPa) = 22.94610 34.91798 28.93204
#
# Velocity S-wave (km/s) = 3.12513 3.85512 3.50916
# Velocity P-wave (km/s) = 4.86556 6.70003 5.85509
#
# Compressibility (1/GPa) = 0.03995813
#
# Stress axis : x y z
#
# Youngs Moduli (GPa) = 36.81274 26.32888 144.00059
#
# Poissons Ratio (x) = 0.22137 0.60062
# Poissons Ratio (y) = 0.30952 0.50215
# Poissons Ratio (z) = 0.15355 0.09181
#
# Static dielectric constant tensor:
#      x y z
#    x 1.891710 0.022120 0.058460 
#    y 0.022120 1.915260 0.014430 
#    z 0.058460 0.014430 1.969440 
# 
# From -- ./inp_files/254413.got.cif
#   From: 2010.05.17/outbox.cif.g08.bks.cpg/sg2_128_cif.got.tgz:254413.got - 2010.06.03 11:33:40.
