data_PCOD9077789
_publ_section_title
;
Structure prediction by ZEFSAII (Michael W. Deem and Ramdas Pophale) SiO2 
 PCOD9077789
Probable space group: P -1
;
_chemical_formula_sum "Si O2"
_cell_formula_units_Z 14
_cell_length_a 5.321364
_cell_length_b 8.976660
_cell_length_c 17.408379
_cell_angle_alpha 63.351485
_cell_angle_beta 115.839248
_cell_angle_gamma 127.064037
_cell_volume 576.877146
_symmetry_space_group_name_H-M "P -1"
_symmetry_group_IT_number 2
_symmetry_cell_setting 'triclinic'
loop_
_space_group_symop_operation_xyz
x,y,z
-x,-y,-z
loop_
_atom_site_type_symbol
_atom_site_label
_atom_site_fract_x
_atom_site_fract_y
_atom_site_fract_z
Si Si1 0.191533 0.058503 0.706689
Si Si2 0.321883 0.616532 0.565041
Si Si3 0.765221 0.375543 0.926270
Si Si4 0.739613 0.727089 0.003648
Si Si5 0.623863 0.648993 0.743314
Si Si6 0.276080 0.047759 0.198035
Si Si7 0.072298 0.196699 0.503542
O O1 0.050428 0.070826 0.767739
O O2 0.175330 0.188825 0.607092
O O3 0.529418 0.064692 0.755867
O O4 0.925634 0.835276 0.700582
O O5 0.365213 0.535364 0.669803
O O6 0.619371 0.656757 0.540565
O O7 0.000000 0.500000 0.500000
O O8 0.248692 0.785340 0.544213
O O9 0.743977 0.522172 0.831771
O O10 0.000000 0.500000 0.000000
O O11 0.921931 0.259458 0.938815
O O12 0.761021 0.866015 0.906392
O O13 0.500000 0.500000 0.000000
O O14 0.579176 0.756616 0.050152
O O15 0.522331 0.755365 0.768731
O O16 0.000000 0.000000 0.500000
#
# Coordination Sequence:
#
# PCOD9077789 Si02
#       7
#     2   2   2   2   2   2   2
#     4  10  19  30  53  81 101 145 189 239 283 330
#     4  12  27  42  59  88 126 162 196 247 304 356
#     4  10  17  26  43  71 108 148 174 226 292 351
#     4  10  15  25  39  67 113 144 165 220 293 352
#     4  10  21  31  54  75 117 147 191 234 296 342
#     4  10  17  28  46  81 113 141 180 234 292 341
#     4  12  22  43  65  86 114 158 211 254 291 352
#
# _framework density 24.268595000000001
#
# number of rings (size 3 to 8) (size 9 to 14) (size 15 to 20)
#    0.857    0.571    4.286    5.143    0.000    0.000 
#    0.000    0.000    0.000    0.000    0.000    0.000 
#    0.000   38.857    0.000    0.000    0.000    0.000 
#
# Total GULP energy -78199.377402 kJ/mol
# GULP energy per Si atom -5585.669814 kJ/mol
# Density = 2.421336 g / cm^3
# Si number density = 24.268595 Si / 1000 Ang^3
#
#
#
# Elastic Constant Matrix: (Units=GPa)
#
#
# Indices 1 2 3 4 5 6 
#
# 1 187.4714 2.3878 45.5064 -26.7751 5.2307 -15.1489
# 2 2.3878 48.4882 28.5760 2.6671 -6.9085 0.6723
# 3 45.5064 28.5760 178.6710 -36.4831 -0.4232 -0.9586
# 4 -26.7751 2.6671 -36.4831 40.0144 -2.3267 1.7971
# 5 5.2307 -6.9085 -0.4232 -2.3267 30.5072 -13.2742
# 6 -15.1489 0.6723 -0.9586 1.7971 -13.2742 18.5535
#
#
#
# Elastic Compliance Matrix: (Units=1/GPa)
#
#
# Indices 1 2 3 4 5 6 
#
# 1 0.006492 0.000276 -0.000996 0.003246 0.001925 0.006302
# 2 0.000276 0.025002 -0.005269 -0.006083 0.007143 0.004747
# 3 -0.000996 -0.005269 0.008134 0.007112 -0.001096 -0.001675
# 4 0.003246 -0.006083 0.007112 0.034084 0.001069 0.000702
# 5 0.001925 0.007143 -0.001096 0.001069 0.050290 0.037134
# 6 0.006302 0.004747 -0.001675 0.000702 0.037134 0.085285
#
#
# Mechanical properties :
#
#
# Convention : Reuss Voigt Hill
#
# Bulk Modulus (GPa) = 36.16797 63.06343 49.61570
# Shear Modulus (GPa) = 21.69382 40.35905 31.02643
#
# Velocity S-wave (km/s) = 2.99307 4.08243 3.57944
# Velocity P-wave (km/s) = 5.18461 6.94721 6.12959
#
# Compressibility (1/GPa) = 0.02764877
#
# Stress axis : x y z
#
# Youngs Moduli (GPa) = 154.04558 39.99748 122.94130
#
# Poissons Ratio (x) = -0.01104 0.12249
# Poissons Ratio (y) = -0.04250 0.64775
# Poissons Ratio (z) = 0.15348 0.21074
#
# Static dielectric constant tensor:
#      x y z
#    x 2.041080 0.026450 0.007110 
#    y 0.026450 2.053100 0.049070 
#    z 0.007110 0.049070 1.863130 
# 
# From -- ./inp_files/548007.got.cif
#   From: 2010.05.17/outbox.cif.g08.bks.cpg/sg2_275_cif.got.tgz:548007.got - 2010.06.03 11:33:40.
