data_PCOD9077350
_publ_section_title
;
Structure prediction by ZEFSAII (Michael W. Deem and Ramdas Pophale) SiO2 
 PCOD9077350
Probable space group: P -1
;
_chemical_formula_sum "Si O2"
_cell_formula_units_Z 12
_cell_length_a 8.148187
_cell_length_b 8.040074
_cell_length_c 15.478874
_cell_angle_alpha 58.315472
_cell_angle_beta 59.853625
_cell_angle_gamma 104.561432
_cell_volume 532.792806
_symmetry_space_group_name_H-M "P -1"
_symmetry_group_IT_number 2
_symmetry_cell_setting 'triclinic'
loop_
_space_group_symop_operation_xyz
x,y,z
-x,-y,-z
loop_
_atom_site_type_symbol
_atom_site_label
_atom_site_fract_x
_atom_site_fract_y
_atom_site_fract_z
Si Si1 0.820604 0.896169 0.658668
Si Si2 0.627853 0.651583 0.332258
Si Si3 0.262683 0.730370 0.422882
Si Si4 0.718493 0.449569 0.902574
Si Si5 0.732850 0.326107 0.360624
Si Si6 0.153008 0.089186 0.163868
O O1 0.697552 0.594197 0.790766
O O2 0.971829 0.034969 0.673495
O O3 0.663792 0.986726 0.669247
O O4 0.000000 0.000000 0.500000
O O5 0.500000 0.500000 0.500000
O O6 0.488847 0.753425 0.318057
O O7 0.613842 0.450319 0.331634
O O8 0.060630 0.093423 0.802268
O O9 0.208448 0.631857 0.563552
O O10 0.000000 0.500000 0.500000
O O11 0.761912 0.622170 0.927130
O O12 0.986351 0.521676 0.799464
O O13 0.420416 0.153036 0.068636
O O14 0.500000 0.000000 0.500000
#
# Coordination Sequence:
#
# PCOD9077350 Si02
#       6
#     2   2   2   2   2   2
#     4  10  18  34  58  90 114 153 197 245 287 352
#     4  10  21  36  56  87 115 159 200 245 289 360
#     4  11  22  34  58  88 122 150 194 256 302 333
#     4   9  19  36  61  87 118 158 197 242 297 357
#     4  11  22  37  62  90 115 157 209 246 282 364
#     4   9  19  38  60  85 120 158 199 237 304 357
#
# _framework density 22.522828000000001
#
# number of rings (size 3 to 8) (size 9 to 14) (size 15 to 20)
#    1.000    1.000    1.667    4.000    2.333    0.667 
#    0.000    0.833    0.000    2.000    0.000    0.000 
#    0.000    0.000    0.000    0.000    0.000    0.000 
#
# Total GULP energy -66823.856667 kJ/mol
# GULP energy per Si atom -5568.654722 kJ/mol
# Density = 2.247157 g / cm^3
# Si number density = 22.522828 Si / 1000 Ang^3
#
#
#
# Elastic Constant Matrix: (Units=GPa)
#
#
# Indices 1 2 3 4 5 6 
#
# 1 66.0241 43.3348 27.4659 3.6913 -25.3084 -26.1221
# 2 43.3348 97.0942 37.0617 12.0322 -30.3029 -31.7833
# 3 27.4659 37.0617 82.7688 16.1349 -34.1719 -6.8446
# 4 3.6913 12.0322 16.1349 30.9311 -1.6945 -9.3326
# 5 -25.3084 -30.3029 -34.1719 -1.6945 45.3618 7.4235
# 6 -26.1221 -31.7833 -6.8446 -9.3326 7.4235 55.3904
#
#
#
# Elastic Compliance Matrix: (Units=1/GPa)
#
#
# Indices 1 2 3 4 5 6 
#
# 1 0.026120 -0.006095 -0.003115 0.003713 0.006963 0.008128
# 2 -0.006095 0.018093 -0.002766 -0.002767 0.005524 0.005959
# 3 -0.003115 -0.002766 0.021230 -0.010088 0.012656 -0.003829
# 4 0.003713 -0.002767 -0.010088 0.039823 -0.006963 0.006559
# 5 0.006963 0.005524 0.012656 -0.006963 0.038621 0.001668
# 6 0.008128 0.005959 -0.003829 0.006559 0.001668 0.025715
#
#
# Mechanical properties :
#
#
# Convention : Reuss Voigt Hill
#
# Bulk Modulus (GPa) = 24.10260 51.29021 37.69641
# Shear Modulus (GPa) = 24.10989 35.53829 29.82409
#
# Velocity S-wave (km/s) = 3.27534 3.97656 3.64286
# Velocity P-wave (km/s) = 5.00285 6.62616 5.87088
#
# Compressibility (1/GPa) = 0.04148930
#
# Stress axis : x y z
#
# Youngs Moduli (GPa) = 38.28552 55.27019 47.10409
#
# Poissons Ratio (x) = 0.33685 0.14674
# Poissons Ratio (y) = 0.23334 0.13031
# Poissons Ratio (z) = 0.11927 0.15290
#
# Static dielectric constant tensor:
#      x y z
#    x 1.886040 -0.045250 0.016260 
#    y -0.045250 1.909520 -0.051620 
#    z 0.016260 -0.051620 1.935350 
# 
# From -- ./inp_files/587215.got.cif
#   From: 2010.05.17/outbox.cif.g08.bks.cpg/sg2_294_cif.got.tgz:587215.got - 2010.06.03 11:33:40.
