data_PCOD9077322
_publ_section_title
;
Structure prediction by ZEFSAII (Michael W. Deem and Ramdas Pophale) SiO2 
 PCOD9077322
Probable space group: P -1
;
_chemical_formula_sum "Si O2"
_cell_formula_units_Z 16
_cell_length_a 9.628573
_cell_length_b 17.139828
_cell_length_c 8.738361
_cell_angle_alpha 53.775775
_cell_angle_beta 81.742502
_cell_angle_gamma 123.211833
_cell_volume 702.299789
_symmetry_space_group_name_H-M "P -1"
_symmetry_group_IT_number 2
_symmetry_cell_setting 'triclinic'
loop_
_space_group_symop_operation_xyz
x,y,z
-x,-y,-z
loop_
_atom_site_type_symbol
_atom_site_label
_atom_site_fract_x
_atom_site_fract_y
_atom_site_fract_z
Si Si1 0.993204 0.081403 0.745909
Si Si2 0.763733 0.529535 0.598949
Si Si3 0.312335 0.372071 0.944284
Si Si4 0.513578 0.023978 0.651437
Si Si5 0.035033 0.833453 0.035929
Si Si6 0.516899 0.811616 0.981304
Si Si7 0.964386 0.684745 0.696601
Si Si8 0.245398 0.142667 0.381607
O O1 0.019187 0.121991 0.870675
O O2 0.017262 0.196742 0.515851
O O3 0.181935 0.114650 0.601100
O O4 0.737376 0.909560 0.938864
O O5 0.559490 0.500462 0.674234
O O6 0.664697 0.372351 0.743333
O O7 0.954014 0.683660 0.285195
O O8 0.864170 0.569363 0.706676
O O9 0.116684 0.236880 0.010203
O O10 0.344540 0.300861 0.137753
O O11 0.205990 0.399741 0.032074
O O12 0.500000 0.000000 0.500000
O O13 0.774417 0.200009 0.438243
O O14 0.304064 0.977005 0.789243
O O15 0.469251 0.899147 0.895806
O O16 0.594269 0.841834 0.755008
O O17 0.000000 0.000000 0.500000
#
# Coordination Sequence:
#
# PCOD9077322 Si02
#       8
#     2   2   2   2   2   2   2   2
#     4   8  17  33  56  87 110 149 194 232 278 332
#     4  10  21  36  57  88 115 150 188 233 294 337
#     4  10  18  34  58  85 119 148 186 237 287 340
#     4  11  22  39  62  82 112 153 200 237 276 335
#     4  11  22  35  59  89 120 151 186 235 288 337
#     4   9  19  36  59  81 114 153 193 230 280 341
#     4   9  18  35  60  84 108 152 200 229 268 344
#     4   8  15  31  56  80 111 147 193 230 273 329
#
# _framework density 22.782294
#
# number of rings (size 3 to 8) (size 9 to 14) (size 15 to 20)
#    0.000    2.500    1.250    1.500    0.000    6.000 
#    0.000    6.250    2.750    0.000    0.000    0.000 
#    0.000    0.000    0.000    0.000    0.000    0.000 
#
# Total GULP energy -89265.824143 kJ/mol
# GULP energy per Si atom -5579.114009 kJ/mol
# Density = 2.273044 g / cm^3
# Si number density = 22.782294 Si / 1000 Ang^3
#
#
#
# Elastic Constant Matrix: (Units=GPa)
#
#
# Indices 1 2 3 4 5 6 
#
# 1 69.2234 16.9992 19.9250 2.5842 -16.7624 8.5357
# 2 16.9992 91.8182 5.4049 -0.6763 3.6919 14.4424
# 3 19.9250 5.4049 62.4170 2.8031 -6.7525 5.8594
# 4 2.5842 -0.6763 2.8031 39.5836 1.8673 2.0101
# 5 -16.7624 3.6919 -6.7525 1.8673 35.1784 -6.0005
# 6 8.5357 14.4424 5.8594 2.0101 -6.0005 29.3258
#
#
#
# Elastic Compliance Matrix: (Units=1/GPa)
#
#
# Indices 1 2 3 4 5 6 
#
# 1 0.018810 -0.003380 -0.004653 -0.001293 0.008307 -0.001092
# 2 -0.003380 0.012648 0.000084 0.000933 -0.004020 -0.006148
# 3 -0.004653 0.000084 0.017825 -0.000898 0.000902 -0.002003
# 4 -0.001293 0.000933 -0.000898 0.025662 -0.002624 -0.002199
# 5 0.008307 -0.004020 0.000902 -0.002624 0.034239 0.006567
# 6 -0.001092 -0.006148 -0.002003 -0.002199 0.006567 0.039340
#
#
# Mechanical properties :
#
#
# Convention : Reuss Voigt Hill
#
# Bulk Modulus (GPa) = 29.95347 34.23519 32.09433
# Shear Modulus (GPa) = 28.48200 32.89286 30.68743
#
# Velocity S-wave (km/s) = 3.53963 3.80385 3.67411
# Velocity P-wave (km/s) = 5.46640 5.86106 5.66717
#
# Compressibility (1/GPa) = 0.03338511
#
# Stress axis : x y z
#
# Youngs Moduli (GPa) = 53.16417 79.06679 56.10071
#
# Poissons Ratio (x) = 0.26727 0.26101
# Poissons Ratio (y) = 0.17971 -0.00473
# Poissons Ratio (z) = 0.24735 -0.00666
#
# Static dielectric constant tensor:
#      x y z
#    x 1.890700 -0.024200 0.008080 
#    y -0.024200 1.847520 0.005350 
#    z 0.008080 0.005350 1.917130 
# 
# From -- ./inp_files/279291.got.cif
#   From: 2010.05.17/outbox.cif.g08.bks.cpg/sg2_140_cif.got.tgz:279291.got - 2010.06.03 11:33:40.
