data_PCOD9077378
_publ_section_title
;
Structure prediction by ZEFSAII (Michael W. Deem and Ramdas Pophale) SiO2 
 PCOD9077378
Probable space group: P -1
;
_chemical_formula_sum "Si O2"
_cell_formula_units_Z 16
_cell_length_a 12.859086
_cell_length_b 9.799942
_cell_length_c 6.653598
_cell_angle_alpha 94.105131
_cell_angle_beta 51.859740
_cell_angle_gamma 73.877080
_cell_volume 599.839736
_symmetry_space_group_name_H-M "P -1"
_symmetry_group_IT_number 2
_symmetry_cell_setting 'triclinic'
loop_
_space_group_symop_operation_xyz
x,y,z
-x,-y,-z
loop_
_atom_site_type_symbol
_atom_site_label
_atom_site_fract_x
_atom_site_fract_y
_atom_site_fract_z
Si Si1 0.289689 0.698995 0.654602
Si Si2 0.217246 0.323448 0.242426
Si Si3 0.553307 0.992287 0.159859
Si Si4 0.975151 0.240570 0.547765
Si Si5 0.206050 0.906439 0.114847
Si Si6 0.283080 0.230743 0.622875
Si Si7 0.977293 0.345442 0.014497
Si Si8 0.610550 0.571768 0.202120
O O1 0.441011 0.665582 0.356030
O O2 0.358487 0.587673 0.752485
O O3 0.200879 0.860393 0.881978
O O4 0.164108 0.654685 0.705924
O O5 0.055123 0.343334 0.378548
O O6 0.247023 0.284845 0.438233
O O7 0.274419 0.445839 0.114771
O O8 0.332482 0.177177 0.972381
O O9 0.406625 0.064242 0.467167
O O10 0.633349 0.102997 0.073049
O O11 0.500000 0.000000 0.000000
O O12 0.962557 0.293487 0.801259
O O13 0.835229 0.200745 0.697410
O O14 0.101079 0.074232 0.329653
O O15 0.134687 0.230191 0.881738
O O16 0.339128 0.344825 0.672777
O O17 0.000000 0.500000 0.000000
#
# Coordination Sequence:
#
# PCOD9077378 Si02
#       8
#     2   2   2   2   2   2   2   2
#     4  10  21  35  57  85 117 158 192 238 294 347
#     4   9  20  36  58  91 114 146 200 242 287 350
#     4   9  17  32  58  84 112 150 192 235 289 343
#     4   8  17  31  55  83 111 146 191 236 285 346
#     4   9  15  32  54  82 111 151 190 231 290 342
#     4  10  19  36  60  82 113 153 188 239 291 347
#     4  10  18  34  59  81 114 155 189 233 295 348
#     4  11  21  37  60  85 117 152 200 240 289 351
#
# _framework density 26.673788999999999
#
# number of rings (size 3 to 8) (size 9 to 14) (size 15 to 20)
#    0.000    2.500    2.500    0.750    0.000    0.500 
#    0.000    8.125    5.500    0.750    0.000    0.000 
#    0.000    0.000    0.000    0.000    0.000    0.000 
#
# Total GULP energy -89214.503384 kJ/mol
# GULP energy per Si atom -5575.906461 kJ/mol
# Density = 2.661308 g / cm^3
# Si number density = 26.673789 Si / 1000 Ang^3
#
#
#
# Elastic Constant Matrix: (Units=GPa)
#
#
# Indices 1 2 3 4 5 6 
#
# 1 78.2286 13.6937 30.6581 -11.4285 -29.0140 18.9662
# 2 13.6937 108.0607 23.4586 -7.6079 -7.7499 17.1291
# 3 30.6581 23.4586 138.8410 -11.9809 -31.6458 10.4952
# 4 -11.4285 -7.6079 -11.9809 59.4116 14.1564 -3.9636
# 5 -29.0140 -7.7499 -31.6458 14.1564 61.3990 -12.1729
# 6 18.9662 17.1291 10.4952 -3.9636 -12.1729 39.3021
#
#
#
# Elastic Compliance Matrix: (Units=1/GPa)
#
#
# Indices 1 2 3 4 5 6 
#
# 1 0.017291 -0.000368 -0.001915 0.001142 0.005728 -0.005784
# 2 -0.000368 0.010260 -0.001413 0.000832 -0.000595 -0.004017
# 3 -0.001915 -0.001413 0.008636 0.000419 0.003333 0.000308
# 4 0.001142 0.000832 0.000419 0.018023 -0.003343 -0.000244
# 5 0.005728 -0.000595 0.003333 -0.003343 0.022019 0.003088
# 6 -0.005784 -0.004017 0.000308 -0.000244 0.003088 0.030836
#
#
# Mechanical properties :
#
#
# Convention : Reuss Voigt Hill
#
# Bulk Modulus (GPa) = 34.72467 51.19457 42.95962
# Shear Modulus (GPa) = 40.30501 49.17721 44.74111
#
# Velocity S-wave (km/s) = 3.89142 4.29844 4.09998
# Velocity P-wave (km/s) = 5.76519 6.62344 6.20916
#
# Compressibility (1/GPa) = 0.02879797
#
# Stress axis : x y z
#
# Youngs Moduli (GPa) = 57.83290 97.46596 115.78841
#
# Poissons Ratio (x) = 0.03582 0.22171
# Poissons Ratio (y) = 0.02125 0.16355
# Poissons Ratio (z) = 0.11074 0.13767
#
# Static dielectric constant tensor:
#      x y z
#    x 2.118000 -0.071610 0.012320 
#    y -0.071610 2.178900 0.000240 
#    z 0.012320 0.000240 2.196060 
# 
# From -- ./inp_files/305489.got.cif
#   From: 2010.05.17/outbox.cif.g08.bks.cpg/sg2_153_cif.got.tgz:305489.got - 2010.06.03 11:33:40.
