data_PCOD9077764
_publ_section_title
;
Structure prediction by ZEFSAII (Michael W. Deem and Ramdas Pophale) SiO2 
 PCOD9077764
Probable space group: P -1
;
_chemical_formula_sum "Si O2"
_cell_formula_units_Z 16
_cell_length_a 14.688570
_cell_length_b 11.717473
_cell_length_c 14.313096
_cell_angle_alpha 129.172101
_cell_angle_beta 148.374779
_cell_angle_gamma 31.795714
_cell_volume 641.714012
_symmetry_space_group_name_H-M "P -1"
_symmetry_group_IT_number 2
_symmetry_cell_setting 'triclinic'
loop_
_space_group_symop_operation_xyz
x,y,z
-x,-y,-z
loop_
_atom_site_type_symbol
_atom_site_label
_atom_site_fract_x
_atom_site_fract_y
_atom_site_fract_z
Si Si1 0.708006 0.323667 0.411592
Si Si2 0.008924 0.729303 0.152065
Si Si3 0.706255 0.710998 0.733184
Si Si4 0.146514 0.001655 0.489597
Si Si5 0.171882 0.726702 0.831138
Si Si6 0.816761 0.222244 0.842295
Si Si7 0.490333 0.844170 0.955857
Si Si8 0.012516 0.351074 0.217365
O O1 0.507598 0.582753 0.332786
O O2 0.573767 0.258687 0.216499
O O3 0.998890 0.162831 0.535186
O O4 0.774523 0.214183 0.516126
O O5 0.154539 0.538922 0.260604
O O6 0.197129 0.700235 0.233957
O O7 0.748985 0.987114 0.092108
O O8 0.885853 0.696398 0.949913
O O9 0.729313 0.756643 0.671156
O O10 0.415297 0.892176 0.621391
O O11 0.923590 0.177242 0.306839
O O12 0.020511 0.684515 0.724106
O O13 0.500000 0.500000 0.000000
O O14 0.035327 0.951282 0.884999
O O15 0.919917 0.269584 0.033112
O O16 0.779225 0.623098 0.138998
O O17 0.500000 0.000000 0.000000
#
# Coordination Sequence:
#
# PCOD9077764 Si02
#       8
#     2   2   2   2   2   2   2   2
#     4  10  22  40  62  97 127 161 205 270 329 354
#     4  10  18  34  64  93 123 156 206 255 319 370
#     4  10  20  38  59  94 127 163 197 261 316 367
#     4  11  23  41  61  90 135 162 207 267 313 377
#     4  12  25  43  65  90 125 174 214 252 310 385
#     4  10  20  40  68  91 121 159 213 265 311 370
#     4  11  19  35  65  95 124 162 212 263 306 373
#     4  10  22  38  63  93 125 167 213 251 307 384
#
# _framework density 24.933226999999999
#
# number of rings (size 3 to 8) (size 9 to 14) (size 15 to 20)
#    0.000    1.500    2.500    4.125    0.000    1.000 
#    4.500    0.000    0.000   14.250    0.000    0.000 
#    0.000    0.000    0.000    0.000    0.000    0.000 
#
# Total GULP energy -89298.767065 kJ/mol
# GULP energy per Si atom -5581.172942 kJ/mol
# Density = 2.487648 g / cm^3
# Si number density = 24.933227 Si / 1000 Ang^3
#
#
#
# Elastic Constant Matrix: (Units=GPa)
#
#
# Indices 1 2 3 4 5 6 
#
# 1 159.9313 7.1088 18.9892 -13.2477 0.1425 10.6563
# 2 7.1088 90.8369 11.6570 -28.6168 -1.0451 10.8566
# 3 18.9892 11.6570 37.4324 -22.5474 7.2349 7.1470
# 4 -13.2477 -28.6168 -22.5474 40.2650 -12.8576 5.1692
# 5 0.1425 -1.0451 7.2349 -12.8576 43.1437 -8.8578
# 6 10.6563 10.8566 7.1470 5.1692 -8.8578 35.1080
#
#
#
# Elastic Compliance Matrix: (Units=1/GPa)
#
#
# Indices 1 2 3 4 5 6 
#
# 1 0.006770 0.000539 -0.002303 0.001723 0.000505 -0.001879
# 2 0.000539 0.016731 0.006104 0.017482 0.002859 -0.008433
# 3 -0.002303 0.006104 0.049113 0.032641 -0.001726 -0.016428
# 4 0.001723 0.017482 0.032641 0.061560 0.009331 -0.019283
# 5 0.000505 0.002859 -0.001726 0.009331 0.027308 0.004830
# 6 -0.001879 -0.008433 -0.016428 -0.019283 0.004830 0.039064
#
#
# Mechanical properties :
#
#
# Convention : Reuss Voigt Hill
#
# Bulk Modulus (GPa) = 12.30090 40.41231 26.35660
# Shear Modulus (GPa) = 22.83478 40.39972 31.61725
#
# Velocity S-wave (km/s) = 3.02956 4.02968 3.56487
# Velocity P-wave (km/s) = 4.14511 6.15585 5.24769
#
# Compressibility (1/GPa) = 0.08129489
#
# Stress axis : x y z
#
# Youngs Moduli (GPa) = 147.71827 59.76757 20.36108
#
# Poissons Ratio (x) = -0.03221 0.04689
# Poissons Ratio (y) = -0.07962 -0.12429
# Poissons Ratio (z) = 0.34017 -0.36483
#
# Static dielectric constant tensor:
#      x y z
#    x 2.052470 -0.063250 0.026150 
#    y -0.063250 2.174730 0.079740 
#    z 0.026150 0.079740 2.073000 
# 
# From -- ./inp_files/532621.got.cif
#   From: 2010.05.17/outbox.cif.g08.bks.cpg/sg2_267_cif.got.tgz:532621.got - 2010.06.03 11:33:40.
