data_PCOD9077914
_publ_section_title
;
Structure prediction by ZEFSAII (Michael W. Deem and Ramdas Pophale) SiO2 
 PCOD9077914
Probable space group: P -1
;
_chemical_formula_sum "Si O2"
_cell_formula_units_Z 16
_cell_length_a 8.026767
_cell_length_b 5.536249
_cell_length_c 18.873313
_cell_angle_alpha 128.128867
_cell_angle_beta 88.737985
_cell_angle_gamma 92.920254
_cell_volume 658.833990
_symmetry_space_group_name_H-M "P -1"
_symmetry_group_IT_number 2
_symmetry_cell_setting 'triclinic'
loop_
_space_group_symop_operation_xyz
x,y,z
-x,-y,-z
loop_
_atom_site_type_symbol
_atom_site_label
_atom_site_fract_x
_atom_site_fract_y
_atom_site_fract_z
Si Si1 0.713762 0.295078 0.291946
Si Si2 0.153319 0.805919 0.309693
Si Si3 0.808069 0.652675 0.672957
Si Si4 0.442952 0.341650 0.045475
Si Si5 0.464348 0.302988 0.750760
Si Si6 0.478166 0.360705 0.553264
Si Si7 0.064312 0.371211 0.098235
Si Si8 0.006174 0.974022 0.150573
O O1 0.615336 0.449853 0.255331
O O2 0.700869 0.564617 0.398579
O O3 0.870330 0.159011 0.227256
O O4 0.641662 0.008187 0.288014
O O5 0.108954 0.652447 0.356484
O O6 0.353505 0.782466 0.294693
O O7 0.079822 0.586752 0.208805
O O8 0.109393 0.148982 0.354924
O O9 0.623858 0.545855 0.630363
O O10 0.824010 0.891707 0.784546
O O11 0.514774 0.547103 0.145721
O O12 0.244242 0.342004 0.056759
O O13 0.500000 0.500000 0.000000
O O14 0.500000 0.000000 0.000000
O O15 0.500000 0.500000 0.500000
O O16 0.500000 0.000000 0.500000
O O17 0.009762 0.056789 0.082409
O O18 0.967531 0.611503 0.095643
#
# Coordination Sequence:
#
# PCOD9077914 Si02
#       8
#     2   2   2   2   2   2   2   2
#     4  12  23  39  62  89 122 154 212 251 297 367
#     4   9  15  30  55  82 101 141 190 249 284 319
#     4  10  18  35  56  80 112 147 194 246 291 345
#     4  11  22  37  63  99 129 154 199 255 305 357
#     4  11  20  36  61  88 120 155 201 257 294 337
#     4  12  24  38  58  89 122 158 195 254 320 356
#     4   9  19  34  58  85 120 150 200 243 297 341
#     4  10  21  37  61  88 114 161 207 251 286 354
#
# _framework density 24.285332
#
# number of rings (size 3 to 8) (size 9 to 14) (size 15 to 20)
#    0.000    1.500    2.500    3.750    0.000    2.000 
#    0.000    1.250    0.000   15.000    0.000    0.000 
#    0.000    0.000    0.000    0.000    0.000    0.000 
#
# Total GULP energy -89273.658908 kJ/mol
# GULP energy per Si atom -5579.603682 kJ/mol
# Density = 2.423006 g / cm^3
# Si number density = 24.285332 Si / 1000 Ang^3
#
#
#
# Elastic Constant Matrix: (Units=GPa)
#
#
# Indices 1 2 3 4 5 6 
#
# 1 31.3238 19.9356 22.6211 -2.4936 -13.8159 -10.7339
# 2 19.9356 248.9372 44.9478 -13.6290 -17.3265 -15.9878
# 3 22.6211 44.9478 76.0344 -13.2266 -21.1056 -12.5535
# 4 -2.4936 -13.6290 -13.2266 52.4902 -2.7819 2.2293
# 5 -13.8159 -17.3265 -21.1056 -2.7819 41.8841 1.4079
# 6 -10.7339 -15.9878 -12.5535 2.2293 1.4079 26.6375
#
#
#
# Elastic Compliance Matrix: (Units=1/GPa)
#
#
# Indices 1 2 3 4 5 6 
#
# 1 0.048265 -0.000634 -0.008607 -0.000080 0.010830 0.014446
# 2 -0.000634 0.004605 -0.001987 0.000638 0.000687 0.001482
# 3 -0.008607 -0.001987 0.020170 0.004335 0.006652 0.004130
# 4 -0.000080 0.000638 0.004335 0.020485 0.003766 0.000480
# 5 0.010830 0.000687 0.006652 0.003766 0.031134 0.005950
# 6 0.014446 0.001482 0.004130 0.000480 0.005950 0.045844
#
#
# Mechanical properties :
#
#
# Convention : Reuss Voigt Hill
#
# Bulk Modulus (GPa) = 19.76957 59.03382 39.40170
# Shear Modulus (GPa) = 23.83023 42.12176 32.97599
#
# Velocity S-wave (km/s) = 3.13591 4.16919 3.68891
# Velocity P-wave (km/s) = 4.61195 6.89474 5.86547
#
# Compressibility (1/GPa) = 0.05058279
#
# Stress axis : x y z
#
# Youngs Moduli (GPa) = 20.71912 217.17636 49.57978
#
# Poissons Ratio (x) = 0.13766 0.42674
# Poissons Ratio (y) = 0.01313 0.09851
# Poissons Ratio (z) = 0.17833 0.43152
#
# Static dielectric constant tensor:
#      x y z
#    x 2.067400 0.007140 0.047700 
#    y 0.007140 2.128780 0.022130 
#    z 0.047700 0.022130 1.956270 
# 
# From -- ./inp_files/128278.got.cif
#   From: 2010.05.17/outbox.cif.g08.bks.cpg/sg2_65_cif.got.tgz:128278.got - 2010.06.03 11:33:40.
