data_PCOD9077599
_publ_section_title
;
Structure prediction by ZEFSAII (Michael W. Deem and Ramdas Pophale) SiO2 
 PCOD9077599
Probable space group: P -1
;
_chemical_formula_sum "Si O2"
_cell_formula_units_Z 16
_cell_length_a 16.647812
_cell_length_b 10.854207
_cell_length_c 9.500133
_cell_angle_alpha 69.198324
_cell_angle_beta 63.906808
_cell_angle_gamma 125.872495
_cell_volume 673.644534
_symmetry_space_group_name_H-M "P -1"
_symmetry_group_IT_number 2
_symmetry_cell_setting 'triclinic'
loop_
_space_group_symop_operation_xyz
x,y,z
-x,-y,-z
loop_
_atom_site_type_symbol
_atom_site_label
_atom_site_fract_x
_atom_site_fract_y
_atom_site_fract_z
Si Si1 0.963276 0.136579 0.219917
Si Si2 0.271312 0.919787 0.023223
Si Si3 0.112609 0.252110 0.538123
Si Si4 0.528833 0.153101 0.300863
Si Si5 0.460802 0.089010 0.070971
Si Si6 0.625505 0.408151 0.376564
Si Si7 0.947794 0.615030 0.688069
Si Si8 0.182372 0.077947 0.880819
O O1 0.935224 0.211041 0.329367
O O2 0.176928 0.413246 0.875547
O O3 0.938204 0.961214 0.384243
O O4 0.826170 0.956686 0.264366
O O5 0.302327 0.954761 0.152520
O O6 0.478035 0.150498 0.703221
O O7 0.111392 0.607088 0.226073
O O8 0.234998 0.011913 0.943804
O O9 0.338691 0.571338 0.232387
O O10 0.006503 0.226054 0.538749
O O11 0.025404 0.151594 0.802686
O O12 0.525701 0.277182 0.352688
O O13 0.500000 0.000000 0.500000
O O14 0.409127 0.004530 0.309502
O O15 0.741799 0.407994 0.976555
O O16 0.500000 0.000000 0.000000
O O17 0.680857 0.624493 0.300208
#
# Coordination Sequence:
#
# PCOD9077599 Si02
#       8
#     2   2   2   2   2   2   2   2
#     4  10  21  38  63  87 111 162 199 240 291 340
#     4  12  22  39  58  90 126 152 195 242 295 348
#     4  10  20  40  61  84 118 150 202 242 286 357
#     4  10  18  34  61  88 112 140 196 251 283 331
#     4  11  20  37  63  90 112 151 197 242 294 341
#     4  10  20  39  62  87 118 152 204 245 283 340
#     4  10  21  36  59  89 118 150 196 248 295 336
#     4  11  24  38  59  86 124 163 190 239 292 353
#
# _framework density 23.7514
#
# number of rings (size 3 to 8) (size 9 to 14) (size 15 to 20)
#    0.000    1.500    3.750    3.750    0.000    3.000 
#    0.000    1.875    0.000    0.000    0.000    0.000 
#    0.000    0.000    0.000    0.000    0.000    0.000 
#
# Total GULP energy -89393.882351 kJ/mol
# GULP energy per Si atom -5587.117647 kJ/mol
# Density = 2.369734 g / cm^3
# Si number density = 23.751400 Si / 1000 Ang^3
#
#
#
# Elastic Constant Matrix: (Units=GPa)
#
#
# Indices 1 2 3 4 5 6 
#
# 1 77.5207 46.1966 15.5103 -2.7640 26.2774 9.4502
# 2 46.1966 209.6442 50.7708 13.1169 36.5741 23.0995
# 3 15.5103 50.7708 112.6279 -3.1280 15.8736 2.1685
# 4 -2.7640 13.1169 -3.1280 36.4059 7.2645 12.2932
# 5 26.2774 36.5741 15.8736 7.2645 35.3863 10.5116
# 6 9.4502 23.0995 2.1685 12.2932 10.5116 17.4968
#
#
#
# Elastic Compliance Matrix: (Units=1/GPa)
#
#
# Indices 1 2 3 4 5 6 
#
# 1 0.018882 -0.002003 0.000244 0.006159 -0.011913 -0.004754
# 2 -0.002003 0.006940 -0.002350 -0.000306 -0.002822 -0.005878
# 3 0.000244 -0.002350 0.010394 0.001545 -0.003542 0.002725
# 4 0.006159 -0.000306 0.001545 0.038301 -0.004740 -0.027176
# 5 -0.011913 -0.002822 -0.003542 -0.004740 0.046798 -0.014186
# 6 -0.004754 -0.005878 0.002725 -0.027176 -0.014186 0.094760
#
#
# Mechanical properties :
#
#
# Convention : Reuss Voigt Hill
#
# Bulk Modulus (GPa) = 35.71717 69.41649 52.56683
# Shear Modulus (GPa) = 21.40176 37.01214 29.20695
#
# Velocity S-wave (km/s) = 3.00505 3.95183 3.51050
# Velocity P-wave (km/s) = 5.20682 7.07901 6.21383
#
# Compressibility (1/GPa) = 0.02799774
#
# Stress axis : x y z
#
# Youngs Moduli (GPa) = 52.96092 144.09910 96.20828
#
# Poissons Ratio (x) = 0.28865 -0.02350
# Poissons Ratio (y) = 0.10609 0.22609
# Poissons Ratio (z) = -0.01293 0.33864
#
# Static dielectric constant tensor:
#      x y z
#    x 1.942070 0.023020 -0.021540 
#    y 0.023020 2.007050 0.033970 
#    z -0.021540 0.033970 1.919450 
# 
# From -- ./inp_files/331726.got.cif
#   From: 2010.05.17/outbox.cif.g08.bks.cpg/sg2_166_cif.got.tgz:331726.got - 2010.06.03 11:33:40.
