data_PCOD9077893
_publ_section_title
;
Structure prediction by ZEFSAII (Michael W. Deem and Ramdas Pophale) SiO2 
 PCOD9077893
Probable space group: P -1
;
_chemical_formula_sum "Si O2"
_cell_formula_units_Z 14
_cell_length_a 9.075469
_cell_length_b 11.962317
_cell_length_c 7.964993
_cell_angle_alpha 133.012868
_cell_angle_beta 76.828028
_cell_angle_gamma 108.265377
_cell_volume 600.294898
_symmetry_space_group_name_H-M "P -1"
_symmetry_group_IT_number 2
_symmetry_cell_setting 'triclinic'
loop_
_space_group_symop_operation_xyz
x,y,z
-x,-y,-z
loop_
_atom_site_type_symbol
_atom_site_label
_atom_site_fract_x
_atom_site_fract_y
_atom_site_fract_z
Si Si1 0.644486 0.965854 0.799410
Si Si2 0.842419 0.900443 0.366396
Si Si3 0.482234 0.628077 0.500787
Si Si4 0.094149 0.439917 0.065836
Si Si5 0.585661 0.925096 0.255280
Si Si6 0.797342 0.310199 0.196662
Si Si7 0.384910 0.589820 0.975879
O O1 0.724055 0.922973 0.564594
O O2 0.589641 0.790831 0.704951
O O3 0.485416 0.016829 0.834867
O O4 0.761956 0.119688 0.000193
O O5 0.768932 0.960502 0.279337
O O6 0.868017 0.727068 0.159013
O O7 0.000000 0.000000 0.500000
O O8 0.500000 0.500000 0.500000
O O9 0.304294 0.646317 0.578682
O O10 0.549084 0.561388 0.248704
O O11 0.976254 0.400292 0.214503
O O12 0.262678 0.557607 0.127518
O O13 0.000000 0.500000 0.000000
O O14 0.500000 0.000000 0.500000
O O15 0.525425 0.739379 0.104676
O O16 0.713086 0.362058 0.106240
#
# Coordination Sequence:
#
# PCOD9077893 Si02
#       7
#     2   2   2   2   2   2   2
#     4  10  18  35  55  83 117 154 189 234 276 340
#     4  11  20  35  58  87 113 143 192 238 285 340
#     4  10  19  32  54  87 113 151 197 232 273 330
#     4  10  19  32  53  84 118 141 182 239 290 320
#     4   9  21  36  55  86 114 150 188 235 286 339
#     4   9  18  31  53  84 115 149 190 226 276 335
#     4   9  18  34  53  81 117 147 186 233 277 336
#
# _framework density 23.321867999999998
#
# number of rings (size 3 to 8) (size 9 to 14) (size 15 to 20)
#    0.000    2.286    2.857    0.429    2.000    0.571 
#    0.000    0.000    0.000    1.714    0.000    0.000 
#    0.000    0.000    0.000    0.000    0.000    0.000 
#
# Total GULP energy -78015.911727 kJ/mol
# GULP energy per Si atom -5572.565123 kJ/mol
# Density = 2.326879 g / cm^3
# Si number density = 23.321868 Si / 1000 Ang^3
#
#
#
# Elastic Constant Matrix: (Units=GPa)
#
#
# Indices 1 2 3 4 5 6 
#
# 1 105.8571 32.3500 8.5868 6.2514 -4.5773 6.5810
# 2 32.3500 113.1327 24.5782 15.8957 -2.2722 15.4258
# 3 8.5868 24.5782 102.2283 6.4387 -26.4014 5.3513
# 4 6.2514 15.8957 6.4387 31.3284 1.4207 -15.2844
# 5 -4.5773 -2.2722 -26.4014 1.4207 34.6022 -5.3606
# 6 6.5810 15.4258 5.3513 -15.2844 -5.3606 43.3090
#
#
#
# Elastic Compliance Matrix: (Units=1/GPa)
#
#
# Indices 1 2 3 4 5 6 
#
# 1 0.010444 -0.002703 0.000236 -0.001281 0.001290 -0.000946
# 2 -0.002703 0.012203 -0.002350 -0.008431 -0.002069 -0.006877
# 3 0.000236 -0.002350 0.013024 -0.002147 0.009849 -0.000347
# 4 -0.001281 -0.008431 -0.002147 0.046587 -0.001214 0.019754
# 5 0.001290 -0.002069 0.009849 -0.001214 0.037038 0.003480
# 6 -0.000946 -0.006877 -0.000347 0.019754 0.003480 0.033128
#
#
# Mechanical properties :
#
#
# Convention : Reuss Voigt Hill
#
# Bulk Modulus (GPa) = 38.40648 50.24979 44.32814
# Shear Modulus (GPa) = 29.28470 38.89479 34.08974
#
# Velocity S-wave (km/s) = 3.54740 4.08823 3.82738
# Velocity P-wave (km/s) = 5.76909 6.62403 6.21129
#
# Compressibility (1/GPa) = 0.02603727
#
# Stress axis : x y z
#
# Youngs Moduli (GPa) = 95.75087 81.94505 76.78030
#
# Poissons Ratio (x) = 0.22148 -0.01812
# Poissons Ratio (y) = 0.25879 0.18045
# Poissons Ratio (z) = -0.02259 0.19259
#
# Static dielectric constant tensor:
#      x y z
#    x 1.991240 -0.003080 0.031340 
#    y -0.003080 1.936890 -0.078280 
#    z 0.031340 -0.078280 1.953510 
# 
# From -- ./inp_files/169255.got.cif
#   From: 2010.05.17/outbox.cif.g08.bks.cpg/sg2_85_cif.got.tgz:169255.got - 2010.06.03 11:33:40.
