data_PCOD9077544
_publ_section_title
;
Structure prediction by ZEFSAII (Michael W. Deem and Ramdas Pophale) SiO2 
 PCOD9077544
Probable space group: P -1
;
_chemical_formula_sum "Si O2"
_cell_formula_units_Z 14
_cell_length_a 11.557557
_cell_length_b 9.042540
_cell_length_c 13.576133
_cell_angle_alpha 31.700542
_cell_angle_beta 48.913905
_cell_angle_gamma 61.818688
_cell_volume 548.266695
_symmetry_space_group_name_H-M "P -1"
_symmetry_group_IT_number 2
_symmetry_cell_setting 'triclinic'
loop_
_space_group_symop_operation_xyz
x,y,z
-x,-y,-z
loop_
_atom_site_type_symbol
_atom_site_label
_atom_site_fract_x
_atom_site_fract_y
_atom_site_fract_z
Si Si1 0.083039 0.954036 0.214090
Si Si2 0.839336 0.829116 0.741533
Si Si3 0.248351 0.467999 0.359697
Si Si4 0.256650 0.684655 0.561845
Si Si5 0.418522 0.038774 0.419626
Si Si6 0.060625 0.705033 0.062876
Si Si7 0.318454 0.210829 0.679829
O O1 0.219466 0.791836 0.194070
O O2 0.927314 0.712001 0.464978
O O3 0.142021 0.134276 0.174560
O O4 0.010458 0.156497 0.067825
O O5 0.818560 0.496117 0.916224
O O6 0.708604 0.999668 0.685509
O O7 0.000000 0.000000 0.500000
O O8 0.360312 0.337322 0.296397
O O9 0.296414 0.377990 0.494164
O O10 0.344423 0.434312 0.628307
O O11 0.093941 0.524925 0.687612
O O12 0.268420 0.783217 0.613903
O O13 0.500000 0.000000 0.500000
O O14 0.545237 0.961756 0.316128
O O15 0.158474 0.967649 0.920865
#
# Coordination Sequence:
#
# PCOD9077544 Si02
#       7
#     2   2   2   2   2   2   2
#     4  10  18  34  60  90 124 156 202 248 298 355
#     4  10  20  34  58  92 126 152 197 252 309 354
#     4   9  18  34  59  89 120 162 201 242 299 363
#     4  11  21  40  62  93 123 159 203 255 306 357
#     4  10  22  39  63  87 121 166 207 243 303 377
#     4  10  22  36  63  97 123 156 202 255 303 355
#     4  10  20  39  63  90 124 159 204 251 303 358
#
# _framework density 25.535018999999998
#
# number of rings (size 3 to 8) (size 9 to 14) (size 15 to 20)
#    0.000    2.000    1.429    3.000    0.000    2.286 
#    2.571    0.714    3.143    2.571    0.000    0.000 
#    0.000    0.000    0.000    0.000    0.000    0.000 
#
# Total GULP energy -78027.163080 kJ/mol
# GULP energy per Si atom -5573.368791 kJ/mol
# Density = 2.547690 g / cm^3
# Si number density = 25.535019 Si / 1000 Ang^3
#
#
#
# Elastic Constant Matrix: (Units=GPa)
#
#
# Indices 1 2 3 4 5 6 
#
# 1 105.9189 33.1945 26.3645 -19.3477 16.9539 -0.4262
# 2 33.1945 177.1518 46.5071 -48.7726 6.9711 -6.0709
# 3 26.3645 46.5071 49.2814 -35.3397 13.6014 -3.2808
# 4 -19.3477 -48.7726 -35.3397 42.0026 -4.5045 -4.6031
# 5 16.9539 6.9711 13.6014 -4.5045 19.8635 -0.7618
# 6 -0.4262 -6.0709 -3.2808 -4.6031 -0.7618 54.1092
#
#
#
# Elastic Compliance Matrix: (Units=1/GPa)
#
#
# Indices 1 2 3 4 5 6 
#
# 1 0.011832 -0.000859 -0.001826 0.002044 -0.008086 -0.000054
# 2 -0.000859 0.008593 -0.001856 0.008292 0.000928 0.001563
# 3 -0.001826 -0.001856 0.073278 0.055836 -0.034980 0.008478
# 4 0.002044 0.008292 0.055836 0.079927 -0.024349 0.010789
# 5 -0.008086 0.000928 -0.034980 -0.024349 0.075231 -0.003093
# 6 -0.000054 0.001563 0.008478 0.010789 -0.003093 0.020044
#
#
# Mechanical properties :
#
#
# Convention : Reuss Voigt Hill
#
# Bulk Modulus (GPa) = 11.81717 60.49825 36.15771
# Shear Modulus (GPa) = 16.32949 38.28081 27.30515
#
# Velocity S-wave (km/s) = 2.53156 3.87609 3.27360
# Velocity P-wave (km/s) = 3.63084 6.61632 5.33661
#
# Compressibility (1/GPa) = 0.08462262
#
# Stress axis : x y z
#
# Youngs Moduli (GPa) = 84.51531 116.37539 13.64661
#
# Poissons Ratio (x) = 0.09993 0.02492
# Poissons Ratio (y) = 0.07257 0.02533
# Poissons Ratio (z) = 0.15430 0.21598
#
# Static dielectric constant tensor:
#      x y z
#    x 2.326680 -0.246240 -0.185410 
#    y -0.246240 2.224900 0.119010 
#    z -0.185410 0.119010 2.171730 
# 
# From -- ./inp_files/180765.got.cif
#   From: 2010.05.17/outbox.cif.g08.bks.cpg/sg2_91_cif.got.tgz:180765.got - 2010.06.03 11:33:40.
