data_PCOD9077920
_publ_section_title
;
Structure prediction by ZEFSAII (Michael W. Deem and Ramdas Pophale) SiO2 
 PCOD9077920
Probable space group: P -1
;
_chemical_formula_sum "Si O2"
_cell_formula_units_Z 16
_cell_length_a 17.442321
_cell_length_b 11.057370
_cell_length_c 9.221329
_cell_angle_alpha 127.219707
_cell_angle_beta 117.777097
_cell_angle_gamma 28.382058
_cell_volume 662.856207
_symmetry_space_group_name_H-M "P -1"
_symmetry_group_IT_number 2
_symmetry_cell_setting 'triclinic'
loop_
_space_group_symop_operation_xyz
x,y,z
-x,-y,-z
loop_
_atom_site_type_symbol
_atom_site_label
_atom_site_fract_x
_atom_site_fract_y
_atom_site_fract_z
Si Si1 0.712394 0.338901 0.507842
Si Si2 0.447260 0.692984 0.782179
Si Si3 0.381771 0.813773 0.242458
Si Si4 0.223247 0.320134 0.645472
Si Si5 0.908011 0.906540 0.917393
Si Si6 0.363823 0.335221 0.592692
Si Si7 0.433061 0.191256 0.947308
Si Si8 0.901785 0.131083 0.794148
O O1 0.551617 0.578514 0.645506
O O2 0.704640 0.184800 0.313013
O O3 0.685987 0.513436 0.493837
O O4 0.867054 0.125423 0.597052
O O5 0.436304 0.865236 0.988182
O O6 0.558208 0.411665 0.767344
O O7 0.271098 0.093608 0.444594
O O8 0.262909 0.925479 0.096383
O O9 0.547132 0.660269 0.239182
O O10 0.210526 0.475740 0.628411
O O11 0.059845 0.565913 0.776143
O O12 0.376324 0.149346 0.752677
O O13 0.898154 0.014645 0.835882
O O14 0.952229 0.965648 0.120119
O O15 0.500000 0.000000 0.500000
O O16 0.260805 0.528486 0.068971
O O17 0.500000 0.000000 0.000000
#
# Coordination Sequence:
#
# PCOD9077920 Si02
#       8
#     2   2   2   2   2   2   2   2
#     4   9  16  31  54  76 102 143 181 216 263 327
#     4   9  18  30  54  82 104 136 183 229 271 305
#     4  10  18  35  58  80 110 144 184 221 268 324
#     4  10  22  34  52  88 111 143 176 225 271 324
#     4  10  18  35  56  81 110 140 189 218 270 317
#     4   9  20  33  53  81 113 144 174 219 280 325
#     4  10  20  30  51  83 110 132 178 238 273 305
#     4   9  19  32  54  80 106 144 176 230 271 316
#
# _framework density 24.137965000000001
#
# number of rings (size 3 to 8) (size 9 to 14) (size 15 to 20)
#    0.000    2.500    2.500    0.375   12.250    0.000 
#    0.000    3.125    0.000    3.000    3.250    0.000 
#    0.000    0.000    0.000    0.000    0.000    0.000 
#
# Total GULP energy -89225.769718 kJ/mol
# GULP energy per Si atom -5576.610607 kJ/mol
# Density = 2.408303 g / cm^3
# Si number density = 24.137965 Si / 1000 Ang^3
#
#
#
# Elastic Constant Matrix: (Units=GPa)
#
#
# Indices 1 2 3 4 5 6 
#
# 1 97.5449 35.6397 18.8797 -11.6469 16.0433 13.4659
# 2 35.6397 84.4119 53.8509 -15.2766 9.2712 12.4667
# 3 18.8797 53.8509 132.9558 -39.0177 38.0152 -0.8583
# 4 -11.6469 -15.2766 -39.0177 57.3356 -6.1319 2.5341
# 5 16.0433 9.2712 38.0152 -6.1319 41.7642 -4.9960
# 6 13.4659 12.4667 -0.8583 2.5341 -4.9960 38.4417
#
#
#
# Elastic Compliance Matrix: (Units=1/GPa)
#
#
# Indices 1 2 3 4 5 6 
#
# 1 0.013889 -0.006126 0.003353 0.002888 -0.007072 -0.003913
# 2 -0.006126 0.020051 -0.009359 -0.001491 0.005757 -0.003719
# 3 0.003353 -0.009359 0.017218 0.008448 -0.013653 -0.000086
# 4 0.002888 -0.001491 0.008448 0.022914 -0.005409 -0.002553
# 5 -0.007072 0.005757 -0.013653 -0.005409 0.037681 0.005559
# 6 -0.003913 -0.003719 -0.000086 -0.002553 0.005559 0.029479
#
#
# Mechanical properties :
#
#
# Convention : Reuss Voigt Hill
#
# Bulk Modulus (GPa) = 37.18247 59.07259 48.12753
# Shear Modulus (GPa) = 28.65986 41.27781 34.96883
#
# Velocity S-wave (km/s) = 3.44951 4.13980 3.81032
# Velocity P-wave (km/s) = 5.59492 6.88306 6.27215
#
# Compressibility (1/GPa) = 0.02689439
#
# Stress axis : x y z
#
# Youngs Moduli (GPa) = 71.99957 49.87335 58.07800
#
# Poissons Ratio (x) = 0.30552 -0.19474
# Poissons Ratio (y) = 0.44107 0.54354
# Poissons Ratio (z) = -0.24142 0.46676
#
# Static dielectric constant tensor:
#      x y z
#    x 2.045220 -0.083220 -0.048200 
#    y -0.083220 1.925280 0.003990 
#    z -0.048200 0.003990 2.087330 
# 
# From -- ./inp_files/470862.got.cif
#   From: 2010.05.17/outbox.cif.g08.bks.cpg/sg2_236_cif.got.tgz:470862.got - 2010.06.03 11:33:40.
