data_PCOD9077222
_publ_section_title
;
Structure prediction by ZEFSAII (Michael W. Deem and Ramdas Pophale) SiO2 
 PCOD9077222
Probable space group: P -1
;
_chemical_formula_sum "Si O2"
_cell_formula_units_Z 16
_cell_length_a 22.589778
_cell_length_b 9.690458
_cell_length_c 29.978509
_cell_angle_alpha 33.657775
_cell_angle_beta 13.657566
_cell_angle_gamma 27.535203
_cell_volume 690.059063
_symmetry_space_group_name_H-M "P -1"
_symmetry_group_IT_number 2
_symmetry_cell_setting 'triclinic'
loop_
_space_group_symop_operation_xyz
x,y,z
-x,-y,-z
loop_
_atom_site_type_symbol
_atom_site_label
_atom_site_fract_x
_atom_site_fract_y
_atom_site_fract_z
Si Si1 0.213585 0.399310 0.827535
Si Si2 0.407202 0.661030 0.675866
Si Si3 0.448106 0.579161 0.269962
Si Si4 0.550980 0.701713 0.742589
Si Si5 0.247332 0.240137 0.250134
Si Si6 0.181610 0.805579 0.670257
Si Si7 0.904879 0.781122 0.299137
Si Si8 0.806017 0.396207 0.728030
O O1 0.484844 0.407149 0.650266
O O2 0.066267 0.653903 0.828054
O O3 0.339609 0.065516 0.808614
O O4 0.000000 0.500000 0.000000
O O5 0.370370 0.584490 0.773258
O O6 0.686679 0.692340 0.464538
O O7 0.109232 0.991160 0.787508
O O8 0.566568 0.386616 0.189708
O O9 0.102351 0.662619 0.509378
O O10 0.422144 0.890449 0.201666
O O11 0.611519 0.503436 0.796001
O O12 0.881981 0.631342 0.505732
O O13 0.355673 0.329530 0.190106
O O14 0.213355 0.463687 0.175730
O O15 0.500000 0.500000 0.500000
O O16 0.238552 0.005837 0.608321
O O17 0.942330 0.063117 0.740364
#
# Coordination Sequence:
#
# PCOD9077222 Si02
#       8
#     2   2   2   2   2   2   2   2
#     4  11  23  37  54  79 114 152 180 217 275 336
#     4   9  17  31  49  72 102 138 178 214 266 317
#     4   9  16  27  46  70 103 138 170 217 264 315
#     4  10  19  32  50  80 112 137 184 227 270 322
#     4   8  14  26  42  70 105 128 165 212 277 319
#     4  10  18  34  57  84 112 138 180 235 269 316
#     4   8  16  28  49  77 103 134 173 222 271 313
#     4   9  17  30  53  82 104 137 176 233 279 304
#
# _framework density 23.186419999999998
#
# number of rings (size 3 to 8) (size 9 to 14) (size 15 to 20)
#    0.000    2.750    1.250    1.500    0.000    3.000 
#    2.250    1.250    0.000    0.000    0.000    8.750 
#    0.000    0.000    0.000    0.000    0.000    0.000 
#
# Total GULP energy -89328.549717 kJ/mol
# GULP energy per Si atom -5583.034357 kJ/mol
# Density = 2.313365 g / cm^3
# Si number density = 23.186420 Si / 1000 Ang^3
#
#
#
# Elastic Constant Matrix: (Units=GPa)
#
#
# Indices 1 2 3 4 5 6 
#
# 1 174.0129 119.7618 15.3047 9.3143 19.0265 -17.3626
# 2 119.7618 212.7699 25.3179 6.7359 27.1024 -2.5719
# 3 15.3047 25.3179 39.6731 -0.0789 -1.4076 8.3039
# 4 9.3143 6.7359 -0.0789 25.4582 -2.9149 11.2378
# 5 19.0265 27.1024 -1.4076 -2.9149 24.9070 -9.1551
# 6 -17.3626 -2.5719 8.3039 11.2378 -9.1551 41.9596
#
#
#
# Elastic Compliance Matrix: (Units=1/GPa)
#
#
# Indices 1 2 3 4 5 6 
#
# 1 0.010511 -0.005368 -0.001826 -0.004968 -0.000841 0.005529
# 2 -0.005368 0.008956 -0.003372 -0.000108 -0.006748 -0.002448
# 3 -0.001826 -0.003372 0.029762 0.005401 0.004705 -0.007272
# 4 -0.004968 -0.000108 0.005401 0.048316 0.004311 -0.015131
# 5 -0.000841 -0.006748 0.004705 0.004311 0.052031 0.008505
# 6 0.005529 -0.002448 -0.007272 -0.015131 0.008505 0.033318
#
#
# Mechanical properties :
#
#
# Convention : Reuss Voigt Hill
#
# Bulk Modulus (GPa) = 35.59046 83.02495 59.30771
# Shear Modulus (GPa) = 23.43112 36.20304 29.81708
#
# Velocity S-wave (km/s) = 3.18237 3.95573 3.58994
# Velocity P-wave (km/s) = 5.37460 7.53320 6.54352
#
# Compressibility (1/GPa) = 0.02809741
#
# Stress axis : x y z
#
# Youngs Moduli (GPa) = 95.13607 111.65773 33.59977
#
# Poissons Ratio (x) = 0.59937 0.06136
# Poissons Ratio (y) = 0.51069 0.11329
# Poissons Ratio (z) = 0.17375 0.37648
#
# Static dielectric constant tensor:
#      x y z
#    x 1.879080 -0.026450 -0.023780 
#    y -0.026450 1.870920 -0.034840 
#    z -0.023780 -0.034840 1.959930 
# 
# From -- ./inp_files/282166.got.cif
#   From: 2010.05.17/outbox.cif.g08.bks.cpg/sg2_142_cif.got.tgz:282166.got - 2010.06.03 11:33:40.
