data_PCOD9077464
_publ_section_title
;
Structure prediction by ZEFSAII (Michael W. Deem and Ramdas Pophale) SiO2 
 PCOD9077464
Probable space group: P -1
;
_chemical_formula_sum "Si O2"
_cell_formula_units_Z 12
_cell_length_a 12.239238
_cell_length_b 10.223884
_cell_length_c 6.818481
_cell_angle_alpha 42.055845
_cell_angle_beta 75.003773
_cell_angle_gamma 68.294942
_cell_volume 530.835804
_symmetry_space_group_name_H-M "P -1"
_symmetry_group_IT_number 2
_symmetry_cell_setting 'triclinic'
loop_
_space_group_symop_operation_xyz
x,y,z
-x,-y,-z
loop_
_atom_site_type_symbol
_atom_site_label
_atom_site_fract_x
_atom_site_fract_y
_atom_site_fract_z
Si Si1 0.253202 0.344793 0.638496
Si Si2 0.329684 0.597731 0.627254
Si Si3 0.499321 0.854703 0.347721
Si Si4 0.301450 0.188111 0.209544
Si Si5 0.920471 0.614232 0.654785
Si Si6 0.075546 0.777150 0.657875
O O1 0.290125 0.536226 0.500776
O O2 0.363483 0.236319 0.569011
O O3 0.254055 0.206676 0.984089
O O4 0.131280 0.386684 0.536104
O O5 0.440536 0.683356 0.490987
O O6 0.350735 0.386944 0.971090
O O7 0.213900 0.752654 0.600030
O O8 0.500000 0.000000 0.000000
O O9 0.408080 0.987142 0.398152
O O10 0.187763 0.232246 0.347573
O O11 0.061728 0.607054 0.009926
O O12 0.029380 0.699843 0.563309
O O13 0.000000 0.000000 0.500000
#
# Coordination Sequence:
#
# PCOD9077464 Si02
#       6
#     2   2   2   2   2   2
#     4   9  20  35  57  85 110 146 181 223 269 333
#     4   9  19  36  55  81 112 143 184 223 274 321
#     4  10  18  34  60  80 115 149 175 224 276 323
#     4   8  19  35  56  80 114 145 174 225 272 317
#     4  10  20  40  57  81 113 144 183 227 278 317
#     4  10  21  39  59  77 112 147 182 235 273 320
#
# _framework density 22.605857
#
# number of rings (size 3 to 8) (size 9 to 14) (size 15 to 20)
#    1.000    1.667    0.000    1.500    0.000    1.333 
#    6.000    4.167    0.000    0.000    0.000    0.000 
#    0.000    0.000    0.000    0.000    0.000    0.000 
#
# Total GULP energy -66941.227851 kJ/mol
# GULP energy per Si atom -5578.435654 kJ/mol
# Density = 2.255441 g / cm^3
# Si number density = 22.605857 Si / 1000 Ang^3
#
#
#
# Elastic Constant Matrix: (Units=GPa)
#
#
# Indices 1 2 3 4 5 6 
#
# 1 119.3297 5.9223 24.7558 -2.7013 5.9672 7.9868
# 2 5.9223 81.6971 12.9497 -17.5352 15.7827 -16.3333
# 3 24.7558 12.9497 28.2285 -8.2505 4.0393 10.1924
# 4 -2.7013 -17.5352 -8.2505 28.0987 -2.4922 10.0248
# 5 5.9672 15.7827 4.0393 -2.4922 34.7854 1.6125
# 6 7.9868 -16.3333 10.1924 10.0248 1.6125 41.1378
#
#
#
# Elastic Compliance Matrix: (Units=1/GPa)
#
#
# Indices 1 2 3 4 5 6 
#
# 1 0.010449 0.001030 -0.010668 -0.002167 -0.001250 0.001601
# 2 0.001030 0.017775 -0.009679 0.004722 -0.007168 0.008386
# 3 -0.010668 -0.009679 0.062633 0.019311 0.001355 -0.022049
# 4 -0.002167 0.004722 0.019311 0.049180 0.000182 -0.014481
# 5 -0.001250 -0.007168 0.001355 0.000182 0.032267 -0.004248
# 6 0.001601 0.008386 -0.022049 -0.014481 -0.004248 0.036485
#
#
# Mechanical properties :
#
#
# Convention : Reuss Voigt Hill
#
# Bulk Modulus (GPa) = 19.14946 35.16788 27.15867
# Shear Modulus (GPa) = 18.88002 33.17954 26.02978
#
# Velocity S-wave (km/s) = 2.89309 3.83527 3.39700
# Velocity P-wave (km/s) = 4.43276 5.93322 5.23701
#
# Compressibility (1/GPa) = 0.05222080
#
# Stress axis : x y z
#
# Youngs Moduli (GPa) = 95.70716 56.25978 15.96609
#
# Poissons Ratio (x) = -0.05795 0.17033
# Poissons Ratio (y) = -0.09858 0.15454
# Poissons Ratio (z) = 1.02101 0.54457
#
# Static dielectric constant tensor:
#      x y z
#    x 1.832090 -0.013470 0.031300 
#    y -0.013470 1.949470 0.006720 
#    z 0.031300 0.006720 1.806810 
# 
# From -- ./inp_files/222711.got.cif
#   From: 2010.05.17/outbox.cif.g08.bks.cpg/sg2_112_cif.got.tgz:222711.got - 2010.06.03 11:33:40.
