data_PCOD9077253
_publ_section_title
;
Structure prediction by ZEFSAII (Michael W. Deem and Ramdas Pophale) SiO2 
 PCOD9077253
Probable space group: P -1
;
_chemical_formula_sum "Si O2"
_cell_formula_units_Z 14
_cell_length_a 9.844775
_cell_length_b 12.833931
_cell_length_c 10.787362
_cell_angle_alpha 142.854716
_cell_angle_beta 52.851436
_cell_angle_gamma 103.868478
_cell_volume 567.305739
_symmetry_space_group_name_H-M "P -1"
_symmetry_group_IT_number 2
_symmetry_cell_setting 'triclinic'
loop_
_space_group_symop_operation_xyz
x,y,z
-x,-y,-z
loop_
_atom_site_type_symbol
_atom_site_label
_atom_site_fract_x
_atom_site_fract_y
_atom_site_fract_z
Si Si1 0.091721 0.864453 0.623766
Si Si2 0.351511 0.027597 0.725557
Si Si3 0.265768 0.310147 0.734835
Si Si4 0.794312 0.053160 0.605568
Si Si5 0.753616 0.540889 0.375877
Si Si6 0.669588 0.177400 0.054752
Si Si7 0.863075 0.533884 0.776635
O O1 0.226832 0.819709 0.382793
O O2 0.137437 0.656354 0.458989
O O3 0.164515 0.997111 0.780489
O O4 0.861926 0.985153 0.823656
O O5 0.500000 0.000000 0.500000
O O6 0.499754 0.843082 0.552637
O O7 0.262592 0.257934 0.027658
O O8 0.185529 0.439444 0.778739
O O9 0.188142 0.153763 0.640514
O O10 0.224564 0.427629 0.997419
O O11 0.652902 0.148984 0.889893
O O12 0.000000 0.000000 0.500000
O O13 0.717534 0.354848 0.219734
O O14 0.548203 0.743708 0.701449
O O15 0.916712 0.512664 0.358642
#
# Coordination Sequence:
#
# PCOD9077253 Si02
#       7
#     2   2   2   2   2   2   2
#     4  11  20  38  63  89 120 155 197 245 293 351
#     4  10  21  40  57  90 123 154 195 244 293 351
#     4  11  22  37  59  90 122 154 193 250 292 348
#     4  10  18  34  57  87 117 143 193 249 285 340
#     4  11  21  39  61  87 120 158 198 247 299 346
#     4  10  22  37  61  88 121 153 201 250 293 350
#     4  11  21  37  66  86 121 158 196 243 300 343
#
# _framework density 24.678052000000001
#
# number of rings (size 3 to 8) (size 9 to 14) (size 15 to 20)
#    0.000    1.429    4.286    3.857    0.000    4.571 
#    2.571    0.714    0.000    1.714    0.000    0.000 
#    0.000    0.000    0.000    0.000    0.000    0.000 
#
# Total GULP energy -78229.294364 kJ/mol
# GULP energy per Si atom -5587.806740 kJ/mol
# Density = 2.462188 g / cm^3
# Si number density = 24.678052 Si / 1000 Ang^3
#
#
#
# Elastic Constant Matrix: (Units=GPa)
#
#
# Indices 1 2 3 4 5 6 
#
# 1 42.0336 4.2249 15.4194 8.6010 -16.4477 16.4095
# 2 4.2249 26.7243 33.1446 1.0606 2.0220 15.0774
# 3 15.4194 33.1446 116.3832 1.6854 -8.9534 10.7730
# 4 8.6010 1.0606 1.6854 39.0936 10.3582 12.8372
# 5 -16.4477 2.0220 -8.9534 10.3582 32.9637 0.5640
# 6 16.4095 15.0774 10.7730 12.8372 0.5640 28.1286
#
#
#
# Elastic Compliance Matrix: (Units=1/GPa)
#
#
# Indices 1 2 3 4 5 6 
#
# 1 0.047149 0.016333 -0.006090 -0.006430 0.023428 -0.031463
# 2 0.016333 0.103782 -0.026940 0.018092 -0.010143 -0.062892
# 3 -0.006090 -0.026940 0.016186 -0.004184 0.004092 0.013622
# 4 -0.006430 0.018092 -0.004184 0.038266 -0.017112 -0.021465
# 5 0.023428 -0.010143 0.004092 -0.017112 0.049188 -0.002975
# 6 -0.031463 -0.062892 0.013622 -0.021465 -0.002975 0.092256
#
#
# Mechanical properties :
#
#
# Convention : Reuss Voigt Hill
#
# Bulk Modulus (GPa) = 7.47824 32.30210 19.89017
# Shear Modulus (GPa) = 11.77036 28.86066 20.31551
#
# Velocity S-wave (km/s) = 2.18630 3.42349 2.87230
# Velocity P-wave (km/s) = 3.06759 5.36142 4.36778
#
# Compressibility (1/GPa) = 0.13372132
#
# Stress axis : x y z
#
# Youngs Moduli (GPa) = 21.20940 9.63558 61.78184
#
# Poissons Ratio (x) = -0.15738 0.37627
# Poissons Ratio (y) = -0.34641 1.66443
# Poissons Ratio (z) = 0.12917 0.25959
#
# Static dielectric constant tensor:
#      x y z
#    x 2.000950 -0.053720 0.014570 
#    y -0.053720 1.963070 -0.068470 
#    z 0.014570 -0.068470 2.010330 
# 
# From -- ./inp_files/499278.got.cif
#   From: 2010.05.17/outbox.cif.g08.bks.cpg/sg2_250_cif.got.tgz:499278.got - 2010.06.03 11:33:40.
