data_PCOD9077875
_publ_section_title
;
Structure prediction by ZEFSAII (Michael W. Deem and Ramdas Pophale) SiO2 
 PCOD9077875
Probable space group: P -1
;
_chemical_formula_sum "Si O2"
_cell_formula_units_Z 15
_cell_length_a 10.405087
_cell_length_b 8.981153
_cell_length_c 10.048520
_cell_angle_alpha 69.646614
_cell_angle_beta 58.099917
_cell_angle_gamma 112.152162
_cell_volume 530.359703
_symmetry_space_group_name_H-M "P -1"
_symmetry_group_IT_number 2
_symmetry_cell_setting 'triclinic'
loop_
_space_group_symop_operation_xyz
x,y,z
-x,-y,-z
loop_
_atom_site_type_symbol
_atom_site_label
_atom_site_fract_x
_atom_site_fract_y
_atom_site_fract_z
Si Si1 0.283079 0.657086 0.919752
Si Si2 0.274516 0.914257 0.047197
Si Si3 0.564080 0.468561 0.300814
Si Si4 0.659909 0.396441 0.553302
Si Si5 0.000000 0.000000 0.500000
Si Si6 0.810621 0.157965 0.297897
Si Si7 0.847699 0.226350 0.547392
Si Si8 0.038311 0.034223 0.156595
O O1 0.444346 0.637055 0.797725
O O2 0.299717 0.808498 0.754613
O O3 0.282897 0.747409 0.029732
O O4 0.049701 0.406501 0.104721
O O5 0.469051 0.157452 0.802491
O O6 0.067808 0.874849 0.141987
O O7 0.275003 0.900809 0.209777
O O8 0.614351 0.391570 0.422919
O O9 0.367813 0.444613 0.427509
O O10 0.773897 0.733946 0.094185
O O11 0.859137 0.427998 0.469604
O O12 0.080552 0.073439 0.279727
O O13 0.024388 0.218109 0.441785
O O14 0.727951 0.101536 0.511604
O O15 0.833613 0.999051 0.273191
#
# Coordination Sequence:
#
# PCOD9077875 Si02
#       8
#     2   2   2   2   1   2   2   2
#     4  10  19  34  52  81 105 135 176 229 265 308
#     4  10  21  32  52  81 110 132 177 231 265 296
#     4   9  18  33  53  77 103 144 181 213 255 318
#     4  10  19  34  56  76 103 148 182 212 257 323
#     4   8  16  30  54  80 106 132 178 216 260 308
#     4   9  18  33  57  72 103 145 178 205 271 330
#     4  10  18  35  55  79 104 144 177 212 266 328
#     4   8  16  32  52  78 103 138 174 216 261 316
#
# _framework density 28.282693999999999
#
# number of rings (size 3 to 8) (size 9 to 14) (size 15 to 20)
#    0.000    2.667    1.333    0.400    0.000    1.600 
#    0.000    0.667    0.000    1.600    0.000    0.000 
#    0.000    0.000    0.000    0.000    0.000    0.000 
#
# Total GULP energy -83646.020676 kJ/mol
# GULP energy per Si atom -5576.401378 kJ/mol
# Density = 2.821832 g / cm^3
# Si number density = 28.282694 Si / 1000 Ang^3
#
#
#
# Elastic Constant Matrix: (Units=GPa)
#
#
# Indices 1 2 3 4 5 6 
#
# 1 123.0847 60.0896 49.4756 10.3519 3.0758 -39.4704
# 2 60.0896 156.0305 39.1189 17.1003 -19.1859 -63.2062
# 3 49.4756 39.1189 155.4886 22.5321 18.6984 -8.4195
# 4 10.3519 17.1003 22.5321 62.5573 -22.5837 -9.7215
# 5 3.0758 -19.1859 18.6984 -22.5837 46.0838 7.7594
# 6 -39.4704 -63.2062 -8.4195 -9.7215 7.7594 67.5878
#
#
#
# Elastic Compliance Matrix: (Units=1/GPa)
#
#
# Indices 1 2 3 4 5 6 
#
# 1 0.011839 -0.002090 -0.002794 -0.000148 -0.001399 0.004750
# 2 -0.002090 0.012269 -0.002777 0.001447 0.005486 0.009485
# 3 -0.002794 -0.002777 0.009406 -0.005077 -0.006767 -0.003011
# 4 -0.000148 0.001447 -0.005077 0.022635 0.013368 0.002355
# 5 -0.001399 0.005486 -0.006767 0.013368 0.033106 0.001593
# 6 0.004750 0.009485 -0.003011 0.002355 0.001593 0.026220
#
#
# Mechanical properties :
#
#
# Convention : Reuss Voigt Hill
#
# Bulk Modulus (GPa) = 54.97755 81.33025 68.15390
# Shear Modulus (GPa) = 36.53334 54.30708 45.42021
#
# Velocity S-wave (km/s) = 3.59795 4.38671 4.01176
# Velocity P-wave (km/s) = 6.06144 7.38080 6.75342
#
# Compressibility (1/GPa) = 0.01818924
#
# Stress axis : x y z
#
# Youngs Moduli (GPa) = 84.46773 81.50938 106.31848
#
# Poissons Ratio (x) = 0.17038 0.29708
# Poissons Ratio (y) = 0.17657 0.29528
# Poissons Ratio (z) = 0.23602 0.22638
#
# Static dielectric constant tensor:
#      x y z
#    x 2.159610 0.167040 -0.012600 
#    y 0.167040 1.951920 -0.174020 
#    z -0.012600 -0.174020 2.166680 
# 
# From -- ./inp_files/238258.got.cif
#   From: 2010.05.17/outbox.cif.g08.bks.cpg/sg2_120_cif.got.tgz:238258.got - 2010.06.03 11:33:40.
