data_PCOD9077996
_publ_section_title
;
Structure prediction by ZEFSAII (Michael W. Deem and Ramdas Pophale) SiO2 
 PCOD9077996
Probable space group: P -1
;
_chemical_formula_sum "Si O2"
_cell_formula_units_Z 16
_cell_length_a 16.340177
_cell_length_b 12.128735
_cell_length_c 10.975767
_cell_angle_alpha 81.414034
_cell_angle_beta 46.124542
_cell_angle_gamma 44.779063
_cell_volume 814.989639
_symmetry_space_group_name_H-M "P -1"
_symmetry_group_IT_number 2
_symmetry_cell_setting 'triclinic'
loop_
_space_group_symop_operation_xyz
x,y,z
-x,-y,-z
loop_
_atom_site_type_symbol
_atom_site_label
_atom_site_fract_x
_atom_site_fract_y
_atom_site_fract_z
Si Si1 0.594605 0.653247 0.328954
Si Si2 0.802796 0.015117 0.182314
Si Si3 0.048103 0.125542 0.354187
Si Si4 0.226567 0.476501 0.561340
Si Si5 0.655265 0.014244 0.101072
Si Si6 0.132224 0.381039 0.010361
Si Si7 0.255086 0.709474 0.163372
Si Si8 0.732622 0.324491 0.130377
O O1 0.360074 0.898902 0.563484
O O2 0.703646 0.563654 0.364788
O O3 0.752523 0.596999 0.092872
O O4 0.570194 0.551494 0.314026
O O5 0.799582 0.950966 0.069866
O O6 0.710644 0.214913 0.211845
O O7 0.037642 0.830285 0.025866
O O8 0.858395 0.334884 0.431290
O O9 0.922380 0.219326 0.596151
O O10 0.150429 0.920244 0.251017
O O11 0.243595 0.044538 0.125993
O O12 0.426595 0.263198 0.313595
O O13 0.043263 0.533287 0.737289
O O14 0.671957 0.871742 0.145410
O O15 0.000000 0.500000 0.000000
O O16 0.500000 0.500000 0.000000
O O17 0.269920 0.669844 0.012886
#
# Coordination Sequence:
#
# PCOD9077996 Si02
#       8
#     2   2   2   2   2   2   2   2
#     4  10  21  33  54  84 116 150 180 221 277 337
#     4  10  21  34  55  81 112 154 178 222 279 333
#     4  10  20  36  54  80 108 138 189 233 272 321
#     4   9  19  33  59  83 113 146 182 233 277 326
#     4  10  18  35  57  83 114 147 188 227 278 325
#     4   9  18  31  51  85 116 147 184 227 270 328
#     4  11  24  37  57  79 108 150 190 236 273 325
#     4  11  22  37  52  80 116 148 184 220 280 338
#
# _framework density 19.632151
#
# number of rings (size 3 to 8) (size 9 to 14) (size 15 to 20)
#    0.000    2.000    1.250    3.375    3.500    7.500 
#    0.000    0.000    0.000    3.000    0.000    8.750 
#    0.000    0.000    0.000    0.000    0.000    0.000 
#
# Total GULP energy -89070.557476 kJ/mol
# GULP energy per Si atom -5566.909842 kJ/mol
# Density = 1.958747 g / cm^3
# Si number density = 19.632151 Si / 1000 Ang^3
#
#
#
# Elastic Constant Matrix: (Units=GPa)
#
#
# Indices 1 2 3 4 5 6 
#
# 1 23.5288 0.9491 13.1097 -9.5935 4.9321 1.7542
# 2 0.9491 85.4965 23.5877 2.9711 5.4253 6.8798
# 3 13.1097 23.5877 97.2882 -2.9645 15.2754 -12.0816
# 4 -9.5935 2.9711 -2.9645 32.3540 1.4377 -0.3915
# 5 4.9321 5.4253 15.2754 1.4377 24.9374 0.2381
# 6 1.7542 6.8798 -12.0816 -0.3915 0.2381 18.6191
#
#
#
# Elastic Compliance Matrix: (Units=1/GPa)
#
#
# Indices 1 2 3 4 5 6 
#
# 1 0.055492 0.002293 -0.007685 0.015747 -0.007573 -0.010634
# 2 0.002293 0.013677 -0.004614 -0.001078 -0.000462 -0.008280
# 3 -0.007685 -0.004614 0.015021 -0.000029 -0.006793 0.012262
# 4 0.015747 -0.001078 -0.000029 0.035889 -0.004929 -0.000286
# 5 -0.007573 -0.000462 -0.006793 -0.004929 0.046184 -0.004218
# 6 -0.010634 -0.008280 0.012262 -0.000286 -0.004218 0.065774
#
#
# Mechanical properties :
#
#
# Convention : Reuss Voigt Hill
#
# Bulk Modulus (GPa) = 15.58153 31.28963 23.43558
# Shear Modulus (GPa) = 18.28542 26.42655 22.35599
#
# Velocity S-wave (km/s) = 3.05520 3.67288 3.37819
# Velocity P-wave (km/s) = 4.51659 5.82746 5.21339
#
# Compressibility (1/GPa) = 0.06417856
#
# Stress axis : x y z
#
# Youngs Moduli (GPa) = 18.02074 73.11626 66.57162
#
# Poissons Ratio (x) = -0.16768 0.51163
# Poissons Ratio (y) = -0.04133 0.30714
# Poissons Ratio (z) = 0.13850 0.33733
#
# Static dielectric constant tensor:
#      x y z
#    x 1.647380 0.017870 -0.023730 
#    y 0.017870 1.736040 0.001640 
#    z -0.023730 0.001640 1.748350 
# 
# From -- ./inp_files/464510.got.cif
#   From: 2010.05.17/outbox.cif.g08.bks.cpg/sg2_233_cif.got.tgz:464510.got - 2010.06.03 11:33:40.
