data_PCOD9077192
_publ_section_title
;
Structure prediction by ZEFSAII (Michael W. Deem and Ramdas Pophale) SiO2 
 PCOD9077192
Probable space group: P -1
;
_chemical_formula_sum "Si O2"
_cell_formula_units_Z 16
_cell_length_a 12.158563
_cell_length_b 23.289304
_cell_length_c 8.177960
_cell_angle_alpha 147.133033
_cell_angle_beta 66.160087
_cell_angle_gamma 135.919805
_cell_volume 742.651518
_symmetry_space_group_name_H-M "P -1"
_symmetry_group_IT_number 2
_symmetry_cell_setting 'triclinic'
loop_
_space_group_symop_operation_xyz
x,y,z
-x,-y,-z
loop_
_atom_site_type_symbol
_atom_site_label
_atom_site_fract_x
_atom_site_fract_y
_atom_site_fract_z
Si Si1 0.561744 0.794543 0.813619
Si Si2 0.123113 0.305836 0.679733
Si Si3 0.747450 0.093826 0.218518
Si Si4 0.213721 0.651383 0.290206
Si Si5 0.191223 0.035130 0.380884
Si Si6 0.079284 0.998893 0.711468
Si Si7 0.468606 0.630108 0.125871
Si Si8 0.167458 0.552341 0.440047
O O1 0.533583 0.710955 0.461742
O O2 0.356064 0.667981 0.708237
O O3 0.723671 0.854501 0.968326
O O4 0.635715 0.958938 0.104776
O O5 0.963657 0.229502 0.464398
O O6 0.327024 0.439403 0.792805
O O7 0.123607 0.405686 0.045307
O O8 0.055254 0.156789 0.459648
O O9 0.702020 0.184888 0.438855
O O10 0.722938 0.008315 0.864610
O O11 0.333162 0.627832 0.123090
O O12 0.215464 0.652736 0.489442
O O13 0.000000 0.500000 0.000000
O O14 0.120474 0.965280 0.437164
O O15 0.342126 0.233162 0.763636
O O16 0.024147 0.965573 0.201361
O O17 0.000000 0.500000 0.500000
#
# Coordination Sequence:
#
# PCOD9077192 Si02
#       8
#     2   2   2   2   2   2   2   2
#     4   8  19  36  56  75 112 141 182 221 264 333
#     4   9  19  37  57  80 114 141 184 224 266 334
#     4  10  18  36  58  82 106 147 186 218 271 324
#     4  10  18  34  57  80 116 141 174 228 264 321
#     4  10  23  36  58  81 107 142 189 232 276 318
#     4  10  21  41  54  79 113 142 181 238 276 316
#     4   9  19  36  56  85 107 145 185 218 268 331
#     4  10  21  35  54  85 113 145 177 217 277 329
#
# _framework density 21.544426000000001
#
# number of rings (size 3 to 8) (size 9 to 14) (size 15 to 20)
#    0.000    2.750    2.500    0.000    1.750   10.500 
#    0.000    2.500    0.000    7.500    0.000    0.000 
#    0.000    0.000    0.000    0.000    0.000    0.000 
#
# Total GULP energy -89243.853537 kJ/mol
# GULP energy per Si atom -5577.740846 kJ/mol
# Density = 2.149539 g / cm^3
# Si number density = 21.544426 Si / 1000 Ang^3
#
#
#
# Elastic Constant Matrix: (Units=GPa)
#
#
# Indices 1 2 3 4 5 6 
#
# 1 95.0335 15.9619 34.3708 4.1735 27.8861 -1.7357
# 2 15.9619 52.6075 7.3755 14.1763 4.7458 6.3868
# 3 34.3708 7.3755 73.6531 18.9856 14.4935 3.7280
# 4 4.1735 14.1763 18.9856 20.8918 12.1420 4.4718
# 5 27.8861 4.7458 14.4935 12.1420 30.8569 4.8792
# 6 -1.7357 6.3868 3.7280 4.4718 4.8792 32.0275
#
#
#
# Elastic Compliance Matrix: (Units=1/GPa)
#
#
# Indices 1 2 3 4 5 6 
#
# 1 0.022801 -0.010868 -0.011879 0.026956 -0.024719 0.004788
# 2 -0.010868 0.029218 0.007778 -0.032507 0.015274 -0.005109
# 3 -0.011879 0.007778 0.024269 -0.030585 0.010547 -0.002356
# 4 0.026956 -0.032507 -0.030585 0.123075 -0.053823 0.002519
# 5 -0.024719 0.015274 0.010547 -0.053823 0.070009 -0.008764
# 6 0.004788 -0.005109 -0.002356 0.002519 -0.008764 0.033759
#
#
# Mechanical properties :
#
#
# Convention : Reuss Voigt Hill
#
# Bulk Modulus (GPa) = 21.57445 37.41229 29.49337
# Shear Modulus (GPa) = 14.34643 27.66097 21.00370
#
# Velocity S-wave (km/s) = 2.58330 3.58705 3.12573
# Velocity P-wave (km/s) = 4.35128 5.87867 5.17167
#
# Compressibility (1/GPa) = 0.04635112
#
# Stress axis : x y z
#
# Youngs Moduli (GPa) = 43.85708 34.22574 41.20419
#
# Poissons Ratio (x) = 0.37197 0.48945
# Poissons Ratio (y) = 0.47664 -0.32049
# Poissons Ratio (z) = 0.52096 -0.26621
#
# Static dielectric constant tensor:
#      x y z
#    x 1.804820 0.027520 0.007760 
#    y 0.027520 1.800670 0.030500 
#    z 0.007760 0.030500 1.834340 
# 
# From -- ./inp_files/285098.got.cif
#   From: 2010.05.17/outbox.cif.g08.bks.cpg/sg2_143_cif.got.tgz:285098.got - 2010.06.03 11:33:40.
