data_PCOD9077186
_publ_section_title
;
Structure prediction by ZEFSAII (Michael W. Deem and Ramdas Pophale) SiO2 
 PCOD9077186
Probable space group: P -1
;
_chemical_formula_sum "Si O2"
_cell_formula_units_Z 16
_cell_length_a 10.914022
_cell_length_b 17.232220
_cell_length_c 15.960218
_cell_angle_alpha 146.004324
_cell_angle_beta 30.640742
_cell_angle_gamma 154.636807
_cell_volume 636.714391
_symmetry_space_group_name_H-M "P -1"
_symmetry_group_IT_number 2
_symmetry_cell_setting 'triclinic'
loop_
_space_group_symop_operation_xyz
x,y,z
-x,-y,-z
loop_
_atom_site_type_symbol
_atom_site_label
_atom_site_fract_x
_atom_site_fract_y
_atom_site_fract_z
Si Si1 0.081166 0.153435 0.432647
Si Si2 0.701223 0.828475 0.942957
Si Si3 0.760465 0.223149 0.568784
Si Si4 0.203561 0.438167 0.344690
Si Si5 0.934739 0.710606 0.113934
Si Si6 0.700111 0.419902 0.208140
Si Si7 0.169076 0.148543 0.835792
Si Si8 0.168503 0.840021 0.265179
O O1 0.462101 0.312694 0.331788
O O2 0.929068 0.241275 0.570177
O O3 0.911045 0.063341 0.540798
O O4 0.946906 0.991336 0.299844
O O5 0.796580 0.720966 0.836786
O O6 0.506370 0.706427 0.864367
O O7 0.473873 0.867290 0.141255
O O8 0.017694 0.025571 0.897442
O O9 0.550915 0.281392 0.741777
O O10 0.046758 0.342498 0.440944
O O11 0.500000 0.000000 0.500000
O O12 0.577982 0.616817 0.269384
O O13 0.000000 0.500000 0.500000
O O14 0.959855 0.759079 0.044356
O O15 0.177221 0.864231 0.180893
O O16 0.006147 0.574879 0.954152
O O17 0.849466 0.623762 0.277706
#
# Coordination Sequence:
#
# PCOD9077186 Si02
#       8
#     2   2   2   2   2   2   2   2
#     4  10  21  34  56  83 109 155 180 217 289 333
#     4  10  19  36  56  83 108 146 189 224 276 324
#     4  10  18  35  57  78 107 144 190 222 264 328
#     4  12  19  31  60  90 102 134 193 237 263 312
#     4  11  21  34  58  89 108 142 188 234 273 312
#     4  10  18  34  57  79 113 143 188 224 274 329
#     4  10  21  37  58  78 112 150 188 228 268 328
#     4  11  20  34  57  83 119 140 180 235 275 334
#
# _framework density 25.129006
#
# number of rings (size 3 to 8) (size 9 to 14) (size 15 to 20)
#    0.000    1.500    7.500    1.125    0.000    5.000 
#    0.000    0.625    0.000    4.500    0.000    0.000 
#    0.000    0.000    0.000    0.000    0.000    0.000 
#
# Total GULP energy -89159.108525 kJ/mol
# GULP energy per Si atom -5572.444283 kJ/mol
# Density = 2.507181 g / cm^3
# Si number density = 25.129006 Si / 1000 Ang^3
#
#
#
# Elastic Constant Matrix: (Units=GPa)
#
#
# Indices 1 2 3 4 5 6 
#
# 1 71.8160 12.6307 28.4963 8.6990 -34.6176 -16.1985
# 2 12.6307 46.3327 15.3763 -13.5308 -8.8558 -3.8715
# 3 28.4963 15.3763 120.9868 -22.3174 -25.9554 -0.7849
# 4 8.6990 -13.5308 -22.3174 37.6799 1.9069 -6.5274
# 5 -34.6176 -8.8558 -25.9554 1.9069 44.8402 4.2372
# 6 -16.1985 -3.8715 -0.7849 -6.5274 4.2372 29.5995
#
#
#
# Elastic Compliance Matrix: (Units=1/GPa)
#
#
# Indices 1 2 3 4 5 6 
#
# 1 0.028725 -0.005076 -0.003958 -0.009973 0.018350 0.010125
# 2 -0.005076 0.026614 0.000036 0.011258 0.000586 0.003103
# 3 -0.003958 0.000036 0.011220 0.007286 0.003204 -0.000716
# 4 -0.009973 0.011258 0.007286 0.038259 -0.003371 0.005127
# 5 0.018350 0.000586 0.003204 -0.003371 0.038204 0.003991
# 6 0.010125 0.003103 -0.000716 0.005127 0.003991 0.040271
#
#
# Mechanical properties :
#
#
# Convention : Reuss Voigt Hill
#
# Bulk Modulus (GPa) = 20.59249 39.12689 29.85969
# Shear Modulus (GPa) = 22.99096 34.59940 28.79518
#
# Velocity S-wave (km/s) = 3.02804 3.71465 3.38878
# Velocity P-wave (km/s) = 4.52083 5.83115 5.21729
#
# Compressibility (1/GPa) = 0.04856140
#
# Stress axis : x y z
#
# Youngs Moduli (GPa) = 34.81313 37.57421 89.12971
#
# Poissons Ratio (x) = 0.19074 0.35276
# Poissons Ratio (y) = 0.17673 -0.00319
# Poissons Ratio (z) = 0.13779 -0.00134
#
# Static dielectric constant tensor:
#      x y z
#    x 2.121130 -0.078180 -0.004290 
#    y -0.078180 2.054680 0.067980 
#    z -0.004290 0.067980 2.070740 
# 
# From -- ./inp_files/570262.got.cif
#   From: 2010.05.17/outbox.cif.g08.bks.cpg/sg2_286_cif.got.tgz:570262.got - 2010.06.03 11:33:40.
