data_PCOD9077687
_publ_section_title
;
Structure prediction by ZEFSAII (Michael W. Deem and Ramdas Pophale) SiO2 
 PCOD9077687
Probable space group: P -1
;
_chemical_formula_sum "Si O2"
_cell_formula_units_Z 16
_cell_length_a 7.691527
_cell_length_b 20.638717
_cell_length_c 10.912666
_cell_angle_alpha 140.917801
_cell_angle_beta 56.090102
_cell_angle_gamma 96.504254
_cell_volume 717.368254
_symmetry_space_group_name_H-M "P -1"
_symmetry_group_IT_number 2
_symmetry_cell_setting 'triclinic'
loop_
_space_group_symop_operation_xyz
x,y,z
-x,-y,-z
loop_
_atom_site_type_symbol
_atom_site_label
_atom_site_fract_x
_atom_site_fract_y
_atom_site_fract_z
Si Si1 0.694303 0.738631 0.768171
Si Si2 0.205964 0.703319 0.426488
Si Si3 0.081906 0.523307 0.795643
Si Si4 0.678717 0.513415 0.105152
Si Si5 0.477176 0.883062 0.814510
Si Si6 0.334796 0.976211 0.436694
Si Si7 0.886581 0.052912 0.291883
Si Si8 0.297559 0.183954 0.621904
O O1 0.775193 0.594444 0.529958
O O2 0.541286 0.804124 0.797172
O O3 0.960470 0.724589 0.622061
O O4 0.526275 0.840128 0.091204
O O5 0.422913 0.654634 0.374474
O O6 0.120100 0.827242 0.567289
O O7 0.337753 0.591870 0.107405
O O8 0.279897 0.508422 0.798690
O O9 0.909943 0.498871 0.914460
O O10 0.887410 0.670446 0.037888
O O11 0.696312 0.798638 0.500259
O O12 0.500000 0.000000 0.000000
O O13 0.184415 0.935150 0.963754
O O14 0.137292 0.971224 0.592021
O O15 0.500000 0.000000 0.500000
O O16 0.209797 0.096505 0.568609
O O17 0.609850 0.095028 0.405078
#
# Coordination Sequence:
#
# PCOD9077687 Si02
#       8
#     2   2   2   2   2   2   2   2
#     4  11  23  41  63  95 127 164 208 262 315 369
#     4  10  18  34  62  93 125 158 208 255 310 372
#     4  10  20  36  64  93 127 157 205 266 318 363
#     4   9  18  32  57  95 127 157 194 260 324 364
#     4  12  22  37  64  99 123 157 209 269 308 367
#     4  10  24  45  62  88 127 175 213 250 309 378
#     4  11  23  38  63  93 126 172 209 254 309 373
#     4  11  21  42  66  93 127 167 209 257 316 369
#
# _framework density 22.303746
#
# number of rings (size 3 to 8) (size 9 to 14) (size 15 to 20)
#    0.000    1.500    3.750    2.625    0.000    1.500 
#    0.000    2.500    0.000    1.500    0.000    0.000 
#    0.000    0.000    0.000    0.000    0.000    0.000 
#
# Total GULP energy -89273.572654 kJ/mol
# GULP energy per Si atom -5579.598291 kJ/mol
# Density = 2.225298 g / cm^3
# Si number density = 22.303746 Si / 1000 Ang^3
#
#
#
# Elastic Constant Matrix: (Units=GPa)
#
#
# Indices 1 2 3 4 5 6 
#
# 1 44.0083 -0.2475 12.7393 0.6937 -7.1086 -14.0096
# 2 -0.2475 49.8335 53.5622 -20.7618 -0.6282 -9.6693
# 3 12.7393 53.5622 137.3973 8.1172 19.6307 -3.4265
# 4 0.6937 -20.7618 8.1172 14.8108 -9.1723 -1.2288
# 5 -7.1086 -0.6282 19.6307 -9.1723 26.8951 4.3975
# 6 -14.0096 -9.6693 -3.4265 -1.2288 4.3975 11.0110
#
#
#
# Elastic Compliance Matrix: (Units=1/GPa)
#
#
# Indices 1 2 3 4 5 6 
#
# 1 0.028397 -0.012879 0.006371 -0.027652 -0.011505 0.028312
# 2 -0.012879 -0.013561 0.011621 -0.040522 -0.022732 -0.020122
# 3 0.006371 0.011621 0.000623 0.020587 0.005479 0.018614
# 4 -0.027652 -0.040522 0.020587 -0.016002 -0.019176 -0.058488
# 5 -0.011505 -0.022732 0.005479 -0.019176 0.030811 -0.047341
# 6 0.028312 -0.020122 0.018614 -0.058488 -0.047341 0.127343
#
#
# Mechanical properties :
#
#
# Convention : Reuss Voigt Hill
#
# Bulk Modulus (GPa) = 38.93434 40.37190 39.65312
# Shear Modulus (GPa) = 32.06245 21.55572 26.80909
#
# Velocity S-wave (km/s) = 3.79560 3.11217 3.47075
# Velocity P-wave (km/s) = 6.05831 5.57265 5.82054
#
# Compressibility (1/GPa) = 0.02568427
#
# Stress axis : x y z
#
# Youngs Moduli (GPa) = 35.21550 -73.74296 1606.39926
#
# Poissons Ratio (x) = -0.94973 -10.23471
# Poissons Ratio (y) = 0.45354 -18.66727
# Poissons Ratio (z) = -0.22437 0.85693
#
# Static dielectric constant tensor:
#      x y z
#    x 1.951480 -0.015740 0.010970 
#    y -0.015740 1.823830 0.046620 
#    z 0.010970 0.046620 1.867050 
# 
# From -- ./inp_files/404910.got.cif
#   From: 2010.05.17/outbox.cif.g08.bks.cpg/sg2_203_cif.got.tgz:404910.got - 2010.06.03 11:33:40.
