data_PCOD9077333
_publ_section_title
;
Structure prediction by ZEFSAII (Michael W. Deem and Ramdas Pophale) SiO2 
 PCOD9077333
Probable space group: P -1
;
_chemical_formula_sum "Si O2"
_cell_formula_units_Z 16
_cell_length_a 10.963664
_cell_length_b 17.009137
_cell_length_c 18.196597
_cell_angle_alpha 139.964041
_cell_angle_beta 38.094848
_cell_angle_gamma 157.399154
_cell_volume 793.571854
_symmetry_space_group_name_H-M "P -1"
_symmetry_group_IT_number 2
_symmetry_cell_setting 'triclinic'
loop_
_space_group_symop_operation_xyz
x,y,z
-x,-y,-z
loop_
_atom_site_type_symbol
_atom_site_label
_atom_site_fract_x
_atom_site_fract_y
_atom_site_fract_z
Si Si1 0.305311 0.526773 0.709684
Si Si2 0.723640 0.847782 0.868020
Si Si3 0.260000 0.467708 0.524059
Si Si4 0.435650 0.782003 0.104084
Si Si5 0.748024 0.399501 0.664060
Si Si6 0.359335 0.005281 0.501079
Si Si7 0.887713 0.179499 0.258693
Si Si8 0.393125 0.306799 0.908702
O O1 0.546681 0.729575 0.790936
O O2 0.328493 0.567195 0.640565
O O3 0.431164 0.448464 0.599094
O O4 0.928652 0.356755 0.795946
O O5 0.915405 0.821515 0.786634
O O6 0.458167 0.751819 0.987939
O O7 0.015549 0.095231 0.907892
O O8 0.058346 0.458863 0.560864
O O9 0.014340 0.232072 0.495166
O O10 0.550479 0.728810 0.065017
O O11 0.716628 0.025523 0.161073
O O12 0.446374 0.188020 0.609681
O O13 0.623482 0.351861 0.772391
O O14 0.872200 0.590564 0.712773
O O15 0.577211 0.075018 0.378316
O O16 0.500000 0.000000 0.500000
O O17 0.500000 0.500000 0.000000
#
# Coordination Sequence:
#
# PCOD9077333 Si02
#       8
#     2   2   2   2   2   2   2   2
#     4  11  21  38  62  83 118 158 197 231 292 358
#     4  11  22  37  62  89 116 154 196 239 295 348
#     4  10  20  38  62  83 116 161 194 236 295 346
#     4  11  21  40  59  86 116 159 193 240 291 349
#     4  11  20  35  61  89 117 148 198 249 285 341
#     4  10  18  34  58  87 114 148 196 245 284 337
#     4  11  21  37  60  91 116 150 197 243 295 336
#     4  11  21  39  62  88 114 150 197 245 292 341
#
# _framework density 20.162005000000001
#
# number of rings (size 3 to 8) (size 9 to 14) (size 15 to 20)
#    0.000    1.250    2.500    8.250    0.000    0.000 
#    0.000    1.250   11.000    0.000    0.000    0.000 
#    0.000    0.000    0.000    0.000    0.000    0.000 
#
# Total GULP energy -89366.312399 kJ/mol
# GULP energy per Si atom -5585.394525 kJ/mol
# Density = 2.011612 g / cm^3
# Si number density = 20.162005 Si / 1000 Ang^3
#
#
#
# Elastic Constant Matrix: (Units=GPa)
#
#
# Indices 1 2 3 4 5 6 
#
# 1 29.4031 35.2721 20.1515 18.7976 8.3427 11.6959
# 2 35.2721 112.0947 39.6617 25.7994 -1.6558 5.0427
# 3 20.1515 39.6617 109.2739 9.3644 9.0722 7.8949
# 4 18.7976 25.7994 9.3644 44.2539 5.9611 -4.2248
# 5 8.3427 -1.6558 9.0722 5.9611 29.8262 3.5349
# 6 11.6959 5.0427 7.8949 -4.2248 3.5349 33.9928
#
#
#
# Elastic Compliance Matrix: (Units=1/GPa)
#
#
# Indices 1 2 3 4 5 6 
#
# 1 0.099879 -0.022088 -0.004072 -0.029265 -0.018298 -0.031878
# 2 -0.022088 0.016914 -0.003016 -0.000380 0.007523 0.004962
# 3 -0.004072 -0.003016 0.011112 0.001470 -0.002670 -0.000272
# 4 -0.029265 -0.000380 0.001470 0.036491 -0.001289 0.014453
# 5 -0.018298 0.007523 -0.002670 -0.001289 0.039957 0.001485
# 6 -0.031878 0.004962 -0.000272 0.014453 0.001485 0.041355
#
#
# Mechanical properties :
#
#
# Convention : Reuss Voigt Hill
#
# Bulk Modulus (GPa) = 14.37751 48.99357 31.68554
# Shear Modulus (GPa) = 15.27903 31.99366 23.63634
#
# Velocity S-wave (km/s) = 2.75583 3.98782 3.42763
# Velocity P-wave (km/s) = 4.15603 6.74954 5.60486
#
# Compressibility (1/GPa) = 0.06955308
#
# Stress axis : x y z
#
# Youngs Moduli (GPa) = 10.01208 59.12313 89.99066
#
# Poissons Ratio (x) = 1.30593 0.36641
# Poissons Ratio (y) = 0.22115 0.27142
# Poissons Ratio (z) = 0.04077 0.17832
#
# Static dielectric constant tensor:
#      x y z
#    x 1.700120 0.024800 0.006350 
#    y 0.024800 1.735930 -0.000620 
#    z 0.006350 -0.000620 1.761980 
# 
# From -- ./inp_files/216686.got.cif
#   From: 2010.05.17/outbox.cif.g08.bks.cpg/sg2_109_cif.got.tgz:216686.got - 2010.06.03 11:33:40.
