data_PCOD9077381
_publ_section_title
;
Structure prediction by ZEFSAII (Michael W. Deem and Ramdas Pophale) SiO2 
 PCOD9077381
Probable space group: P -1
;
_chemical_formula_sum "Si O2"
_cell_formula_units_Z 16
_cell_length_a 15.528050
_cell_length_b 9.594183
_cell_length_c 8.747326
_cell_angle_alpha 118.516945
_cell_angle_beta 140.458092
_cell_angle_gamma 55.180778
_cell_volume 679.391300
_symmetry_space_group_name_H-M "P -1"
_symmetry_group_IT_number 2
_symmetry_cell_setting 'triclinic'
loop_
_space_group_symop_operation_xyz
x,y,z
-x,-y,-z
loop_
_atom_site_type_symbol
_atom_site_label
_atom_site_fract_x
_atom_site_fract_y
_atom_site_fract_z
Si Si1 0.422533 0.489615 0.655376
Si Si2 0.777237 0.971780 0.594877
Si Si3 0.299014 0.724803 0.875588
Si Si4 0.006062 0.848702 0.086097
Si Si5 0.531220 0.288844 0.429597
Si Si6 0.884792 0.911893 0.259656
Si Si7 0.143825 0.340397 0.656841
Si Si8 0.209997 0.630813 0.004626
O O1 0.301771 0.607392 0.669979
O O2 0.404694 0.371684 0.426759
O O3 0.464187 0.629861 0.687261
O O4 0.546949 0.366383 0.873880
O O5 0.797168 0.783905 0.469986
O O6 0.877922 0.056227 0.682059
O O7 0.607970 0.087149 0.417566
O O8 0.856046 0.966206 0.861920
O O9 0.259937 0.921558 0.881939
O O10 0.186914 0.715806 0.849404
O O11 0.080524 0.705740 0.986858
O O12 0.953184 0.800538 0.145660
O O13 0.660451 0.331003 0.716548
O O14 0.871383 0.787286 0.304097
O O15 0.000000 0.000000 0.500000
O O16 0.243184 0.434695 0.912881
O O17 0.000000 0.500000 0.500000
#
# Coordination Sequence:
#
# PCOD9077381 Si02
#       8
#     2   2   2   2   2   2   2   2
#     4   9  18  34  62  86 112 142 208 249 282 327
#     4  10  18  34  59  81 120 154 191 230 287 346
#     4  10  20  37  59  90 114 152 195 249 282 344
#     4  10  19  35  56  82 113 160 191 233 275 344
#     4   9  18  34  60  90 108 152 197 247 288 339
#     4  12  23  36  60  89 117 155 199 232 284 358
#     4  12  23  38  52  86 126 160 187 234 299 348
#     4  10  21  37  56  84 127 150 188 239 298 342
#
# _framework density 23.550491000000001
#
# number of rings (size 3 to 8) (size 9 to 14) (size 15 to 20)
#    0.000    1.750    2.500    4.500    1.750    0.500 
#    0.000    0.000    0.000   28.500    0.000    0.000 
#    0.000    0.000    0.000    0.000    0.000    0.000 
#
# Total GULP energy -89117.934236 kJ/mol
# GULP energy per Si atom -5569.870890 kJ/mol
# Density = 2.349689 g / cm^3
# Si number density = 23.550491 Si / 1000 Ang^3
#
#
#
# Elastic Constant Matrix: (Units=GPa)
#
#
# Indices 1 2 3 4 5 6 
#
# 1 64.7232 37.2594 29.6660 -0.2286 -36.5981 -14.6580
# 2 37.2594 150.6671 28.8601 7.5831 -18.3501 -14.4268
# 3 29.6660 28.8601 49.0359 5.9299 -15.2649 2.0151
# 4 -0.2286 7.5831 5.9299 43.1627 -3.6283 -11.4535
# 5 -36.5981 -18.3501 -15.2649 -3.6283 32.1159 9.0381
# 6 -14.6580 -14.4268 2.0151 -11.4535 9.0381 42.1826
#
#
#
# Elastic Compliance Matrix: (Units=1/GPa)
#
#
# Indices 1 2 3 4 5 6 
#
# 1 0.060744 -0.004056 -0.018809 0.011436 0.055953 0.011735
# 2 -0.004056 0.008172 -0.002933 -0.000756 -0.001920 0.001732
# 3 -0.018809 -0.002933 0.033098 -0.007218 -0.005401 -0.009923
# 4 0.011436 -0.000756 -0.007218 0.027687 0.009619 0.009517
# 5 0.055953 -0.001920 -0.005401 0.009619 0.091760 0.001995
# 6 0.011735 0.001732 -0.009923 0.009517 0.001995 0.031007
#
#
# Mechanical properties :
#
#
# Convention : Reuss Voigt Hill
#
# Bulk Modulus (GPa) = 19.83428 50.66634 35.25031
# Shear Modulus (GPa) = 15.58264 34.73495 25.15880
#
# Velocity S-wave (km/s) = 2.57508 3.84463 3.27202
# Velocity P-wave (km/s) = 4.15713 6.42408 5.41066
#
# Compressibility (1/GPa) = 0.05041775
#
# Stress axis : x y z
#
# Youngs Moduli (GPa) = 16.46266 122.36759 30.21351
#
# Poissons Ratio (x) = 0.49634 0.56827
# Poissons Ratio (y) = 0.06677 0.08862
# Poissons Ratio (z) = 0.30964 0.35892
#
# Static dielectric constant tensor:
#      x y z
#    x 1.990120 -0.112030 0.023030 
#    y -0.112030 2.026320 -0.064530 
#    z 0.023030 -0.064530 2.000410 
# 
# From -- ./inp_files/329478.got.cif
#   From: 2010.05.17/outbox.cif.g08.bks.cpg/sg2_165_cif.got.tgz:329478.got - 2010.06.03 11:33:40.
