data_PCOD9077406
_publ_section_title
;
Structure prediction by ZEFSAII (Michael W. Deem and Ramdas Pophale) SiO2 
 PCOD9077406
Probable space group: P -1
;
_chemical_formula_sum "Si O2"
_cell_formula_units_Z 16
_cell_length_a 18.423888
_cell_length_b 11.583034
_cell_length_c 8.131843
_cell_angle_alpha 68.970543
_cell_angle_beta 39.813723
_cell_angle_gamma 50.030001
_cell_volume 818.906468
_symmetry_space_group_name_H-M "P -1"
_symmetry_group_IT_number 2
_symmetry_cell_setting 'triclinic'
loop_
_space_group_symop_operation_xyz
x,y,z
-x,-y,-z
loop_
_atom_site_type_symbol
_atom_site_label
_atom_site_fract_x
_atom_site_fract_y
_atom_site_fract_z
Si Si1 0.055167 0.275905 0.604715
Si Si2 0.693608 0.259447 0.254574
Si Si3 0.627262 0.568829 0.360088
Si Si4 0.865845 0.049516 0.324928
Si Si5 0.227100 0.408460 0.204018
Si Si6 0.050151 0.029215 0.235141
Si Si7 0.922812 0.722731 0.043252
Si Si8 0.227789 0.420047 0.572968
O O1 0.170939 0.304966 0.352339
O O2 0.912497 0.413403 0.687315
O O3 0.106863 0.102552 0.567753
O O4 0.033602 0.290427 0.833461
O O5 0.692598 0.395308 0.269185
O O6 0.543600 0.336076 0.389233
O O7 0.724835 0.148003 0.411641
O O8 0.826901 0.143620 0.963059
O O9 0.687683 0.570579 0.430669
O O10 0.666547 0.636572 0.108967
O O11 0.893220 0.137841 0.362594
O O12 0.000000 0.000000 0.000000
O O13 0.279758 0.399413 0.303986
O O14 0.113453 0.122923 0.055865
O O15 0.000000 0.000000 0.500000
O O16 0.062466 0.577512 0.781893
O O17 0.794362 0.709778 0.275129
#
# Coordination Sequence:
#
# PCOD9077406 Si02
#       8
#     2   2   2   2   2   2   2   2
#     4  10  18  34  59  86 123 149 203 251 291 353
#     4  10  23  42  61  82 116 165 198 240 308 360
#     4  11  22  43  61  82 124 162 201 243 298 364
#     4  10  18  35  59  80 112 155 188 242 302 342
#     4  10  21  34  59  91 115 160 201 244 296 351
#     4  11  23  36  62  92 117 150 200 253 301 355
#     4  10  19  36  58  88 122 152 193 256 303 338
#     4  10  22  35  61  90 121 154 198 250 297 346
#
# _framework density 19.538250000000001
#
# number of rings (size 3 to 8) (size 9 to 14) (size 15 to 20)
#    0.000    1.750    3.750    2.250    5.250    0.000 
#    2.250    2.500    0.000    0.000    0.000    0.000 
#    0.000    0.000    0.000    0.000    0.000    0.000 
#
# Total GULP energy -89072.139907 kJ/mol
# GULP energy per Si atom -5567.008744 kJ/mol
# Density = 1.949378 g / cm^3
# Si number density = 19.538250 Si / 1000 Ang^3
#
#
#
# Elastic Constant Matrix: (Units=GPa)
#
#
# Indices 1 2 3 4 5 6 
#
# 1 118.6305 25.2078 49.3013 -6.9458 -5.5598 -6.9616
# 2 25.2078 89.2695 37.5522 -21.1317 -10.2905 4.3040
# 3 49.3013 37.5522 72.7155 -14.5820 12.6920 -4.3872
# 4 -6.9458 -21.1317 -14.5820 30.9981 -0.6561 -0.9854
# 5 -5.5598 -10.2905 12.6920 -0.6561 24.0742 -4.8521
# 6 -6.9616 4.3040 -4.3872 -0.9854 -4.8521 18.4180
#
#
#
# Elastic Compliance Matrix: (Units=1/GPa)
#
#
# Indices 1 2 3 4 5 6 
#
# 1 0.013952 0.002272 -0.012563 -0.000833 0.011763 0.004804
# 2 0.002272 0.019913 -0.013056 0.008200 0.015672 -0.002337
# 3 -0.012563 -0.013056 0.034417 0.003903 -0.026580 -0.000293
# 4 -0.000833 0.008200 0.003903 0.039603 0.002639 0.001513
# 5 0.011763 0.015672 -0.026580 0.002639 0.067535 0.012385
# 6 0.004804 -0.002337 -0.000293 0.001513 0.012385 0.059930
#
#
# Mechanical properties :
#
#
# Convention : Reuss Voigt Hill
#
# Bulk Modulus (GPa) = 46.32335 56.08201 51.20268
# Shear Modulus (GPa) = 17.28658 25.93501 21.61079
#
# Velocity S-wave (km/s) = 2.97771 3.64730 3.32938
# Velocity P-wave (km/s) = 5.96514 6.81932 6.40648
#
# Compressibility (1/GPa) = 0.02158739
#
# Stress axis : x y z
#
# Youngs Moduli (GPa) = 71.67261 50.21851 29.05526
#
# Poissons Ratio (x) = -0.11411 0.36503
# Poissons Ratio (y) = -0.16285 0.37936
# Poissons Ratio (z) = 0.90045 0.65567
#
# Static dielectric constant tensor:
#      x y z
#    x 1.280020 0.285620 -0.261320 
#    y 0.285620 1.589080 0.131220 
#    z -0.261320 0.131220 1.513070 
# 
# From -- ./inp_files/330730.got.cif
#   From: 2010.05.17/outbox.cif.g08.bks.cpg/sg2_166_cif.got.tgz:330730.got - 2010.06.03 11:33:40.
