data_PCOD9077042
_publ_section_title
;
Structure prediction by ZEFSAII (Michael W. Deem and Ramdas Pophale) SiO2 
 PCOD9077042
Probable space group: P -1
;
_chemical_formula_sum "Si O2"
_cell_formula_units_Z 16
_cell_length_a 15.565340
_cell_length_b 10.592535
_cell_length_c 14.070650
_cell_angle_alpha 67.922180
_cell_angle_beta 144.564588
_cell_angle_gamma 139.949714
_cell_volume 646.932792
_symmetry_space_group_name_H-M "P -1"
_symmetry_group_IT_number 2
_symmetry_cell_setting 'triclinic'
loop_
_space_group_symop_operation_xyz
x,y,z
-x,-y,-z
loop_
_atom_site_type_symbol
_atom_site_label
_atom_site_fract_x
_atom_site_fract_y
_atom_site_fract_z
Si Si1 0.329651 0.294089 0.729496
Si Si2 0.780485 0.118615 0.897150
Si Si3 0.119274 0.278538 0.725955
Si Si4 0.361193 0.497010 0.517028
Si Si5 0.927260 0.909521 0.790786
Si Si6 0.315629 0.725054 0.756122
Si Si7 0.461581 0.123562 0.804309
Si Si8 0.102523 0.553472 0.204966
O O1 0.298875 0.342407 0.789031
O O2 0.411989 0.463493 0.672023
O O3 0.460924 0.250221 0.837504
O O4 0.000000 0.000000 0.500000
O O5 0.044322 0.405051 0.105783
O O6 0.895420 0.059120 0.995606
O O7 0.708091 0.169048 0.735077
O O8 0.536019 0.908479 0.814983
O O9 0.286063 0.549751 0.815507
O O10 0.088630 0.168806 0.825699
O O11 0.790899 0.043728 0.455099
O O12 0.646473 0.729607 0.645763
O O13 0.157079 0.237783 0.341759
O O14 0.229397 0.544969 0.396500
O O15 0.000000 0.500000 0.500000
O O16 0.380642 0.907857 0.826374
O O17 0.789645 0.365188 0.999780
#
# Coordination Sequence:
#
# PCOD9077042 Si02
#       8
#     2   2   2   2   2   2   2   2
#     4  10  18  34  55  79 109 144 180 218 273 324
#     4   9  18  30  49  80 106 137 178 229 268 308
#     4  10  20  33  55  81 113 145 175 221 274 323
#     4  10  19  30  53  82 107 140 181 228 270 315
#     4  10  19  30  53  82 106 136 187 227 263 314
#     4   9  19  32  53  78 108 147 179 216 270 325
#     4   9  17  33  54  79 102 145 181 221 262 324
#     4   9  18  29  52  79 109 133 183 231 268 307
#
# _framework density 24.732091
#
# number of rings (size 3 to 8) (size 9 to 14) (size 15 to 20)
#    0.000    2.500    2.500    0.750    8.750    0.500 
#    0.000    2.500    2.750    3.750    0.000    0.000 
#    0.000    0.000    0.000    0.000    0.000    0.000 
#
# Total GULP energy -89359.781171 kJ/mol
# GULP energy per Si atom -5584.986323 kJ/mol
# Density = 2.467580 g / cm^3
# Si number density = 24.732091 Si / 1000 Ang^3
#
#
#
# Elastic Constant Matrix: (Units=GPa)
#
#
# Indices 1 2 3 4 5 6 
#
# 1 66.0168 66.5305 65.2780 -39.1193 6.3226 4.4289
# 2 66.5305 236.0850 58.6067 -20.3381 17.7444 -18.9183
# 3 65.2780 58.6067 104.4231 -8.0880 25.8221 -5.2451
# 4 -39.1193 -20.3381 -8.0880 21.8253 -6.9101 25.7565
# 5 6.3226 17.7444 25.8221 -6.9101 42.8704 -6.6353
# 6 4.4289 -18.9183 -5.2451 25.7565 -6.6353 19.0892
#
#
#
# Elastic Compliance Matrix: (Units=1/GPa)
#
#
# Indices 1 2 3 4 5 6 
#
# 1 0.006005 -0.000522 -0.004418 -0.020399 0.002621 0.025310
# 2 -0.000522 0.005249 -0.002302 0.004077 -0.000188 -0.000875
# 3 -0.004418 -0.002302 0.015852 0.011907 -0.008488 -0.015917
# 4 -0.020399 0.004077 0.011907 -0.006109 -0.003906 0.018931
# 5 0.002621 -0.000188 -0.008488 -0.003906 0.029415 0.012368
# 6 0.025310 -0.000875 -0.015917 0.018931 0.012368 0.020029
#
#
# Mechanical properties :
#
#
# Convention : Reuss Voigt Hill
#
# Bulk Modulus (GPa) = 79.21765 87.48394 83.35079
# Shear Modulus (GPa) = 56.09648 31.16427 43.63038
#
# Velocity S-wave (km/s) = 4.76769 3.55360 4.20470
# Velocity P-wave (km/s) = 7.89985 7.23097 7.57280
#
# Compressibility (1/GPa) = 0.01262345
#
# Stress axis : x y z
#
# Youngs Moduli (GPa) = 166.51784 190.49818 63.08402
#
# Poissons Ratio (x) = 0.09938 0.27871
# Poissons Ratio (y) = 0.08687 0.14521
# Poissons Ratio (z) = 0.73569 0.43850
#
# Static dielectric constant tensor:
#      x y z
#    x 1.962700 -0.029670 -0.040190 
#    y -0.029670 1.982190 -0.060340 
#    z -0.040190 -0.060340 2.021370 
# 
# From -- ./inp_files/575966.got.cif
#   From: 2010.05.17/outbox.cif.g08.bks.cpg/sg2_288_cif.got.tgz:575966.got - 2010.06.03 11:33:40.
