data_PCOD9077404
_publ_section_title
;
Structure prediction by ZEFSAII (Michael W. Deem and Ramdas Pophale) SiO2 
 PCOD9077404
Probable space group: P -1
;
_chemical_formula_sum "Si O2"
_cell_formula_units_Z 16
_cell_length_a 19.185862
_cell_length_b 17.740503
_cell_length_c 8.253397
_cell_angle_alpha 41.356240
_cell_angle_beta 145.902077
_cell_angle_gamma 149.497267
_cell_volume 792.525928
_symmetry_space_group_name_H-M "P -1"
_symmetry_group_IT_number 2
_symmetry_cell_setting 'triclinic'
loop_
_space_group_symop_operation_xyz
x,y,z
-x,-y,-z
loop_
_atom_site_type_symbol
_atom_site_label
_atom_site_fract_x
_atom_site_fract_y
_atom_site_fract_z
Si Si1 0.183135 0.644538 0.559155
Si Si2 0.081676 0.818239 0.167915
Si Si3 0.765465 0.671757 0.574191
Si Si4 0.307301 0.239245 0.431699
Si Si5 0.822120 0.434955 0.699377
Si Si6 0.628827 0.343062 0.789129
Si Si7 0.138365 0.299642 0.781995
Si Si8 0.061485 0.061649 0.777505
O O1 0.196036 0.789287 0.365361
O O2 0.000000 0.500000 0.500000
O O3 0.206527 0.624033 0.447512
O O4 0.297732 0.660722 0.894289
O O5 0.010358 0.742268 0.328150
O O6 0.920219 0.724725 0.895739
O O7 0.139678 0.982687 0.036248
O O8 0.644857 0.679098 0.435530
O O9 0.678330 0.506127 0.617309
O O10 0.851394 0.804119 0.397588
O O11 0.434013 0.228922 0.613945
O O12 0.280013 0.334876 0.112637
O O13 0.131599 0.076239 0.390161
O O14 0.699309 0.330521 0.779311
O O15 0.816117 0.569084 0.455145
O O16 0.000000 0.500000 0.000000
O O17 0.082413 0.148514 0.837717
#
# Coordination Sequence:
#
# PCOD9077404 Si02
#       8
#     2   2   2   2   2   2   2   2
#     4  12  21  39  62  90 123 164 208 254 296 363
#     4  10  18  34  59  86 117 152 203 251 289 353
#     4  10  18  36  61  90 116 159 199 245 306 369
#     4  10  22  37  57  91 131 154 194 256 321 357
#     4  12  22  37  63  95 119 163 214 249 295 366
#     4  12  23  39  62  94 126 159 200 264 311 347
#     4  10  19  37  62  90 119 157 204 247 303 371
#     4  10  20  37  65  93 115 161 204 245 305 374
#
# _framework density 20.188614000000001
#
# number of rings (size 3 to 8) (size 9 to 14) (size 15 to 20)
#    0.000    1.500    5.000    4.125    0.000    0.500 
#    2.250    0.000    0.000    9.750    0.000    0.000 
#    0.000    0.000    0.000    0.000    0.000    0.000 
#
# Total GULP energy -89103.877023 kJ/mol
# GULP energy per Si atom -5568.992314 kJ/mol
# Density = 2.014266 g / cm^3
# Si number density = 20.188614 Si / 1000 Ang^3
#
#
#
# Elastic Constant Matrix: (Units=GPa)
#
#
# Indices 1 2 3 4 5 6 
#
# 1 147.7247 28.0342 29.8752 -1.9236 1.3611 -8.2426
# 2 28.0342 49.4888 17.2380 -13.9712 6.5732 -10.8288
# 3 29.8752 17.2380 56.5522 -5.0785 9.8224 3.8256
# 4 -1.9236 -13.9712 -5.0785 15.4298 -1.9620 7.9136
# 5 1.3611 6.5732 9.8224 -1.9620 30.3499 -2.4824
# 6 -8.2426 -10.8288 3.8256 7.9136 -2.4824 31.5482
#
#
#
# Elastic Compliance Matrix: (Units=1/GPa)
#
#
# Indices 1 2 3 4 5 6 
#
# 1 0.008541 -0.004659 -0.004095 -0.005651 0.001806 0.002689
# 2 -0.004659 0.033059 -0.005061 0.025118 -0.003347 0.004180
# 3 -0.004095 -0.005061 0.023566 0.005733 -0.006600 -0.007622
# 4 -0.005651 0.025118 0.005733 0.097820 -0.002212 -0.018261
# 5 0.001806 -0.003347 -0.006600 -0.002212 0.035872 0.003501
# 6 0.002689 0.004180 -0.007622 -0.018261 0.003501 0.039615
#
#
# Mechanical properties :
#
#
# Convention : Reuss Voigt Hill
#
# Bulk Modulus (GPa) = 26.64175 44.89561 35.76868
# Shear Modulus (GPa) = 17.94581 27.37348 22.65964
#
# Velocity S-wave (km/s) = 2.98469 3.68623 3.35385
# Velocity P-wave (km/s) = 5.01028 6.35642 5.72307
#
# Compressibility (1/GPa) = 0.03753507
#
# Stress axis : x y z
#
# Youngs Moduli (GPa) = 117.07582 30.24892 42.43455
#
# Poissons Ratio (x) = 0.14093 0.17378
# Poissons Ratio (y) = 0.54545 0.21478
# Poissons Ratio (z) = 0.47944 0.15310
#
# Static dielectric constant tensor:
#      x y z
#    x 1.843420 0.026700 -0.061680 
#    y 0.026700 1.502770 0.035510 
#    z -0.061680 0.035510 1.740550 
# 
# From -- ./inp_files/349208.got.cif
#   From: 2010.05.17/outbox.cif.g08.bks.cpg/sg2_175_cif.got.tgz:349208.got - 2010.06.03 11:33:40.
