data_PCOD9077990
_publ_section_title
;
Structure prediction by ZEFSAII (Michael W. Deem and Ramdas Pophale) SiO2 
 PCOD9077990
Probable space group: P -1
;
_chemical_formula_sum "Si O2"
_cell_formula_units_Z 14
_cell_length_a 8.614683
_cell_length_b 17.914218
_cell_length_c 6.981800
_cell_angle_alpha 37.505296
_cell_angle_beta 119.065592
_cell_angle_gamma 123.497799
_cell_volume 544.594373
_symmetry_space_group_name_H-M "P -1"
_symmetry_group_IT_number 2
_symmetry_cell_setting 'triclinic'
loop_
_space_group_symop_operation_xyz
x,y,z
-x,-y,-z
loop_
_atom_site_type_symbol
_atom_site_label
_atom_site_fract_x
_atom_site_fract_y
_atom_site_fract_z
Si Si1 0.721278 0.697727 0.717865
Si Si2 0.761160 0.658008 0.399442
Si Si3 0.623046 0.129231 0.208554
Si Si4 0.658990 0.941081 0.136240
Si Si5 0.280602 0.573608 0.655654
Si Si6 0.334632 0.619164 0.147293
Si Si7 0.117842 0.801557 0.131825
O O1 0.792283 0.725997 0.483776
O O2 0.730752 0.840561 0.506222
O O3 0.497320 0.623700 0.747936
O O4 0.803124 0.581169 0.057318
O O5 0.554841 0.637699 0.234952
O O6 0.769470 0.513718 0.746813
O O7 0.900100 0.735002 0.165467
O O8 0.500000 0.000000 0.500000
O O9 0.460312 0.142389 0.939772
O O10 0.686303 0.241175 0.177427
O O11 0.797507 0.143418 0.139488
O O12 0.500000 0.000000 0.000000
O O13 0.823311 0.075090 0.942392
O O14 0.275428 0.591323 0.388971
O O15 0.194521 0.680685 0.469178
#
# Coordination Sequence:
#
# PCOD9077990 Si02
#       7
#     2   2   2   2   2   2   2
#     4  10  18  35  57  82 115 148 190 231 283 342
#     4  10  20  36  59  83 117 148 189 238 293 332
#     4  10  20  38  59  83 113 154 196 227 282 345
#     4  10  18  38  57  82 111 153 188 232 285 337
#     4   9  18  34  58  83 108 150 195 231 277 339
#     4   9  19  40  57  79 115 154 186 236 293 340
#     4  10  21  37  59  85 117 151 191 240 280 337
#
# _framework density 25.707208000000001
#
# number of rings (size 3 to 8) (size 9 to 14) (size 15 to 20)
#    0.000    2.286    5.714    0.000    0.000    4.571 
#   12.857    2.143    0.000    0.000    0.000    0.000 
#    0.000    0.000    0.000    0.000    0.000    0.000 
#
# Total GULP energy -77987.083012 kJ/mol
# GULP energy per Si atom -5570.505929 kJ/mol
# Density = 2.564870 g / cm^3
# Si number density = 25.707208 Si / 1000 Ang^3
#
#
#
# Elastic Constant Matrix: (Units=GPa)
#
#
# Indices 1 2 3 4 5 6 
#
# 1 79.7690 19.5393 58.4149 -16.7977 -19.8206 -1.4304
# 2 19.5393 45.4202 19.0569 -22.0512 7.0893 -14.7500
# 3 58.4149 19.0569 176.2321 -34.8923 5.0119 -8.5339
# 4 -16.7977 -22.0512 -34.8923 38.5814 -5.6196 6.7912
# 5 -19.8206 7.0893 5.0119 -5.6196 39.5438 -14.1602
# 6 -1.4304 -14.7500 -8.5339 6.7912 -14.1602 18.7472
#
#
#
# Elastic Compliance Matrix: (Units=1/GPa)
#
#
# Indices 1 2 3 4 5 6 
#
# 1 0.023965 -0.008039 -0.007137 0.001015 0.015896 0.003894
# 2 -0.008039 0.042061 0.003116 0.018583 0.000554 0.027584
# 3 -0.007137 0.003116 0.009072 0.006155 -0.004178 0.000651
# 4 0.001015 0.018583 0.006155 0.042215 0.004368 0.005506
# 5 0.015896 0.000554 -0.004178 0.004368 0.046126 0.033004
# 6 0.003894 0.027584 0.000651 0.005506 0.033004 0.098571
#
#
# Mechanical properties :
#
#
# Convention : Reuss Voigt Hill
#
# Bulk Modulus (GPa) = 19.61657 55.04928 37.33292
# Shear Modulus (GPa) = 16.49494 33.00183 24.74839
#
# Velocity S-wave (km/s) = 2.53582 3.58684 3.10611
# Velocity P-wave (km/s) = 4.02755 6.21405 5.23620
#
# Compressibility (1/GPa) = 0.05097732
#
# Stress axis : x y z
#
# Youngs Moduli (GPa) = 41.72742 23.77514 110.22912
#
# Poissons Ratio (x) = 0.19113 0.78669
# Poissons Ratio (y) = 0.33544 -0.34342
# Poissons Ratio (z) = 0.29780 -0.07407
#
# Static dielectric constant tensor:
#      x y z
#    x 2.045630 -0.025620 0.047200 
#    y -0.025620 2.196250 0.030330 
#    z 0.047200 0.030330 2.174910 
# 
# From -- ./inp_files/195813.got.cif
#   From: 2010.05.17/outbox.cif.g08.bks.cpg/sg2_98_cif.got.tgz:195813.got - 2010.06.03 11:33:40.
