data_PCOD9077410
_publ_section_title
;
Structure prediction by ZEFSAII (Michael W. Deem and Ramdas Pophale) SiO2 
 PCOD9077410
Probable space group: P -1
;
_chemical_formula_sum "Si O2"
_cell_formula_units_Z 16
_cell_length_a 9.240733
_cell_length_b 18.558456
_cell_length_c 10.826814
_cell_angle_alpha 130.785951
_cell_angle_beta 45.583486
_cell_angle_gamma 96.290705
_cell_volume 769.255659
_symmetry_space_group_name_H-M "P -1"
_symmetry_group_IT_number 2
_symmetry_cell_setting 'triclinic'
loop_
_space_group_symop_operation_xyz
x,y,z
-x,-y,-z
loop_
_atom_site_type_symbol
_atom_site_label
_atom_site_fract_x
_atom_site_fract_y
_atom_site_fract_z
Si Si1 0.334518 0.308785 0.312155
Si Si2 0.522675 0.364506 0.756087
Si Si3 0.155133 0.002077 0.589278
Si Si4 0.028797 0.434913 0.280983
Si Si5 0.149604 0.643266 0.226995
Si Si6 0.899569 0.171498 0.728100
Si Si7 0.740601 0.802237 0.007592
Si Si8 0.073626 0.881762 0.891622
O O1 0.207575 0.451659 0.530925
O O2 0.141815 0.314371 0.530866
O O3 0.647380 0.228652 0.031874
O O4 0.296070 0.255560 0.152475
O O5 0.746246 0.339127 0.687343
O O6 0.652382 0.246505 0.459962
O O7 0.300095 0.387032 0.002647
O O8 0.372103 0.493217 0.914344
O O9 0.144021 0.083008 0.576072
O O10 0.086123 0.920850 0.479843
O O11 0.452729 0.902663 0.350569
O O12 0.959221 0.088266 0.911262
O O13 0.000000 0.500000 0.500000
O O14 0.055543 0.315700 0.158404
O O15 0.138278 0.722414 0.211368
O O16 0.858605 0.866264 0.971415
O O17 0.000000 0.000000 0.000000
#
# Coordination Sequence:
#
# PCOD9077410 Si02
#       8
#     2   2   2   2   2   2   2   2
#     4   9  18  32  59  92 111 145 189 242 297 342
#     4  10  20  32  56  92 118 140 192 247 294 342
#     4  10  23  40  55  82 115 162 199 231 289 354
#     4   9  17  31  57  88 117 142 180 246 297 338
#     4  10  18  34  59  87 115 146 191 246 295 336
#     4  10  21  40  60  81 120 157 201 239 281 356
#     4  10  19  35  57  83 114 150 194 237 294 347
#     4  12  23  36  56  86 121 152 191 247 295 343
#
# _framework density 20.799327000000002
#
# number of rings (size 3 to 8) (size 9 to 14) (size 15 to 20)
#    0.000    2.000    1.250    4.125    3.500    0.000 
#    2.250    2.500    0.000    1.500    0.000    0.000 
#    0.000    0.000    0.000    0.000    0.000    0.000 
#
# Total GULP energy -89219.099363 kJ/mol
# GULP energy per Si atom -5576.193710 kJ/mol
# Density = 2.075199 g / cm^3
# Si number density = 20.799327 Si / 1000 Ang^3
#
#
#
# Elastic Constant Matrix: (Units=GPa)
#
#
# Indices 1 2 3 4 5 6 
#
# 1 13.0007 23.4504 24.2197 6.8506 -2.9196 -5.7192
# 2 23.4504 146.6784 50.8743 30.4606 9.8691 -9.2276
# 3 24.2197 50.8743 163.8074 4.2329 14.1707 -5.9890
# 4 6.8506 30.4606 4.2329 29.7474 2.6700 0.6436
# 5 -2.9196 9.8691 14.1707 2.6700 11.7771 -2.7654
# 6 -5.7192 -9.2276 -5.9890 0.6436 -2.7654 18.0566
#
#
#
# Elastic Compliance Matrix: (Units=1/GPa)
#
#
# Indices 1 2 3 4 5 6 
#
# 1 0.462503 -0.041650 -0.073062 -0.082808 0.291118 0.148511
# 2 -0.041650 0.013952 0.004018 -0.002524 -0.028389 -0.008988
# 3 -0.073062 0.004018 0.019021 0.015302 -0.053352 -0.023496
# 4 -0.082808 -0.002524 0.015302 0.059028 -0.058061 -0.033439
# 5 0.291118 -0.028389 -0.053352 -0.058061 0.282982 0.105413
# 6 0.148511 -0.008988 -0.023496 -0.033439 0.105413 0.107370
#
#
# Mechanical properties :
#
#
# Convention : Reuss Voigt Hill
#
# Bulk Modulus (GPa) = 3.64849 57.84169 30.74509
# Shear Modulus (GPa) = 3.97580 26.91235 15.44408
#
# Velocity S-wave (km/s) = 1.38407 3.60099 2.72789
# Velocity P-wave (km/s) = 2.07657 6.72007 4.97350
#
# Compressibility (1/GPa) = 0.27408608
#
# Stress axis : x y z
#
# Youngs Moduli (GPa) = 2.16215 71.67506 52.57473
#
# Poissons Ratio (x) = 2.98526 3.84124
# Poissons Ratio (y) = 0.09005 -0.21122
# Poissons Ratio (z) = 0.15797 -0.28796
#
# Static dielectric constant tensor:
#      x y z
#    x 1.743710 -0.006990 -0.026470 
#    y -0.006990 1.760380 0.010420 
#    z -0.026470 0.010420 1.785480 
# 
# From -- ./inp_files/436858.got.cif
#   From: 2010.05.17/outbox.cif.g08.bks.cpg/sg2_219_cif.got.tgz:436858.got - 2010.06.03 11:33:40.
