data_PCOD9077487
_publ_section_title
;
Structure prediction by ZEFSAII (Michael W. Deem and Ramdas Pophale) SiO2 
 PCOD9077487
Probable space group: P -1
;
_chemical_formula_sum "Si O2"
_cell_formula_units_Z 16
_cell_length_a 9.429754
_cell_length_b 7.889515
_cell_length_c 12.646508
_cell_angle_alpha 100.435348
_cell_angle_beta 136.420680
_cell_angle_gamma 73.961974
_cell_volume 623.083362
_symmetry_space_group_name_H-M "P -1"
_symmetry_group_IT_number 2
_symmetry_cell_setting 'triclinic'
loop_
_space_group_symop_operation_xyz
x,y,z
-x,-y,-z
loop_
_atom_site_type_symbol
_atom_site_label
_atom_site_fract_x
_atom_site_fract_y
_atom_site_fract_z
Si Si1 0.317394 0.179795 0.427026
Si Si2 0.236971 0.748096 0.441258
Si Si3 0.752915 0.525786 0.995284
Si Si4 0.739985 0.521165 0.744722
Si Si5 0.843813 0.369117 0.407191
Si Si6 0.265351 0.133098 0.847463
Si Si7 0.196488 0.771605 0.848105
Si Si8 0.744217 0.894943 0.399748
O O1 0.337089 0.311734 0.356141
O O2 0.064738 0.169461 0.280061
O O3 0.500000 0.000000 0.500000
O O4 0.332567 0.224346 0.565139
O O5 0.309086 0.650929 0.358933
O O6 0.300131 0.913777 0.550516
O O7 0.268415 0.607945 0.538132
O O8 0.987126 0.806094 0.293884
O O9 0.674495 0.705701 0.038752
O O10 0.724828 0.351304 0.022813
O O11 0.006695 0.503344 0.123822
O O12 0.677445 0.541894 0.835597
O O13 0.000000 0.500000 0.500000
O O14 0.745390 0.355985 0.238031
O O15 0.004360 0.177645 0.477978
O O16 0.288300 0.946783 0.899588
O O17 0.342308 0.109836 0.764922
#
# Coordination Sequence:
#
# PCOD9077487 Si02
#       8
#     2   2   2   2   2   2   2   2
#     4  10  20  34  51  69 100 139 176 209 246 303
#     4  10  15  27  46  70 108 130 153 211 262 306
#     4   9  19  32  49  77 106 139 167 202 258 310
#     4   9  19  34  46  70 107 138 169 202 249 311
#     4  10  15  23  44  72 101 128 151 202 262 307
#     4  10  16  30  52  79 107 130 161 213 264 310
#     4  10  17  31  51  78 106 133 168 205 260 306
#     4  10  17  29  47  77 102 127 167 209 265 304
#
# _framework density 25.678747000000001
#
# number of rings (size 3 to 8) (size 9 to 14) (size 15 to 20)
#    0.000    2.250    3.750    4.500    0.000    0.000 
#    2.250    3.125    0.000    0.750    0.000    0.875 
#    0.000    0.000    0.000    0.250    0.000    0.000 
#
# Total GULP energy -89335.815906 kJ/mol
# GULP energy per Si atom -5583.488494 kJ/mol
# Density = 2.562030 g / cm^3
# Si number density = 25.678747 Si / 1000 Ang^3
#
#
#
# Elastic Constant Matrix: (Units=GPa)
#
#
# Indices 1 2 3 4 5 6 
#
# 1 91.9935 56.6487 82.5668 1.5634 -45.1455 7.5987
# 2 56.6487 178.7350 101.2316 4.5590 -34.5678 11.3944
# 3 82.5668 101.2316 207.5248 0.4409 -47.1473 6.9955
# 4 1.5634 4.5590 0.4409 47.5841 -5.5162 -6.1849
# 5 -45.1455 -34.5678 -47.1473 -5.5162 69.8729 -9.7665
# 6 7.5987 11.3944 6.9955 -6.1849 -9.7665 52.4475
#
#
#
# Elastic Compliance Matrix: (Units=1/GPa)
#
#
# Indices 1 2 3 4 5 6 
#
# 1 0.021578 -0.001910 -0.005541 0.000578 0.009279 -0.000176
# 2 -0.001910 0.008111 -0.003042 -0.000766 0.000516 -0.001074
# 3 -0.005541 -0.003042 0.008692 0.000567 0.000901 0.000539
# 4 0.000578 -0.000766 0.000567 0.021752 0.002520 0.003041
# 5 0.009279 0.000516 0.000901 0.002520 0.021756 0.002772
# 6 -0.000176 -0.001074 0.000539 0.003041 0.002772 0.020129
#
#
# Mechanical properties :
#
#
# Convention : Reuss Voigt Hill
#
# Bulk Modulus (GPa) = 57.48290 106.57194 82.02742
# Shear Modulus (GPa) = 38.82008 49.83464 44.32736
#
# Velocity S-wave (km/s) = 3.89235 4.41011 4.15930
# Velocity P-wave (km/s) = 6.52951 8.21731 7.42155
#
# Compressibility (1/GPa) = 0.01739648
#
# Stress axis : x y z
#
# Youngs Moduli (GPa) = 46.34445 123.29597 115.04798
#
# Poissons Ratio (x) = 0.23546 0.63743
# Poissons Ratio (y) = 0.08850 0.34993
# Poissons Ratio (z) = 0.25677 0.37501
#
# Static dielectric constant tensor:
#      x y z
#    x 2.232330 0.092840 0.033290 
#    y 0.092840 2.359970 -0.054210 
#    z 0.033290 -0.054210 2.001660 
# 
# From -- ./inp_files/415282.got.cif
#   From: 2010.05.17/outbox.cif.g08.bks.cpg/sg2_208_cif.got.tgz:415282.got - 2010.06.03 11:33:40.
