data_PCOD9077445
_publ_section_title
;
Structure prediction by ZEFSAII (Michael W. Deem and Ramdas Pophale) SiO2 
 PCOD9077445
Probable space group: P -1
;
_chemical_formula_sum "Si O2"
_cell_formula_units_Z 16
_cell_length_a 13.875254
_cell_length_b 9.320507
_cell_length_c 11.688176
_cell_angle_alpha 128.625469
_cell_angle_beta 59.376505
_cell_angle_gamma 137.487602
_cell_volume 794.512288
_symmetry_space_group_name_H-M "P -1"
_symmetry_group_IT_number 2
_symmetry_cell_setting 'triclinic'
loop_
_space_group_symop_operation_xyz
x,y,z
-x,-y,-z
loop_
_atom_site_type_symbol
_atom_site_label
_atom_site_fract_x
_atom_site_fract_y
_atom_site_fract_z
Si Si1 0.916136 0.968657 0.251948
Si Si2 0.161276 0.738875 0.502087
Si Si3 0.798573 0.589922 0.336855
Si Si4 0.760535 0.568764 0.722259
Si Si5 0.423844 0.743843 0.865386
Si Si6 0.897488 0.259507 0.722401
Si Si7 0.320997 0.258768 0.326229
Si Si8 0.202240 0.434785 0.034966
O O1 0.860042 0.796907 0.308994
O O2 0.823216 0.058996 0.336167
O O3 0.904425 0.826367 0.079323
O O4 0.077602 0.200030 0.289562
O O5 0.258532 0.660381 0.423753
O O6 0.165911 0.804919 0.399657
O O7 0.000000 0.500000 0.500000
O O8 0.693378 0.348088 0.209592
O O9 0.716100 0.625337 0.499058
O O10 0.936109 0.625790 0.322287
O O11 0.664888 0.617773 0.739728
O O12 0.754452 0.553421 0.854903
O O13 0.538832 0.720649 0.732378
O O14 0.338092 0.568850 0.936034
O O15 0.500000 0.000000 0.000000
O O16 0.869568 0.437510 0.870278
O O17 0.809936 0.020921 0.729611
#
# Coordination Sequence:
#
# PCOD9077445 Si02
#       8
#     2   2   2   2   2   2   2   2
#     4  10  18  34  59  91 125 153 199 251 312 355
#     4   9  18  33  56  90 124 156 190 255 310 352
#     4  11  22  37  65  96 119 155 210 256 304 355
#     4  10  21  36  59  90 123 160 200 251 306 360
#     4  11  25  43  60  87 128 169 202 247 305 366
#     4  11  20  37  65  95 121 153 205 262 304 356
#     4  12  22  40  64  91 126 161 203 254 301 362
#     4  10  23  39  61  88 126 166 200 245 309 367
#
# _framework density 20.13814
#
# number of rings (size 3 to 8) (size 9 to 14) (size 15 to 20)
#    0.000    1.500    3.750    2.625    0.000    3.500 
#    0.000    1.250    0.000    3.750    0.000    0.000 
#    0.000    0.000    0.000    0.000    0.000    0.000 
#
# Total GULP energy -89288.108875 kJ/mol
# GULP energy per Si atom -5580.506805 kJ/mol
# Density = 2.009230 g / cm^3
# Si number density = 20.138140 Si / 1000 Ang^3
#
#
#
# Elastic Constant Matrix: (Units=GPa)
#
#
# Indices 1 2 3 4 5 6 
#
# 1 65.4032 25.2301 19.9667 0.0887 -4.3853 -5.0101
# 2 25.2301 43.5249 22.1169 4.1922 -5.2322 -6.7406
# 3 19.9667 22.1169 107.2620 12.1957 -11.1061 -4.4357
# 4 0.0887 4.1922 12.1957 38.1147 2.7566 -2.5941
# 5 -4.3853 -5.2322 -11.1061 2.7566 15.0057 -6.3126
# 6 -5.0101 -6.7406 -4.4357 -2.5941 -6.3126 29.9162
#
#
#
# Elastic Compliance Matrix: (Units=1/GPa)
#
#
# Indices 1 2 3 4 5 6 
#
# 1 0.020041 -0.010676 -0.001547 0.001614 0.001158 0.001106
# 2 -0.010676 0.033336 -0.003292 -0.002801 0.009528 0.007003
# 3 -0.001547 -0.003292 0.011726 -0.003865 0.008734 0.002246
# 4 0.001614 -0.002801 -0.003865 0.028387 -0.008711 -0.000311
# 5 0.001158 0.009528 0.008734 -0.008711 0.087329 0.021307
# 6 0.001106 0.007003 0.002246 -0.000311 0.021307 0.039992
#
#
# Mechanical properties :
#
#
# Convention : Reuss Voigt Hill
#
# Bulk Modulus (GPa) = 29.34840 38.97973 34.16407
# Shear Modulus (GPa) = 18.99708 26.53243 22.76475
#
# Velocity S-wave (km/s) = 3.07471 3.63371 3.36583
# Velocity P-wave (km/s) = 5.21635 6.08303 5.66629
#
# Compressibility (1/GPa) = 0.03407341
#
# Stress axis : x y z
#
# Youngs Moduli (GPa) = 49.89882 29.99743 85.27764
#
# Poissons Ratio (x) = 0.32025 0.13194
# Poissons Ratio (y) = 0.53271 0.28073
# Poissons Ratio (z) = 0.07720 0.09875
#
# Static dielectric constant tensor:
#      x y z
#    x 1.728400 -0.001900 0.004320 
#    y -0.001900 1.730080 0.004650 
#    z 0.004320 0.004650 1.746100 
# 
# From -- ./inp_files/190787.got.cif
#   From: 2010.05.17/outbox.cif.g08.bks.cpg/sg2_96_cif.got.tgz:190787.got - 2010.06.03 11:33:40.
