data_PCOD9077869
_publ_section_title
;
Structure prediction by ZEFSAII (Michael W. Deem and Ramdas Pophale) SiO2 
 PCOD9077869
Probable space group: P -1
;
_chemical_formula_sum "Si O2"
_cell_formula_units_Z 16
_cell_length_a 24.417950
_cell_length_b 8.604579
_cell_length_c 13.741951
_cell_angle_alpha 117.618692
_cell_angle_beta 20.803894
_cell_angle_gamma 125.568403
_cell_volume 801.386001
_symmetry_space_group_name_H-M "P -1"
_symmetry_group_IT_number 2
_symmetry_cell_setting 'triclinic'
loop_
_space_group_symop_operation_xyz
x,y,z
-x,-y,-z
loop_
_atom_site_type_symbol
_atom_site_label
_atom_site_fract_x
_atom_site_fract_y
_atom_site_fract_z
Si Si1 0.975677 0.747519 0.409590
Si Si2 0.961621 0.548689 0.891375
Si Si3 0.016157 0.168233 0.244705
Si Si4 0.569335 0.357548 0.471284
Si Si5 0.166715 0.717220 0.268959
Si Si6 0.778095 0.811816 0.919606
Si Si7 0.522715 0.743344 0.630259
Si Si8 0.911388 0.079836 0.090491
O O1 0.812136 0.714976 0.739196
O O2 0.941673 0.574019 0.340686
O O3 0.122808 0.766345 0.249195
O O4 0.065278 0.964146 0.276544
O O5 0.966786 0.685096 0.829500
O O6 0.034122 0.695701 0.904904
O O7 0.758747 0.393396 0.197895
O O8 0.856631 0.145601 0.570534
O O9 0.183972 0.272931 0.067833
O O10 0.020381 0.975555 0.137493
O O11 0.567444 0.569339 0.539023
O O12 0.528303 0.286245 0.407499
O O13 0.412467 0.211305 0.758703
O O14 0.000000 0.500000 0.500000
O O15 0.355802 0.731337 0.960345
O O16 0.702527 0.946409 0.402249
O O17 0.000000 0.000000 0.000000
#
# Coordination Sequence:
#
# PCOD9077869 Si02
#       8
#     2   2   2   2   2   2   2   2
#     4  10  21  36  52  86 114 138 178 235 275 318
#     4  11  20  36  56  83 114 139 186 235 262 322
#     4  10  18  35  55  75 110 147 178 220 275 322
#     4  11  18  31  55  82 107 141 182 225 274 322
#     4  11  19  32  57  83 108 138 186 229 273 321
#     4  10  21  34  56  81 114 143 178 226 284 327
#     4  11  19  32  55  86 109 143 186 228 275 317
#     4  10  20  36  52  80 119 145 179 233 272 321
#
# _framework density 19.965411
#
# number of rings (size 3 to 8) (size 9 to 14) (size 15 to 20)
#    0.000    1.500    6.250    2.250    0.000    0.500 
#    0.000    4.375    0.000    0.000    0.000    5.250 
#    0.000    0.000    0.000    0.000    0.000    0.000 
#
# Total GULP energy -89266.026974 kJ/mol
# GULP energy per Si atom -5579.126686 kJ/mol
# Density = 1.991997 g / cm^3
# Si number density = 19.965411 Si / 1000 Ang^3
#
#
#
# Elastic Constant Matrix: (Units=GPa)
#
#
# Indices 1 2 3 4 5 6 
#
# 1 28.8957 21.3957 29.6343 3.8102 3.0862 17.6511
# 2 21.3957 90.7015 43.4011 18.4603 15.8147 35.6782
# 3 29.6343 43.4011 124.2369 20.5820 11.8425 30.3629
# 4 3.8102 18.4603 20.5820 29.9177 11.5195 8.6035
# 5 3.0862 15.8147 11.8425 11.5195 22.1099 6.3456
# 6 17.6511 35.6782 30.3629 8.6035 6.3456 33.5065
#
#
#
# Elastic Compliance Matrix: (Units=1/GPa)
#
#
# Indices 1 2 3 4 5 6 
#
# 1 0.057633 -0.002288 -0.008721 0.005752 0.001519 -0.021787
# 2 -0.002288 0.021250 -0.001118 -0.004206 -0.006919 -0.018019
# 3 -0.008721 -0.001118 0.012448 -0.005337 -0.000725 -0.003988
# 4 0.005752 -0.004206 -0.005337 0.046782 -0.018681 -0.002189
# 5 0.001519 -0.006919 -0.000725 -0.018681 0.059892 0.000679
# 6 -0.021787 -0.018019 -0.003988 -0.002189 0.000679 0.064556
#
#
# Mechanical properties :
#
#
# Convention : Reuss Voigt Hill
#
# Bulk Modulus (GPa) = 14.90809 48.07738 31.49273
# Shear Modulus (GPa) = 16.17215 27.06704 21.61959
#
# Velocity S-wave (km/s) = 2.84915 3.68597 3.29424
# Velocity P-wave (km/s) = 4.27864 6.49983 5.50248
#
# Compressibility (1/GPa) = 0.06707767
#
# Stress axis : x y z
#
# Youngs Moduli (GPa) = 17.35119 47.05879 80.33571
#
# Poissons Ratio (x) = 0.10765 0.70062
# Poissons Ratio (y) = 0.03969 0.08980
# Poissons Ratio (z) = 0.15132 0.05260
#
# Static dielectric constant tensor:
#      x y z
#    x 1.738870 -0.032310 0.034250 
#    y -0.032310 1.805040 0.003630 
#    z 0.034250 0.003630 1.730780 
# 
# From -- ./inp_files/305206.got.cif
#   From: 2010.05.17/outbox.cif.g08.bks.cpg/sg2_153_cif.got.tgz:305206.got - 2010.06.03 11:33:40.
