data_PCOD9077111
_publ_section_title
;
Structure prediction by ZEFSAII (Michael W. Deem and Ramdas Pophale) SiO2 
 PCOD9077111
Probable space group: P -1
;
_chemical_formula_sum "Si O2"
_cell_formula_units_Z 14
_cell_length_a 11.824734
_cell_length_b 4.983508
_cell_length_c 10.869306
_cell_angle_alpha 89.916690
_cell_angle_beta 56.863830
_cell_angle_gamma 111.699732
_cell_volume 480.980749
_symmetry_space_group_name_H-M "P -1"
_symmetry_group_IT_number 2
_symmetry_cell_setting 'triclinic'
loop_
_space_group_symop_operation_xyz
x,y,z
-x,-y,-z
loop_
_atom_site_type_symbol
_atom_site_label
_atom_site_fract_x
_atom_site_fract_y
_atom_site_fract_z
Si Si1 0.704110 0.944814 0.984541
Si Si2 0.788825 0.943341 0.179224
Si Si3 0.600297 0.960919 0.809783
Si Si4 0.879921 0.606964 0.625437
Si Si5 0.990409 0.584207 0.802646
Si Si6 0.764227 0.613712 0.451021
Si Si7 0.503973 0.989659 0.354755
O O1 0.736514 0.768810 0.079121
O O2 0.557732 0.015660 0.080221
O O3 0.655696 0.793802 0.877439
O O4 0.856885 0.253537 0.897132
O O5 0.748289 0.770179 0.334253
O O6 0.679251 0.101752 0.227481
O O7 0.045983 0.794987 0.889582
O O8 0.733208 0.294286 0.735992
O O9 0.575121 0.860286 0.682820
O O10 0.846202 0.773310 0.530663
O O11 0.000000 0.500000 0.500000
O O12 0.936727 0.739141 0.727030
O O13 0.132515 0.543913 0.662537
O O14 0.605401 0.361144 0.593003
O O15 0.500000 0.000000 0.500000
#
# Coordination Sequence:
#
# PCOD9077111 Si02
#       7
#     2   2   2   2   2   2   2
#     4   9  18  33  51  77 102 142 182 206 254 314
#     4  11  21  32  54  81 106 136 174 218 261 308
#     4   8  16  31  55  77  99 141 180 208 254 314
#     4   8  16  31  53  78 104 136 172 208 264 313
#     4  10  19  34  53  76 104 142 177 212 256 312
#     4  10  20  34  52  80 108 135 170 220 266 307
#     4  10  18  34  56  80 103 137 174 214 267 314
#
# _framework density 29.107194
#
# number of rings (size 3 to 8) (size 9 to 14) (size 15 to 20)
#    0.000    2.571    1.429    0.857    0.000    1.143 
#    0.000    0.000    0.000    0.857    3.714    0.000 
#    0.000    0.000    0.000    0.000    0.000    0.000 
#
# Total GULP energy -78088.982018 kJ/mol
# GULP energy per Si atom -5577.784430 kJ/mol
# Density = 2.904095 g / cm^3
# Si number density = 29.107194 Si / 1000 Ang^3
#
#
#
# Elastic Constant Matrix: (Units=GPa)
#
#
# Indices 1 2 3 4 5 6 
#
# 1 247.0624 67.4864 63.9118 27.0311 53.1190 54.0757
# 2 67.4864 86.9953 43.2819 3.2857 18.3213 23.7768
# 3 63.9118 43.2819 94.4417 -5.9138 31.9377 29.5374
# 4 27.0311 3.2857 -5.9138 53.0139 38.4882 12.6676
# 5 53.1190 18.3213 31.9377 38.4882 90.9396 29.2946
# 6 54.0757 23.7768 29.5374 12.6676 29.2946 58.1727
#
#
#
# Elastic Compliance Matrix: (Units=1/GPa)
#
#
# Indices 1 2 3 4 5 6 
#
# 1 0.006371 -0.002948 -0.001984 -0.002176 -0.000558 -0.002955
# 2 -0.002948 0.016819 -0.005564 -0.000520 0.001065 -0.001732
# 3 -0.001984 -0.005564 0.018667 0.009474 -0.007036 -0.003880
# 4 -0.002176 -0.000520 0.009474 0.032464 -0.015021 -0.002080
# 5 -0.000558 0.001065 -0.007036 -0.015021 0.021133 -0.003715
# 6 -0.002955 -0.001732 -0.003880 -0.002080 -0.003715 0.024940
#
#
# Mechanical properties :
#
#
# Convention : Reuss Voigt Hill
#
# Bulk Modulus (GPa) = 47.92640 86.42884 67.17762
# Shear Modulus (GPa) = 33.70682 57.34653 45.52667
#
# Velocity S-wave (km/s) = 3.40667 4.44349 3.95917
# Velocity P-wave (km/s) = 5.65465 7.48892 6.63547
#
# Compressibility (1/GPa) = 0.02086533
#
# Stress axis : x y z
#
# Youngs Moduli (GPa) = 156.96760 59.45833 53.57079
#
# Poissons Ratio (x) = 0.17527 0.10626
# Poissons Ratio (y) = 0.46271 0.29807
# Poissons Ratio (z) = 0.31136 0.33082
#
# Static dielectric constant tensor:
#      x y z
#    x 2.327380 0.230230 0.003000 
#    y 0.230230 3.481420 0.787290 
#    z 0.003000 0.787290 3.115230 
# 
# From -- ./inp_files/388301.got.cif
#   From: 2010.05.17/outbox.cif.g08.bks.cpg/sg2_195_cif.got.tgz:388301.got - 2010.06.03 11:33:40.
