data_PCOD9077437
_publ_section_title
;
Structure prediction by ZEFSAII (Michael W. Deem and Ramdas Pophale) SiO2 
 PCOD9077437
Probable space group: P -1
;
_chemical_formula_sum "Si O2"
_cell_formula_units_Z 14
_cell_length_a 8.305620
_cell_length_b 10.346319
_cell_length_c 9.951040
_cell_angle_alpha 105.612732
_cell_angle_beta 92.516083
_cell_angle_gamma 136.003451
_cell_volume 534.795184
_symmetry_space_group_name_H-M "P -1"
_symmetry_group_IT_number 2
_symmetry_cell_setting 'triclinic'
loop_
_space_group_symop_operation_xyz
x,y,z
-x,-y,-z
loop_
_atom_site_type_symbol
_atom_site_label
_atom_site_fract_x
_atom_site_fract_y
_atom_site_fract_z
Si Si1 0.091029 0.089825 0.177128
Si Si2 0.515438 0.351083 0.447430
Si Si3 0.747025 0.664861 0.207941
Si Si4 0.805833 0.069236 0.564888
Si Si5 0.463956 0.004177 0.730565
Si Si6 0.017538 0.361484 0.280953
Si Si7 0.314789 0.577158 0.096940
O O1 0.378689 0.241217 0.267119
O O2 0.035345 0.210290 0.235818
O O3 0.921350 0.888068 0.207339
O O4 0.000000 0.000000 0.000000
O O5 0.500000 0.500000 0.500000
O O6 0.317190 0.154174 0.485660
O O7 0.779861 0.467959 0.550027
O O8 0.484597 0.571540 0.176496
O O9 0.743075 0.534033 0.074354
O O10 0.899972 0.730013 0.364952
O O11 0.697877 0.060565 0.424026
O O12 0.697343 0.078016 0.693764
O O13 0.548608 0.195522 0.855549
O O14 0.271629 0.793475 0.748039
O O15 0.100410 0.466205 0.167102
#
# Coordination Sequence:
#
# PCOD9077437 Si02
#       7
#     2   2   2   2   2   2   2
#     4  10  18  34  59  90 125 157 201 263 308 359
#     4   9  20  36  62  92 120 160 207 259 307 362
#     4  10  22  39  65  93 125 162 208 263 307 367
#     4  10  23  44  62  91 131 165 212 250 314 372
#     4  11  24  42  65  89 130 171 202 259 304 377
#     4  11  21  38  61  91 123 161 207 251 309 364
#     4  11  22  40  66  92 124 164 209 259 313 365
#
# _framework density 26.178246999999999
#
# number of rings (size 3 to 8) (size 9 to 14) (size 15 to 20)
#    0.000    1.714    4.286    0.000    0.000    5.143 
#    0.000    0.714    0.000    0.000    0.000    0.000 
#    0.000    0.000    0.000    0.000    0.000    0.000 
#
# Total GULP energy -78362.258894 kJ/mol
# GULP energy per Si atom -5597.304207 kJ/mol
# Density = 2.611866 g / cm^3
# Si number density = 26.178247 Si / 1000 Ang^3
#
#
#
# Elastic Constant Matrix: (Units=GPa)
#
#
# Indices 1 2 3 4 5 6 
#
# 1 79.2885 13.3791 31.4625 15.1873 -9.5776 11.6623
# 2 13.3791 96.7161 18.0682 12.6746 -15.7409 22.6410
# 3 31.4625 18.0682 95.6707 27.4405 -15.1219 6.6475
# 4 15.1873 12.6746 27.4405 32.9682 -8.2524 0.7796
# 5 -9.5776 -15.7409 -15.1219 -8.2524 23.2968 5.0753
# 6 11.6623 22.6410 6.6475 0.7796 5.0753 36.4915
#
#
#
# Elastic Compliance Matrix: (Units=1/GPa)
#
#
# Indices 1 2 3 4 5 6 
#
# 1 0.015860 0.001074 -0.003146 -0.003670 0.005168 -0.005802
# 2 0.001074 0.015266 0.000503 -0.003407 0.012394 -0.011558
# 3 -0.003146 0.000503 0.015411 -0.009975 0.006116 -0.002751
# 4 -0.003670 -0.003407 -0.009975 0.042549 0.003994 0.003639
# 5 0.005168 0.012394 0.006116 0.003994 0.063013 -0.019305
# 6 -0.005802 -0.011558 -0.002751 0.003639 -0.019305 0.039538
#
#
# Mechanical properties :
#
#
# Convention : Reuss Voigt Hill
#
# Bulk Modulus (GPa) = 23.04180 44.16609 33.60395
# Shear Modulus (GPa) = 23.89579 32.46899 28.18239
#
# Velocity S-wave (km/s) = 3.02455 3.52562 3.28465
# Velocity P-wave (km/s) = 4.58456 5.78630 5.22013
#
# Compressibility (1/GPa) = 0.04339938
#
# Stress axis : x y z
#
# Youngs Moduli (GPa) = 63.05200 65.50357 64.88818
#
# Poissons Ratio (x) = -0.07036 0.20414
# Poissons Ratio (y) = -0.06773 -0.03263
# Poissons Ratio (z) = 0.19836 -0.03294
#
# Static dielectric constant tensor:
#      x y z
#    x 2.108650 0.032770 0.036820 
#    y 0.032770 2.071610 -0.013000 
#    z 0.036820 -0.013000 2.070280 
# 
# From -- ./inp_files/389197.got.cif
#   From: 2010.05.17/outbox.cif.g08.bks.cpg/sg2_195_cif.got.tgz:389197.got - 2010.06.03 11:33:40.
