data_PCOD9077300
_publ_section_title
;
Structure prediction by ZEFSAII (Michael W. Deem and Ramdas Pophale) SiO2 
 PCOD9077300
Probable space group: P -1
;
_chemical_formula_sum "Si O2"
_cell_formula_units_Z 16
_cell_length_a 9.638356
_cell_length_b 18.651583
_cell_length_c 8.405188
_cell_angle_alpha 46.090748
_cell_angle_beta 87.525075
_cell_angle_gamma 64.629195
_cell_volume 905.646928
_symmetry_space_group_name_H-M "P -1"
_symmetry_group_IT_number 2
_symmetry_cell_setting 'triclinic'
loop_
_space_group_symop_operation_xyz
x,y,z
-x,-y,-z
loop_
_atom_site_type_symbol
_atom_site_label
_atom_site_fract_x
_atom_site_fract_y
_atom_site_fract_z
Si Si1 0.543216 0.000241 0.179396
Si Si2 0.429458 0.774821 0.131818
Si Si3 0.043575 0.960523 0.877280
Si Si4 0.603326 0.248064 0.173445
Si Si5 0.106964 0.155698 0.453622
Si Si6 0.515740 0.637601 0.668084
Si Si7 0.242838 0.630609 0.863965
Si Si8 0.239039 0.021585 0.341548
O O1 0.405235 0.999964 0.290802
O O2 0.729669 0.890089 0.379252
O O3 0.539302 0.119504 0.030018
O O4 0.500000 0.000000 0.000000
O O5 0.500499 0.699633 0.406418
O O6 0.487658 0.710483 0.055983
O O7 0.228342 0.842157 0.040717
O O8 0.043449 0.068900 0.628141
O O9 0.902981 0.947949 0.825591
O O10 0.000000 0.000000 0.000000
O O11 0.499125 0.290255 0.280217
O O12 0.718323 0.299882 0.112226
O O13 0.709573 0.104509 0.388618
O O14 0.168896 0.124358 0.317979
O O15 0.952181 0.289453 0.282381
O O16 0.355700 0.626957 0.716879
O O17 0.677814 0.504341 0.879033
#
# Coordination Sequence:
#
# PCOD9077300 Si02
#       8
#     2   2   2   2   2   2   2   2
#     4  11  24  36  53  86 118 151 184 233 291 348
#     4  11  21  35  58  85 113 149 191 232 282 338
#     4  11  19  31  54  85 114 143 179 232 288 334
#     4  10  18  34  58  82 112 148 183 228 282 336
#     4  11  20  34  57  84 111 148 185 229 292 337
#     4   9  20  37  56  86 116 146 189 241 280 325
#     4   9  19  37  57  86 115 143 191 237 281 335
#     4  12  20  35  55  84 121 144 185 231 284 353
#
# _framework density 17.666929
#
# number of rings (size 3 to 8) (size 9 to 14) (size 15 to 20)
#    0.750    0.750    3.750    5.250    0.000    0.500 
#    0.000    0.000    0.000    3.750    0.000    0.000 
#    0.000    0.000    0.000    0.000    0.000    0.000 
#
# Total GULP energy -89187.437560 kJ/mol
# GULP energy per Si atom -5574.214848 kJ/mol
# Density = 1.762672 g / cm^3
# Si number density = 17.666929 Si / 1000 Ang^3
#
#
#
# Elastic Constant Matrix: (Units=GPa)
#
#
# Indices 1 2 3 4 5 6 
#
# 1 87.9297 28.8077 33.5968 -0.4338 24.9083 -3.9038
# 2 28.8077 67.6262 57.1888 12.3747 19.5525 -4.2292
# 3 33.5968 57.1888 91.9357 4.5157 19.5372 -6.4665
# 4 -0.4338 12.3747 4.5157 34.7699 0.9140 11.1589
# 5 24.9083 19.5525 19.5372 0.9140 24.6680 1.8285
# 6 -3.9038 -4.2292 -6.4665 11.1589 1.8285 25.0048
#
#
#
# Elastic Compliance Matrix: (Units=1/GPa)
#
#
# Indices 1 2 3 4 5 6 
#
# 1 0.016827 -0.000819 -0.002326 0.000279 -0.014721 0.002839
# 2 -0.000819 0.038945 -0.019522 -0.013710 -0.014710 0.008605
# 3 -0.002326 -0.019522 0.024092 0.003467 -0.001471 0.001126
# 4 0.000279 -0.013710 0.003467 0.039233 0.007828 -0.019459
# 5 -0.014721 -0.014710 -0.001471 0.007828 0.068953 -0.013702
# 6 0.002839 0.008605 0.001126 -0.019459 -0.013702 0.051868
#
#
# Mechanical properties :
#
#
# Convention : Reuss Voigt Hill
#
# Bulk Modulus (GPa) = 28.95885 54.07537 41.51711
# Shear Modulus (GPa) = 16.84856 25.41509 21.13183
#
# Velocity S-wave (km/s) = 3.09152 3.79696 3.46225
# Velocity P-wave (km/s) = 5.40097 7.06380 6.28760
#
# Compressibility (1/GPa) = 0.03453176
#
# Stress axis : x y z
#
# Youngs Moduli (GPa) = 59.42824 25.67735 41.50725
#
# Poissons Ratio (x) = 0.02102 0.09653
# Poissons Ratio (y) = 0.04865 0.81030
# Poissons Ratio (z) = 0.13821 0.50127
#
# Static dielectric constant tensor:
#      x y z
#    x 1.615480 -0.030180 -0.001690 
#    y -0.030180 1.685130 0.011080 
#    z -0.001690 0.011080 1.635200 
# 
# From -- ./inp_files/223019.got.cif
#   From: 2010.05.17/outbox.cif.g08.bks.cpg/sg2_112_cif.got.tgz:223019.got - 2010.06.03 11:33:40.
