data_PCOD9077696
_publ_section_title
;
Structure prediction by ZEFSAII (Michael W. Deem and Ramdas Pophale) SiO2 
 PCOD9077696
Probable space group: P -1
;
_chemical_formula_sum "Si O2"
_cell_formula_units_Z 16
_cell_length_a 22.592486
_cell_length_b 18.602090
_cell_length_c 13.695028
_cell_angle_alpha 28.286263
_cell_angle_beta 19.596591
_cell_angle_gamma 18.708442
_cell_volume 615.499775
_symmetry_space_group_name_H-M "P -1"
_symmetry_group_IT_number 2
_symmetry_cell_setting 'triclinic'
loop_
_space_group_symop_operation_xyz
x,y,z
-x,-y,-z
loop_
_atom_site_type_symbol
_atom_site_label
_atom_site_fract_x
_atom_site_fract_y
_atom_site_fract_z
Si Si1 0.554760 0.338300 0.192174
Si Si2 0.491128 0.826630 0.714958
Si Si3 0.942692 0.498544 0.794286
Si Si4 0.009682 0.348713 0.286239
Si Si5 0.126143 0.027724 0.659913
Si Si6 0.669367 0.402447 0.252993
Si Si7 0.284919 0.858266 0.184376
Si Si8 0.512705 0.004261 0.174263
O O1 0.569469 0.179075 0.293849
O O2 0.281960 0.499055 0.481255
O O3 0.500000 0.500000 0.000000
O O4 0.843647 0.190496 0.956425
O O5 0.795436 0.589585 0.549622
O O6 0.500000 0.000000 0.500000
O O7 0.300948 0.855028 0.047129
O O8 0.975517 0.501849 0.855553
O O9 0.673836 0.752644 0.879887
O O10 0.912609 0.351632 0.971414
O O11 0.080768 0.178846 0.461881
O O12 0.227226 0.199477 0.045701
O O13 0.331817 0.970837 0.483846
O O14 0.236952 0.810503 0.690359
O O15 0.500000 0.500000 0.500000
O O16 0.489992 0.608914 0.208583
O O17 0.387992 0.961671 0.929136
O O18 0.000000 0.000000 0.500000
#
# Coordination Sequence:
#
# PCOD9077696 Si02
#       8
#     2   2   2   2   2   2   2   2
#     4   9  20  35  66 101 132 178 227 275 341 405
#     4  11  24  44  69  97 137 184 232 277 338 413
#     4   9  19  36  64  95 130 177 230 272 333 403
#     4   9  17  34  59  97 131 178 220 272 338 408
#     4  10  18  34  62  96 129 177 226 276 330 406
#     4  11  22  37  68 103 139 175 225 284 342 405
#     4  11  28  46  66 102 142 181 224 284 348 406
#     4  10  20  39  63  95 137 174 222 281 340 402
#
# _framework density 25.995135000000001
#
# number of rings (size 3 to 8) (size 9 to 14) (size 15 to 20)
#    0.000    2.000    0.000    5.250    7.000    2.000 
#    0.000    1.875    0.000   12.000    0.000    0.000 
#    0.000    0.000    0.000    0.000    0.000    0.000 
#
# Total GULP energy -89554.458244 kJ/mol
# GULP energy per Si atom -5597.153640 kJ/mol
# Density = 2.593597 g / cm^3
# Si number density = 25.995135 Si / 1000 Ang^3
#
#
#
# Elastic Constant Matrix: (Units=GPa)
#
#
# Indices 1 2 3 4 5 6 
#
# 1 95.8636 49.5223 48.6178 -1.2592 -16.1094 1.6341
# 2 49.5223 137.0143 50.5445 -4.5743 -16.9425 6.5520
# 3 48.6178 50.5445 153.8936 29.1904 -21.9346 2.4322
# 4 -1.2592 -4.5743 29.1904 55.5433 5.8041 -13.9037
# 5 -16.1094 -16.9425 -21.9346 5.8041 49.0197 -9.2931
# 6 1.6341 6.5520 2.4322 -13.9037 -9.2931 46.3943
#
#
#
# Elastic Compliance Matrix: (Units=1/GPa)
#
#
# Indices 1 2 3 4 5 6 
#
# 1 0.014416 -0.003691 -0.003454 0.001928 0.001907 0.001154
# 2 -0.003691 0.009618 -0.002177 0.001651 0.000857 -0.000448
# 3 -0.003454 -0.002177 0.009916 -0.006114 0.003024 -0.001318
# 4 0.001928 0.001651 -0.006114 0.023319 -0.003081 0.006391
# 5 0.001907 0.000857 0.003024 -0.003081 0.023700 0.003477
# 6 0.001154 -0.000448 -0.001318 0.006391 0.003477 0.024258
#
#
# Mechanical properties :
#
#
# Convention : Reuss Voigt Hill
#
# Bulk Modulus (GPa) = 65.33503 76.01564 70.67534
# Shear Modulus (GPa) = 38.76788 46.06391 42.41590
#
# Velocity S-wave (km/s) = 3.86599 4.21410 4.04380
# Velocity P-wave (km/s) = 6.71684 7.27901 7.00357
#
# Compressibility (1/GPa) = 0.01530572
#
# Stress axis : x y z
#
# Youngs Moduli (GPa) = 69.36594 103.96957 100.85019
#
# Poissons Ratio (x) = 0.38380 0.34835
# Poissons Ratio (y) = 0.25606 0.21952
# Poissons Ratio (z) = 0.23960 0.22631
#
# Static dielectric constant tensor:
#      x y z
#    x 2.034430 -0.011370 -0.009130 
#    y -0.011370 2.174710 -0.044170 
#    z -0.009130 -0.044170 2.056150 
# 
# From -- ./inp_files/543136.got.cif
#   From: 2010.05.17/outbox.cif.g08.bks.cpg/sg2_272_cif.got.tgz:543136.got - 2010.06.03 11:33:40.
