data_PCOD9077982
_publ_section_title
;
Structure prediction by ZEFSAII (Michael W. Deem and Ramdas Pophale) SiO2 
 PCOD9077982
Probable space group: P -1
;
_chemical_formula_sum "Si O2"
_cell_formula_units_Z 16
_cell_length_a 9.168710
_cell_length_b 20.319106
_cell_length_c 11.745042
_cell_angle_alpha 136.038339
_cell_angle_beta 130.092792
_cell_angle_gamma 34.913767
_cell_volume 861.347983
_symmetry_space_group_name_H-M "P -1"
_symmetry_group_IT_number 2
_symmetry_cell_setting 'triclinic'
loop_
_space_group_symop_operation_xyz
x,y,z
-x,-y,-z
loop_
_atom_site_type_symbol
_atom_site_label
_atom_site_fract_x
_atom_site_fract_y
_atom_site_fract_z
Si Si1 0.807824 0.074485 0.102733
Si Si2 0.387783 0.503270 0.605231
Si Si3 0.853401 0.278954 0.428814
Si Si4 0.804443 0.171019 0.881542
Si Si5 0.400603 0.269017 0.988206
Si Si6 0.739908 0.405492 0.086343
Si Si7 0.691918 0.754357 0.327944
Si Si8 0.937001 0.529054 0.747771
O O1 0.820865 0.177662 0.282772
O O2 0.528705 0.158020 0.008841
O O3 0.923191 0.964844 0.117171
O O4 0.000000 0.000000 0.000000
O O5 0.684254 0.382860 0.573681
O O6 0.274434 0.627884 0.629009
O O7 0.339956 0.537867 0.755700
O O8 0.230578 0.466235 0.427668
O O9 0.152001 0.208980 0.499343
O O10 0.632878 0.239890 0.996985
O O11 0.614822 0.159805 0.706939
O O12 0.819433 0.268749 0.955528
O O13 0.259723 0.264329 0.807543
O O14 0.229406 0.399820 0.133455
O O15 0.960535 0.403846 0.156176
O O16 0.500000 0.500000 0.000000
O O17 0.828013 0.617947 0.283544
#
# Coordination Sequence:
#
# PCOD9077982 Si02
#       8
#     2   2   2   2   2   2   2   2
#     4  10  18  35  57  80 115 146 186 228 276 332
#     4  10  22  35  55  87 117 139 189 230 284 334
#     4  10  20  34  60  87 110 149 179 237 285 318
#     4   9  21  35  55  82 115 143 191 223 272 331
#     4   9  18  34  56  83 109 148 180 235 269 326
#     4  12  23  36  58  83 113 153 180 232 284 332
#     4   9  20  31  55  87 115 139 183 235 275 327
#     4  11  20  35  55  84 118 142 183 232 283 327
#
# _framework density 18.575534999999999
#
# number of rings (size 3 to 8) (size 9 to 14) (size 15 to 20)
#    0.750    1.250    2.500    2.250    5.250    0.500 
#    0.000    0.625    0.000    0.750    0.000    0.000 
#    0.000    0.000    0.000    0.000    0.000    0.000 
#
# Total GULP energy -89080.205947 kJ/mol
# GULP energy per Si atom -5567.512872 kJ/mol
# Density = 1.853326 g / cm^3
# Si number density = 18.575535 Si / 1000 Ang^3
#
#
#
# Elastic Constant Matrix: (Units=GPa)
#
#
# Indices 1 2 3 4 5 6 
#
# 1 49.1568 15.7690 12.6382 -0.5977 14.6601 11.7240
# 2 15.7690 90.1557 14.8278 -4.2919 15.7935 19.0925
# 3 12.6382 14.8278 51.6247 -3.3157 2.4838 9.5166
# 4 -0.5977 -4.2919 -3.3157 22.5025 0.7505 4.9346
# 5 14.6601 15.7935 2.4838 0.7505 21.9603 4.1885
# 6 11.7240 19.0925 9.5166 4.9346 4.1885 20.3616
#
#
#
# Elastic Compliance Matrix: (Units=1/GPa)
#
#
# Indices 1 2 3 4 5 6 
#
# 1 0.029622 0.001870 -0.004017 0.004279 -0.018094 -0.014247
# 2 0.001870 0.016317 -0.001423 0.006631 -0.010144 -0.015232
# 3 -0.004017 -0.001423 0.022519 0.004731 0.002630 -0.008565
# 4 0.004279 0.006631 0.004731 0.051578 -0.005685 -0.022223
# 5 -0.018094 -0.010144 0.002630 -0.005685 0.063469 0.007023
# 6 -0.014247 -0.015232 -0.008565 -0.022223 0.007023 0.079543
#
#
# Mechanical properties :
#
#
# Convention : Reuss Voigt Hill
#
# Bulk Modulus (GPa) = 16.30812 30.82303 23.56557
# Shear Modulus (GPa) = 17.20420 22.81168 20.00794
#
# Velocity S-wave (km/s) = 3.04661 3.50816 3.28550
# Velocity P-wave (km/s) = 4.60155 5.74795 5.20640
#
# Compressibility (1/GPa) = 0.06131916
#
# Stress axis : x y z
#
# Youngs Moduli (GPa) = 33.75840 61.28470 44.40717
#
# Poissons Ratio (x) = -0.11461 0.17839
# Poissons Ratio (y) = -0.06313 0.06317
# Poissons Ratio (z) = 0.13561 0.08718
#
# Static dielectric constant tensor:
#      x y z
#    x 1.652550 -0.007640 0.021270 
#    y -0.007640 1.670000 -0.026600 
#    z 0.021270 -0.026600 1.654270 
# 
# From -- ./inp_files/402239.got.cif
#   From: 2010.05.17/outbox.cif.g08.bks.cpg/sg2_202_cif.got.tgz:402239.got - 2010.06.03 11:33:40.
