data_PCOD9077973
_publ_section_title
;
Structure prediction by ZEFSAII (Michael W. Deem and Ramdas Pophale) SiO2 
 PCOD9077973
Probable space group: P -1
;
_chemical_formula_sum "Si O2"
_cell_formula_units_Z 16
_cell_length_a 14.458209
_cell_length_b 9.564872
_cell_length_c 7.613655
_cell_angle_alpha 60.987963
_cell_angle_beta 127.827847
_cell_angle_gamma 88.492060
_cell_volume 642.448441
_symmetry_space_group_name_H-M "P -1"
_symmetry_group_IT_number 2
_symmetry_cell_setting 'triclinic'
loop_
_space_group_symop_operation_xyz
x,y,z
-x,-y,-z
loop_
_atom_site_type_symbol
_atom_site_label
_atom_site_fract_x
_atom_site_fract_y
_atom_site_fract_z
Si Si1 0.283691 0.877327 0.676340
Si Si2 0.363287 0.535193 0.151797
Si Si3 0.823520 0.756498 0.461162
Si Si4 0.032773 0.255463 0.857682
Si Si5 0.821941 0.400463 0.775516
Si Si6 0.017387 0.865631 0.444898
Si Si7 0.400915 0.645121 0.652117
Si Si8 0.792945 0.610536 0.175108
O O1 0.158932 0.834594 0.557402
O O2 0.342440 0.833894 0.575329
O O3 0.245868 0.066168 0.608321
O O4 0.378290 0.712625 0.012000
O O5 0.250865 0.600905 0.129961
O O6 0.516097 0.379370 0.415437
O O7 0.304913 0.449741 0.990652
O O8 0.837398 0.581373 0.684151
O O9 0.745590 0.751614 0.195943
O O10 0.961858 0.740817 0.555587
O O11 0.967439 0.250711 0.968942
O O12 0.065448 0.092864 0.858800
O O13 0.913732 0.429125 0.512185
O O14 0.150994 0.304941 0.958972
O O15 0.717800 0.397249 0.513714
O O16 0.000000 0.000000 0.500000
O O17 0.500000 0.500000 0.000000
#
# Coordination Sequence:
#
# PCOD9077973 Si02
#       8
#     2   2   2   2   2   2   2   2
#     4  10  18  35  57  79 103 143 188 218 262 317
#     4  11  22  35  54  80 111 145 177 224 268 316
#     4   9  19  33  56  81 107 138 180 224 264 317
#     4   9  15  30  53  77 100 143 178 218 253 318
#     4  11  21  35  54  83 113 135 178 225 276 315
#     4   9  15  28  55  81 103 134 183 221 255 310
#     4  10  20  38  59  77 102 146 192 219 251 322
#     4   9  17  32  53  75 108 138 184 210 258 319
#
# _framework density 24.904723000000001
#
# number of rings (size 3 to 8) (size 9 to 14) (size 15 to 20)
#    0.000    2.250    2.500    3.375    0.000    0.500 
#    0.000    7.500    0.000    2.250    0.000    0.000 
#    0.000    0.000    0.000    0.000    0.000    0.000 
#
# Total GULP energy -89124.465885 kJ/mol
# GULP energy per Si atom -5570.279118 kJ/mol
# Density = 2.484804 g / cm^3
# Si number density = 24.904723 Si / 1000 Ang^3
#
#
#
# Elastic Constant Matrix: (Units=GPa)
#
#
# Indices 1 2 3 4 5 6 
#
# 1 118.4652 39.8251 9.4381 -7.2571 -18.0541 -26.5645
# 2 39.8251 182.8689 22.7929 1.8505 -9.7926 -8.2594
# 3 9.4381 22.7929 46.6357 13.6975 -3.6480 -0.7762
# 4 -7.2571 1.8505 13.6975 20.0350 -1.1331 0.2733
# 5 -18.0541 -9.7926 -3.6480 -1.1331 28.5371 11.5752
# 6 -26.5645 -8.2594 -0.7762 0.2733 11.5752 51.1492
#
#
#
# Elastic Compliance Matrix: (Units=1/GPa)
#
#
# Indices 1 2 3 4 5 6 
#
# 1 0.011368 -0.001725 -0.002920 0.006476 0.004662 0.004492
# 2 -0.001725 0.006230 -0.002877 0.000811 0.000755 -0.000109
# 3 -0.002920 -0.002877 0.029638 -0.020990 0.000767 -0.001593
# 4 0.006476 0.000811 -0.020990 0.066706 0.003520 0.002023
# 5 0.004662 0.000755 0.000767 0.003520 0.041246 -0.006798
# 6 0.004492 -0.000109 -0.001593 0.002023 -0.006798 0.023369
#
#
# Mechanical properties :
#
#
# Convention : Reuss Voigt Hill
#
# Bulk Modulus (GPa) = 31.06279 54.67578 42.86929
# Shear Modulus (GPa) = 24.46994 38.33848 31.40421
#
# Velocity S-wave (km/s) = 3.13795 3.92778 3.55487
# Velocity P-wave (km/s) = 5.06248 6.52469 5.83954
#
# Compressibility (1/GPa) = 0.03219285
#
# Stress axis : x y z
#
# Youngs Moduli (GPa) = 87.96428 160.51647 33.74008
#
# Poissons Ratio (x) = 0.27685 0.09854
# Poissons Ratio (y) = 0.15172 0.09706
# Poissons Ratio (z) = 0.25689 0.46175
#
# Static dielectric constant tensor:
#      x y z
#    x 2.001590 -0.103150 -0.057050 
#    y -0.103150 2.049410 -0.018360 
#    z -0.057050 -0.018360 2.167420 
# 
# From -- ./inp_files/295304.got.cif
#   From: 2010.05.17/outbox.cif.g08.bks.cpg/sg2_148_cif.got.tgz:295304.got - 2010.06.03 11:33:40.
