data_PCOD9077805
_publ_section_title
;
Structure prediction by ZEFSAII (Michael W. Deem and Ramdas Pophale) SiO2 
 PCOD9077805
Probable space group: P -1
;
_chemical_formula_sum "Si O2"
_cell_formula_units_Z 14
_cell_length_a 9.581172
_cell_length_b 9.020552
_cell_length_c 9.154873
_cell_angle_alpha 64.187628
_cell_angle_beta 77.253117
_cell_angle_gamma 62.173647
_cell_volume 629.772386
_symmetry_space_group_name_H-M "P -1"
_symmetry_group_IT_number 2
_symmetry_cell_setting 'triclinic'
loop_
_space_group_symop_operation_xyz
x,y,z
-x,-y,-z
loop_
_atom_site_type_symbol
_atom_site_label
_atom_site_fract_x
_atom_site_fract_y
_atom_site_fract_z
Si Si1 0.738736 0.596408 0.588380
Si Si2 0.780343 0.237245 0.332489
Si Si3 0.544880 0.087075 0.091743
Si Si4 0.468925 0.604896 0.222891
Si Si5 0.001287 0.706691 0.520041
Si Si6 0.114260 0.010129 0.842746
Si Si7 0.572605 0.124156 0.610455
O O1 0.664425 0.469669 0.732688
O O2 0.851427 0.478935 0.482121
O O3 0.589274 0.761998 0.485554
O O4 0.855249 0.662342 0.616245
O O5 0.633764 0.434478 0.291822
O O6 0.931446 0.221724 0.393180
O O7 0.823093 0.175619 0.184378
O O8 0.714512 0.103191 0.481357
O O9 0.729877 0.980303 0.131150
O O10 0.440856 0.055712 0.255120
O O11 0.514923 0.288717 0.967882
O O12 0.500000 0.000000 0.000000
O O13 0.423448 0.747666 0.308568
O O14 0.963101 0.833362 0.329259
O O15 0.000000 0.000000 0.000000
#
# Coordination Sequence:
#
# PCOD9077805 Si02
#       7
#     2   2   2   2   2   2   2
#     4  10  18  34  68  96 128 165 216 264 320 383
#     4  11  23  41  71  97 128 176 223 270 316 390
#     4  10  23  41  68  95 134 172 209 271 336 381
#     4  10  19  40  68  98 127 168 217 269 327 378
#     4  11  21  39  66 100 131 172 217 263 328 393
#     4  12  27  44  62  95 140 175 216 272 336 384
#     4  10  18  40  67  99 126 166 218 270 316 386
#
# _framework density 22.230255
#
# number of rings (size 3 to 8) (size 9 to 14) (size 15 to 20)
#    0.000    1.429    4.286    2.143    2.000    1.143 
#    0.000    0.000    3.143   11.143    0.000    0.000 
#    0.000    0.000    0.000    0.000    0.000    0.000 
#
# Total GULP energy -78291.113106 kJ/mol
# GULP energy per Si atom -5592.222365 kJ/mol
# Density = 2.217966 g / cm^3
# Si number density = 22.230255 Si / 1000 Ang^3
#
#
#
# Elastic Constant Matrix: (Units=GPa)
#
#
# Indices 1 2 3 4 5 6 
#
# 1 194.8639 43.8991 69.7399 -4.2866 -8.2533 25.3120
# 2 43.8991 51.1963 43.0250 5.1026 -15.6109 3.0543
# 3 69.7399 43.0250 120.1611 -11.4680 -30.4011 13.9756
# 4 -4.2866 5.1026 -11.4680 40.7720 9.7724 -9.2987
# 5 -8.2533 -15.6109 -30.4011 9.7724 44.9533 -5.5042
# 6 25.3120 3.0543 13.9756 -9.2987 -5.5042 23.8034
#
#
#
# Elastic Compliance Matrix: (Units=1/GPa)
#
#
# Indices 1 2 3 4 5 6 
#
# 1 0.008057 -0.004983 -0.002852 -0.000217 -0.002994 -0.007031
# 2 -0.004983 0.033810 -0.008674 -0.007869 0.007240 0.004654
# 3 -0.002852 -0.008674 0.015081 0.003168 0.005711 -0.002150
# 4 -0.000217 -0.007869 0.003168 0.030029 -0.005966 0.009732
# 5 -0.002994 0.007240 0.005711 -0.005966 0.029793 0.003460
# 6 -0.007031 0.004654 -0.002150 0.009732 0.003460 0.054754
#
#
# Mechanical properties :
#
#
# Convention : Reuss Voigt Hill
#
# Bulk Modulus (GPa) = 41.79206 75.50550 58.64878
# Shear Modulus (GPa) = 23.52731 35.87622 29.70176
#
# Velocity S-wave (km/s) = 3.25675 4.02163 3.65923
# Velocity P-wave (km/s) = 5.74303 7.45678 6.65530
#
# Compressibility (1/GPa) = 0.02392799
#
# Stress axis : x y z
#
# Youngs Moduli (GPa) = 124.11738 29.57731 66.30944
#
# Poissons Ratio (x) = 0.14739 0.18913
# Poissons Ratio (y) = 0.61851 0.57518
# Poissons Ratio (z) = 0.35402 0.25656
#
# Static dielectric constant tensor:
#      x y z
#    x 1.793330 0.036140 0.005820 
#    y 0.036140 1.898120 0.008860 
#    z 0.005820 0.008860 1.846020 
# 
# From -- ./inp_files/157322.got.cif
#   From: 2010.05.17/outbox.cif.g08.bks.cpg/sg2_79_cif.got.tgz:157322.got - 2010.06.03 11:33:40.
