data_PCOD9077276
_publ_section_title
;
Structure prediction by ZEFSAII (Michael W. Deem and Ramdas Pophale) SiO2 
 PCOD9077276
Probable space group: P -1
;
_chemical_formula_sum "Si O2"
_cell_formula_units_Z 12
_cell_length_a 7.380592
_cell_length_b 13.636481
_cell_length_c 9.351624
_cell_angle_alpha 66.337253
_cell_angle_beta 54.115009
_cell_angle_gamma 34.162189
_cell_volume 420.899163
_symmetry_space_group_name_H-M "P -1"
_symmetry_group_IT_number 2
_symmetry_cell_setting 'triclinic'
loop_
_space_group_symop_operation_xyz
x,y,z
-x,-y,-z
loop_
_atom_site_type_symbol
_atom_site_label
_atom_site_fract_x
_atom_site_fract_y
_atom_site_fract_z
Si Si1 0.905730 0.723057 0.961321
Si Si2 0.306304 0.583866 0.200777
Si Si3 0.048245 0.493354 0.257127
Si Si4 0.946393 0.110664 0.081930
Si Si5 0.937970 0.917497 0.339723
Si Si6 0.172419 0.221108 0.344922
O O1 0.322814 0.575495 0.789558
O O2 0.875612 0.838979 0.008291
O O3 0.688067 0.814319 0.860841
O O4 0.902453 0.610836 0.112856
O O5 0.005126 0.604376 0.327742
O O6 0.139728 0.759284 0.226366
O O7 0.500000 0.500000 0.000000
O O8 0.497612 0.302122 0.169438
O O9 0.917505 0.422398 0.376027
O O10 0.065607 0.991998 0.233603
O O11 0.000000 0.000000 0.000000
O O12 0.986277 0.835644 0.513341
O O13 0.518115 0.087255 0.374423
#
# Coordination Sequence:
#
# PCOD9077276 Si02
#       6
#     2   2   2   2   2   2
#     4  10  19  34  57  83 106 137 189 230 258 313
#     4   9  18  36  57  77 103 141 187 223 263 319
#     4   9  18  34  54  77 109 141 177 221 272 322
#     4  10  18  34  58  77 104 144 183 224 266 318
#     4  10  21  38  55  77 113 149 177 216 279 327
#     4  10  22  36  53  81 115 145 175 221 274 326
#
# _framework density 28.510390000000001
#
# number of rings (size 3 to 8) (size 9 to 14) (size 15 to 20)
#    0.000    2.333    0.000    6.000    0.000    2.000 
#    0.000   16.667    0.000    0.000    0.000    0.000 
#    0.000    0.000    0.000    0.000    0.000    0.000 
#
# Total GULP energy -66831.314249 kJ/mol
# GULP energy per Si atom -5569.276187 kJ/mol
# Density = 2.844550 g / cm^3
# Si number density = 28.510390 Si / 1000 Ang^3
#
#
#
# Elastic Constant Matrix: (Units=GPa)
#
#
# Indices 1 2 3 4 5 6 
#
# 1 94.2904 41.1280 22.1836 -21.7386 16.2895 17.0198
# 2 41.1280 183.1920 56.5086 -47.4393 -4.8219 39.1107
# 3 22.1836 56.5086 131.0374 -52.8693 3.0920 20.2463
# 4 -21.7386 -47.4393 -52.8693 71.4909 19.0400 -15.5205
# 5 16.2895 -4.8219 3.0920 19.0400 39.3173 -12.1231
# 6 17.0198 39.1107 20.2463 -15.5205 -12.1231 42.5110
#
#
#
# Elastic Compliance Matrix: (Units=1/GPa)
#
#
# Indices 1 2 3 4 5 6 
#
# 1 0.015822 -0.001057 0.002287 0.007624 -0.012814 -0.007322
# 2 -0.001057 0.008127 -0.000868 0.003713 -0.002110 -0.005886
# 3 0.002287 -0.000868 0.013060 0.011113 -0.008953 -0.004833
# 4 0.007624 0.003713 0.011113 0.031106 -0.020575 -0.006272
# 5 -0.012814 -0.002110 -0.008953 -0.020575 0.046412 0.017059
# 6 -0.007322 -0.005886 -0.004833 -0.006272 0.017059 0.036746
#
#
# Mechanical properties :
#
#
# Convention : Reuss Voigt Hill
#
# Bulk Modulus (GPa) = 26.50295 72.01779 49.26037
# Shear Modulus (GPa) = 30.65084 49.91048 40.28066
#
# Velocity S-wave (km/s) = 3.28239 4.18856 3.76286
# Velocity P-wave (km/s) = 4.86637 6.97905 6.01617
#
# Compressibility (1/GPa) = 0.03773165
#
# Stress axis : x y z
#
# Youngs Moduli (GPa) = 63.20414 123.05327 76.56783
#
# Poissons Ratio (x) = 0.13012 -0.17512
# Poissons Ratio (y) = 0.06684 0.06648
# Poissons Ratio (z) = -0.14456 0.10683
#
# Static dielectric constant tensor:
#      x y z
#    x 2.502550 -0.172160 -0.138020 
#    y -0.172160 2.298570 0.007240 
#    z -0.138020 0.007240 2.779040 
# 
# From -- ./inp_files/397163.got.cif
#   From: 2010.05.17/outbox.cif.g08.bks.cpg/sg2_199_cif.got.tgz:397163.got - 2010.06.03 11:33:40.
