data_PCOD9077483
_publ_section_title
;
Structure prediction by ZEFSAII (Michael W. Deem and Ramdas Pophale) SiO2 
 PCOD9077483
Probable space group: P -1
;
_chemical_formula_sum "Si O2"
_cell_formula_units_Z 16
_cell_length_a 18.773901
_cell_length_b 9.098412
_cell_length_c 11.359411
_cell_angle_alpha 67.434579
_cell_angle_beta 76.436498
_cell_angle_gamma 29.201317
_cell_volume 852.171401
_symmetry_space_group_name_H-M "P -1"
_symmetry_group_IT_number 2
_symmetry_cell_setting 'triclinic'
loop_
_space_group_symop_operation_xyz
x,y,z
-x,-y,-z
loop_
_atom_site_type_symbol
_atom_site_label
_atom_site_fract_x
_atom_site_fract_y
_atom_site_fract_z
Si Si1 0.439142 0.410053 0.794190
Si Si2 0.329090 0.312239 0.920586
Si Si3 0.350375 0.157481 0.316155
Si Si4 0.123726 0.160987 0.989838
Si Si5 0.912625 0.326259 0.907293
Si Si6 0.459680 0.679317 0.575745
Si Si7 0.638289 0.484556 0.768947
Si Si8 0.389037 0.895801 0.927862
O O1 0.303675 0.544960 0.832008
O O2 0.388128 0.678371 0.685698
O O3 0.535888 0.254077 0.924169
O O4 0.539705 0.128828 0.739977
O O5 0.217586 0.442243 0.014781
O O6 0.500000 0.000000 0.000000
O O7 0.329499 0.189917 0.850701
O O8 0.181759 0.475587 0.234835
O O9 0.378674 0.291445 0.288516
O O10 0.370464 0.002711 0.466726
O O11 0.203933 0.879586 0.130851
O O12 0.255023 0.025580 0.932966
O O13 0.000000 0.500000 0.000000
O O14 0.029357 0.245333 0.904549
O O15 0.000000 0.000000 0.000000
O O16 0.500000 0.500000 0.500000
O O17 0.598476 0.485728 0.657361
O O18 0.517326 0.642866 0.859375
#
# Coordination Sequence:
#
# PCOD9077483 Si02
#       8
#     2   2   2   2   2   2   2   2
#     4  10  18  36  62  89 119 154 201 248 306 342
#     4  10  18  34  60  84 123 154 193 253 299 350
#     4  11  20  40  59  91 125 159 202 245 295 368
#     4  12  24  36  57  93 133 155 186 253 316 368
#     4  12  23  36  59  96 125 159 194 245 315 360
#     4  10  24  37  60  89 121 163 204 258 293 357
#     4  12  23  39  64  94 119 157 213 252 303 355
#     4  11  20  36  62  93 124 153 203 262 301 353
#
# _framework density 18.775566000000001
#
# number of rings (size 3 to 8) (size 9 to 14) (size 15 to 20)
#    0.000    1.000    7.500    1.500    1.750    0.000 
#    0.000    0.000    0.000    3.000    0.000    5.250 
#    0.000    0.000    0.000    0.000    0.000    0.000 
#
# Total GULP energy -89117.046130 kJ/mol
# GULP energy per Si atom -5569.815383 kJ/mol
# Density = 1.873283 g / cm^3
# Si number density = 18.775566 Si / 1000 Ang^3
#
#
#
# Elastic Constant Matrix: (Units=GPa)
#
#
# Indices 1 2 3 4 5 6 
#
# 1 164.5336 22.1508 49.4106 -4.7321 -11.6569 5.4382
# 2 22.1508 64.0527 16.9610 -9.9858 -1.7705 5.5993
# 3 49.4106 16.9610 95.4044 -12.2941 -11.1595 -0.3189
# 4 -4.7321 -9.9858 -12.2941 23.2036 8.6409 -1.4725
# 5 -11.6569 -1.7705 -11.1595 8.6409 37.4935 -3.2446
# 6 5.4382 5.5993 -0.3189 -1.4725 -3.2446 25.1468
#
#
#
# Elastic Compliance Matrix: (Units=1/GPa)
#
#
# Indices 1 2 3 4 5 6 
#
# 1 0.007498 -0.001764 -0.003630 -0.001778 0.001474 -0.001189
# 2 -0.001764 0.018009 -0.001634 0.007092 -0.002122 -0.003508
# 3 -0.003630 -0.001634 0.013535 0.005179 0.001790 0.001855
# 4 -0.001778 0.007092 0.005179 0.052567 -0.010742 0.000563
# 5 0.001474 -0.002122 0.001790 -0.010742 0.030337 0.003462
# 6 -0.001189 -0.003508 0.001855 0.000563 0.003462 0.041308
#
#
# Mechanical properties :
#
#
# Convention : Reuss Voigt Hill
#
# Bulk Modulus (GPa) = 40.02397 55.67061 47.84729
# Shear Modulus (GPa) = 26.93403 32.86668 29.90036
#
# Velocity S-wave (km/s) = 3.79162 4.18844 3.99496
# Velocity P-wave (km/s) = 6.36646 7.28736 6.84242
#
# Compressibility (1/GPa) = 0.02498503
#
# Stress axis : x y z
#
# Youngs Moduli (GPa) = 133.36685 55.52918 73.88097
#
# Poissons Ratio (x) = 0.09797 0.26821
# Poissons Ratio (y) = 0.23529 0.12071
# Poissons Ratio (z) = 0.48417 0.09073
#
# Static dielectric constant tensor:
#      x y z
#    x 3.199470 -0.584650 -0.269170 
#    y -0.584650 2.001070 0.090870 
#    z -0.269170 0.090870 1.745050 
# 
# From -- ./inp_files/536587.got.cif
#   From: 2010.05.17/outbox.cif.g08.bks.cpg/sg2_269_cif.got.tgz:536587.got - 2010.06.03 11:33:40.
