data_PCOD9077343
_publ_section_title
;
Structure prediction by ZEFSAII (Michael W. Deem and Ramdas Pophale) SiO2 
 PCOD9077343
Probable space group: P -1
;
_chemical_formula_sum "Si O2"
_cell_formula_units_Z 14
_cell_length_a 14.452567
_cell_length_b 9.782332
_cell_length_c 11.840697
_cell_angle_alpha 129.594885
_cell_angle_beta 142.691384
_cell_angle_gamma 68.421319
_cell_volume 746.342623
_symmetry_space_group_name_H-M "P -1"
_symmetry_group_IT_number 2
_symmetry_cell_setting 'triclinic'
loop_
_space_group_symop_operation_xyz
x,y,z
-x,-y,-z
loop_
_atom_site_type_symbol
_atom_site_label
_atom_site_fract_x
_atom_site_fract_y
_atom_site_fract_z
Si Si1 0.319022 0.791993 0.572836
Si Si2 0.654872 0.166321 0.770825
Si Si3 0.910534 0.304590 0.919041
Si Si4 0.817481 0.961860 0.266922
Si Si5 0.340844 0.035591 0.117310
Si Si6 0.720949 0.544921 0.928653
Si Si7 0.286136 0.396282 0.305982
O O1 0.189992 0.746596 0.321175
O O2 0.487678 0.913673 0.750113
O O3 0.335501 0.591946 0.522135
O O4 0.261407 0.904909 0.671988
O O5 0.807107 0.165709 0.840045
O O6 0.632365 0.365751 0.821779
O O7 0.500000 0.000000 0.500000
O O8 0.688366 0.136444 0.917734
O O9 0.890791 0.502088 0.047828
O O10 0.093236 0.320894 0.088851
O O11 0.789771 0.985372 0.119039
O O12 0.735487 0.743525 0.097905
O O13 0.000000 0.000000 0.500000
O O14 0.343098 0.217284 0.289530
O O15 0.660908 0.547797 0.743368
#
# Coordination Sequence:
#
# PCOD9077343 Si02
#       7
#     2   2   2   2   2   2   2
#     4  11  19  34  60  85 111 144 191 232 280 323
#     4  10  19  37  59  83 118 146 180 228 290 332
#     4   9  18  33  63  80 112 142 190 230 280 322
#     4  11  22  38  60  81 112 149 194 233 275 326
#     4  11  22  36  55  84 116 148 185 231 280 338
#     4   8  18  34  58  81 109 144 187 227 275 328
#     4  10  18  34  58  89 106 144 195 236 271 322
#
# _framework density 18.758140999999998
#
# number of rings (size 3 to 8) (size 9 to 14) (size 15 to 20)
#    0.857    1.143    1.429    5.143    0.000    1.714 
#    0.000    1.429    3.143    0.000    0.000    0.000 
#    0.000    0.000    0.000    0.000    0.000    0.000 
#
# Total GULP energy -77986.851920 kJ/mol
# GULP energy per Si atom -5570.489423 kJ/mol
# Density = 1.871545 g / cm^3
# Si number density = 18.758141 Si / 1000 Ang^3
#
#
#
# Elastic Constant Matrix: (Units=GPa)
#
#
# Indices 1 2 3 4 5 6 
#
# 1 77.0434 39.3456 37.8133 6.9876 1.6693 -5.4824
# 2 39.3456 93.0930 40.3627 13.4744 -5.6951 8.8740
# 3 37.8133 40.3627 81.5874 5.5485 0.2916 5.1475
# 4 6.9876 13.4744 5.5485 34.2897 -9.1016 -4.1448
# 5 1.6693 -5.6951 0.2916 -9.1016 30.4392 11.3635
# 6 -5.4824 8.8740 5.1475 -4.1448 11.3635 40.6623
#
#
#
# Elastic Compliance Matrix: (Units=1/GPa)
#
#
# Indices 1 2 3 4 5 6 
#
# 1 0.020049 -0.006424 -0.006413 -0.001069 -0.004862 0.006167
# 2 -0.006424 0.016925 -0.004781 -0.004067 0.004443 -0.005611
# 3 -0.006413 -0.004781 0.017719 0.000091 0.000091 -0.002081
# 4 -0.001069 -0.004067 0.000091 0.033472 0.008662 0.001723
# 5 -0.004862 0.004443 0.000091 0.008662 0.041110 -0.012242
# 6 0.006167 -0.005611 -0.002081 0.001723 -0.012242 0.030509
#
#
# Mechanical properties :
#
#
# Convention : Reuss Voigt Hill
#
# Bulk Modulus (GPa) = 51.39512 54.08524 52.74018
# Shear Modulus (GPa) = 24.81316 30.02506 27.41911
#
# Velocity S-wave (km/s) = 3.64097 4.00514 3.82739
# Velocity P-wave (km/s) = 6.71817 7.09110 6.90716
#
# Compressibility (1/GPa) = 0.01945710
#
# Stress axis : x y z
#
# Youngs Moduli (GPa) = 49.87813 59.08319 56.43574
#
# Poissons Ratio (x) = 0.37953 0.36193
# Poissons Ratio (y) = 0.32040 0.26984
# Poissons Ratio (z) = 0.31988 0.28250
#
# Static dielectric constant tensor:
#      x y z
#    x 1.649910 -0.011610 0.010750 
#    y -0.011610 1.684460 -0.008190 
#    z 0.010750 -0.008190 1.694090 
# 
# From -- ./inp_files/303395.got.cif
#   From: 2010.05.17/outbox.cif.g08.bks.cpg/sg2_152_cif.got.tgz:303395.got - 2010.06.03 11:33:40.
