data_PCOD9077520
_publ_section_title
;
Structure prediction by ZEFSAII (Michael W. Deem and Ramdas Pophale) SiO2 
 PCOD9077520
Probable space group: P -1
;
_chemical_formula_sum "Si O2"
_cell_formula_units_Z 16
_cell_length_a 14.066911
_cell_length_b 26.120434
_cell_length_c 9.264938
_cell_angle_alpha 131.189435
_cell_angle_beta 58.778004
_cell_angle_gamma 159.368461
_cell_volume 838.817804
_symmetry_space_group_name_H-M "P -1"
_symmetry_group_IT_number 2
_symmetry_cell_setting 'triclinic'
loop_
_space_group_symop_operation_xyz
x,y,z
-x,-y,-z
loop_
_atom_site_type_symbol
_atom_site_label
_atom_site_fract_x
_atom_site_fract_y
_atom_site_fract_z
Si Si1 0.291851 0.535920 0.033980
Si Si2 0.759281 0.341551 0.780351
Si Si3 0.154617 0.002138 0.743178
Si Si4 0.873383 0.748440 0.308403
Si Si5 0.681313 0.749742 0.862143
Si Si6 0.084273 0.398118 0.510485
Si Si7 0.776420 0.592522 0.868954
Si Si8 0.155997 0.801389 0.397832
O O1 0.319505 0.633195 0.195362
O O2 0.301556 0.503628 0.118455
O O3 0.531579 0.641566 0.928687
O O4 0.982892 0.341639 0.843309
O O5 0.892511 0.357204 0.608356
O O6 0.477225 0.156789 0.747361
O O7 0.000000 0.500000 0.000000
O O8 0.983480 0.885724 0.515105
O O9 0.950462 0.865534 0.785649
O O10 0.209690 0.113032 0.930584
O O11 0.526768 0.551488 0.222865
O O12 0.020226 0.786956 0.389607
O O13 0.942548 0.749293 0.105628
O O14 0.413803 0.600356 0.680742
O O15 0.070793 0.361222 0.292892
O O16 0.963990 0.274375 0.487406
O O17 0.500000 0.000000 0.500000
#
# Coordination Sequence:
#
# PCOD9077520 Si02
#       8
#     2   2   2   2   2   2   2   2
#     4   9  20  38  57  85 122 152 193 240 300 353
#     4  11  19  35  62  87 116 151 189 249 305 337
#     4  10  18  34  60  88 111 144 202 244 290 335
#     4  10  21  37  59  80 121 160 187 239 291 347
#     4   9  18  34  61  88 109 146 198 259 282 332
#     4  11  20  37  61  86 116 155 195 244 296 345
#     4  10  22  40  55  83 125 161 190 232 298 359
#     4  10  20  35  59  88 112 150 202 245 279 338
#
# _framework density 19.074465
#
# number of rings (size 3 to 8) (size 9 to 14) (size 15 to 20)
#    0.000    2.000    5.000    0.750    0.000    1.000 
#    4.500    8.125    0.000    1.500    0.000    0.000 
#    0.000    0.000    0.000    0.000    0.000    0.000 
#
# Total GULP energy -89097.569165 kJ/mol
# GULP energy per Si atom -5568.598073 kJ/mol
# Density = 1.903105 g / cm^3
# Si number density = 19.074465 Si / 1000 Ang^3
#
#
#
# Elastic Constant Matrix: (Units=GPa)
#
#
# Indices 1 2 3 4 5 6 
#
# 1 60.5309 39.0202 18.2336 -5.5009 10.7043 2.0210
# 2 39.0202 131.2432 71.9103 -10.1526 5.9168 8.7336
# 3 18.2336 71.9103 135.2558 -21.4227 -6.3636 -0.2294
# 4 -5.5009 -10.1526 -21.4227 40.1479 2.2553 -5.1143
# 5 10.7043 5.9168 -6.3636 2.2553 22.8775 -5.2077
# 6 2.0210 8.7336 -0.2294 -5.1143 -5.2077 19.8612
#
#
#
# Elastic Compliance Matrix: (Units=1/GPa)
#
#
# Indices 1 2 3 4 5 6 
#
# 1 0.022237 -0.005937 0.000009 0.001870 -0.009424 -0.001641
# 2 -0.005937 0.013732 -0.006982 -0.001731 -0.004150 -0.007049
# 3 0.000009 -0.006982 0.012225 0.005200 0.006088 0.006146
# 4 0.001870 -0.001731 0.005200 0.028516 0.000024 0.007980
# 5 -0.009424 -0.004150 0.006088 0.000024 0.054807 0.017231
# 6 -0.001641 -0.007049 0.006146 0.007980 0.017231 0.060260
#
#
# Mechanical properties :
#
#
# Convention : Reuss Voigt Hill
#
# Bulk Modulus (GPa) = 44.69662 65.03978 54.86820
# Shear Modulus (GPa) = 22.21675 29.76838 25.99256
#
# Velocity S-wave (km/s) = 3.41653 3.95478 3.69547
# Velocity P-wave (km/s) = 6.24877 7.41792 6.85830
#
# Compressibility (1/GPa) = 0.02237306
#
# Stress axis : x y z
#
# Youngs Moduli (GPa) = 44.97094 72.82008 81.80203
#
# Poissons Ratio (x) = 0.43236 -0.00074
# Poissons Ratio (y) = 0.26701 0.57114
# Poissons Ratio (z) = -0.00041 0.50843
#
# Static dielectric constant tensor:
#      x y z
#    x 1.712000 -0.002270 -0.051250 
#    y -0.002270 1.696170 0.007640 
#    z -0.051250 0.007640 1.702390 
# 
# From -- ./inp_files/320711.got.cif
#   From: 2010.05.17/outbox.cif.g08.bks.cpg/sg2_161_cif.got.tgz:320711.got - 2010.06.03 11:33:40.
