data_PCOD9077926
_publ_section_title
;
Structure prediction by ZEFSAII (Michael W. Deem and Ramdas Pophale) SiO2 
 PCOD9077926
Probable space group: P -1
;
_chemical_formula_sum "Si O2"
_cell_formula_units_Z 12
_cell_length_a 7.846360
_cell_length_b 6.682334
_cell_length_c 20.016300
_cell_angle_alpha 49.096400
_cell_angle_beta 54.138523
_cell_angle_gamma 39.265620
_cell_volume 495.170677
_symmetry_space_group_name_H-M "P -1"
_symmetry_group_IT_number 2
_symmetry_cell_setting 'triclinic'
loop_
_space_group_symop_operation_xyz
x,y,z
-x,-y,-z
loop_
_atom_site_type_symbol
_atom_site_label
_atom_site_fract_x
_atom_site_fract_y
_atom_site_fract_z
Si Si1 0.119056 0.346226 0.614517
Si Si2 0.743006 0.612909 0.181056
Si Si3 0.918918 0.979617 0.435829
Si Si4 0.502402 0.239008 0.650819
Si Si5 0.191261 0.836555 0.199954
Si Si6 0.220352 0.111288 0.010010
O O1 0.402746 0.139169 0.634351
O O2 0.005129 0.717884 0.533429
O O3 0.135505 0.157253 0.586140
O O4 0.916588 0.356191 0.708349
O O5 0.649137 0.726935 0.253602
O O6 0.006874 0.215746 0.194529
O O7 0.497208 0.644947 0.195904
O O8 0.771320 0.862310 0.077407
O O9 0.181448 0.955593 0.367050
O O10 0.643864 0.366163 0.421268
O O11 0.168657 0.889648 0.113276
O O12 0.000000 0.500000 0.000000
O O13 0.500000 0.000000 0.000000
#
# Coordination Sequence:
#
# PCOD9077926 Si02
#       6
#     2   2   2   2   2   2
#     4  11  24  40  64  86 117 160 195 242 292 344
#     4  10  18  35  56  83 115 148 186 239 286 339
#     4  11  26  42  58  87 122 154 198 241 290 348
#     4  12  23  41  61  88 119 155 196 241 293 346
#     4  10  19  36  55  84 113 149 192 233 285 344
#     4   8  16  29  54  78 109 148 183 226 288 339
#
# _framework density 24.234069000000002
#
# number of rings (size 3 to 8) (size 9 to 14) (size 15 to 20)
#    0.000    1.667    3.333    1.000    0.000    6.667 
#    0.000    0.833    0.000    0.000    0.000   16.333 
#    0.000    0.000    0.000    0.000    0.000    0.000 
#
# Total GULP energy -67136.467160 kJ/mol
# GULP energy per Si atom -5594.705597 kJ/mol
# Density = 2.417891 g / cm^3
# Si number density = 24.234069 Si / 1000 Ang^3
#
#
#
# Elastic Constant Matrix: (Units=GPa)
#
#
# Indices 1 2 3 4 5 6 
#
# 1 99.1152 16.3277 21.9470 2.4705 25.6090 -3.0871
# 2 16.3277 88.2776 -1.4370 7.2646 -0.3270 -19.3024
# 3 21.9470 -1.4370 185.4171 -1.5555 32.7804 9.0215
# 4 2.4705 7.2646 -1.5555 29.6136 -2.3619 4.3096
# 5 25.6090 -0.3270 32.7804 -2.3619 32.4910 3.2239
# 6 -3.0871 -19.3024 9.0215 4.3096 3.2239 20.3661
#
#
#
# Elastic Compliance Matrix: (Units=1/GPa)
#
#
# Indices 1 2 3 4 5 6 
#
# 1 0.013337 -0.001840 0.000249 -0.001876 -0.011150 0.002329
# 2 -0.001840 0.015671 -0.000509 -0.006048 0.000088 0.016064
# 3 0.000249 -0.000509 0.006656 0.000271 -0.006659 -0.002396
# 4 -0.001876 -0.006048 0.000271 0.038043 0.005403 -0.015042
# 5 -0.011150 0.000088 -0.006659 0.005403 0.047403 -0.007304
# 6 0.002329 0.016064 -0.002396 -0.015042 -0.007304 0.070080
#
#
# Mechanical properties :
#
#
# Convention : Reuss Voigt Hill
#
# Bulk Modulus (GPa) = 31.78196 49.60949 40.69573
# Shear Modulus (GPa) = 24.28628 38.89229 31.58929
#
# Velocity S-wave (km/s) = 3.16912 4.01042 3.61433
# Velocity P-wave (km/s) = 5.15113 6.47765 5.85210
#
# Compressibility (1/GPa) = 0.03146439
#
# Stress axis : x y z
#
# Youngs Moduli (GPa) = 74.97685 63.81353 150.24082
#
# Poissons Ratio (x) = 0.11745 -0.03744
# Poissons Ratio (y) = 0.13799 0.07641
# Poissons Ratio (z) = -0.01868 0.03245
#
# Static dielectric constant tensor:
#      x y z
#    x 1.916500 0.037530 0.011880 
#    y 0.037530 1.881440 0.003630 
#    z 0.011880 0.003630 2.027900 
# 
# From -- ./inp_files/76233.got.cif
#   From: 2010.05.17/outbox.cif.g08.bks.cpg/sg2_39_cif.got.tgz:76233.got - 2010.06.03 11:33:40.
