data_PCOD9077706
_publ_section_title
;
Structure prediction by ZEFSAII (Michael W. Deem and Ramdas Pophale) SiO2 
 PCOD9077706
Probable space group: P -1
;
_chemical_formula_sum "Si O2"
_cell_formula_units_Z 14
_cell_length_a 11.235848
_cell_length_b 13.316131
_cell_length_c 8.166196
_cell_angle_alpha 77.124978
_cell_angle_beta 106.614861
_cell_angle_gamma 146.704845
_cell_volume 642.407901
_symmetry_space_group_name_H-M "P -1"
_symmetry_group_IT_number 2
_symmetry_cell_setting 'triclinic'
loop_
_space_group_symop_operation_xyz
x,y,z
-x,-y,-z
loop_
_atom_site_type_symbol
_atom_site_label
_atom_site_fract_x
_atom_site_fract_y
_atom_site_fract_z
Si Si1 0.356449 0.634645 0.757583
Si Si2 0.806905 0.691008 0.022346
Si Si3 0.677254 0.205229 0.879048
Si Si4 0.417530 0.391086 0.741032
Si Si5 0.044470 0.597338 0.746813
Si Si6 0.693661 0.495635 0.549627
Si Si7 0.692976 0.987848 0.969119
O O1 0.241282 0.457659 0.868004
O O2 0.404523 0.635898 0.591660
O O3 0.564320 0.814137 0.878515
O O4 0.195933 0.623653 0.696015
O O5 0.761899 0.738923 0.137354
O O6 0.622683 0.583219 0.850938
O O7 0.049506 0.858976 0.982759
O O8 0.817763 0.379707 0.766113
O O9 0.663253 0.081878 0.843557
O O10 0.442850 0.088042 0.888634
O O11 0.826105 0.296518 0.070781
O O12 0.542611 0.387886 0.691644
O O13 0.312902 0.392766 0.562381
O O14 0.946480 0.634871 0.624421
#
# Coordination Sequence:
#
# PCOD9077706 Si02
#       7
#     2   2   2   2   2   2   2
#     4  10  21  35  61  93 112 149 185 232 298 345
#     4  10  19  40  64  83 113 147 199 243 270 330
#     4   9  19  32  56  96 113 142 192 229 294 344
#     4   9  21  37  61  84 107 163 198 224 283 332
#     4  10  18  34  63  86 117 150 181 238 293 339
#     4  10  20  36  58  84 120 152 191 229 283 348
#     4  10  19  34  58  89 118 140 188 244 283 335
#
# _framework density 21.793008
#
# number of rings (size 3 to 8) (size 9 to 14) (size 15 to 20)
#    0.000    2.286    1.429    1.286    4.000    0.000 
#    0.000    7.857   22.000    0.000    0.000    0.000 
#    0.000    0.000    0.000    0.000    0.000    0.000 
#
# Total GULP energy -78072.485113 kJ/mol
# GULP energy per Si atom -5576.606080 kJ/mol
# Density = 2.174341 g / cm^3
# Si number density = 21.793008 Si / 1000 Ang^3
#
#
#
# Elastic Constant Matrix: (Units=GPa)
#
#
# Indices 1 2 3 4 5 6 
#
# 1 114.6641 13.8656 24.3993 -1.0376 2.6098 21.5135
# 2 13.8656 81.8688 -4.1490 3.4240 -0.2880 19.3743
# 3 24.3993 -4.1490 41.2308 -6.4623 2.0056 0.3025
# 4 -1.0376 3.4240 -6.4623 8.8110 -0.5264 -1.2876
# 5 2.6098 -0.2880 2.0056 -0.5264 36.9890 7.7608
# 6 21.5135 19.3743 0.3025 -1.2876 7.7608 40.5244
#
#
#
# Elastic Compliance Matrix: (Units=1/GPa)
#
#
# Indices 1 2 3 4 5 6 
#
# 1 0.011494 -0.000707 -0.007618 -0.004790 0.000789 -0.006010
# 2 -0.000707 0.014271 0.000911 -0.005884 0.001481 -0.006924
# 3 -0.007618 0.000911 0.032539 0.023156 -0.001824 0.004451
# 4 -0.004790 -0.005884 0.023156 0.133543 -0.001084 0.009634
# 5 0.000789 0.001481 -0.001824 -0.001084 0.028459 -0.006598
# 6 -0.006010 -0.006924 0.004451 0.009634 -0.006598 0.032714
#
#
# Mechanical properties :
#
#
# Convention : Reuss Voigt Hill
#
# Bulk Modulus (GPa) = 23.00170 33.99948 28.50059
# Shear Modulus (GPa) = 17.70917 30.84139 24.27528
#
# Velocity S-wave (km/s) = 2.85372 3.76599 3.34114
# Velocity P-wave (km/s) = 4.62988 5.87752 5.29061
#
# Compressibility (1/GPa) = 0.04347504
#
# Stress axis : x y z
#
# Youngs Moduli (GPa) = 87.00140 70.07413 30.73237
#
# Poissons Ratio (x) = 0.04956 0.23412
# Poissons Ratio (y) = 0.06154 -0.02800
# Poissons Ratio (z) = 0.66279 -0.06385
#
# Static dielectric constant tensor:
#      x y z
#    x 1.895580 -0.033030 0.013870 
#    y -0.033030 1.798700 -0.036850 
#    z 0.013870 -0.036850 1.818180 
# 
# From -- ./inp_files/249574.got.cif
#   From: 2010.05.17/outbox.cif.g08.bks.cpg/sg2_125_cif.got.tgz:249574.got - 2010.06.03 11:33:40.
