data_PCOD9077361
_publ_section_title
;
Structure prediction by ZEFSAII (Michael W. Deem and Ramdas Pophale) SiO2 
 PCOD9077361
Probable space group: P -1
;
_chemical_formula_sum "Si O2"
_cell_formula_units_Z 16
_cell_length_a 8.288914
_cell_length_b 8.528874
_cell_length_c 18.972984
_cell_angle_alpha 82.711457
_cell_angle_beta 29.791302
_cell_angle_gamma 88.512621
_cell_volume 651.322379
_symmetry_space_group_name_H-M "P -1"
_symmetry_group_IT_number 2
_symmetry_cell_setting 'triclinic'
loop_
_space_group_symop_operation_xyz
x,y,z
-x,-y,-z
loop_
_atom_site_type_symbol
_atom_site_label
_atom_site_fract_x
_atom_site_fract_y
_atom_site_fract_z
Si Si1 0.588427 0.326008 0.615023
Si Si2 0.501829 0.195461 0.028832
Si Si3 0.820825 0.797386 0.996272
Si Si4 0.372086 0.369153 0.329409
Si Si5 0.239547 0.931561 0.259631
Si Si6 0.508900 0.960086 0.706177
Si Si7 0.462321 0.467695 0.134963
Si Si8 0.084229 0.316405 0.700078
O O1 0.478264 0.461323 0.700786
O O2 0.978157 0.353791 0.477790
O O3 0.443797 0.369002 0.592174
O O4 0.490709 0.132386 0.670099
O O5 0.268277 0.152806 0.052108
O O6 0.470514 0.359231 0.070287
O O7 0.387686 0.065753 0.139455
O O8 0.863106 0.227086 0.854332
O O9 0.163973 0.899312 0.880544
O O10 0.530697 0.824141 0.157784
O O11 0.779686 0.607506 0.012860
O O12 0.457004 0.203560 0.338704
O O13 0.460989 0.372386 0.213133
O O14 0.936104 0.813321 0.347416
O O15 0.205851 0.004313 0.344528
O O16 0.137198 0.552214 0.246802
#
# Coordination Sequence:
#
# PCOD9077361 Si02
#       8
#     2   2   2   2   2   2   2   2
#     4  11  25  46  65  88 124 169 218 256 308 364
#     4  10  18  34  58  92 127 157 198 253 309 379
#     4  10  21  34  60  94 128 164 196 247 321 379
#     4  11  26  44  65  90 125 170 211 261 305 368
#     4  10  19  36  58  92 127 161 197 256 313 370
#     4  12  23  41  66  92 130 163 210 256 312 371
#     4  10  21  39  59  95 128 153 208 256 313 371
#     4  10  21  38  64  86 125 165 202 256 313 364
#
# _framework density 24.565408000000001
#
# number of rings (size 3 to 8) (size 9 to 14) (size 15 to 20)
#    0.000    1.750    1.250    6.750    3.500    2.000 
#    0.000    0.625    0.000    0.000    0.000    0.000 
#    0.000    0.000    0.000    0.000    0.000    0.000 
#
# Total GULP energy -89320.919031 kJ/mol
# GULP energy per Si atom -5582.557439 kJ/mol
# Density = 2.450950 g / cm^3
# Si number density = 24.565408 Si / 1000 Ang^3
#
#
#
# Elastic Constant Matrix: (Units=GPa)
#
#
# Indices 1 2 3 4 5 6 
#
# 1 72.2317 53.1472 -3.8814 10.4451 -2.8794 1.2709
# 2 53.1472 158.0493 18.8831 1.9532 -1.2373 11.0216
# 3 -3.8814 18.8831 23.1585 2.2232 -4.5673 -3.3809
# 4 10.4451 1.9532 2.2232 17.2176 2.7344 6.8964
# 5 -2.8794 -1.2373 -4.5673 2.7344 32.0208 -1.3814
# 6 1.2709 11.0216 -3.3809 6.8964 -1.3814 36.6482
#
#
#
# Elastic Compliance Matrix: (Units=1/GPa)
#
#
# Indices 1 2 3 4 5 6 
#
# 1 0.026420 -0.011347 0.018328 -0.021587 0.006762 0.008504
# 2 -0.011347 0.012201 -0.014628 0.010718 -0.003843 -0.006787
# 3 0.018328 -0.014628 0.065540 -0.026138 0.013320 0.015231
# 4 -0.021587 0.010718 -0.026138 0.083939 -0.013337 -0.021184
# 5 0.006762 -0.003843 0.013320 -0.013337 0.034986 0.005979
# 6 0.008504 -0.006787 0.015231 -0.021184 0.005979 0.034650
#
#
# Mechanical properties :
#
#
# Convention : Reuss Voigt Hill
#
# Bulk Modulus (GPa) = 11.25292 43.30413 27.27852
# Shear Modulus (GPa) = 16.52054 29.53001 23.02527
#
# Velocity S-wave (km/s) = 2.59610 3.47089 3.06486
# Velocity P-wave (km/s) = 3.68470 5.80768 4.86344
#
# Compressibility (1/GPa) = 0.08886585
#
# Stress axis : x y z
#
# Youngs Moduli (GPa) = 37.85014 81.95773 15.25785
#
# Poissons Ratio (x) = 0.93000 -0.27964
# Poissons Ratio (y) = 0.42950 0.22320
# Poissons Ratio (z) = -0.69372 1.19891
#
# Static dielectric constant tensor:
#      x y z
#    x 1.938390 -0.039940 -0.009270 
#    y -0.039940 2.009160 0.013930 
#    z -0.009270 0.013930 1.994350 
# 
# From -- ./inp_files/179100.got.cif
#   From: 2010.05.17/outbox.cif.g08.bks.cpg/sg2_90_cif.got.tgz:179100.got - 2010.06.03 11:33:40.
