data_PCOD9077302
_publ_section_title
;
Structure prediction by ZEFSAII (Michael W. Deem and Ramdas Pophale) SiO2 
 PCOD9077302
Probable space group: P -1
;
_chemical_formula_sum "Si O2"
_cell_formula_units_Z 16
_cell_length_a 19.240355
_cell_length_b 9.730183
_cell_length_c 12.903571
_cell_angle_alpha 56.234451
_cell_angle_beta 51.903270
_cell_angle_gamma 104.598164
_cell_volume 657.281897
_symmetry_space_group_name_H-M "P -1"
_symmetry_group_IT_number 2
_symmetry_cell_setting 'triclinic'
loop_
_space_group_symop_operation_xyz
x,y,z
-x,-y,-z
loop_
_atom_site_type_symbol
_atom_site_label
_atom_site_fract_x
_atom_site_fract_y
_atom_site_fract_z
Si Si1 0.396509 0.567562 0.282976
Si Si2 0.773151 0.193708 0.372627
Si Si3 0.216916 0.574324 0.541230
Si Si4 0.746059 0.596215 0.917364
Si Si5 0.744906 0.253231 0.154468
Si Si6 0.722972 0.879639 0.951577
Si Si7 0.773625 0.856646 0.591523
Si Si8 0.109270 0.758016 0.133973
O O1 0.263409 0.462658 0.522771
O O2 0.253999 0.256879 0.451113
O O3 0.583535 0.991212 0.877821
O O4 0.516051 0.625543 0.209418
O O5 0.794411 0.387811 0.345386
O O6 0.690703 0.904553 0.643634
O O7 0.660612 0.048093 0.429353
O O8 0.000000 0.500000 0.000000
O O9 0.011447 0.298681 0.788333
O O10 0.661479 0.271399 0.163039
O O11 0.680346 0.568002 0.880398
O O12 0.727089 0.699931 0.982376
O O13 0.000000 0.000000 0.500000
O O14 0.756360 0.120059 0.121532
O O15 0.984259 0.711453 0.775179
O O16 0.759209 0.957608 0.007679
O O17 0.924126 0.317647 0.530128
#
# Coordination Sequence:
#
# PCOD9077302 Si02
#       8
#     2   2   2   2   2   2   2   2
#     4  10  23  36  58  91 123 155 196 246 304 356
#     4  10  19  38  60  88 119 156 201 250 291 350
#     4  10  20  37  57  89 118 157 198 243 299 355
#     4  10  19  33  54  90 116 145 198 250 290 336
#     4  10  20  36  59  92 115 151 200 252 297 342
#     4  10  20  34  55  84 118 154 191 247 296 346
#     4  10  19  36  59  86 120 153 196 248 296 348
#     4  10  18  34  58  82 117 152 197 242 292 345
#
# _framework density 24.342677999999999
#
# number of rings (size 3 to 8) (size 9 to 14) (size 15 to 20)
#    0.000    2.000    5.000    0.750    3.500    4.000 
#    0.000    3.750    0.000    8.250    0.000    0.000 
#    0.000    0.000    0.000    0.000    0.000    0.000 
#
# Total GULP energy -89555.061707 kJ/mol
# GULP energy per Si atom -5597.191357 kJ/mol
# Density = 2.428727 g / cm^3
# Si number density = 24.342678 Si / 1000 Ang^3
#
#
#
# Elastic Constant Matrix: (Units=GPa)
#
#
# Indices 1 2 3 4 5 6 
#
# 1 153.0501 70.3794 44.5869 18.6494 -16.4472 5.7931
# 2 70.3794 222.9725 47.8662 45.1286 -23.0311 14.8396
# 3 44.5869 47.8662 75.7192 20.3697 1.9225 -2.3529
# 4 18.6494 45.1286 20.3697 42.0509 -6.9709 -5.4468
# 5 -16.4472 -23.0311 1.9225 -6.9709 42.0911 3.7584
# 6 5.7931 14.8396 -2.3529 -5.4468 3.7584 45.5656
#
#
#
# Elastic Compliance Matrix: (Units=1/GPa)
#
#
# Indices 1 2 3 4 5 6 
#
# 1 0.008850 -0.001502 -0.004419 0.000178 0.002964 -0.001087
# 2 -0.001502 0.007107 -0.002200 -0.005855 0.002715 -0.003161
# 3 -0.004419 -0.002200 0.018822 -0.005341 -0.004854 0.002012
# 4 0.000178 -0.005855 -0.005341 0.033641 0.002195 0.005449
# 5 0.002964 0.002715 -0.004854 0.002195 0.027300 -0.003501
# 6 -0.001087 -0.003161 0.002012 0.005449 -0.003501 0.024158
#
#
# Mechanical properties :
#
#
# Convention : Reuss Voigt Hill
#
# Bulk Modulus (GPa) = 53.94763 86.37855 70.16309
# Shear Modulus (GPa) = 35.13715 45.20213 40.16964
#
# Velocity S-wave (km/s) = 3.80338 4.31386 4.06664
# Velocity P-wave (km/s) = 6.44185 7.77007 7.13693
#
# Compressibility (1/GPa) = 0.01853650
#
# Stress axis : x y z
#
# Youngs Moduli (GPa) = 112.99595 140.70280 53.12943
#
# Poissons Ratio (x) = 0.21139 0.23475
# Poissons Ratio (y) = 0.16977 0.11690
# Poissons Ratio (z) = 0.49927 0.30959
#
# Static dielectric constant tensor:
#      x y z
#    x 1.948100 -0.020280 0.013100 
#    y -0.020280 1.867220 -0.101120 
#    z 0.013100 -0.101120 2.423350 
# 
# From -- ./inp_files/306518.got.cif
#   From: 2010.05.17/outbox.cif.g08.bks.cpg/sg2_154_cif.got.tgz:306518.got - 2010.06.03 11:33:40.
