data_PCOD9077754
_publ_section_title
;
Structure prediction by ZEFSAII (Michael W. Deem and Ramdas Pophale) SiO2 
 PCOD9077754
Probable space group: P -1
;
_chemical_formula_sum "Si O2"
_cell_formula_units_Z 14
_cell_length_a 16.458845
_cell_length_b 15.178482
_cell_length_c 7.013862
_cell_angle_alpha 50.201047
_cell_angle_beta 59.414357
_cell_angle_gamma 25.578851
_cell_volume 568.689284
_symmetry_space_group_name_H-M "P -1"
_symmetry_group_IT_number 2
_symmetry_cell_setting 'triclinic'
loop_
_space_group_symop_operation_xyz
x,y,z
-x,-y,-z
loop_
_atom_site_type_symbol
_atom_site_label
_atom_site_fract_x
_atom_site_fract_y
_atom_site_fract_z
Si Si1 0.299180 0.691887 0.380944
Si Si2 0.552735 0.935784 0.803525
Si Si3 0.764016 0.505154 0.262455
Si Si4 0.223731 0.435792 0.414262
Si Si5 0.866783 0.796492 0.583394
Si Si6 0.075964 0.808144 0.930606
Si Si7 0.779299 0.135128 0.156748
O O1 0.500000 0.500000 0.500000
O O2 0.231774 0.634275 0.587060
O O3 0.335380 0.679955 0.129133
O O4 0.122463 0.965120 0.258724
O O5 0.372166 0.175274 0.566758
O O6 0.734084 0.827856 0.717383
O O7 0.500000 0.000000 0.000000
O O8 0.619698 0.733578 0.992520
O O9 0.699578 0.586626 0.449615
O O10 0.977217 0.337719 0.250820
O O11 0.009044 0.624714 0.471036
O O12 0.191888 0.568983 0.113217
O O13 0.735065 0.050649 0.371508
O O14 0.193790 0.801200 0.797663
O O15 0.988863 0.896365 0.131658
#
# Coordination Sequence:
#
# PCOD9077754 Si02
#       7
#     2   2   2   2   2   2   2
#     4  10  15  24  48  75  89 120 160 187 227 275
#     4  10  19  25  43  75  95 120 153 188 236 269
#     4   9  15  27  41  65 104 118 141 198 229 268
#     4   8  15  27  46  64  99 118 150 180 233 276
#     4   9  15  28  46  65  98 123 148 187 235 271
#     4   8  11  26  43  64  94 121 143 191 231 267
#     4   8  12  25  44  63  93 120 146 187 235 262
#
# _framework density 24.618013000000001
#
# number of rings (size 3 to 8) (size 9 to 14) (size 15 to 20)
#    1.714    1.429    2.857    0.429    0.000    0.000 
#    0.000    0.714    0.000    1.714    0.000    9.000 
#    0.000    0.000    0.000    0.000    0.000    0.000 
#
# Total GULP energy -78011.639441 kJ/mol
# GULP energy per Si atom -5572.259960 kJ/mol
# Density = 2.456198 g / cm^3
# Si number density = 24.618013 Si / 1000 Ang^3
#
#
#
# Elastic Constant Matrix: (Units=GPa)
#
#
# Indices 1 2 3 4 5 6 
#
# 1 46.6863 44.1890 30.3819 -17.1665 -4.0832 10.7003
# 2 44.1890 101.6849 64.3034 -15.1453 -12.4493 -3.9802
# 3 30.3819 64.3034 209.7492 -47.5764 -18.4925 -5.0295
# 4 -17.1665 -15.1453 -47.5764 41.3480 -1.0623 4.2295
# 5 -4.0832 -12.4493 -18.4925 -1.0623 32.2685 -10.5379
# 6 10.7003 -3.9802 -5.0295 4.2295 -10.5379 32.8047
#
#
#
# Elastic Compliance Matrix: (Units=1/GPa)
#
#
# Indices 1 2 3 4 5 6 
#
# 1 0.056029 -0.025245 0.002603 0.019474 -0.009133 -0.026384
# 2 -0.025245 0.023942 -0.004508 -0.008129 0.007760 0.013989
# 3 0.002603 -0.004508 0.008074 0.008828 0.003446 -0.000189
# 4 0.019474 -0.008129 0.008828 0.040581 0.002301 -0.010478
# 5 -0.009133 0.007760 0.003446 0.002301 0.040482 0.017156
# 6 -0.026384 0.013989 -0.000189 -0.010478 0.017156 0.047620
#
#
# Mechanical properties :
#
#
# Convention : Reuss Voigt Hill
#
# Bulk Modulus (GPa) = 29.63292 70.65211 50.14252
# Shear Modulus (GPa) = 17.71320 35.90065 26.80693
#
# Velocity S-wave (km/s) = 2.68530 3.82292 3.30345
# Velocity P-wave (km/s) = 4.65593 6.94608 5.91294
#
# Compressibility (1/GPa) = 0.03374625
#
# Stress axis : x y z
#
# Youngs Moduli (GPa) = 17.84790 41.76715 123.85122
#
# Poissons Ratio (x) = 1.05440 -0.32238
# Poissons Ratio (y) = 0.45057 0.55829
# Poissons Ratio (z) = -0.04646 0.18828
#
# Static dielectric constant tensor:
#      x y z
#    x 2.007860 0.099800 0.015790 
#    y 0.099800 1.998060 0.009060 
#    z 0.015790 0.009060 2.010290 
# 
# From -- ./inp_files/472805.got.cif
#   From: 2010.05.17/outbox.cif.g08.bks.cpg/sg2_237_cif.got.tgz:472805.got - 2010.06.03 11:33:40.
