data_PCOD9077621
_publ_section_title
;
Structure prediction by ZEFSAII (Michael W. Deem and Ramdas Pophale) SiO2 
 PCOD9077621
Probable space group: P -1
;
_chemical_formula_sum "Si O2"
_cell_formula_units_Z 16
_cell_length_a 14.334815
_cell_length_b 8.376565
_cell_length_c 9.522784
_cell_angle_alpha 107.235356
_cell_angle_beta 80.989261
_cell_angle_gamma 136.167032
_cell_volume 753.529066
_symmetry_space_group_name_H-M "P -1"
_symmetry_group_IT_number 2
_symmetry_cell_setting 'triclinic'
loop_
_space_group_symop_operation_xyz
x,y,z
-x,-y,-z
loop_
_atom_site_type_symbol
_atom_site_label
_atom_site_fract_x
_atom_site_fract_y
_atom_site_fract_z
Si Si1 0.416536 0.548200 0.866036
Si Si2 0.340939 0.922183 0.548460
Si Si3 0.129171 0.715752 0.938588
Si Si4 0.466089 0.809404 0.669849
Si Si5 0.077409 0.731225 0.638743
Si Si6 0.817505 0.561233 0.720110
Si Si7 0.295425 0.247690 0.084452
Si Si8 0.320869 0.754220 0.072498
O O1 0.387432 0.570103 0.717708
O O2 0.558889 0.633775 0.867484
O O3 0.313460 0.316538 0.931504
O O4 0.415946 0.722493 0.997259
O O5 0.393991 0.893663 0.667361
O O6 0.230799 0.927538 0.598429
O O7 0.267562 0.674695 0.418669
O O8 0.464120 0.147569 0.484268
O O9 0.093241 0.675684 0.774736
O O10 0.251023 0.744924 0.952811
O O11 0.000000 0.500000 0.000000
O O12 0.184074 0.963630 0.041092
O O13 0.591953 0.009309 0.794264
O O14 0.000000 0.500000 0.500000
O O15 0.973175 0.753124 0.683795
O O16 0.751180 0.657504 0.782718
O O17 0.798966 0.461489 0.854312
#
# Coordination Sequence:
#
# PCOD9077621 Si02
#       8
#     2   2   2   2   2   2   2   2
#     4  10  20  37  59  89 130 158 194 261 314 370
#     4   9  20  34  63  92 119 167 211 250 305 372
#     4  12  23  39  67  94 116 161 219 260 304 374
#     4  10  18  34  61  91 123 156 207 261 302 362
#     4  10  21  38  62  86 121 162 206 254 306 362
#     4   9  19  40  56  85 130 163 200 253 309 366
#     4  10  23  37  61  92 127 162 199 258 325 362
#     4  10  19  34  61  93 118 153 209 263 303 352
#
# _framework density 21.233419999999999
#
# number of rings (size 3 to 8) (size 9 to 14) (size 15 to 20)
#    0.000    2.000    2.500    1.125    1.750    0.500 
#    2.250    0.625    2.750    3.750    0.000    0.000 
#    0.000    0.000    0.000    0.000    0.000    0.000 
#
# Total GULP energy -89168.452836 kJ/mol
# GULP energy per Si atom -5573.028302 kJ/mol
# Density = 2.118509 g / cm^3
# Si number density = 21.233420 Si / 1000 Ang^3
#
#
#
# Elastic Constant Matrix: (Units=GPa)
#
#
# Indices 1 2 3 4 5 6 
#
# 1 130.3359 14.7070 32.4348 -3.3208 -22.2961 10.5257
# 2 14.7070 68.1472 1.6347 -15.8505 -18.0998 2.3772
# 3 32.4348 1.6347 65.4173 -6.1551 -5.3599 2.4940
# 4 -3.3208 -15.8505 -6.1551 26.4272 4.0577 -4.1241
# 5 -22.2961 -18.0998 -5.3599 4.0577 37.9062 -6.9924
# 6 10.5257 2.3772 2.4940 -4.1241 -6.9924 28.3087
#
#
#
# Elastic Compliance Matrix: (Units=1/GPa)
#
#
# Indices 1 2 3 4 5 6 
#
# 1 0.009819 -0.001136 -0.004541 -0.001530 0.004329 -0.002309
# 2 -0.001136 0.019535 0.001697 0.011072 0.008130 0.002254
# 3 -0.004541 0.001697 0.017934 0.004690 0.000307 0.000725
# 4 -0.001530 0.011072 0.004690 0.046164 0.001264 0.006263
# 5 0.004329 0.008130 0.000307 0.001264 0.033866 0.006230
# 6 -0.002309 0.002254 0.000725 0.006263 0.006230 0.038382
#
#
# Mechanical properties :
#
#
# Convention : Reuss Voigt Hill
#
# Bulk Modulus (GPa) = 25.42724 40.16149 32.79437
# Shear Modulus (GPa) = 26.77106 32.87002 29.82054
#
# Velocity S-wave (km/s) = 3.55462 3.93877 3.75162
# Velocity P-wave (km/s) = 5.37106 6.29608 5.85187
#
# Compressibility (1/GPa) = 0.03932790
#
# Stress axis : x y z
#
# Youngs Moduli (GPa) = 101.84637 51.19143 55.75875
#
# Poissons Ratio (x) = 0.05814 0.25321
# Poissons Ratio (y) = 0.11566 -0.09462
# Poissons Ratio (z) = 0.46250 -0.08687
#
# Static dielectric constant tensor:
#      x y z
#    x 1.819740 0.007890 -0.009120 
#    y 0.007890 1.822950 -0.050630 
#    z -0.009120 -0.050630 1.773450 
# 
# From -- ./inp_files/299196.got.cif
#   From: 2010.05.17/outbox.cif.g08.bks.cpg/sg2_150_cif.got.tgz:299196.got - 2010.06.03 11:33:40.
