data_PCOD9077203
_publ_section_title
;
Structure prediction by ZEFSAII (Michael W. Deem and Ramdas Pophale) SiO2 
 PCOD9077203
Probable space group: P -1
;
_chemical_formula_sum "Si O2"
_cell_formula_units_Z 14
_cell_length_a 8.652525
_cell_length_b 8.208951
_cell_length_c 13.614025
_cell_angle_alpha 122.309499
_cell_angle_beta 134.367645
_cell_angle_gamma 84.199578
_cell_volume 521.348436
_symmetry_space_group_name_H-M "P -1"
_symmetry_group_IT_number 2
_symmetry_cell_setting 'triclinic'
loop_
_space_group_symop_operation_xyz
x,y,z
-x,-y,-z
loop_
_atom_site_type_symbol
_atom_site_label
_atom_site_fract_x
_atom_site_fract_y
_atom_site_fract_z
Si Si1 0.381614 0.086033 0.754563
Si Si2 0.094063 0.287402 0.568572
Si Si3 0.764863 0.471644 0.672878
Si Si4 0.820893 0.458726 0.998085
Si Si5 0.238155 0.203664 0.388145
Si Si6 0.500333 0.284636 0.084137
Si Si7 0.860156 0.854444 0.981660
O O1 0.219410 0.196878 0.674693
O O2 0.447378 0.164186 0.920023
O O3 0.636590 0.205739 0.849514
O O4 0.194979 0.834029 0.583895
O O5 0.167127 0.227603 0.475438
O O6 0.226444 0.545744 0.718773
O O7 0.516646 0.256088 0.508241
O O8 0.781862 0.610132 0.628118
O O9 0.008615 0.455515 0.802732
O O10 0.755808 0.624183 0.807248
O O11 0.654623 0.577714 0.947481
O O12 0.000000 0.500000 0.000000
O O13 0.056180 0.966765 0.191714
O O14 0.372545 0.134616 0.071891
O O15 0.000000 0.000000 0.000000
#
# Coordination Sequence:
#
# PCOD9077203 Si02
#       7
#     2   2   2   2   2   2   2
#     4  10  22  36  58  84 113 149 190 225 279 344
#     4  10  18  34  57  82 104 147 195 222 270 330
#     4  10  20  36  54  84 116 144 186 237 279 328
#     4  11  20  36  59  83 117 146 180 238 291 318
#     4  10  19  34  59  82 108 151 192 227 275 339
#     4  11  20  38  61  82 115 152 185 232 277 335
#     4  10  19  33  57  85 110 146 191 225 273 333
#
# _framework density 26.853439999999999
#
# number of rings (size 3 to 8) (size 9 to 14) (size 15 to 20)
#    0.000    1.714    4.286    2.571    0.000    0.000 
#    0.000    7.143    0.000    3.429    0.000    0.000 
#    0.000    0.000    0.000    0.000    0.000    0.000 
#
# Total GULP energy -78330.881486 kJ/mol
# GULP energy per Si atom -5595.062963 kJ/mol
# Density = 2.679232 g / cm^3
# Si number density = 26.853440 Si / 1000 Ang^3
#
#
#
# Elastic Constant Matrix: (Units=GPa)
#
#
# Indices 1 2 3 4 5 6 
#
# 1 130.3496 51.6491 49.3385 3.7175 4.8956 28.2298
# 2 51.6491 67.7776 29.5578 0.8595 8.3237 14.5832
# 3 49.3385 29.5578 194.3343 44.9782 24.0094 14.7873
# 4 3.7175 0.8595 44.9782 48.2034 17.1631 14.8489
# 5 4.8956 8.3237 24.0094 17.1631 56.9893 3.3486
# 6 28.2298 14.5832 14.7873 14.8489 3.3486 42.8239
#
#
#
# Elastic Compliance Matrix: (Units=1/GPa)
#
#
# Indices 1 2 3 4 5 6 
#
# 1 0.012767 -0.007434 -0.002425 0.003163 0.000421 -0.006177
# 2 -0.007434 0.022166 -0.001779 0.003804 -0.002811 -0.003133
# 3 -0.002425 -0.001779 0.007651 -0.007348 -0.000669 0.002162
# 4 0.003163 0.003804 -0.007348 0.033490 -0.007118 -0.011899
# 5 0.000421 -0.002811 -0.000669 -0.007118 0.020242 0.001796
# 6 -0.006177 -0.003133 0.002162 -0.011899 0.001796 0.031729
#
#
# Mechanical properties :
#
#
# Convention : Reuss Voigt Hill
#
# Bulk Modulus (GPa) = 51.79095 72.61692 62.20393
# Shear Modulus (GPa) = 31.69468 47.06439 39.37954
#
# Velocity S-wave (km/s) = 3.43925 4.19100 3.83359
# Velocity P-wave (km/s) = 5.92450 7.10774 6.54292
#
# Compressibility (1/GPa) = 0.01930839
#
# Stress axis : x y z
#
# Youngs Moduli (GPa) = 78.32789 45.11433 130.70702
#
# Poissons Ratio (x) = 0.33539 0.31693
# Poissons Ratio (y) = 0.58230 0.23248
# Poissons Ratio (z) = 0.18992 0.08024
#
# Static dielectric constant tensor:
#      x y z
#    x 2.090840 -0.034180 0.088560 
#    y -0.034180 2.387880 -0.066730 
#    z 0.088560 -0.066730 2.141560 
# 
# From -- ./inp_files/181273.got.cif
#   From: 2010.05.17/outbox.cif.g08.bks.cpg/sg2_91_cif.got.tgz:181273.got - 2010.06.03 11:33:40.
