data_PCOD9077400
_publ_section_title
;
Structure prediction by ZEFSAII (Michael W. Deem and Ramdas Pophale) SiO2 
 PCOD9077400
Probable space group: P -1
;
_chemical_formula_sum "Si O2"
_cell_formula_units_Z 16
_cell_length_a 15.297710
_cell_length_b 16.009841
_cell_length_c 11.854135
_cell_angle_alpha 142.329079
_cell_angle_beta 25.597583
_cell_angle_gamma 149.427908
_cell_volume 636.486787
_symmetry_space_group_name_H-M "P -1"
_symmetry_group_IT_number 2
_symmetry_cell_setting 'triclinic'
loop_
_space_group_symop_operation_xyz
x,y,z
-x,-y,-z
loop_
_atom_site_type_symbol
_atom_site_label
_atom_site_fract_x
_atom_site_fract_y
_atom_site_fract_z
Si Si1 0.222365 0.764642 0.885611
Si Si2 0.976061 0.029038 0.759680
Si Si3 0.144154 0.430198 0.199191
Si Si4 0.711230 0.517171 0.165491
Si Si5 0.299797 0.871072 0.506403
Si Si6 0.556620 0.760153 0.669777
Si Si7 0.391064 0.267150 0.989963
Si Si8 0.655986 0.836342 0.325783
O O1 0.383578 0.798817 0.845648
O O2 0.375533 0.729156 0.579585
O O3 0.843511 0.555353 0.932998
O O4 0.948361 0.614955 0.073759
O O5 0.813314 0.096875 0.979350
O O6 0.172660 0.078245 0.484712
O O7 0.158481 0.143724 0.772755
O O8 0.827145 0.846075 0.790539
O O9 0.434225 0.534428 0.001356
O O10 0.000000 0.500000 0.500000
O O11 0.962156 0.245480 0.257835
O O12 0.569509 0.608788 0.439212
O O13 0.546582 0.324627 0.180190
O O14 0.413410 0.770849 0.234055
O O15 0.500000 0.000000 0.500000
O O16 0.285894 0.979944 0.545785
O O17 0.326157 0.204713 0.869094
#
# Coordination Sequence:
#
# PCOD9077400 Si02
#       8
#     2   2   2   2   2   2   2   2
#     4  10  18  34  59  85 113 148 199 257 297 334
#     4  10  20  33  57  85 112 153 204 253 289 347
#     4  10  21  35  61  89 125 161 189 238 309 368
#     4  10  19  37  60  85 125 150 193 251 301 351
#     4   9  17  31  56  83 114 154 197 239 292 349
#     4   9  21  34  59  94 110 151 205 252 291 345
#     4  10  19  34  52  83 121 159 190 242 306 352
#     4  10  19  32  57  86 115 149 207 248 291 352
#
# _framework density 25.137992000000001
#
# number of rings (size 3 to 8) (size 9 to 14) (size 15 to 20)
#    0.000    2.250    1.250    3.000    5.250    0.000 
#    0.000    1.250    5.500    0.750    0.000    0.000 
#    0.000    0.000    0.000    0.000    0.000    0.000 
#
# Total GULP energy -89153.270527 kJ/mol
# GULP energy per Si atom -5572.079408 kJ/mol
# Density = 2.508078 g / cm^3
# Si number density = 25.137992 Si / 1000 Ang^3
#
#
#
# Elastic Constant Matrix: (Units=GPa)
#
#
# Indices 1 2 3 4 5 6 
#
# 1 108.7367 33.7775 37.6500 0.2875 -28.4872 -22.7565
# 2 33.7775 56.2970 41.4764 -37.0537 -9.5567 -14.8630
# 3 37.6500 41.4764 118.3436 -36.1985 -11.4911 -15.5455
# 4 0.2875 -37.0537 -36.1985 58.1351 -9.8868 -0.3002
# 5 -28.4872 -9.5567 -11.4911 -9.8868 41.6085 -4.2957
# 6 -22.7565 -14.8630 -15.5455 -0.3002 -4.2957 37.4340
#
#
#
# Elastic Compliance Matrix: (Units=1/GPa)
#
#
# Indices 1 2 3 4 5 6 
#
# 1 0.015996 -0.008918 -0.002217 -0.005831 0.007533 0.006080
# 2 -0.008918 0.058681 -0.001046 0.040071 0.018660 0.019906
# 3 -0.002217 -0.001046 0.012971 0.008156 0.004193 0.004170
# 4 -0.005831 0.040071 0.008156 0.051628 0.021657 0.018652
# 5 0.007533 0.018660 0.004193 0.021657 0.041711 0.018690
# 6 0.006080 0.019906 0.004170 0.018652 0.018690 0.042340
#
#
# Mechanical properties :
#
#
# Convention : Reuss Voigt Hill
#
# Bulk Modulus (GPa) = 15.80083 56.57613 36.18848
# Shear Modulus (GPa) = 18.60243 38.80041 28.70142
#
# Velocity S-wave (km/s) = 2.72327 3.93300 3.38265
# Velocity P-wave (km/s) = 4.02337 6.57113 5.44827
#
# Compressibility (1/GPa) = 0.06328783
#
# Stress axis : x y z
#
# Youngs Moduli (GPa) = 62.51672 17.04138 77.09305
#
# Poissons Ratio (x) = 0.15197 0.17090
# Poissons Ratio (y) = 0.55750 0.08061
# Poissons Ratio (z) = 0.13859 0.01782
#
# Static dielectric constant tensor:
#      x y z
#    x 2.074970 -0.112310 0.019550 
#    y -0.112310 2.578870 -0.054070 
#    z 0.019550 -0.054070 2.051920 
# 
# From -- ./inp_files/539009.got.cif
#   From: 2010.05.17/outbox.cif.g08.bks.cpg/sg2_270_cif.got.tgz:539009.got - 2010.06.03 11:33:40.
