data_PCOD9077149
_publ_section_title
;
Structure prediction by ZEFSAII (Michael W. Deem and Ramdas Pophale) SiO2 
 PCOD9077149
Probable space group: P -1
;
_chemical_formula_sum "Si O2"
_cell_formula_units_Z 16
_cell_length_a 10.454249
_cell_length_b 5.199697
_cell_length_c 17.194478
_cell_angle_alpha 110.486758
_cell_angle_beta 57.218198
_cell_angle_gamma 100.559238
_cell_volume 736.092416
_symmetry_space_group_name_H-M "P -1"
_symmetry_group_IT_number 2
_symmetry_cell_setting 'triclinic'
loop_
_space_group_symop_operation_xyz
x,y,z
-x,-y,-z
loop_
_atom_site_type_symbol
_atom_site_label
_atom_site_fract_x
_atom_site_fract_y
_atom_site_fract_z
Si Si1 0.752573 0.494990 0.308200
Si Si2 0.247519 0.899603 0.870977
Si Si3 0.866632 0.103522 0.659897
Si Si4 0.949442 0.215475 0.946840
Si Si5 0.893483 0.628549 0.483506
Si Si6 0.549536 0.090671 0.726494
Si Si7 0.426774 0.537350 0.393907
Si Si8 0.048697 0.994258 0.733142
O O1 0.735596 0.382487 0.212935
O O2 0.577711 0.527485 0.395817
O O3 0.824877 0.792088 0.314383
O O4 0.858294 0.265052 0.290208
O O5 0.384778 0.099179 0.822920
O O6 0.212124 0.856345 0.968606
O O7 0.087657 0.017415 0.905728
O O8 0.694447 0.209127 0.737876
O O9 0.996712 0.319781 0.619347
O O10 0.933815 0.940159 0.693985
O O11 0.853500 0.924446 0.566028
O O12 0.954748 0.168086 0.847872
O O13 0.000000 0.500000 0.000000
O O14 0.738424 0.456514 0.509549
O O15 0.000000 0.500000 0.500000
O O16 0.552881 0.231017 0.654880
O O17 0.574389 0.761405 0.678474
#
# Coordination Sequence:
#
# PCOD9077149 Si02
#       8
#     2   2   2   2   2   2   2   2
#     4  10  20  36  56  86 114 153 190 234 289 338
#     4   9  19  32  56  85 111 149 197 235 274 337
#     4  10  23  39  58  87 114 155 193 238 292 340
#     4  10  18  34  56  85 116 150 191 233 283 337
#     4  10  20  39  63  84 109 151 202 242 280 342
#     4  10  20  34  58  85 113 147 198 239 277 336
#     4  10  19  35  60  86 111 146 197 242 281 336
#     4  11  23  37  58  83 124 153 186 236 292 348
#
# _framework density 21.736402999999999
#
# number of rings (size 3 to 8) (size 9 to 14) (size 15 to 20)
#    0.000    2.000    2.500    2.250    3.500    0.000 
#    0.000    1.875    0.000    0.750    0.000    0.000 
#    0.000    0.000    0.000    0.000    0.000    0.000 
#
# Total GULP energy -89125.394914 kJ/mol
# GULP energy per Si atom -5570.337182 kJ/mol
# Density = 2.168693 g / cm^3
# Si number density = 21.736403 Si / 1000 Ang^3
#
#
#
# Elastic Constant Matrix: (Units=GPa)
#
#
# Indices 1 2 3 4 5 6 
#
# 1 100.8887 17.0505 51.0669 -17.3369 -10.3268 2.8936
# 2 17.0505 74.0764 21.3068 -10.8736 -5.9500 5.0228
# 3 51.0669 21.3068 90.0754 -27.8751 -18.0946 21.7175
# 4 -17.3369 -10.8736 -27.8751 33.1153 9.5222 -6.6581
# 5 -10.3268 -5.9500 -18.0946 9.5222 30.5458 -5.1290
# 6 2.8936 5.0228 21.7175 -6.6581 -5.1290 32.0463
#
#
#
# Elastic Compliance Matrix: (Units=1/GPa)
#
#
# Indices 1 2 3 4 5 6 
#
# 1 0.014659 -0.001002 -0.009086 0.000727 0.000016 0.005145
# 2 -0.001002 0.014720 -0.001987 0.002423 0.000550 -0.000279
# 3 -0.009086 -0.001987 0.024084 0.010889 0.005388 -0.012065
# 4 0.000727 0.002423 0.010889 0.042266 -0.006009 -0.000005
# 5 0.000016 0.000550 0.005388 -0.006009 0.038101 0.001111
# 6 0.005145 -0.000279 -0.012065 -0.000005 0.001111 0.039137
#
#
# Mechanical properties :
#
#
# Convention : Reuss Voigt Hill
#
# Bulk Modulus (GPa) = 34.11275 49.32099 41.71687
# Shear Modulus (GPa) = 24.16758 30.84922 27.50840
#
# Velocity S-wave (km/s) = 3.33806 3.77137 3.56131
# Velocity P-wave (km/s) = 5.53035 6.45787 6.01202
#
# Compressibility (1/GPa) = 0.02931455
#
# Stress axis : x y z
#
# Youngs Moduli (GPa) = 68.21578 67.93364 41.52148
#
# Poissons Ratio (x) = 0.06804 0.37727
# Poissons Ratio (y) = 0.06832 0.08249
# Poissons Ratio (z) = 0.61982 0.13497
#
# Static dielectric constant tensor:
#      x y z
#    x 1.876600 0.008390 -0.020480 
#    y 0.008390 1.858140 0.021190 
#    z -0.020480 0.021190 1.956210 
# 
# From -- ./inp_files/141273.got.cif
#   From: 2010.05.17/outbox.cif.g08.bks.cpg/sg2_71_cif.got.tgz:141273.got - 2010.06.03 11:33:40.
