data_PCOD9077741
_publ_section_title
;
Structure prediction by ZEFSAII (Michael W. Deem and Ramdas Pophale) SiO2 
 PCOD9077741
Probable space group: P -1
;
_chemical_formula_sum "Si O2"
_cell_formula_units_Z 14
_cell_length_a 7.166243
_cell_length_b 10.698621
_cell_length_c 11.344745
_cell_angle_alpha 60.514223
_cell_angle_beta 63.511109
_cell_angle_gamma 77.158839
_cell_volume 677.645173
_symmetry_space_group_name_H-M "P -1"
_symmetry_group_IT_number 2
_symmetry_cell_setting 'triclinic'
loop_
_space_group_symop_operation_xyz
x,y,z
-x,-y,-z
loop_
_atom_site_type_symbol
_atom_site_label
_atom_site_fract_x
_atom_site_fract_y
_atom_site_fract_z
Si Si1 0.668054 0.901745 0.153387
Si Si2 0.195347 0.395208 0.143432
Si Si3 0.264933 0.626262 0.813720
Si Si4 0.072957 0.554725 0.327834
Si Si5 0.625530 0.576679 0.325376
Si Si6 0.141654 0.854833 0.114093
Si Si7 0.444275 0.829628 0.831889
O O1 0.582418 0.743553 0.233437
O O2 0.896717 0.889279 0.157268
O O3 0.524177 0.001897 0.230201
O O4 0.729012 0.997231 0.975802
O O5 0.362420 0.268586 0.138583
O O6 0.964695 0.348668 0.187682
O O7 0.197191 0.448587 0.254319
O O8 0.248328 0.529068 0.981476
O O9 0.388464 0.526484 0.734249
O O10 0.376332 0.773382 0.749607
O O11 0.865406 0.578774 0.297710
O O12 0.000000 0.500000 0.500000
O O13 0.169798 0.712052 0.247847
O O14 0.500000 0.500000 0.500000
O O15 0.240559 0.806116 0.983310
#
# Coordination Sequence:
#
# PCOD9077741 Si02
#       7
#     2   2   2   2   2   2   2
#     4   8  17  36  60  83 119 151 195 245 287 356
#     4  10  20  33  56  92 116 150 204 239 295 339
#     4  10  21  35  59  86 121 149 198 256 277 343
#     4  10  20  34  57  85 119 153 194 244 287 356
#     4  10  22  38  59  84 117 156 193 241 303 348
#     4   8  16  32  61  84 111 151 198 233 290 342
#     4  10  18  34  64  83 115 153 194 244 293 347
#
# _framework density 20.659779
#
# number of rings (size 3 to 8) (size 9 to 14) (size 15 to 20)
#    0.857    1.714    1.429    0.429    4.000    0.000 
#    0.000    1.429    6.286    1.714    0.000    0.000 
#    0.000    0.000    0.000    0.000    0.000    0.000 
#
# Total GULP energy -77939.618935 kJ/mol
# GULP energy per Si atom -5567.115638 kJ/mol
# Density = 2.061276 g / cm^3
# Si number density = 20.659779 Si / 1000 Ang^3
#
#
#
# Elastic Constant Matrix: (Units=GPa)
#
#
# Indices 1 2 3 4 5 6 
#
# 1 102.7618 46.7348 -3.4683 1.9164 1.4397 -8.2272
# 2 46.7348 136.2698 50.8265 -1.0086 1.3327 -27.1026
# 3 -3.4683 50.8265 85.8617 0.3054 1.8243 8.9744
# 4 1.9164 -1.0086 0.3054 28.6534 7.2957 -0.5178
# 5 1.4397 1.3327 1.8243 7.2957 18.3705 2.9302
# 6 -8.2272 -27.1026 8.9744 -0.5178 2.9302 24.2253
#
#
#
# Elastic Compliance Matrix: (Units=1/GPa)
#
#
# Indices 1 2 3 4 5 6 
#
# 1 0.013130 -0.008233 0.006141 -0.001544 0.000711 -0.007146
# 2 -0.008233 0.021932 -0.016189 0.003332 -0.005198 0.028438
# 3 0.006141 -0.016189 0.024071 -0.002554 0.003369 -0.025405
# 4 -0.001544 0.003332 -0.002554 0.039522 -0.016682 0.007013
# 5 0.000711 -0.005198 0.003369 -0.016682 0.063415 -0.014848
# 6 -0.007146 0.028438 -0.025405 0.007013 -0.014848 0.082025
#
#
# Mechanical properties :
#
#
# Convention : Reuss Voigt Hill
#
# Bulk Modulus (GPa) = 44.30573 57.00882 50.65728
# Shear Modulus (GPa) = 17.35030 29.63653 23.49342
#
# Velocity S-wave (km/s) = 2.90109 3.79159 3.37583
# Velocity P-wave (km/s) = 5.71959 6.84268 6.30619
#
# Compressibility (1/GPa) = 0.02257044
#
# Stress axis : x y z
#
# Youngs Moduli (GPa) = 76.16386 45.59594 41.54405
#
# Poissons Ratio (x) = 0.37540 -0.25514
# Poissons Ratio (y) = 0.62708 0.67256
# Poissons Ratio (z) = -0.46775 0.73815
#
# Static dielectric constant tensor:
#      x y z
#    x 1.829140 0.005250 -0.017010 
#    y 0.005250 1.806070 -0.026990 
#    z -0.017010 -0.026990 1.743350 
# 
# From -- ./inp_files/377861.got.cif
#   From: 2010.05.17/outbox.cif.g08.bks.cpg/sg2_189_cif.got.tgz:377861.got - 2010.06.03 11:33:40.
