data_PCOD9077459
_publ_section_title
;
Structure prediction by ZEFSAII (Michael W. Deem and Ramdas Pophale) SiO2 
 PCOD9077459
Probable space group: P -1
;
_chemical_formula_sum "Si O2"
_cell_formula_units_Z 14
_cell_length_a 7.571478
_cell_length_b 5.210226
_cell_length_c 23.902344
_cell_angle_alpha 114.993206
_cell_angle_beta 43.361074
_cell_angle_gamma 117.211069
_cell_volume 569.460902
_symmetry_space_group_name_H-M "P -1"
_symmetry_group_IT_number 2
_symmetry_cell_setting 'triclinic'
loop_
_space_group_symop_operation_xyz
x,y,z
-x,-y,-z
loop_
_atom_site_type_symbol
_atom_site_label
_atom_site_fract_x
_atom_site_fract_y
_atom_site_fract_z
Si Si1 0.742203 0.351780 0.188283
Si Si2 0.275257 0.600018 0.291215
Si Si3 0.624829 0.229821 0.838041
Si Si4 0.464114 0.323050 0.549356
Si Si5 0.124156 0.345493 0.008054
Si Si6 0.493661 0.170046 0.344618
Si Si7 0.086539 0.999872 0.687399
O O1 0.573262 0.586259 0.238024
O O2 0.701358 0.276110 0.255757
O O3 0.020171 0.432742 0.099556
O O4 0.571564 0.062690 0.169131
O O5 0.283629 0.579939 0.220567
O O6 0.071706 0.307442 0.330798
O O7 0.265019 0.905514 0.349278
O O8 0.439012 0.380916 0.931855
O O9 0.885190 0.120647 0.784932
O O10 0.500000 0.500000 0.500000
O O11 0.616420 0.561422 0.581444
O O12 0.500000 0.000000 0.500000
O O13 0.180892 0.234945 0.638165
O O14 0.000000 0.500000 0.000000
O O15 0.000000 0.000000 0.000000
O O16 0.660345 0.059634 0.344783
#
# Coordination Sequence:
#
# PCOD9077459 Si02
#       7
#     2   2   2   2   2   2   2
#     4   9  19  34  62  98 137 186 233 279 337 403
#     4  10  20  39  68 102 134 186 236 280 340 411
#     4   9  19  34  62  98 137 186 233 279 337 403
#     4  12  26  48  74 101 134 183 226 286 362 426
#     4  10  18  34  59  97 143 185 233 283 330 392
#     4  11  23  43  71 101 142 178 232 288 353 416
#     4  11  23  43  71 101 142 178 232 288 353 416
#
# _framework density 24.584655999999999
#
# number of rings (size 3 to 8) (size 9 to 14) (size 15 to 20)
#    0.000    1.714    2.857    1.714    0.000    0.000 
#    0.000    2.143    0.000    6.000    0.000    0.000 
#    0.000    0.000    0.000    0.000    0.000    0.000 
#
# Total GULP energy -78128.473713 kJ/mol
# GULP energy per Si atom -5580.605265 kJ/mol
# Density = 2.452870 g / cm^3
# Si number density = 24.584656 Si / 1000 Ang^3
#
#
#
# Elastic Constant Matrix: (Units=GPa)
#
#
# Indices 1 2 3 4 5 6 
#
# 1 64.1096 7.1592 0.0888 2.2381 0.3515 -10.3632
# 2 7.1592 126.3049 16.7682 12.4665 20.4421 -9.7971
# 3 0.0888 16.7682 93.3833 6.7246 21.5266 -3.2653
# 4 2.2381 12.4665 6.7246 37.1363 1.1836 9.9915
# 5 0.3515 20.4421 21.5266 1.1836 30.1596 0.6477
# 6 -10.3632 -9.7971 -3.2653 9.9915 0.6477 39.9723
#
#
#
# Elastic Compliance Matrix: (Units=1/GPa)
#
#
# Indices 1 2 3 4 5 6 
#
# 1 0.016491 -0.000356 0.000441 -0.002233 -0.000281 0.004787
# 2 -0.000356 0.009627 0.000189 -0.003943 -0.006574 0.003375
# 3 0.000441 0.000189 0.013117 -0.002720 -0.009433 0.002065
# 4 -0.002233 -0.003943 -0.002720 0.031364 0.003617 -0.009666
# 5 -0.000281 -0.006574 -0.009433 0.003617 0.044294 -0.004076
# 6 0.004787 0.003375 0.002065 -0.009666 -0.004076 0.029736
#
#
# Mechanical properties :
#
#
# Convention : Reuss Voigt Hill
#
# Bulk Modulus (GPa) = 25.13638 36.87003 31.00321
# Shear Modulus (GPa) = 31.77776 38.77240 35.27508
#
# Velocity S-wave (km/s) = 3.59915 3.97558 3.79204
# Velocity P-wave (km/s) = 5.24581 6.00861 5.64012
#
# Compressibility (1/GPa) = 0.03978297
#
# Stress axis : x y z
#
# Youngs Moduli (GPa) = 60.64008 103.87032 76.23834
#
# Poissons Ratio (x) = 0.03699 -0.03364
# Poissons Ratio (y) = 0.02160 -0.01441
# Poissons Ratio (z) = -0.02675 -0.01963
#
# Static dielectric constant tensor:
#      x y z
#    x 1.997880 -0.040820 -0.050130 
#    y -0.040820 1.988570 0.013280 
#    z -0.050130 0.013280 2.017150 
# 
# From -- ./inp_files/605727.got.cif
#   From: 2010.05.17/outbox.cif.g08.bks.cpg/sg2_303_cif.got.tgz:605727.got - 2010.06.03 11:33:40.
