data_PCOD9077069
_publ_section_title
;
Structure prediction by ZEFSAII (Michael W. Deem and Ramdas Pophale) SiO2 
 PCOD9077069
Probable space group: P -1
;
_chemical_formula_sum "Si O2"
_cell_formula_units_Z 16
_cell_length_a 11.689049
_cell_length_b 15.231286
_cell_length_c 15.930923
_cell_angle_alpha 36.166194
_cell_angle_beta 37.618560
_cell_angle_gamma 26.607327
_cell_volume 722.663093
_symmetry_space_group_name_H-M "P -1"
_symmetry_group_IT_number 2
_symmetry_cell_setting 'triclinic'
loop_
_space_group_symop_operation_xyz
x,y,z
-x,-y,-z
loop_
_atom_site_type_symbol
_atom_site_label
_atom_site_fract_x
_atom_site_fract_y
_atom_site_fract_z
Si Si1 0.702987 0.595415 0.523354
Si Si2 0.446122 0.975523 0.259952
Si Si3 0.735812 0.414141 0.488764
Si Si4 0.441341 0.200244 0.950035
Si Si5 0.135245 0.971297 0.308470
Si Si6 0.175296 0.386318 0.210503
Si Si7 0.670420 0.753543 0.588329
Si Si8 0.864382 0.394657 0.082005
O O1 0.628429 0.786352 0.366196
O O2 0.623887 0.508017 0.573582
O O3 0.595234 0.683999 0.610728
O O4 0.020003 0.388437 0.502827
O O5 0.249370 0.967031 0.334566
O O6 0.299622 0.188535 0.231792
O O7 0.564566 0.004496 0.090623
O O8 0.500000 0.500000 0.500000
O O9 0.932260 0.164193 0.556946
O O10 0.883168 0.481496 0.322889
O O11 0.631691 0.132446 0.815380
O O12 0.155709 0.298168 0.010733
O O13 0.358777 0.390784 0.903623
O O14 0.895575 0.209311 0.235882
O O15 0.321690 0.314089 0.269914
O O16 0.175569 0.539440 0.042029
O O17 0.500000 0.000000 0.500000
#
# Coordination Sequence:
#
# PCOD9077069 Si02
#       8
#     2   2   2   2   2   2   2   2
#     4  10  21  36  54  83 112 141 184 232 275 325
#     4  10  18  34  55  84 110 144 187 225 278 325
#     4  11  22  35  52  85 120 151 179 216 279 343
#     4   9  19  31  51  78 111 144 184 222 263 332
#     4  11  21  33  52  79 120 153 175 208 279 341
#     4  10  21  35  59  83 111 142 189 238 272 321
#     4  10  20  36  57  81 106 141 188 241 279 306
#     4   9  18  34  51  77 107 146 187 223 268 319
#
# _framework density 22.140331
#
# number of rings (size 3 to 8) (size 9 to 14) (size 15 to 20)
#    0.000    2.000    2.500    3.000    5.250    0.500 
#    2.250    0.000    0.000    0.750    0.000    5.250 
#    0.000    0.000    0.000    0.000    0.000    0.000 
#
# Total GULP energy -89313.342646 kJ/mol
# GULP energy per Si atom -5582.083915 kJ/mol
# Density = 2.208994 g / cm^3
# Si number density = 22.140331 Si / 1000 Ang^3
#
#
#
# Elastic Constant Matrix: (Units=GPa)
#
#
# Indices 1 2 3 4 5 6 
#
# 1 116.5073 36.9405 32.8988 0.2893 30.9311 25.7482
# 2 36.9405 98.8973 23.5737 -11.7796 13.6930 21.0830
# 3 32.8988 23.5737 69.7932 -22.4740 21.7341 2.6494
# 4 0.2893 -11.7796 -22.4740 40.5072 -0.6282 1.6230
# 5 30.9311 13.6930 21.7341 -0.6282 34.5392 4.1373
# 6 25.7482 21.0830 2.6494 1.6230 4.1373 43.7498
#
#
#
# Elastic Compliance Matrix: (Units=1/GPa)
#
#
# Indices 1 2 3 4 5 6 
#
# 1 0.013966 -0.002156 -0.003847 -0.002752 -0.008559 -0.006036
# 2 -0.002156 0.012918 -0.001755 0.002969 -0.001455 -0.004823
# 3 -0.003847 -0.001755 0.024196 0.012679 -0.011121 0.002226
# 4 -0.002752 0.002969 0.012679 0.032562 -0.005953 -0.001224
# 5 -0.008559 -0.001455 -0.011121 -0.005953 0.043785 0.002492
# 6 -0.006036 -0.004823 0.002226 -0.001224 0.002492 0.028409
#
#
# Mechanical properties :
#
#
# Convention : Reuss Voigt Hill
#
# Bulk Modulus (GPa) = 28.11760 52.44708 40.28234
# Shear Modulus (GPa) = 27.29183 36.54489 31.91836
#
# Velocity S-wave (km/s) = 3.51476 4.06717 3.80101
# Velocity P-wave (km/s) = 5.40358 6.76725 6.12349
#
# Compressibility (1/GPa) = 0.03556491
#
# Stress axis : x y z
#
# Youngs Moduli (GPa) = 71.60271 77.40988 41.32993
#
# Poissons Ratio (x) = 0.16687 0.15899
# Poissons Ratio (y) = 0.15435 0.07254
# Poissons Ratio (z) = 0.27544 0.13586
#
# Static dielectric constant tensor:
#      x y z
#    x 1.834650 0.007920 0.003080 
#    y 0.007920 1.893760 -0.022570 
#    z 0.003080 -0.022570 1.876190 
# 
# From -- ./inp_files/522259.got.cif
#   From: 2010.05.17/outbox.cif.g08.bks.cpg/sg2_262_cif.got.tgz:522259.got - 2010.06.03 11:33:40.
