data_PCOD9077560
_publ_section_title
;
Structure prediction by ZEFSAII (Michael W. Deem and Ramdas Pophale) SiO2 
 PCOD9077560
Probable space group: P -1
;
_chemical_formula_sum "Si O2"
_cell_formula_units_Z 16
_cell_length_a 10.633370
_cell_length_b 13.124357
_cell_length_c 7.355163
_cell_angle_alpha 61.837893
_cell_angle_beta 62.312684
_cell_angle_gamma 48.892619
_cell_volume 663.194703
_symmetry_space_group_name_H-M "P -1"
_symmetry_group_IT_number 2
_symmetry_cell_setting 'triclinic'
loop_
_space_group_symop_operation_xyz
x,y,z
-x,-y,-z
loop_
_atom_site_type_symbol
_atom_site_label
_atom_site_fract_x
_atom_site_fract_y
_atom_site_fract_z
Si Si1 0.920754 0.724816 0.790976
Si Si2 0.052842 0.297553 0.627504
Si Si3 0.625098 0.278112 0.802867
Si Si4 0.273798 0.405773 0.462103
Si Si5 0.756568 0.553169 0.115243
Si Si6 0.645971 0.240570 0.415169
Si Si7 0.645843 0.026787 0.839308
Si Si8 0.910466 0.155905 0.000200
O O1 0.092878 0.607261 0.877953
O O2 0.186593 0.820566 0.766014
O O3 0.954298 0.738012 0.546979
O O4 0.812102 0.654137 0.923017
O O5 0.219598 0.299964 0.542993
O O6 0.760950 0.259261 0.870274
O O7 0.047776 0.193835 0.853316
O O8 0.880072 0.451980 0.644821
O O9 0.428414 0.396614 0.876501
O O10 0.660428 0.298837 0.551670
O O11 0.259750 0.425836 0.673054
O O12 0.469223 0.351039 0.337471
O O13 0.619832 0.119089 0.599880
O O14 0.643586 0.129300 0.905199
O O15 0.500000 0.000000 0.000000
O O16 0.817015 0.876790 0.817384
O O17 0.000000 0.000000 0.000000
#
# Coordination Sequence:
#
# PCOD9077560 Si02
#       8
#     2   2   2   2   2   2   2   2
#     4  10  18  34  60  94 123 162 211 267 330 372
#     4  10  23  39  64  94 133 163 219 275 320 389
#     4   9  22  42  64  90 132 168 215 271 311 399
#     4   9  19  43  66  94 123 166 220 280 322 375
#     4   9  18  36  63  92 126 157 215 275 323 381
#     4   9  22  41  69  87 131 171 213 268 326 382
#     4  10  18  36  63  94 127 165 219 272 314 378
#     4  12  26  44  61  96 137 177 215 259 333 404
#
# _framework density 24.125644999999999
#
# number of rings (size 3 to 8) (size 9 to 14) (size 15 to 20)
#    0.750    1.500    1.250    0.750    1.750    3.000 
#    2.250    7.500    0.000    0.000    0.000    0.000 
#    0.000    0.000    0.000    0.000    0.000    0.000 
#
# Total GULP energy -89509.816599 kJ/mol
# GULP energy per Si atom -5594.363537 kJ/mol
# Density = 2.407073 g / cm^3
# Si number density = 24.125645 Si / 1000 Ang^3
#
#
#
# Elastic Constant Matrix: (Units=GPa)
#
#
# Indices 1 2 3 4 5 6 
#
# 1 75.5226 10.8844 9.4959 0.1985 10.0517 -8.6971
# 2 10.8844 93.3545 13.4865 3.4697 -4.1664 -21.4270
# 3 9.4959 13.4865 109.1218 11.7188 -5.7752 7.5070
# 4 0.1985 3.4697 11.7188 28.2462 1.9392 -7.5995
# 5 10.0517 -4.1664 -5.7752 1.9392 34.1722 -7.5478
# 6 -8.6971 -21.4270 7.5070 -7.5995 -7.5478 30.4834
#
#
#
# Elastic Compliance Matrix: (Units=1/GPa)
#
#
# Indices 1 2 3 4 5 6 
#
# 1 0.014528 -0.000891 -0.001817 0.001969 -0.004037 0.003457
# 2 -0.000891 0.013957 -0.002476 0.002193 0.004006 0.011705
# 3 -0.001817 -0.002476 0.010731 -0.005848 0.001030 -0.006105
# 4 0.001969 0.002193 -0.005848 0.041269 -0.000621 0.013678
# 5 -0.004037 0.004006 0.001030 -0.000621 0.033244 0.009487
# 6 0.003457 0.011705 -0.006105 0.013678 0.009487 0.049281
#
#
# Mechanical properties :
#
#
# Convention : Reuss Voigt Hill
#
# Bulk Modulus (GPa) = 34.66518 38.41472 36.53995
# Shear Modulus (GPa) = 27.32316 34.85583 31.08950
#
# Velocity S-wave (km/s) = 3.36897 3.80513 3.59367
# Velocity P-wave (km/s) = 5.43443 5.93824 5.69191
#
# Compressibility (1/GPa) = 0.02884739
#
# Stress axis : x y z
#
# Youngs Moduli (GPa) = 68.83132 71.64696 93.19042
#
# Poissons Ratio (x) = 0.06386 0.16933
# Poissons Ratio (y) = 0.06135 0.23076
# Poissons Ratio (z) = 0.12507 0.17741
#
# Static dielectric constant tensor:
#      x y z
#    x 1.970770 0.009070 -0.019020 
#    y 0.009070 1.920180 -0.010560 
#    z -0.019020 -0.010560 1.930340 
# 
# From -- ./inp_files/214320.got.cif
#   From: 2010.05.17/outbox.cif.g08.bks.cpg/sg2_108_cif.got.tgz:214320.got - 2010.06.03 11:33:40.
