data_PCOD9077058
_publ_section_title
;
Structure prediction by ZEFSAII (Michael W. Deem and Ramdas Pophale) SiO2 
 PCOD9077058
Probable space group: P -1
;
_chemical_formula_sum "Si O2"
_cell_formula_units_Z 16
_cell_length_a 8.967923
_cell_length_b 11.707265
_cell_length_c 15.233062
_cell_angle_alpha 140.125399
_cell_angle_beta 118.653716
_cell_angle_gamma 78.515937
_cell_volume 858.258943
_symmetry_space_group_name_H-M "P -1"
_symmetry_group_IT_number 2
_symmetry_cell_setting 'triclinic'
loop_
_space_group_symop_operation_xyz
x,y,z
-x,-y,-z
loop_
_atom_site_type_symbol
_atom_site_label
_atom_site_fract_x
_atom_site_fract_y
_atom_site_fract_z
Si Si1 0.789474 0.423223 0.876946
Si Si2 0.917378 0.072218 0.387763
Si Si3 0.959242 0.084918 0.130153
Si Si4 0.670001 0.308423 0.155621
Si Si5 0.927700 0.223179 0.659773
Si Si6 0.315507 0.544172 0.952929
Si Si7 0.122846 0.369730 0.479657
Si Si8 0.277599 0.192092 0.964811
O O1 0.787722 0.290559 0.716617
O O2 0.705247 0.340397 0.897319
O O3 0.724747 0.598791 0.934039
O O4 0.000000 0.500000 0.000000
O O5 0.860924 0.172380 0.512883
O O6 0.021801 0.223802 0.438024
O O7 0.761965 0.923924 0.204927
O O8 0.045258 0.958433 0.393820
O O9 0.810445 0.192732 0.138864
O O10 0.121873 0.240638 0.317524
O O11 0.875367 0.913791 0.072666
O O12 0.000000 0.000000 0.000000
O O13 0.675725 0.369859 0.090923
O O14 0.713687 0.486811 0.338925
O O15 0.469056 0.192175 0.051780
O O16 0.129108 0.371236 0.799365
O O17 0.500000 0.500000 0.000000
O O18 0.000000 0.500000 0.500000
#
# Coordination Sequence:
#
# PCOD9077058 Si02
#       8
#     2   2   2   2   2   2   2   2
#     4  10  20  33  53  87 113 148 193 236 275 337
#     4  10  18  34  55  82 111 153 191 232 281 344
#     4  10  24  39  61  87 112 148 194 241 287 337
#     4  11  21  39  60  83 116 152 190 237 284 345
#     4  10  20  32  55  81 113 150 193 234 281 332
#     4  11  19  33  57  85 113 148 191 226 289 340
#     4   9  20  36  58  83 110 150 195 230 280 347
#     4  11  21  38  60  83 114 150 195 235 289 341
#
# _framework density 18.642391
#
# number of rings (size 3 to 8) (size 9 to 14) (size 15 to 20)
#    0.000    1.750    5.000    0.375    3.500    0.000 
#    0.000    1.875    0.000    7.500    0.000    0.000 
#    0.000    0.000    0.000    0.000    0.000    0.000 
#
# Total GULP energy -89089.584222 kJ/mol
# GULP energy per Si atom -5568.099014 kJ/mol
# Density = 1.859996 g / cm^3
# Si number density = 18.642391 Si / 1000 Ang^3
#
#
#
# Elastic Constant Matrix: (Units=GPa)
#
#
# Indices 1 2 3 4 5 6 
#
# 1 65.5523 -6.2739 47.6234 -10.5621 -22.0110 5.2201
# 2 -6.2739 54.8029 12.8551 -4.9140 -2.2075 7.5060
# 3 47.6234 12.8551 125.6835 -21.0792 -40.5693 7.1957
# 4 -10.5621 -4.9140 -21.0792 24.9052 4.0585 -3.2464
# 5 -22.0110 -2.2075 -40.5693 4.0585 33.0232 -8.8436
# 6 5.2201 7.5060 7.1957 -3.2464 -8.8436 24.5753
#
#
#
# Elastic Compliance Matrix: (Units=1/GPa)
#
#
# Indices 1 2 3 4 5 6 
#
# 1 0.023591 0.005052 -0.006233 0.004316 0.007481 -0.001467
# 2 0.005052 0.020806 -0.003979 0.002363 -0.002229 -0.006753
# 3 -0.006233 -0.003979 0.017613 0.009281 0.017379 0.004862
# 4 0.004316 0.002363 0.009281 0.049439 0.009896 0.005736
# 5 0.007481 -0.002229 0.017379 0.009896 0.059756 0.016814
# 6 -0.001467 -0.006753 0.004862 0.005736 0.016814 0.048450
#
#
# Mechanical properties :
#
#
# Convention : Reuss Voigt Hill
#
# Bulk Modulus (GPa) = 19.34593 39.38310 29.36452
# Shear Modulus (GPa) = 20.22623 29.28970 24.75796
#
# Velocity S-wave (km/s) = 3.29744 3.96805 3.64819
# Velocity P-wave (km/s) = 4.98973 6.49349 5.79063
#
# Compressibility (1/GPa) = 0.05169045
#
# Stress axis : x y z
#
# Youngs Moduli (GPa) = 42.38894 48.06340 56.77606
#
# Poissons Ratio (x) = -0.24282 0.35389
# Poissons Ratio (y) = -0.21415 0.22590
# Poissons Ratio (z) = 0.26421 0.19123
#
# Static dielectric constant tensor:
#      x y z
#    x 1.637090 0.004760 -0.037340 
#    y 0.004760 1.648820 0.012560 
#    z -0.037340 0.012560 1.695070 
# 
# From -- ./inp_files/272164.got.cif
#   From: 2010.05.17/outbox.cif.g08.bks.cpg/sg2_137_cif.got.tgz:272164.got - 2010.06.03 11:33:40.
