data_PCOD9077618
_publ_section_title
;
Structure prediction by ZEFSAII (Michael W. Deem and Ramdas Pophale) SiO2 
 PCOD9077618
Probable space group: P -1
;
_chemical_formula_sum "Si O2"
_cell_formula_units_Z 14
_cell_length_a 7.749311
_cell_length_b 11.830923
_cell_length_c 9.730668
_cell_angle_alpha 106.215018
_cell_angle_beta 54.721646
_cell_angle_gamma 128.745694
_cell_volume 563.259209
_symmetry_space_group_name_H-M "P -1"
_symmetry_group_IT_number 2
_symmetry_cell_setting 'triclinic'
loop_
_space_group_symop_operation_xyz
x,y,z
-x,-y,-z
loop_
_atom_site_type_symbol
_atom_site_label
_atom_site_fract_x
_atom_site_fract_y
_atom_site_fract_z
Si Si1 0.898664 0.853101 0.916636
Si Si2 0.291362 0.688344 0.135278
Si Si3 0.243368 0.022837 0.564124
Si Si4 0.314097 0.458661 0.402177
Si Si5 0.993680 0.810950 0.353287
Si Si6 0.261824 0.431658 0.976362
Si Si7 0.760738 0.305588 0.506710
O O1 0.908081 0.739008 0.967509
O O2 0.596572 0.777689 0.986745
O O3 0.077433 0.907870 0.720109
O O4 0.000000 0.000000 0.000000
O O5 0.155503 0.765411 0.181295
O O6 0.285626 0.689633 0.305781
O O7 0.151622 0.525550 0.085690
O O8 0.545900 0.143585 0.499860
O O9 0.127100 0.117436 0.641715
O O10 0.185889 0.933328 0.420626
O O11 0.066728 0.374361 0.380219
O O12 0.293889 0.587158 0.502643
O O13 0.231119 0.336567 0.511961
O O14 0.587179 0.527173 0.224140
O O15 0.500000 0.500000 0.000000
#
# Coordination Sequence:
#
# PCOD9077618 Si02
#       7
#     2   2   2   2   2   2   2
#     4  11  20  37  63  92 122 150 195 255 301 355
#     4  10  20  37  58  92 113 155 203 244 298 349
#     4  11  23  42  58  89 124 164 193 245 307 360
#     4  10  19  37  62  88 116 153 200 254 293 351
#     4  10  24  40  60  85 124 165 201 235 305 366
#     4  10  18  34  61  91 114 152 195 251 302 338
#     4  10  20  36  61  91 114 150 207 253 292 347
#
# _framework density 24.855343000000001
#
# number of rings (size 3 to 8) (size 9 to 14) (size 15 to 20)
#    0.000    1.714    4.286    1.714    0.000    3.429 
#    5.143    0.000    0.000    3.429    0.000    2.000 
#    0.000    0.000    0.000    0.000    0.000    0.000 
#
# Total GULP energy -78397.808323 kJ/mol
# GULP energy per Si atom -5599.843452 kJ/mol
# Density = 2.479877 g / cm^3
# Si number density = 24.855343 Si / 1000 Ang^3
#
#
#
# Elastic Constant Matrix: (Units=GPa)
#
#
# Indices 1 2 3 4 5 6 
#
# 1 104.1850 53.0396 54.8105 -0.1419 -17.8690 -17.9208
# 2 53.0396 199.3153 57.2815 -21.0716 -14.5668 -37.1450
# 3 54.8105 57.2815 110.4354 -17.2822 -21.3831 -16.1776
# 4 -0.1419 -21.0716 -17.2822 42.2711 -3.7688 -9.5781
# 5 -17.8690 -14.5668 -21.3831 -3.7688 27.4609 6.7558
# 6 -17.9208 -37.1450 -16.1776 -9.5781 6.7558 50.4003
#
#
#
# Elastic Compliance Matrix: (Units=1/GPa)
#
#
# Indices 1 2 3 4 5 6 
#
# 1 0.014374 -0.002107 -0.005781 -0.002920 0.003155 0.000725
# 2 -0.002107 0.007392 -0.001161 0.004435 0.001017 0.005033
# 3 -0.005781 -0.001161 0.015531 0.007000 0.008106 0.002318
# 4 -0.002920 0.004435 0.007000 0.031558 0.007918 0.009413
# 5 0.003155 0.001017 0.008106 0.007918 0.046469 -0.000250
# 6 0.000725 0.005033 0.002318 0.009413 -0.000250 0.026375
#
#
# Mechanical properties :
#
#
# Convention : Reuss Voigt Hill
#
# Bulk Modulus (GPa) = 52.08181 82.68876 67.38528
# Shear Modulus (GPa) = 30.08501 40.61340 35.34921
#
# Velocity S-wave (km/s) = 3.48286 4.04665 3.77529
# Velocity P-wave (km/s) = 6.09698 7.42792 6.79512
#
# Compressibility (1/GPa) = 0.01920056
#
# Stress axis : x y z
#
# Youngs Moduli (GPa) = 69.56996 135.27295 64.38798
#
# Poissons Ratio (x) = 0.28497 0.37224
# Poissons Ratio (y) = 0.14656 0.07473
# Poissons Ratio (z) = 0.40220 0.15700
#
# Static dielectric constant tensor:
#      x y z
#    x 2.029350 -0.010270 0.019820 
#    y -0.010270 2.060710 0.031010 
#    z 0.019820 0.031010 1.956470 
# 
# From -- ./inp_files/392590.got.cif
#   From: 2010.05.17/outbox.cif.g08.bks.cpg/sg2_197_cif.got.tgz:392590.got - 2010.06.03 11:33:40.
