data_PCOD9077880
_publ_section_title
;
Structure prediction by ZEFSAII (Michael W. Deem and Ramdas Pophale) SiO2 
 PCOD9077880
Probable space group: P -1
;
_chemical_formula_sum "Si O2"
_cell_formula_units_Z 16
_cell_length_a 20.847663
_cell_length_b 7.774937
_cell_length_c 8.180424
_cell_angle_alpha 61.118370
_cell_angle_beta 121.057135
_cell_angle_gamma 130.692099
_cell_volume 839.020839
_symmetry_space_group_name_H-M "P -1"
_symmetry_group_IT_number 2
_symmetry_cell_setting 'triclinic'
loop_
_space_group_symop_operation_xyz
x,y,z
-x,-y,-z
loop_
_atom_site_type_symbol
_atom_site_label
_atom_site_fract_x
_atom_site_fract_y
_atom_site_fract_z
Si Si1 0.771243 0.267754 0.751108
Si Si2 0.978271 0.149549 0.525670
Si Si3 0.848829 0.754417 0.772709
Si Si4 0.595188 0.216445 0.481446
Si Si5 0.683694 0.736123 0.419749
Si Si6 0.844170 0.614064 0.199975
Si Si7 0.183139 0.013905 0.816839
Si Si8 0.695103 0.165526 0.358417
O O1 0.835155 0.541922 0.740005
O O2 0.671976 0.208608 0.686793
O O3 0.763269 0.209888 0.575855
O O4 0.796723 0.122433 0.961824
O O5 0.927616 0.990384 0.689721
O O6 0.905019 0.166597 0.319781
O O7 0.000000 0.000000 0.500000
O O8 0.070342 0.366342 0.611906
O O9 0.757959 0.750315 0.633378
O O10 0.862194 0.700825 0.998188
O O11 0.609732 0.466304 0.420475
O O12 0.624845 0.207410 0.338151
O O13 0.500000 0.000000 0.500000
O O14 0.737937 0.845900 0.273129
O O15 0.652879 0.904521 0.362377
O O16 0.829067 0.793987 0.198788
O O17 0.755785 0.358823 0.216604
#
# Coordination Sequence:
#
# PCOD9077880 Si02
#       8
#     2   2   2   2   2   2   2   2
#     4   9  19  35  55  80 111 147 191 222 291 334
#     4   9  19  33  52  79 116 155 193 239 277 315
#     4  10  19  34  54  80 114 155 191 235 279 328
#     4   9  20  39  61  85 115 141 183 238 283 340
#     4  10  19  36  59  83 115 150 188 226 285 339
#     4  11  19  34  55  81 115 153 197 234 276 329
#     4  10  18  35  55  80 115 155 188 237 277 335
#     4  10  20  36  59  84 111 154 188 224 292 336
#
# _framework density 19.069849999999999
#
# number of rings (size 3 to 8) (size 9 to 14) (size 15 to 20)
#    0.750    1.500    1.250    3.375    0.000    0.500 
#    0.000   13.125    0.000    3.750    0.000    0.000 
#    0.000    0.000    0.000    0.000    0.000    0.000 
#
# Total GULP energy -89173.074596 kJ/mol
# GULP energy per Si atom -5573.317162 kJ/mol
# Density = 1.902645 g / cm^3
# Si number density = 19.069850 Si / 1000 Ang^3
#
#
#
# Elastic Constant Matrix: (Units=GPa)
#
#
# Indices 1 2 3 4 5 6 
#
# 1 37.4735 40.6651 7.8140 -3.2371 -9.8504 -3.0806
# 2 40.6651 87.2619 -9.9907 -16.9155 1.6410 -6.3425
# 3 7.8140 -9.9907 67.8470 -3.1875 -4.6806 1.7141
# 4 -3.2371 -16.9155 -3.1875 14.4777 -9.2751 -5.3228
# 5 -9.8504 1.6410 -4.6806 -9.2751 23.2232 -4.0237
# 6 -3.0806 -6.3425 1.7141 -5.3228 -4.0237 34.8937
#
#
#
# Elastic Compliance Matrix: (Units=1/GPa)
#
#
# Indices 1 2 3 4 5 6 
#
# 1 0.085923 -0.046155 -0.015637 -0.019620 0.028769 0.000289
# 2 -0.046155 0.045602 0.014414 0.052509 0.003135 0.011878
# 3 -0.015637 0.014414 0.020125 0.023786 0.006711 0.004653
# 4 -0.019620 0.052509 0.023786 0.200070 0.080718 0.046471
# 5 0.028769 0.003135 0.006711 0.080718 0.093107 0.025830
# 6 0.000289 0.011878 0.004653 0.046471 0.025830 0.040682
#
#
# Mechanical properties :
#
#
# Convention : Reuss Voigt Hill
#
# Bulk Modulus (GPa) = 17.57627 29.95104 23.76365
# Shear Modulus (GPa) = 8.34404 24.79185 16.56794
#
# Velocity S-wave (km/s) = 2.09404 3.60954 2.95074
# Velocity P-wave (km/s) = 3.88374 5.75428 4.90893
#
# Compressibility (1/GPa) = 0.05689491
#
# Stress axis : x y z
#
# Youngs Moduli (GPa) = 11.63829 21.92892 49.68875
#
# Poissons Ratio (x) = 1.01213 0.77697
# Poissons Ratio (y) = 0.53716 -0.71620
# Poissons Ratio (z) = 0.18198 -0.31608
#
# Static dielectric constant tensor:
#      x y z
#    x 1.682140 -0.023800 0.008290 
#    y -0.023800 1.665820 0.014590 
#    z 0.008290 0.014590 1.651470 
# 
# From -- ./inp_files/351620.got.cif
#   From: 2010.05.17/outbox.cif.g08.bks.cpg/sg2_176_cif.got.tgz:351620.got - 2010.06.03 11:33:40.
