data_PCOD9077606
_publ_section_title
;
Structure prediction by ZEFSAII (Michael W. Deem and Ramdas Pophale) SiO2 
 PCOD9077606
Probable space group: P -1
;
_chemical_formula_sum "Si O2"
_cell_formula_units_Z 16
_cell_length_a 13.080932
_cell_length_b 9.545411
_cell_length_c 11.280054
_cell_angle_alpha 63.969023
_cell_angle_beta 44.679912
_cell_angle_gamma 90.081950
_cell_volume 772.631571
_symmetry_space_group_name_H-M "P -1"
_symmetry_group_IT_number 2
_symmetry_cell_setting 'triclinic'
loop_
_space_group_symop_operation_xyz
x,y,z
-x,-y,-z
loop_
_atom_site_type_symbol
_atom_site_label
_atom_site_fract_x
_atom_site_fract_y
_atom_site_fract_z
Si Si1 0.491571 0.253486 0.290791
Si Si2 0.269782 0.120380 0.289226
Si Si3 0.931406 0.004943 0.862648
Si Si4 0.069762 0.395831 0.556781
Si Si5 0.775859 0.005271 0.231977
Si Si6 0.059620 0.229196 0.265971
Si Si7 0.538918 0.438288 0.862502
Si Si8 0.861928 0.373401 0.956551
O O1 0.354552 0.163837 0.332645
O O2 0.510876 0.448787 0.226780
O O3 0.408735 0.124881 0.518587
O O4 0.672849 0.286471 0.091223
O O5 0.169936 0.221822 0.287556
O O6 0.430022 0.222740 0.032206
O O7 0.131367 0.911947 0.485739
O O8 0.980247 0.184762 0.682758
O O9 0.893713 0.853072 0.854547
O O10 0.797761 0.976738 0.085170
O O11 0.096273 0.038840 0.786926
O O12 0.266911 0.489634 0.341757
O O13 0.000000 0.500000 0.500000
O O14 0.008228 0.395103 0.740951
O O15 0.836028 0.215512 0.126158
O O16 0.090664 0.423400 0.132118
O O17 0.500000 0.500000 0.000000
#
# Coordination Sequence:
#
# PCOD9077606 Si02
#       8
#     2   2   2   2   2   2   2   2
#     4  11  19  40  65  92 121 169 211 249 306 385
#     4  10  21  34  64  86 126 162 201 245 318 380
#     4  10  21  40  62  90 126 170 207 254 311 374
#     4  11  22  36  62  94 124 157 210 262 302 370
#     4  10  21  40  65  88 123 169 218 252 297 371
#     4  11  22  39  62  96 126 164 203 255 327 371
#     4  10  18  34  61  89 118 163 206 242 302 376
#     4  11  25  37  64  98 123 161 214 265 302 360
#
# _framework density 20.708448000000001
#
# number of rings (size 3 to 8) (size 9 to 14) (size 15 to 20)
#    0.000    1.500    3.750    2.625    5.250    0.500 
#    0.000    1.250    5.500    0.000    0.000    0.000 
#    0.000    0.000    0.000    0.000    0.000    0.000 
#
# Total GULP energy -89137.978158 kJ/mol
# GULP energy per Si atom -5571.123635 kJ/mol
# Density = 2.066131 g / cm^3
# Si number density = 20.708448 Si / 1000 Ang^3
#
#
#
# Elastic Constant Matrix: (Units=GPa)
#
#
# Indices 1 2 3 4 5 6 
#
# 1 40.9267 10.6227 26.8174 6.1453 -5.8338 -5.7455
# 2 10.6227 107.9515 47.8712 -15.6659 8.7321 -11.5985
# 3 26.8174 47.8712 174.3096 -12.1316 -6.5538 -5.0762
# 4 6.1453 -15.6659 -12.1316 38.7455 -11.6849 5.5611
# 5 -5.8338 8.7321 -6.5538 -11.6849 36.2144 -5.0973
# 6 -5.7455 -11.5985 -5.0762 5.5611 -5.0973 32.8302
#
#
#
# Elastic Compliance Matrix: (Units=1/GPa)
#
#
# Indices 1 2 3 4 5 6 
#
# 1 0.029920 -0.001632 -0.004339 -0.006640 0.003073 0.005591
# 2 -0.001632 0.011514 -0.002709 0.003045 -0.002194 0.002507
# 3 -0.004339 -0.002709 0.007387 0.002621 0.002038 -0.000702
# 4 -0.006640 0.003045 0.002621 0.032011 0.008466 -0.003789
# 5 0.003073 -0.002194 0.002038 0.008466 0.032252 0.003651
# 6 0.005591 0.002507 -0.000702 -0.003789 0.003651 0.033424
#
#
# Mechanical properties :
#
#
# Convention : Reuss Voigt Hill
#
# Bulk Modulus (GPa) = 31.78353 54.86782 43.32568
# Shear Modulus (GPa) = 28.67730 37.41645 33.04687
#
# Velocity S-wave (km/s) = 3.72534 4.25528 3.99910
# Velocity P-wave (km/s) = 5.82114 7.12012 6.50315
#
# Compressibility (1/GPa) = 0.03146283
#
# Stress axis : x y z
#
# Youngs Moduli (GPa) = 33.42212 86.85256 135.37362
#
# Poissons Ratio (x) = 0.14171 0.58737
# Poissons Ratio (y) = 0.05453 0.36668
# Poissons Ratio (z) = 0.14502 0.23525
#
# Static dielectric constant tensor:
#      x y z
#    x 1.776190 -0.010430 0.020820 
#    y -0.010430 1.812130 -0.029980 
#    z 0.020820 -0.029980 1.827300 
# 
# From -- ./inp_files/447082.got.cif
#   From: 2010.05.17/outbox.cif.g08.bks.cpg/sg2_224_cif.got.tgz:447082.got - 2010.06.03 11:33:40.
