data_PCOD9077975
_publ_section_title
;
Structure prediction by ZEFSAII (Michael W. Deem and Ramdas Pophale) SiO2 
 PCOD9077975
Probable space group: P -1
;
_chemical_formula_sum "Si O2"
_cell_formula_units_Z 14
_cell_length_a 7.662889
_cell_length_b 10.677953
_cell_length_c 8.119786
_cell_angle_alpha 99.446339
_cell_angle_beta 78.833027
_cell_angle_gamma 77.488299
_cell_volume 621.430026
_symmetry_space_group_name_H-M "P -1"
_symmetry_group_IT_number 2
_symmetry_cell_setting 'triclinic'
loop_
_space_group_symop_operation_xyz
x,y,z
-x,-y,-z
loop_
_atom_site_type_symbol
_atom_site_label
_atom_site_fract_x
_atom_site_fract_y
_atom_site_fract_z
Si Si1 0.846225 0.636218 0.553721
Si Si2 0.007580 0.659446 0.192985
Si Si3 0.249066 0.110151 0.203231
Si Si4 0.390276 0.469300 0.217383
Si Si5 0.628408 0.656243 0.135251
Si Si6 0.991120 0.943940 0.173356
Si Si7 0.607338 0.945150 0.212801
O O1 0.884962 0.698252 0.389507
O O2 0.858102 0.740189 0.715037
O O3 0.659621 0.595139 0.620919
O O4 0.000000 0.500000 0.500000
O O5 0.851756 0.618513 0.101092
O O6 0.053448 0.786652 0.132649
O O7 0.199506 0.562809 0.196095
O O8 0.432605 0.067137 0.268852
O O9 0.317885 0.085175 0.996889
O O10 0.123677 0.014915 0.257828
O O11 0.539184 0.553173 0.223494
O O12 0.440417 0.358624 0.042073
O O13 0.564674 0.807366 0.237041
O O14 0.780578 0.975660 0.277478
O O15 0.000000 0.000000 0.000000
#
# Coordination Sequence:
#
# PCOD9077975 Si02
#       7
#     2   2   2   2   2   2   2
#     4  10  22  39  57  82 122 157 184 224 286 348
#     4  10  21  37  56  82 117 149 187 231 285 339
#     4  10  18  35  57  79 113 149 183 235 282 328
#     4  10  20  36  57  83 112 154 192 230 277 332
#     4  10  19  35  58  84 110 144 198 240 272 325
#     4   9  19  35  56  85 110 141 194 237 279 330
#     4   9  18  33  58  85 107 140 191 243 278 319
#
# _framework density 22.528683999999998
#
# number of rings (size 3 to 8) (size 9 to 14) (size 15 to 20)
#    0.000    2.286    1.429    1.286    0.000    1.143 
#    0.000    5.714    0.000    0.000    0.000    0.000 
#    0.000    0.000    0.000    0.000    0.000    0.000 
#
# Total GULP energy -78009.830722 kJ/mol
# GULP energy per Si atom -5572.130766 kJ/mol
# Density = 2.247741 g / cm^3
# Si number density = 22.528684 Si / 1000 Ang^3
#
#
#
# Elastic Constant Matrix: (Units=GPa)
#
#
# Indices 1 2 3 4 5 6 
#
# 1 83.8702 42.4089 -1.0280 20.9008 0.8222 15.6166
# 2 42.4089 107.7802 20.7528 -5.2420 -7.6626 33.1050
# 3 -1.0280 20.7528 49.8040 -3.3425 -9.4181 7.2963
# 4 20.9008 -5.2420 -3.3425 26.4938 -1.9386 -3.8013
# 5 0.8222 -7.6626 -9.4181 -1.9386 14.2643 -3.7973
# 6 15.6166 33.1050 7.2963 -3.8013 -3.7973 46.6066
#
#
#
# Elastic Compliance Matrix: (Units=1/GPa)
#
#
# Indices 1 2 3 4 5 6 
#
# 1 0.023001 -0.010096 0.002025 -0.021033 -0.009153 -0.003314
# 2 -0.010096 0.017133 -0.004450 0.010301 0.006457 -0.006724
# 3 0.002025 -0.004450 0.024756 0.001656 0.014033 -0.000115
# 4 -0.021033 0.010301 0.001656 0.058665 0.017321 0.005667
# 5 -0.009153 0.006457 0.014033 0.017321 0.086994 0.004784
# 6 -0.003314 -0.006724 -0.000115 0.005667 0.004784 0.028212
#
#
# Mechanical properties :
#
#
# Convention : Reuss Voigt Hill
#
# Bulk Modulus (GPa) = 25.09546 40.63575 32.86560
# Shear Modulus (GPa) = 18.04484 29.42767 23.73626
#
# Velocity S-wave (km/s) = 2.83321 3.61810 3.24944
# Velocity P-wave (km/s) = 4.67614 5.96077 5.35710
#
# Compressibility (1/GPa) = 0.03984784
#
# Stress axis : x y z
#
# Youngs Moduli (GPa) = 43.47555 58.36742 40.39362
#
# Poissons Ratio (x) = 0.58929 -0.08179
# Poissons Ratio (y) = 0.43894 0.17975
# Poissons Ratio (z) = -0.08803 0.25973
#
# Static dielectric constant tensor:
#      x y z
#    x 1.893710 -0.018960 0.046990 
#    y -0.018960 1.857690 -0.029620 
#    z 0.046990 -0.029620 1.917980 
# 
# From -- ./inp_files/159511.got.cif
#   From: 2010.05.17/outbox.cif.g08.bks.cpg/sg2_80_cif.got.tgz:159511.got - 2010.06.03 11:33:40.
