data_PCOD9077045
_publ_section_title
;
Structure prediction by ZEFSAII (Michael W. Deem and Ramdas Pophale) SiO2 
 PCOD9077045
Probable space group: P -1
;
_chemical_formula_sum "Si O2"
_cell_formula_units_Z 16
_cell_length_a 14.643310
_cell_length_b 8.079275
_cell_length_c 6.971577
_cell_angle_alpha 116.724348
_cell_angle_beta 78.459089
_cell_angle_gamma 66.772038
_cell_volume 601.153601
_symmetry_space_group_name_H-M "P -1"
_symmetry_group_IT_number 2
_symmetry_cell_setting 'triclinic'
loop_
_space_group_symop_operation_xyz
x,y,z
-x,-y,-z
loop_
_atom_site_type_symbol
_atom_site_label
_atom_site_fract_x
_atom_site_fract_y
_atom_site_fract_z
Si Si1 0.155949 0.100693 0.391876
Si Si2 0.624714 0.350828 0.446373
Si Si3 0.652109 0.879389 0.811459
Si Si4 0.963551 0.807451 0.140406
Si Si5 0.557921 0.670286 0.974927
Si Si6 0.400235 0.255235 0.621442
Si Si7 0.155819 0.796672 0.899117
Si Si8 0.754825 0.866415 0.243888
O O1 0.045107 0.202287 0.629647
O O2 0.238062 0.022646 0.501465
O O3 0.217992 0.202342 0.304906
O O4 0.147470 0.948153 0.160423
O O5 0.500000 0.500000 0.500000
O O6 0.618146 0.448683 0.709018
O O7 0.713412 0.364875 0.284286
O O8 0.672179 0.089810 0.277999
O O9 0.624434 0.788793 0.961470
O O10 0.609024 0.779430 0.617616
O O11 0.568159 0.144622 0.947426
O O12 0.898351 0.055955 0.196667
O O13 0.883865 0.731414 0.055244
O O14 0.083851 0.698793 0.939518
O O15 0.567112 0.623132 0.173609
O O16 0.500000 0.000000 0.500000
O O17 0.287280 0.285205 0.761413
#
# Coordination Sequence:
#
# PCOD9077045 Si02
#       8
#     2   2   2   2   2   2   2   2
#     4   9  17  32  57  84 102 132 186 228 260 307
#     4  11  23  35  51  81 117 142 170 219 273 322
#     4   9  19  33  53  77  98 141 187 212 260 315
#     4   8  18  32  55  82 107 133 183 228 253 318
#     4  10  21  34  52  72 109 145 176 213 262 323
#     4   9  18  34  55  74 103 137 183 224 253 313
#     4  10  18  34  55  79 110 144 171 217 279 308
#     4   8  19  35  53  81 106 130 183 223 262 307
#
# _framework density 26.615497000000001
#
# number of rings (size 3 to 8) (size 9 to 14) (size 15 to 20)
#    0.750    2.000    0.000    1.125    8.750    0.000 
#    2.250    6.250    0.000    1.500    0.000    0.000 
#    0.000    0.000    0.000    0.000    0.000    0.000 
#
# Total GULP energy -89110.845818 kJ/mol
# GULP energy per Si atom -5569.427864 kJ/mol
# Density = 2.655492 g / cm^3
# Si number density = 26.615497 Si / 1000 Ang^3
#
#
#
# Elastic Constant Matrix: (Units=GPa)
#
#
# Indices 1 2 3 4 5 6 
#
# 1 118.3658 25.1200 45.0728 -11.5135 -39.2177 17.6825
# 2 25.1200 56.9140 30.2559 -15.3022 -1.2455 2.8508
# 3 45.0728 30.2559 138.2353 -20.9196 -4.2102 -5.4538
# 4 -11.5135 -15.3022 -20.9196 34.2261 2.8755 -3.7942
# 5 -39.2177 -1.2455 -4.2102 2.8755 61.0387 -21.4377
# 6 17.6825 2.8508 -5.4538 -3.7942 -21.4377 46.2584
#
#
#
# Elastic Compliance Matrix: (Units=1/GPa)
#
#
# Indices 1 2 3 4 5 6 
#
# 1 0.013329 -0.003884 -0.003350 -0.000134 0.007658 -0.001712
# 2 -0.003884 0.022681 -0.002719 0.007307 -0.002910 -0.000983
# 3 -0.003350 -0.002719 0.009578 0.003860 -0.000851 0.002500
# 4 -0.000134 0.007307 0.003860 0.035136 -0.000351 0.002775
# 5 0.007658 -0.002910 -0.000851 -0.000351 0.024117 0.008299
# 6 -0.001712 -0.000983 0.002500 0.002775 0.008299 0.026701
#
#
# Mechanical properties :
#
#
# Convention : Reuss Voigt Hill
#
# Bulk Modulus (GPa) = 38.94112 57.15695 48.04903
# Shear Modulus (GPa) = 31.24809 42.50908 36.87858
#
# Velocity S-wave (km/s) = 3.43017 4.00078 3.72641
# Velocity P-wave (km/s) = 5.50916 6.54701 6.05038
#
# Compressibility (1/GPa) = 0.02567980
#
# Stress axis : x y z
#
# Youngs Moduli (GPa) = 75.02592 44.09065 104.40051
#
# Poissons Ratio (x) = 0.17127 0.34978
# Poissons Ratio (y) = 0.29144 0.28388
# Poissons Ratio (z) = 0.25136 0.11989
#
# Static dielectric constant tensor:
#      x y z
#    x 2.220680 0.215090 -0.043240 
#    y 0.215090 3.055490 0.062090 
#    z -0.043240 0.062090 2.125150 
# 
# From -- ./inp_files/305892.got.cif
#   From: 2010.05.17/outbox.cif.g08.bks.cpg/sg2_153_cif.got.tgz:305892.got - 2010.06.03 11:33:40.
