data_PCOD9077512
_publ_section_title
;
Structure prediction by ZEFSAII (Michael W. Deem and Ramdas Pophale) SiO2 
 PCOD9077512
Probable space group: P -1
;
_chemical_formula_sum "Si O2"
_cell_formula_units_Z 16
_cell_length_a 15.082461
_cell_length_b 17.826336
_cell_length_c 27.056151
_cell_angle_alpha 161.592303
_cell_angle_beta 158.206915
_cell_angle_gamma 28.952464
_cell_volume 851.694642
_symmetry_space_group_name_H-M "P -1"
_symmetry_group_IT_number 2
_symmetry_cell_setting 'triclinic'
loop_
_space_group_symop_operation_xyz
x,y,z
-x,-y,-z
loop_
_atom_site_type_symbol
_atom_site_label
_atom_site_fract_x
_atom_site_fract_y
_atom_site_fract_z
Si Si1 0.514484 0.237354 0.187632
Si Si2 0.812413 0.105899 0.003948
Si Si3 0.477947 0.004178 0.128938
Si Si4 0.560118 0.467451 0.858288
Si Si5 0.059200 0.357283 0.561262
Si Si6 0.389918 0.329050 0.879111
Si Si7 0.954753 0.488797 0.910709
Si Si8 0.009616 0.053713 0.445698
O O1 0.298566 0.399370 0.161717
O O2 0.791582 0.334078 0.386055
O O3 0.467744 0.149856 0.164794
O O4 0.500000 0.000000 0.000000
O O5 0.900049 0.370798 0.230439
O O6 0.739245 0.962265 0.925452
O O7 0.576155 0.133594 0.866984
O O8 0.000000 0.000000 0.000000
O O9 0.498225 0.716788 0.954773
O O10 0.732902 0.075458 0.329388
O O11 0.305224 0.316693 0.632857
O O12 0.627364 0.530487 0.989989
O O13 0.803058 0.382448 0.906706
O O14 0.057200 0.189377 0.503227
O O15 0.161743 0.187447 0.650256
O O16 0.500000 0.500000 0.000000
O O17 0.947483 0.222392 0.716832
O O18 0.000000 0.500000 0.000000
#
# Coordination Sequence:
#
# PCOD9077512 Si02
#       8
#     2   2   2   2   2   2   2   2
#     4  11  22  41  62  82 114 152 189 241 295 338
#     4  10  21  35  55  83 125 150 184 235 279 344
#     4   8  19  37  55  80 112 154 186 229 286 336
#     4   9  19  38  61  85 120 150 195 234 280 345
#     4   9  19  39  59  86 115 157 186 231 292 339
#     4  10  18  34  60  87 116 156 185 233 290 332
#     4  11  24  40  60  88 113 148 199 246 282 342
#     4  10  18  37  61  83 117 150 196 236 284 342
#
# _framework density 18.786076000000001
#
# number of rings (size 3 to 8) (size 9 to 14) (size 15 to 20)
#    0.000    2.500    2.500    2.250    1.750    5.500 
#    0.000    9.375    0.000    0.000    0.000    0.000 
#    0.000    0.000    0.000    0.000    0.000    0.000 
#
# Total GULP energy -89079.584296 kJ/mol
# GULP energy per Si atom -5567.474019 kJ/mol
# Density = 1.874332 g / cm^3
# Si number density = 18.786076 Si / 1000 Ang^3
#
#
#
# Elastic Constant Matrix: (Units=GPa)
#
#
# Indices 1 2 3 4 5 6 
#
# 1 90.2939 44.5964 38.7957 -16.3094 15.5370 -12.0957
# 2 44.5964 71.6174 51.6902 -29.4931 0.2036 -0.5841
# 3 38.7957 51.6902 106.1238 -24.1310 20.4544 -5.4298
# 4 -16.3094 -29.4931 -24.1310 29.3755 -2.7453 4.3447
# 5 15.5370 0.2036 20.4544 -2.7453 32.6550 -4.5072
# 6 -12.0957 -0.5841 -5.4298 4.3447 -4.5072 30.0061
#
#
#
# Elastic Compliance Matrix: (Units=1/GPa)
#
#
# Indices 1 2 3 4 5 6 
#
# 1 0.019741 -0.015286 0.001216 -0.005345 -0.009511 0.007226
# 2 -0.015286 0.044671 -0.013392 0.028283 0.016472 -0.009337
# 3 0.001216 -0.013392 0.017941 0.000652 -0.011449 0.001662
# 4 -0.005345 0.028283 0.000652 0.061969 0.005846 -0.009581
# 5 -0.009511 0.016472 -0.011449 0.005846 0.042706 -0.000017
# 6 0.007226 -0.009337 0.001662 -0.009581 -0.000017 0.037743
#
#
# Mechanical properties :
#
#
# Convention : Reuss Voigt Hill
#
# Bulk Modulus (GPa) = 36.45528 59.79994 48.12761
# Shear Modulus (GPa) = 17.31070 27.27086 22.29078
#
# Velocity S-wave (km/s) = 3.03886 3.81419 3.44838
# Velocity P-wave (km/s) = 5.63564 7.16230 6.44434
#
# Compressibility (1/GPa) = 0.02743087
#
# Stress axis : x y z
#
# Youngs Moduli (GPa) = 50.65534 22.38570 55.73789
#
# Poissons Ratio (x) = 0.34218 -0.06778
# Poissons Ratio (y) = 0.77431 0.74642
# Poissons Ratio (z) = -0.06160 0.29978
#
# Static dielectric constant tensor:
#      x y z
#    x 1.706300 -0.025240 0.065180 
#    y -0.025240 1.659170 -0.016680 
#    z 0.065180 -0.016680 1.689640 
# 
# From -- ./inp_files/310919.got.cif
#   From: 2010.05.17/outbox.cif.g08.bks.cpg/sg2_156_cif.got.tgz:310919.got - 2010.06.03 11:33:40.
