data_PCOD9077951
_publ_section_title
;
Structure prediction by ZEFSAII (Michael W. Deem and Ramdas Pophale) SiO2 
 PCOD9077951
Probable space group: P -1
;
_chemical_formula_sum "Si O2"
_cell_formula_units_Z 14
_cell_length_a 5.313596
_cell_length_b 15.401645
_cell_length_c 20.870847
_cell_angle_alpha 26.393697
_cell_angle_beta 87.265026
_cell_angle_gamma 101.780097
_cell_volume 630.363208
_symmetry_space_group_name_H-M "P -1"
_symmetry_group_IT_number 2
_symmetry_cell_setting 'triclinic'
loop_
_space_group_symop_operation_xyz
x,y,z
-x,-y,-z
loop_
_atom_site_type_symbol
_atom_site_label
_atom_site_fract_x
_atom_site_fract_y
_atom_site_fract_z
Si Si1 0.596116 0.488659 0.403093
Si Si2 0.285551 0.381244 0.222644
Si Si3 0.578880 0.730904 0.576835
Si Si4 0.364356 0.837310 0.672489
Si Si5 0.774270 0.089237 0.888922
Si Si6 0.168247 0.266165 0.945971
Si Si7 0.473326 0.162960 0.734422
O O1 0.383812 0.370274 0.422402
O O2 0.563946 0.291780 0.580856
O O3 0.546656 0.661157 0.332213
O O4 0.939980 0.658635 0.262992
O O5 0.202746 0.242548 0.384645
O O6 0.452603 0.284532 0.242818
O O7 0.550895 0.642948 0.068706
O O8 0.993567 0.342569 0.217626
O O9 0.256155 0.518808 0.751388
O O10 0.596303 0.968151 0.406853
O O11 0.500000 0.000000 0.500000
O O12 0.706553 0.125748 0.792586
O O13 0.500000 0.000000 0.000000
O O14 0.823790 0.880819 0.016315
O O15 0.844889 0.087572 0.098357
#
# Coordination Sequence:
#
# PCOD9077951 Si02
#       7
#     2   2   2   2   2   2   2
#     4  10  21  38  53  79 115 152 194 227 289 353
#     4   9  21  34  58  88 120 146 190 251 302 341
#     4   9  18  33  55  84 108 143 193 239 290 340
#     4  10  18  35  56  88 121 146 187 250 303 346
#     4  11  21  33  56  84 113 146 193 244 286 343
#     4   9  21  33  56  82 110 145 193 232 299 333
#     4  10  21  38  54  75 117 157 185 236 285 354
#
# _framework density 22.209416000000001
#
# number of rings (size 3 to 8) (size 9 to 14) (size 15 to 20)
#    0.857    1.429    0.000    3.857    2.000    3.429 
#    2.571    0.000    0.000    1.714    0.000    0.000 
#    0.000    0.000    0.000    0.000    0.000    0.000 
#
# Total GULP energy -78029.138004 kJ/mol
# GULP energy per Si atom -5573.509857 kJ/mol
# Density = 2.215887 g / cm^3
# Si number density = 22.209416 Si / 1000 Ang^3
#
#
#
# Elastic Constant Matrix: (Units=GPa)
#
#
# Indices 1 2 3 4 5 6 
#
# 1 66.7456 14.8984 24.9441 -1.0019 -8.3150 7.5345
# 2 14.8984 65.8818 40.9408 -16.3716 -4.5355 2.5386
# 3 24.9441 40.9408 77.9022 -11.8224 -1.9439 13.7714
# 4 -1.0019 -16.3716 -11.8224 30.5250 9.6687 1.9071
# 5 -8.3150 -4.5355 -1.9439 9.6687 22.8072 -2.3978
# 6 7.5345 2.5386 13.7714 1.9071 -2.3978 21.5648
#
#
#
# Elastic Compliance Matrix: (Units=1/GPa)
#
#
# Indices 1 2 3 4 5 6 
#
# 1 0.018372 -0.001336 -0.005407 -0.004564 0.007744 -0.001544
# 2 -0.001336 0.024998 -0.012291 0.008160 0.000472 0.004704
# 3 -0.005407 -0.012291 0.023990 0.005231 -0.005966 -0.013110
# 4 -0.004564 0.008160 0.005231 0.045910 -0.020003 -0.008991
# 5 0.007744 0.000472 -0.005966 -0.020003 0.055681 0.009009
# 6 -0.001544 0.004704 -0.013110 -0.008991 0.009009 0.056527
#
#
# Mechanical properties :
#
#
# Convention : Reuss Voigt Hill
#
# Bulk Modulus (GPa) = 34.13995 41.34402 37.74199
# Shear Modulus (GPa) = 18.29432 23.62916 20.96174
#
# Velocity S-wave (km/s) = 2.87316 3.26533 3.07550
# Velocity P-wave (km/s) = 5.13926 5.73345 5.44446
#
# Compressibility (1/GPa) = 0.02929119
#
# Stress axis : x y z
#
# Youngs Moduli (GPa) = 54.43178 40.00370 41.68443
#
# Poissons Ratio (x) = 0.05345 0.22538
# Poissons Ratio (y) = 0.07273 0.51234
# Poissons Ratio (z) = 0.29430 0.49169
#
# Static dielectric constant tensor:
#      x y z
#    x 1.916590 -0.010360 0.033100 
#    y -0.010360 1.879870 -0.035270 
#    z 0.033100 -0.035270 1.816990 
# 
# From -- ./inp_files/583600.got.cif
#   From: 2010.05.17/outbox.cif.g08.bks.cpg/sg2_292_cif.got.tgz:583600.got - 2010.06.03 11:33:40.
