data_PCOD9077889
_publ_section_title
;
Structure prediction by ZEFSAII (Michael W. Deem and Ramdas Pophale) SiO2 
 PCOD9077889
Probable space group: P -1
;
_chemical_formula_sum "Si O2"
_cell_formula_units_Z 15
_cell_length_a 7.686254
_cell_length_b 18.743106
_cell_length_c 14.038020
_cell_angle_alpha 20.227332
_cell_angle_beta 57.804150
_cell_angle_gamma 60.811024
_cell_volume 591.189361
_symmetry_space_group_name_H-M "P -1"
_symmetry_group_IT_number 2
_symmetry_cell_setting 'triclinic'
loop_
_space_group_symop_operation_xyz
x,y,z
-x,-y,-z
loop_
_atom_site_type_symbol
_atom_site_label
_atom_site_fract_x
_atom_site_fract_y
_atom_site_fract_z
Si Si1 0.528938 0.812475 0.083261
Si Si2 0.435545 0.546295 0.830075
Si Si3 0.242948 0.716519 0.850442
Si Si4 0.500000 0.000000 0.500000
Si Si5 0.942166 0.801960 0.175230
Si Si6 0.917998 0.564220 0.285897
Si Si7 0.444816 0.764403 0.376088
Si Si8 0.294745 0.043604 0.707211
O O1 0.689629 0.638174 0.242522
O O2 0.401434 0.764213 0.277839
O O3 0.408603 0.868025 0.954437
O O4 0.641268 0.032857 0.803522
O O5 0.265325 0.595518 0.896569
O O6 0.380987 0.576190 0.699148
O O7 0.604112 0.731091 0.576426
O O8 0.545978 0.331646 0.086421
O O9 0.299803 0.957765 0.531455
O O10 0.054328 0.628586 0.075179
O O11 0.331445 0.008019 0.630222
O O12 0.039286 0.658910 0.405652
O O13 0.986813 0.698050 0.190535
O O14 0.695801 0.792075 0.272481
O O15 0.066845 0.017213 0.851597
#
# Coordination Sequence:
#
# PCOD9077889 Si02
#       8
#     2   2   2   1   2   2   2   2
#     4   9  20  32  54  79 122 136 183 221 298 309
#     4   9  19  32  56  80 107 144 189 222 271 317
#     4  10  18  35  55  83 107 144 187 230 264 327
#     4  10  20  34  58  80 114 138 186 232 272 324
#     4  10  19  32  60  80 111 141 199 216 272 320
#     4  10  19  34  54  86 108 150 176 236 267 336
#     4   9  17  36  52  80 109 156 175 227 267 342
#     4  10  20  36  54  88 105 148 183 233 267 332
#
# _framework density 25.372582000000001
#
# number of rings (size 3 to 8) (size 9 to 14) (size 15 to 20)
#    0.000    2.400    2.667    0.000    0.000    2.667 
#    0.000    6.000    0.000    0.000    0.000    7.467 
#    0.000    0.000    0.000    0.000    0.000    0.000 
#
# Total GULP energy -83563.227860 kJ/mol
# GULP energy per Si atom -5570.881857 kJ/mol
# Density = 2.531483 g / cm^3
# Si number density = 25.372582 Si / 1000 Ang^3
#
#
#
# Elastic Constant Matrix: (Units=GPa)
#
#
# Indices 1 2 3 4 5 6 
#
# 1 62.7610 20.9865 18.2928 1.3696 11.9263 -3.9283
# 2 20.9865 131.1349 32.9810 22.0624 1.0393 -17.7797
# 3 18.2928 32.9810 76.1283 18.5445 5.0550 -8.1609
# 4 1.3696 22.0624 18.5445 46.3888 1.9527 -5.3683
# 5 11.9263 1.0393 5.0550 1.9527 38.8839 10.7347
# 6 -3.9283 -17.7797 -8.1609 -5.3683 10.7347 20.7349
#
#
#
# Elastic Compliance Matrix: (Units=1/GPa)
#
#
# Indices 1 2 3 4 5 6 
#
# 1 0.019115 -0.001923 -0.003413 0.002561 -0.006829 0.004828
# 2 -0.001923 0.009981 -0.002311 -0.002887 -0.001209 0.007164
# 3 -0.003413 -0.002311 0.016671 -0.004976 -0.001796 0.003575
# 4 0.002561 -0.002887 -0.004976 0.025392 -0.002405 0.003871
# 5 -0.006829 -0.001209 -0.001796 -0.002405 0.034080 -0.021304
# 6 0.004828 0.007164 0.003575 0.003871 -0.021304 0.068724
#
#
# Mechanical properties :
#
#
# Convention : Reuss Voigt Hill
#
# Bulk Modulus (GPa) = 32.81397 46.06053 39.43725
# Shear Modulus (GPa) = 25.07333 34.38580 29.72957
#
# Velocity S-wave (km/s) = 3.14698 3.68535 3.42675
# Velocity P-wave (km/s) = 5.11523 6.02512 5.58873
#
# Compressibility (1/GPa) = 0.03047482
#
# Stress axis : x y z
#
# Youngs Moduli (GPa) = 52.31427 100.18934 59.98305
#
# Poissons Ratio (x) = 0.19265 0.20471
# Poissons Ratio (y) = 0.10060 0.13860
# Poissons Ratio (z) = 0.17854 0.23150
#
# Static dielectric constant tensor:
#      x y z
#    x 2.004380 -0.100450 0.201230 
#    y -0.100450 1.875550 0.327810 
#    z 0.201230 0.327810 1.207250 
# 
# From -- ./inp_files/457885.got.cif
#   From: 2010.05.17/outbox.cif.g08.bks.cpg/sg2_229_cif.got.tgz:457885.got - 2010.06.03 11:33:40.
