data_PCOD9077317
_publ_section_title
;
Structure prediction by ZEFSAII (Michael W. Deem and Ramdas Pophale) SiO2 
 PCOD9077317
Probable space group: P -1
;
_chemical_formula_sum "Si O2"
_cell_formula_units_Z 16
_cell_length_a 9.492224
_cell_length_b 11.526889
_cell_length_c 10.317771
_cell_angle_alpha 74.584063
_cell_angle_beta 131.082909
_cell_angle_gamma 125.168122
_cell_volume 683.883659
_symmetry_space_group_name_H-M "P -1"
_symmetry_group_IT_number 2
_symmetry_cell_setting 'triclinic'
loop_
_space_group_symop_operation_xyz
x,y,z
-x,-y,-z
loop_
_atom_site_type_symbol
_atom_site_label
_atom_site_fract_x
_atom_site_fract_y
_atom_site_fract_z
Si Si1 0.766390 0.957491 0.938623
Si Si2 0.961943 0.921376 0.296446
Si Si3 0.600826 0.149088 0.777920
Si Si4 0.004308 0.586684 0.769588
Si Si5 0.574421 0.857081 0.596711
Si Si6 0.554154 0.451415 0.412549
Si Si7 0.293319 0.554357 0.119263
Si Si8 0.884406 0.123114 0.354184
O O1 0.560578 0.871542 0.738462
O O2 0.768459 0.100355 0.929537
O O3 0.762474 0.872409 0.089052
O O4 0.000000 0.000000 0.000000
O O5 0.960361 0.824655 0.438954
O O6 0.987012 0.059644 0.340816
O O7 0.198724 0.991314 0.346957
O O8 0.595399 0.165882 0.613366
O O9 0.634184 0.290055 0.824057
O O10 0.357932 0.014945 0.714803
O O11 0.810176 0.500477 0.571382
O O12 0.882395 0.556987 0.845362
O O13 0.126783 0.751921 0.754431
O O14 0.171636 0.537396 0.915521
O O15 0.592637 0.720101 0.635846
O O16 0.500000 0.500000 0.500000
O O17 0.487560 0.524776 0.243182
#
# Coordination Sequence:
#
# PCOD9077317 Si02
#       8
#     2   2   2   2   2   2   2   2
#     4  10  22  37  58  87 118 157 204 252 284 355
#     4   9  19  34  55  87 117 156 192 241 306 352
#     4  11  21  37  58  93 118 151 196 249 305 351
#     4  10  20  34  51  87 117 157 187 236 298 358
#     4  10  19  37  59  87 119 156 201 246 292 349
#     4  10  18  34  58  84 121 152 192 251 296 340
#     4  10  21  34  59  88 123 150 199 248 298 353
#     4  10  21  34  59  86 126 152 186 249 310 356
#
# _framework density 23.395792
#
# number of rings (size 3 to 8) (size 9 to 14) (size 15 to 20)
#    0.000    2.000    2.500    2.625    3.500    6.000 
#    0.000    0.000    0.000    1.500    0.000    0.000 
#    0.000    0.000    0.000    0.000    0.000    0.000 
#
# Total GULP energy -89241.268383 kJ/mol
# GULP energy per Si atom -5577.579274 kJ/mol
# Density = 2.334254 g / cm^3
# Si number density = 23.395792 Si / 1000 Ang^3
#
#
#
# Elastic Constant Matrix: (Units=GPa)
#
#
# Indices 1 2 3 4 5 6 
#
# 1 34.4780 20.7939 14.1638 -5.5666 6.3339 -6.2090
# 2 20.7939 101.4213 28.0705 -20.4705 6.1775 7.3990
# 3 14.1638 28.0705 180.0576 -37.6081 12.9519 3.8042
# 4 -5.5666 -20.4705 -37.6081 37.2294 -6.3157 5.1269
# 5 6.3339 6.1775 12.9519 -6.3157 31.6699 -4.5178
# 6 -6.2090 7.3990 3.8042 5.1269 -4.5178 20.3895
#
#
#
# Elastic Compliance Matrix: (Units=1/GPa)
#
#
# Indices 1 2 3 4 5 6 
#
# 1 0.038256 -0.008993 -0.002671 -0.004692 -0.003484 0.015820
# 2 -0.008993 0.013999 0.000500 0.008092 -0.000972 -0.010162
# 3 -0.002671 0.000500 0.007557 0.007867 -0.001766 -0.004774
# 4 -0.004692 0.008092 0.007867 0.041073 0.002094 -0.015697
# 5 -0.003484 -0.000972 -0.001766 0.002094 0.034565 0.006754
# 6 0.015820 -0.010162 -0.004774 -0.015697 0.006754 0.063884
#
#
# Mechanical properties :
#
#
# Convention : Reuss Voigt Hill
#
# Bulk Modulus (GPa) = 26.67827 49.11260 37.89544
# Shear Modulus (GPa) = 21.35307 34.71967 28.03637
#
# Velocity S-wave (km/s) = 3.02435 3.85647 3.46548
# Velocity P-wave (km/s) = 4.86039 6.39276 5.67850
#
# Compressibility (1/GPa) = 0.03748368
#
# Stress axis : x y z
#
# Youngs Moduli (GPa) = 26.13942 71.43234 132.32609
#
# Poissons Ratio (x) = 0.64241 0.35345
# Poissons Ratio (y) = 0.23508 -0.06614
# Poissons Ratio (z) = 0.06982 -0.03570
#
# Static dielectric constant tensor:
#      x y z
#    x 1.925660 0.019820 0.017550 
#    y 0.019820 1.872630 0.027010 
#    z 0.017550 0.027010 2.045980 
# 
# From -- ./inp_files/427912.got.cif
#   From: 2010.05.17/outbox.cif.g08.bks.cpg/sg2_214_cif.got.tgz:427912.got - 2010.06.03 11:33:40.
