data_PCOD9077627
_publ_section_title
;
Structure prediction by ZEFSAII (Michael W. Deem and Ramdas Pophale) SiO2 
 PCOD9077627
Probable space group: P -1
;
_chemical_formula_sum "Si O2"
_cell_formula_units_Z 16
_cell_length_a 14.534674
_cell_length_b 10.629313
_cell_length_c 8.027063
_cell_angle_alpha 122.162695
_cell_angle_beta 78.591448
_cell_angle_gamma 137.383647
_cell_volume 668.893856
_symmetry_space_group_name_H-M "P -1"
_symmetry_group_IT_number 2
_symmetry_cell_setting 'triclinic'
loop_
_space_group_symop_operation_xyz
x,y,z
-x,-y,-z
loop_
_atom_site_type_symbol
_atom_site_label
_atom_site_fract_x
_atom_site_fract_y
_atom_site_fract_z
Si Si1 0.615864 0.481787 0.596102
Si Si2 0.334469 0.753218 0.425237
Si Si3 0.166384 0.315094 0.780572
Si Si4 0.077014 0.139624 0.314867
Si Si5 0.021256 0.376068 0.290205
Si Si6 0.561295 0.234816 0.107603
Si Si7 0.379730 0.304142 0.771966
Si Si8 0.711935 0.042135 0.184156
O O1 0.645340 0.397743 0.671999
O O2 0.769168 0.744656 0.710954
O O3 0.594218 0.362201 0.353127
O O4 0.468864 0.381380 0.627185
O O5 0.173479 0.581908 0.282906
O O6 0.500000 0.000000 0.500000
O O7 0.302273 0.803184 0.644412
O O8 0.097009 0.225526 0.557403
O O9 0.290058 0.589671 0.926825
O O10 0.262499 0.284856 0.757811
O O11 0.039246 0.132829 0.828961
O O12 0.039682 0.241531 0.290538
O O13 0.000000 0.500000 0.500000
O O14 0.859780 0.182444 0.136011
O O15 0.432486 0.163887 0.010539
O O16 0.500000 0.000000 0.000000
O O17 0.300920 0.068157 0.717876
O O18 0.500000 0.500000 0.000000
#
# Coordination Sequence:
#
# PCOD9077627 Si02
#       8
#     2   2   2   2   2   2   2   2
#     4  10  22  38  64  90 120 164 209 253 305 368
#     4  10  18  34  61  92 119 158 206 252 302 356
#     4  10  21  37  61  87 125 164 205 251 312 372
#     4   9  19  38  59  88 121 165 209 248 308 371
#     4   9  19  32  58  92 120 161 204 250 303 363
#     4  11  22  38  63  93 123 161 206 253 314 376
#     4  12  23  39  61  91 121 160 208 254 306 364
#     4  11  20  36  61  90 125 157 201 254 305 365
#
# _framework density 23.920088
#
# number of rings (size 3 to 8) (size 9 to 14) (size 15 to 20)
#    0.000    1.750    5.000    0.000    1.750    2.000 
#    0.000    0.625    2.750    2.250    0.000    0.000 
#    0.000    0.000    0.000    0.000    0.000    0.000 
#
# Total GULP energy -89209.401163 kJ/mol
# GULP energy per Si atom -5575.587573 kJ/mol
# Density = 2.386564 g / cm^3
# Si number density = 23.920088 Si / 1000 Ang^3
#
#
#
# Elastic Constant Matrix: (Units=GPa)
#
#
# Indices 1 2 3 4 5 6 
#
# 1 68.3653 42.8440 17.7996 3.1563 11.8122 13.5114
# 2 42.8440 201.3168 32.4984 38.2663 0.5067 38.5962
# 3 17.7996 32.4984 53.9137 10.7164 3.0043 10.6434
# 4 3.1563 38.2663 10.7164 40.8908 4.5040 3.6824
# 5 11.8122 0.5067 3.0043 4.5040 26.2621 7.5476
# 6 13.5114 38.5962 10.6434 3.6824 7.5476 57.2670
#
#
#
# Elastic Compliance Matrix: (Units=1/GPa)
#
#
# Indices 1 2 3 4 5 6 
#
# 1 0.019887 -0.004407 -0.004337 0.004738 -0.009173 -0.000011
# 2 -0.004407 0.008356 -0.001530 -0.007174 0.004502 -0.004439
# 3 -0.004337 -0.001530 0.022012 -0.003907 0.000671 -0.001874
# 4 0.004738 -0.007174 -0.003907 0.032410 -0.008088 0.003426
# 5 -0.009173 0.004502 0.000671 -0.008088 0.045279 -0.006442
# 6 -0.000011 -0.004439 -0.001874 0.003426 -0.006442 0.021434
#
#
# Mechanical properties :
#
#
# Convention : Reuss Voigt Hill
#
# Bulk Modulus (GPa) = 33.66465 56.65331 45.15898
# Shear Modulus (GPa) = 27.80435 40.24756 34.02595
#
# Velocity S-wave (km/s) = 3.41308 4.10638 3.77568
# Velocity P-wave (km/s) = 5.44394 6.79845 6.15855
#
# Compressibility (1/GPa) = 0.02970475
#
# Stress axis : x y z
#
# Youngs Moduli (GPa) = 50.28388 119.67766 45.43070
#
# Poissons Ratio (x) = 0.52748 0.19705
# Poissons Ratio (y) = 0.22162 0.06951
# Poissons Ratio (z) = 0.21810 0.18312
#
# Static dielectric constant tensor:
#      x y z
#    x 1.920960 -0.012900 0.008670 
#    y -0.012900 2.067150 0.011140 
#    z 0.008670 0.011140 2.009320 
# 
# From -- ./inp_files/308322.got.cif
#   From: 2010.05.17/outbox.cif.g08.bks.cpg/sg2_155_cif.got.tgz:308322.got - 2010.06.03 11:33:40.
