data_PCOD9077589
_publ_section_title
;
Structure prediction by ZEFSAII (Michael W. Deem and Ramdas Pophale) SiO2 
 PCOD9077589
Probable space group: P -1
;
_chemical_formula_sum "Si O2"
_cell_formula_units_Z 16
_cell_length_a 13.323226
_cell_length_b 6.915014
_cell_length_c 7.976004
_cell_angle_alpha 97.928039
_cell_angle_beta 66.934138
_cell_angle_gamma 75.188792
_cell_volume 629.772164
_symmetry_space_group_name_H-M "P -1"
_symmetry_group_IT_number 2
_symmetry_cell_setting 'triclinic'
loop_
_space_group_symop_operation_xyz
x,y,z
-x,-y,-z
loop_
_atom_site_type_symbol
_atom_site_label
_atom_site_fract_x
_atom_site_fract_y
_atom_site_fract_z
Si Si1 0.008544 0.921331 0.710340
Si Si2 0.401784 0.038914 0.362359
Si Si3 0.908035 0.427940 0.149239
Si Si4 0.233511 0.056009 0.175919
Si Si5 0.802923 0.454864 0.556084
Si Si6 0.395454 0.640642 0.476652
Si Si7 0.657477 0.989070 0.242771
Si Si8 0.823054 0.340781 0.878421
O O1 0.032710 0.810418 0.860403
O O2 0.127616 0.799042 0.524197
O O3 0.904237 0.854926 0.691552
O O4 0.953736 0.167748 0.775243
O O5 0.525793 0.065997 0.266519
O O6 0.312375 0.100117 0.274819
O O7 0.430941 0.790104 0.342499
O O8 0.349706 0.125540 0.590827
O O9 0.865391 0.528826 0.371788
O O10 0.808277 0.444798 0.081606
O O11 0.000000 0.500000 0.000000
O O12 0.254758 0.805399 0.118675
O O13 0.261654 0.108993 0.975816
O O14 0.674312 0.484889 0.584774
O O15 0.810984 0.495835 0.750359
O O16 0.500000 0.500000 0.500000
O O17 0.314177 0.813443 0.678753
#
# Coordination Sequence:
#
# PCOD9077589 Si02
#       8
#     2   2   2   2   2   2   2   2
#     4   8  21  35  56  90 105 140 189 224 270 340
#     4   9  19  36  57  81 114 138 182 227 276 317
#     4  10  22  37  51  80 118 144 179 224 274 331
#     4  10  18  34  61  86 106 137 187 227 271 328
#     4  10  20  38  59  78 114 146 183 235 263 324
#     4  10  19  37  57  77 107 146 190 217 260 329
#     4   9  19  35  56  80 114 141 174 233 278 302
#     4  10  18  34  62  80 106 146 190 218 277 324
#
# _framework density 25.406016000000001
#
# number of rings (size 3 to 8) (size 9 to 14) (size 15 to 20)
#    2.250    0.250    1.250    1.875    0.000    0.500 
#    4.500    1.875    0.000    0.000    0.000    0.000 
#    0.000    0.000    0.000    0.000    0.000    0.000 
#
# Total GULP energy -89212.395591 kJ/mol
# GULP energy per Si atom -5575.774724 kJ/mol
# Density = 2.534819 g / cm^3
# Si number density = 25.406016 Si / 1000 Ang^3
#
#
#
# Elastic Constant Matrix: (Units=GPa)
#
#
# Indices 1 2 3 4 5 6 
#
# 1 120.9170 15.2606 33.6413 -11.2018 30.1238 -3.2638
# 2 15.2606 72.1972 23.4352 -9.8230 7.0094 -13.5150
# 3 33.6413 23.4352 110.7052 -21.8246 28.3309 7.2695
# 4 -11.2018 -9.8230 -21.8246 40.7937 -2.2391 7.5221
# 5 30.1238 7.0094 28.3309 -2.2391 43.0371 -7.0417
# 6 -3.2638 -13.5150 7.2695 7.5221 -7.0417 45.2398
#
#
#
# Elastic Compliance Matrix: (Units=1/GPa)
#
#
# Indices 1 2 3 4 5 6 
#
# 1 0.010452 -0.001202 -0.000783 0.001952 -0.006640 -0.000837
# 2 -0.001202 0.016280 -0.003711 0.000676 0.001568 0.005505
# 3 -0.000783 -0.003711 0.014064 0.007035 -0.008714 -0.005951
# 4 0.001952 0.000676 0.007035 0.029890 -0.005638 -0.006635
# 5 -0.006640 0.001568 -0.008714 -0.005638 0.034326 0.007670
# 6 -0.000837 0.005505 -0.005951 -0.006635 0.007670 0.026942
#
#
# Mechanical properties :
#
#
# Convention : Reuss Voigt Hill
#
# Bulk Modulus (GPa) = 34.00698 49.83263 41.91981
# Shear Modulus (GPa) = 32.64877 41.24627 36.94752
#
# Velocity S-wave (km/s) = 3.58869 4.03362 3.81764
# Velocity P-wave (km/s) = 5.53047 6.43044 5.99736
#
# Compressibility (1/GPa) = 0.02940573
#
# Stress axis : x y z
#
# Youngs Moduli (GPa) = 95.67458 61.42668 71.10417
#
# Poissons Ratio (x) = 0.07382 0.05565
# Poissons Ratio (y) = 0.11498 0.26384
# Poissons Ratio (z) = 0.07488 0.22793
#
# Static dielectric constant tensor:
#      x y z
#    x 1.963850 0.014180 0.016620 
#    y 0.014180 2.091350 0.034200 
#    z 0.016620 0.034200 2.020180 
# 
# From -- ./inp_files/243915.got.cif
#   From: 2010.05.17/outbox.cif.g08.bks.cpg/sg2_122_cif.got.tgz:243915.got - 2010.06.03 11:33:40.
