data_PCOD9077096
_publ_section_title
;
Structure prediction by ZEFSAII (Michael W. Deem and Ramdas Pophale) SiO2 
 PCOD9077096
Probable space group: P -1
;
_chemical_formula_sum "Si O2"
_cell_formula_units_Z 16
_cell_length_a 9.925617
_cell_length_b 20.019978
_cell_length_c 7.405818
_cell_angle_alpha 76.916560
_cell_angle_beta 82.246835
_cell_angle_gamma 27.877957
_cell_volume 663.347796
_symmetry_space_group_name_H-M "P -1"
_symmetry_group_IT_number 2
_symmetry_cell_setting 'triclinic'
loop_
_space_group_symop_operation_xyz
x,y,z
-x,-y,-z
loop_
_atom_site_type_symbol
_atom_site_label
_atom_site_fract_x
_atom_site_fract_y
_atom_site_fract_z
Si Si1 0.786123 0.944797 0.970974
Si Si2 0.817376 0.171017 0.574769
Si Si3 0.164453 0.214596 0.096629
Si Si4 0.220966 0.393062 0.690251
Si Si5 0.782380 0.671170 0.823687
Si Si6 0.189299 0.872810 0.808190
Si Si7 0.352852 0.195430 0.616032
Si Si8 0.152918 0.160346 0.506568
O O1 0.634723 0.032530 0.750296
O O2 0.911137 0.812429 0.012265
O O3 0.517905 0.062366 0.088683
O O4 0.028167 0.895207 0.965562
O O5 0.508518 0.307713 0.645762
O O6 0.764532 0.185311 0.358973
O O7 0.001326 0.157396 0.585099
O O8 0.990982 0.026478 0.698985
O O9 0.088766 0.327735 0.070775
O O10 0.041534 0.237248 0.288920
O O11 0.298451 0.278584 0.721073
O O12 0.000000 0.500000 0.500000
O O13 0.032001 0.508782 0.813060
O O14 0.496938 0.761343 0.896365
O O15 0.647006 0.769131 0.604186
O O16 0.124852 0.235983 0.603978
O O17 0.500000 0.000000 0.500000
#
# Coordination Sequence:
#
# PCOD9077096 Si02
#       8
#     2   2   2   2   2   2   2   2
#     4  11  20  35  54  84 112 149 179 227 280 328
#     4  11  19  31  56  88 110 141 183 235 278 324
#     4  10  22  34  52  82 117 146 180 227 276 331
#     4  10  19  36  54  84 116 144 180 231 283 328
#     4  10  21  36  56  84 114 142 184 234 272 328
#     4  11  18  31  56  83 111 138 187 229 276 325
#     4  10  18  34  56  77 110 143 182 224 276 324
#     4  11  19  33  55  86 110 140 184 233 274 320
#
# _framework density 24.120076000000001
#
# number of rings (size 3 to 8) (size 9 to 14) (size 15 to 20)
#    0.000    1.500    6.250    2.250    0.000    0.500 
#    0.000    7.500    0.000    0.000    0.000    9.625 
#    0.000    0.000    0.000    0.000    0.000    0.000 
#
# Total GULP energy -89354.076279 kJ/mol
# GULP energy per Si atom -5584.629767 kJ/mol
# Density = 2.406518 g / cm^3
# Si number density = 24.120076 Si / 1000 Ang^3
#
#
#
# Elastic Constant Matrix: (Units=GPa)
#
#
# Indices 1 2 3 4 5 6 
#
# 1 218.4013 51.3455 21.4279 28.8191 -22.0951 1.7095
# 2 51.3455 77.3468 1.7906 16.1596 -11.8591 -10.2586
# 3 21.4279 1.7906 93.6235 12.1946 -26.9506 -12.7065
# 4 28.8191 16.1596 12.1946 30.6869 -9.0787 4.9156
# 5 -22.0951 -11.8591 -26.9506 -9.0787 28.4760 15.4843
# 6 1.7095 -10.2586 -12.7065 4.9156 15.4843 37.4921
#
#
#
# Elastic Compliance Matrix: (Units=1/GPa)
#
#
# Indices 1 2 3 4 5 6 
#
# 1 0.006089 -0.003308 -0.000308 -0.002377 0.003647 -0.002482
# 2 -0.003308 0.017788 0.002726 -0.007955 0.001402 0.006406
# 3 -0.000308 0.002726 0.015211 -0.003138 0.013995 0.000547
# 4 -0.002377 -0.007955 -0.003138 0.047383 0.015553 -0.015768
# 5 0.003647 0.001402 0.013995 0.015553 0.071117 -0.026450
# 6 -0.002482 0.006406 0.000547 -0.015768 -0.026450 0.041715
#
#
# Mechanical properties :
#
#
# Convention : Reuss Voigt Hill
#
# Bulk Modulus (GPa) = 26.80341 59.83327 43.31834
# Shear Modulus (GPa) = 23.41715 40.31818 31.86767
#
# Velocity S-wave (km/s) = 3.11924 4.09291 3.63879
# Velocity P-wave (km/s) = 4.91014 6.86994 5.97100
#
# Compressibility (1/GPa) = 0.03730868
#
# Stress axis : x y z
#
# Youngs Moduli (GPa) = 164.23857 56.21676 65.74232
#
# Poissons Ratio (x) = 0.18597 0.02022
# Poissons Ratio (y) = 0.54331 -0.17921
# Poissons Ratio (z) = 0.05051 -0.15325
#
# Static dielectric constant tensor:
#      x y z
#    x 2.029760 0.085040 0.067860 
#    y 0.085040 1.923710 0.017170 
#    z 0.067860 0.017170 2.056870 
# 
# From -- ./inp_files/223598.got.cif
#   From: 2010.05.17/outbox.cif.g08.bks.cpg/sg2_112_cif.got.tgz:223598.got - 2010.06.03 11:33:40.
