data_PCOD9077325
_publ_section_title
;
Structure prediction by ZEFSAII (Michael W. Deem and Ramdas Pophale) SiO2 
 PCOD9077325
Probable space group: P -1
;
_chemical_formula_sum "Si O2"
_cell_formula_units_Z 12
_cell_length_a 15.319687
_cell_length_b 15.692751
_cell_length_c 6.717192
_cell_angle_alpha 43.627448
_cell_angle_beta 142.459884
_cell_angle_gamma 154.760841
_cell_volume 419.424681
_symmetry_space_group_name_H-M "P -1"
_symmetry_group_IT_number 2
_symmetry_cell_setting 'triclinic'
loop_
_space_group_symop_operation_xyz
x,y,z
-x,-y,-z
loop_
_atom_site_type_symbol
_atom_site_label
_atom_site_fract_x
_atom_site_fract_y
_atom_site_fract_z
Si Si1 0.397815 0.548941 0.607421
Si Si2 0.212076 0.988409 0.467145
Si Si3 0.846109 0.269984 0.770539
Si Si4 0.172867 0.197406 0.614439
Si Si5 0.023865 0.622690 0.635973
Si Si6 0.622946 0.894184 0.869358
O O1 0.576772 0.778594 0.484889
O O2 0.271454 0.403029 0.433764
O O3 0.214777 0.484430 0.535851
O O4 0.500000 0.500000 0.000000
O O5 0.217399 0.006553 0.206768
O O6 0.214762 0.838411 0.727972
O O7 0.979872 0.884175 0.322488
O O8 0.947183 0.337237 0.616432
O O9 0.608667 0.188944 0.459075
O O10 0.008451 0.462702 0.880747
O O11 0.758080 0.069177 0.981249
O O12 0.399227 0.265383 0.869526
O O13 0.000000 0.000000 0.500000
#
# Coordination Sequence:
#
# PCOD9077325 Si02
#       6
#     2   2   2   2   2   2
#     4  11  20  34  60  85 112 148 194 237 277 331
#     4  10  20  34  60  80 110 150 191 238 272 331
#     4   9  17  30  55  87 115 141 187 244 265 326
#     4  11  24  38  56  86 120 147 184 238 292 337
#     4   9  18  30  51  89 110 137 182 239 287 311
#     4  10  18  34  58  86 112 147 193 229 283 328
#
# _framework density 28.610617999999999
#
# number of rings (size 3 to 8) (size 9 to 14) (size 15 to 20)
#    0.000    2.000    3.333    0.500    4.667    0.667 
#    0.000    0.000    0.000   20.000    0.000    0.000 
#    0.000    0.000    0.000    0.000    0.000    0.000 
#
# Total GULP energy -66963.993207 kJ/mol
# GULP energy per Si atom -5580.332767 kJ/mol
# Density = 2.854550 g / cm^3
# Si number density = 28.610618 Si / 1000 Ang^3
#
#
#
# Elastic Constant Matrix: (Units=GPa)
#
#
# Indices 1 2 3 4 5 6 
#
# 1 201.0196 92.8519 50.9489 -9.9705 40.1087 -24.5230
# 2 92.8519 273.9109 44.9443 -31.7902 24.3802 -68.7798
# 3 50.9489 44.9443 90.6335 -7.1936 34.7284 0.3759
# 4 -9.9705 -31.7902 -7.1936 49.0460 -18.0524 5.8364
# 5 40.1087 24.3802 34.7284 -18.0524 47.4313 -2.0309
# 6 -24.5230 -68.7798 0.3759 5.8364 -2.0309 86.9590
#
#
#
# Elastic Compliance Matrix: (Units=1/GPa)
#
#
# Indices 1 2 3 4 5 6 
#
# 1 0.007086 -0.001804 -0.001454 -0.001715 -0.004628 0.000585
# 2 -0.001804 0.005858 -0.002245 0.003199 0.001545 0.003956
# 3 -0.001454 -0.002245 0.017110 -0.003182 -0.011454 -0.002314
# 4 -0.001715 0.003199 -0.003182 0.026016 0.012063 0.000596
# 5 -0.004628 0.001545 -0.011454 0.012063 0.037181 0.000025
# 6 0.000585 0.003956 -0.002314 0.000596 0.000025 0.014764
#
#
# Mechanical properties :
#
#
# Convention : Reuss Voigt Hill
#
# Bulk Modulus (GPa) = 52.50037 104.78380 78.64208
# Shear Modulus (GPa) = 39.88156 61.80852 50.84504
#
# Velocity S-wave (km/s) = 3.73760 4.65298 4.22019
# Velocity P-wave (km/s) = 6.08408 8.09757 7.16194
#
# Compressibility (1/GPa) = 0.01904749
#
# Stress axis : x y z
#
# Youngs Moduli (GPa) = 141.12298 170.71712 58.44385
#
# Poissons Ratio (x) = 0.30792 0.08499
# Poissons Ratio (y) = 0.25454 0.13123
# Poissons Ratio (z) = 0.20522 0.38334
#
# Static dielectric constant tensor:
#      x y z
#    x 2.146820 0.018720 -0.177840 
#    y 0.018720 2.413840 -0.082810 
#    z -0.177840 -0.082810 2.503510 
# 
# From -- ./inp_files/165547.got.cif
#   From: 2010.05.17/outbox.cif.g08.bks.cpg/sg2_83_cif.got.tgz:165547.got - 2010.06.03 11:33:40.
