data_PCOD9077499
_publ_section_title
;
Structure prediction by ZEFSAII (Michael W. Deem and Ramdas Pophale) SiO2 
 PCOD9077499
Probable space group: P -1
;
_chemical_formula_sum "Si O2"
_cell_formula_units_Z 16
_cell_length_a 9.269819
_cell_length_b 9.252448
_cell_length_c 12.241103
_cell_angle_alpha 60.947472
_cell_angle_beta 127.046212
_cell_angle_gamma 100.305012
_cell_volume 722.752596
_symmetry_space_group_name_H-M "P -1"
_symmetry_group_IT_number 2
_symmetry_cell_setting 'triclinic'
loop_
_space_group_symop_operation_xyz
x,y,z
-x,-y,-z
loop_
_atom_site_type_symbol
_atom_site_label
_atom_site_fract_x
_atom_site_fract_y
_atom_site_fract_z
Si Si1 0.921816 0.547433 0.225041
Si Si2 0.275463 0.377626 0.120444
Si Si3 0.620349 0.343918 0.178440
Si Si4 0.186945 0.243727 0.358017
Si Si5 0.241217 0.277849 0.717857
Si Si6 0.447499 0.340116 0.593675
Si Si7 0.345688 0.750713 0.078350
Si Si8 0.861344 0.057190 0.259165
O O1 0.790208 0.426835 0.263424
O O2 0.907115 0.674691 0.272026
O O3 0.092231 0.418856 0.306429
O O4 0.831981 0.626206 0.041678
O O5 0.485204 0.297085 0.224312
O O6 0.199614 0.289140 0.220177
O O7 0.286784 0.572715 0.083229
O O8 0.709247 0.187846 0.205017
O O9 0.500000 0.500000 0.000000
O O10 0.377183 0.217353 0.519051
O O11 0.056931 0.104443 0.361776
O O12 0.297556 0.394849 0.602918
O O13 0.449055 0.230469 0.880058
O O14 0.173741 0.128852 0.674781
O O15 0.500000 0.500000 0.500000
O O16 0.380676 0.748947 0.224010
O O17 0.192829 0.893072 0.908997
#
# Coordination Sequence:
#
# PCOD9077499 Si02
#       8
#     2   2   2   2   2   2   2   2
#     4  10  19  33  59  92 112 147 205 251 280 334
#     4  11  17  33  60  89 115 144 201 250 283 333
#     4   9  15  30  55  88 108 141 194 244 276 336
#     4  11  22  35  61  87 120 156 193 241 299 345
#     4  10  22  37  59  88 125 152 194 244 297 351
#     4  10  22  38  59  88 117 159 195 241 291 357
#     4  10  18  34  60  86 114 145 201 238 289 334
#     4  11  21  36  62  91 118 152 195 246 301 340
#
# _framework density 22.137588999999998
#
# number of rings (size 3 to 8) (size 9 to 14) (size 15 to 20)
#    0.750    1.000    6.250    1.500    0.000    1.000 
#    0.000    0.625    5.500    0.750    0.000    0.000 
#    0.000    0.000    0.000    0.000    0.000    0.000 
#
# Total GULP energy -89103.492259 kJ/mol
# GULP energy per Si atom -5568.968266 kJ/mol
# Density = 2.208720 g / cm^3
# Si number density = 22.137589 Si / 1000 Ang^3
#
#
#
# Elastic Constant Matrix: (Units=GPa)
#
#
# Indices 1 2 3 4 5 6 
#
# 1 60.5755 27.6384 10.0187 2.1943 -18.0085 7.5843
# 2 27.6384 78.8663 9.5127 8.6497 -7.2227 9.3922
# 3 10.0187 9.5127 73.2419 21.2454 -12.0061 6.0607
# 4 2.1943 8.6497 21.2454 16.3593 0.6427 -0.5727
# 5 -18.0085 -7.2227 -12.0061 0.6427 22.8453 2.1737
# 6 7.5843 9.3922 6.0607 -0.5727 2.1737 21.9436
#
#
#
# Elastic Compliance Matrix: (Units=1/GPa)
#
#
# Indices 1 2 3 4 5 6 
#
# 1 0.026639 -0.005891 0.003246 -0.005883 0.021951 -0.009910
# 2 -0.005891 0.016915 0.003614 -0.013231 0.003632 -0.006907
# 3 0.003246 0.003614 0.029808 -0.042414 0.021909 -0.014179
# 4 -0.005883 -0.013231 -0.042414 0.126378 -0.037177 0.026392
# 5 0.021951 0.003632 0.021909 -0.037177 0.077048 -0.023795
# 6 -0.009910 -0.006907 -0.014179 0.026392 -0.023795 0.058915
#
#
# Mechanical properties :
#
#
# Convention : Reuss Voigt Hill
#
# Bulk Modulus (GPa) = 13.28049 34.11369 23.69709
# Shear Modulus (GPa) = 13.93281 23.26390 18.59836
#
# Velocity S-wave (km/s) = 2.51145 3.24524 2.90164
# Velocity P-wave (km/s) = 3.79763 5.43005 4.68548
#
# Compressibility (1/GPa) = 0.07529842
#
# Stress axis : x y z
#
# Youngs Moduli (GPa) = 37.53872 59.12027 33.54848
#
# Poissons Ratio (x) = 0.34830 -0.10890
# Poissons Ratio (y) = 0.22115 -0.12124
# Poissons Ratio (z) = -0.12185 -0.21365
#
# Static dielectric constant tensor:
#      x y z
#    x 1.925140 -0.032900 0.045570 
#    y -0.032900 1.870520 0.028680 
#    z 0.045570 0.028680 1.932500 
# 
# From -- ./inp_files/378398.got.cif
#   From: 2010.05.17/outbox.cif.g08.bks.cpg/sg2_190_cif.got.tgz:378398.got - 2010.06.03 11:33:40.
