data_PCOD9077217
_publ_section_title
;
Structure prediction by ZEFSAII (Michael W. Deem and Ramdas Pophale) SiO2 
 PCOD9077217
Probable space group: P -1
;
_chemical_formula_sum "Si O2"
_cell_formula_units_Z 16
_cell_length_a 26.634742
_cell_length_b 21.225518
_cell_length_c 15.155021
_cell_angle_alpha 20.336127
_cell_angle_beta 158.728442
_cell_angle_gamma 160.222137
_cell_volume 913.848842
_symmetry_space_group_name_H-M "P -1"
_symmetry_group_IT_number 2
_symmetry_cell_setting 'triclinic'
loop_
_space_group_symop_operation_xyz
x,y,z
-x,-y,-z
loop_
_atom_site_type_symbol
_atom_site_label
_atom_site_fract_x
_atom_site_fract_y
_atom_site_fract_z
Si Si1 0.092443 0.664513 0.311097
Si Si2 0.802384 0.042453 0.174400
Si Si3 0.545219 0.171022 0.590614
Si Si4 0.086214 0.030371 0.730319
Si Si5 0.495453 0.559975 0.312688
Si Si6 0.243358 0.692376 0.713594
Si Si7 0.568820 0.526064 0.291264
Si Si8 0.588342 0.242364 0.364263
O O1 0.175349 0.694389 0.503123
O O2 0.220230 0.665960 0.450814
O O3 0.917294 0.444296 0.310443
O O4 0.077280 0.868913 0.001191
O O5 0.929523 0.051404 0.441392
O O6 0.896020 0.077558 0.188822
O O7 0.647863 0.801405 0.234207
O O8 0.713830 0.172252 0.873541
O O9 0.546145 0.338523 0.438293
O O10 0.537560 0.228858 0.400183
O O11 0.385756 0.932458 0.658275
O O12 0.246894 0.267175 0.686415
O O13 0.500000 0.500000 0.500000
O O14 0.521489 0.448535 0.417199
O O15 0.331499 0.559540 0.029988
O O16 0.461241 0.620247 0.955929
O O17 0.500000 0.000000 0.500000
#
# Coordination Sequence:
#
# PCOD9077217 Si02
#       8
#     2   2   2   2   2   2   2   2
#     4  11  19  33  62  84 108 140 198 239 268 317
#     4   9  19  33  56  81 107 145 193 232 266 333
#     4  11  21  37  56  85 122 148 178 228 295 338
#     4  10  18  34  57  84 106 143 194 235 273 318
#     4  10  19  37  58  79 107 152 196 229 273 333
#     4  10  21  35  57  84 112 147 187 235 276 332
#     4  11  22  34  58  87 115 147 184 234 285 341
#     4  12  18  37  61  85 109 149 194 231 273 332
#
# _framework density 17.508365000000001
#
# number of rings (size 3 to 8) (size 9 to 14) (size 15 to 20)
#    0.000    1.500    5.000    1.875    0.000    0.500 
#    0.000    3.125    5.500    0.000    0.000    0.000 
#    0.000    0.000    0.000    0.000    0.000    0.000 
#
# Total GULP energy -89168.727526 kJ/mol
# GULP energy per Si atom -5573.045470 kJ/mol
# Density = 1.746852 g / cm^3
# Si number density = 17.508365 Si / 1000 Ang^3
#
#
#
# Elastic Constant Matrix: (Units=GPa)
#
#
# Indices 1 2 3 4 5 6 
#
# 1 106.4736 36.6108 35.5264 -9.2352 -0.0272 -9.9556
# 2 36.6108 72.0658 30.0637 9.6104 18.0756 5.7388
# 3 35.5264 30.0637 99.7420 14.7911 -3.2995 -7.8212
# 4 -9.2352 9.6104 14.7911 28.2896 -1.3874 9.2753
# 5 -0.0272 18.0756 -3.2995 -1.3874 25.0369 0.4560
# 6 -9.9556 5.7388 -7.8212 9.2753 0.4560 31.3167
#
#
#
# Elastic Compliance Matrix: (Units=1/GPa)
#
#
# Indices 1 2 3 4 5 6 
#
# 1 0.014725 -0.009157 -0.003408 0.009138 0.006635 0.002705
# 2 -0.009157 0.027470 -0.004909 -0.008717 -0.020858 -0.006285
# 3 -0.003408 -0.004909 0.014666 -0.008851 0.004873 0.006029
# 4 0.009138 -0.008717 -0.008851 0.050514 0.008169 -0.012788
# 5 0.006635 -0.020858 0.004873 0.008169 0.056030 0.003913
# 6 0.002705 -0.006285 0.006029 -0.012788 0.003913 0.039180
#
#
# Mechanical properties :
#
#
# Convention : Reuss Voigt Hill
#
# Bulk Modulus (GPa) = 45.63387 53.63148 49.63267
# Shear Modulus (GPa) = 20.42162 28.66734 24.54448
#
# Velocity S-wave (km/s) = 3.41895 4.05081 3.74822
# Velocity P-wave (km/s) = 6.45804 7.25101 6.86598
#
# Compressibility (1/GPa) = 0.02191355
#
# Stress axis : x y z
#
# Youngs Moduli (GPa) = 67.91114 36.40274 68.18542
#
# Poissons Ratio (x) = 0.33334 0.23240
# Poissons Ratio (y) = 0.62186 0.33469
# Poissons Ratio (z) = 0.23147 0.17869
#
# Static dielectric constant tensor:
#      x y z
#    x 1.632050 0.010590 -0.025150 
#    y 0.010590 1.591720 0.024970 
#    z -0.025150 0.024970 1.623560 
# 
# From -- ./inp_files/190081.got.cif
#   From: 2010.05.17/outbox.cif.g08.bks.cpg/sg2_96_cif.got.tgz:190081.got - 2010.06.03 11:33:40.
