data_PCOD9077720
_publ_section_title
;
Structure prediction by ZEFSAII (Michael W. Deem and Ramdas Pophale) SiO2 
 PCOD9077720
Probable space group: P -1
;
_chemical_formula_sum "Si O2"
_cell_formula_units_Z 16
_cell_length_a 10.215135
_cell_length_b 18.102678
_cell_length_c 7.927198
_cell_angle_alpha 108.765104
_cell_angle_beta 120.551432
_cell_angle_gamma 32.368554
_cell_volume 657.164310
_symmetry_space_group_name_H-M "P -1"
_symmetry_group_IT_number 2
_symmetry_cell_setting 'triclinic'
loop_
_space_group_symop_operation_xyz
x,y,z
-x,-y,-z
loop_
_atom_site_type_symbol
_atom_site_label
_atom_site_fract_x
_atom_site_fract_y
_atom_site_fract_z
Si Si1 0.052445 0.833944 0.675032
Si Si2 0.569511 0.121563 0.748075
Si Si3 0.794230 0.829425 0.267404
Si Si4 0.190050 0.947964 0.784416
Si Si5 0.061052 0.415405 0.319840
Si Si6 0.481936 0.600006 0.060162
Si Si7 0.580158 0.259450 0.598070
Si Si8 0.656961 0.847323 0.831112
O O1 0.187227 0.856313 0.719162
O O2 0.025283 0.781280 0.473957
O O3 0.224872 0.732012 0.872513
O O4 0.741961 0.989526 0.645004
O O5 0.283316 0.212023 0.701285
O O6 0.537971 0.213977 0.689879
O O7 0.757388 0.053244 0.986585
O O8 0.506907 0.003597 0.211820
O O9 0.842912 0.787630 0.073402
O O10 0.417023 0.894525 0.784074
O O11 0.894085 0.106045 0.647020
O O12 0.325446 0.350177 0.372698
O O13 0.185008 0.272408 0.292411
O O14 0.000000 0.500000 0.500000
O O15 0.761325 0.525014 0.125648
O O16 0.441809 0.648222 0.259573
O O17 0.500000 0.500000 0.000000
#
# Coordination Sequence:
#
# PCOD9077720 Si02
#       8
#     2   2   2   2   2   2   2   2
#     4  11  20  37  59  96 122 160 212 243 322 359
#     4  10  18  34  63  92 125 153 197 269 311 367
#     4  10  23  34  63  97 129 161 186 275 322 369
#     4  10  19  36  67  90 125 160 188 276 311 366
#     4  10  24  42  62  85 119 173 215 251 291 375
#     4  11  24  37  59  89 127 166 210 262 288 360
#     4  10  19  39  62  93 118 156 215 247 322 359
#     4  10  22  42  59  97 131 156 207 246 333 369
#
# _framework density 24.347033
#
# number of rings (size 3 to 8) (size 9 to 14) (size 15 to 20)
#    0.000    1.750    2.500    2.625    3.500    3.000 
#    0.000    2.500    0.000    0.000    0.000    0.000 
#    0.000    0.000    0.000    0.000    0.000    0.000 
#
# Total GULP energy -89362.802868 kJ/mol
# GULP energy per Si atom -5585.175179 kJ/mol
# Density = 2.429162 g / cm^3
# Si number density = 24.347033 Si / 1000 Ang^3
#
#
#
# Elastic Constant Matrix: (Units=GPa)
#
#
# Indices 1 2 3 4 5 6 
#
# 1 64.0974 -7.9983 22.6077 11.6639 11.8994 5.3563
# 2 -7.9983 94.8578 20.3000 14.2151 7.6256 2.2717
# 3 22.6077 20.3000 125.9517 15.2735 29.9490 1.0713
# 4 11.6639 14.2151 15.2735 39.0430 -2.8518 12.9397
# 5 11.8994 7.6256 29.9490 -2.8518 42.1129 1.3792
# 6 5.3563 2.2717 1.0713 12.9397 1.3792 23.0930
#
#
#
# Elastic Compliance Matrix: (Units=1/GPa)
#
#
# Indices 1 2 3 4 5 6 
#
# 1 0.018821 0.003347 -0.002007 -0.006121 -0.004883 -0.000880
# 2 0.003347 0.012109 -0.001255 -0.005566 -0.002668 0.001369
# 3 -0.002007 -0.001255 0.010788 -0.004754 -0.007304 0.003189
# 4 -0.006121 -0.005566 -0.004754 0.038653 0.009392 -0.020031
# 5 -0.004883 -0.002668 -0.007304 0.009392 0.031616 -0.005417
# 6 -0.000880 0.001369 0.003189 -0.020031 -0.005417 0.054772
#
#
# Mechanical properties :
#
#
# Convention : Reuss Voigt Hill
#
# Bulk Modulus (GPa) = 23.87265 39.41395 31.64330
# Shear Modulus (GPa) = 27.69305 37.51630 32.60468
#
# Velocity S-wave (km/s) = 3.37624 3.92969 3.66343
# Velocity P-wave (km/s) = 5.00251 6.06741 5.56051
#
# Compressibility (1/GPa) = 0.04188895
#
# Stress axis : x y z
#
# Youngs Moduli (GPa) = 53.13312 82.58527 92.69356
#
# Poissons Ratio (x) = -0.27644 0.18603
# Poissons Ratio (y) = -0.17785 0.11630
# Poissons Ratio (z) = 0.10664 0.10362
#
# Static dielectric constant tensor:
#      x y z
#    x 1.957710 -0.059970 -0.006740 
#    y -0.059970 2.012110 0.007510 
#    z -0.006740 0.007510 2.006380 
# 
# From -- ./inp_files/283175.got.cif
#   From: 2010.05.17/outbox.cif.g08.bks.cpg/sg2_142_cif.got.tgz:283175.got - 2010.06.03 11:33:40.
