data_PCOD9077598
_publ_section_title
;
Structure prediction by ZEFSAII (Michael W. Deem and Ramdas Pophale) SiO2 
 PCOD9077598
Probable space group: P -1
;
_chemical_formula_sum "Si O2"
_cell_formula_units_Z 12
_cell_length_a 9.241269
_cell_length_b 10.609605
_cell_length_c 9.101285
_cell_angle_alpha 135.889350
_cell_angle_beta 57.486359
_cell_angle_gamma 97.002548
_cell_volume 467.788302
_symmetry_space_group_name_H-M "P -1"
_symmetry_group_IT_number 2
_symmetry_cell_setting 'triclinic'
loop_
_space_group_symop_operation_xyz
x,y,z
-x,-y,-z
loop_
_atom_site_type_symbol
_atom_site_label
_atom_site_fract_x
_atom_site_fract_y
_atom_site_fract_z
Si Si1 0.092257 0.574557 0.879319
Si Si2 0.366338 0.887471 0.472637
Si Si3 0.515240 0.386452 0.566578
Si Si4 0.868343 0.787273 0.905729
Si Si5 0.833164 0.058820 0.910504
Si Si6 0.535674 0.187650 0.960459
O O1 0.315824 0.416273 0.631408
O O2 0.092484 0.795152 0.094273
O O3 0.000000 0.500000 0.000000
O O4 0.997327 0.600608 0.788273
O O5 0.476663 0.682714 0.329055
O O6 0.342643 0.845936 0.283768
O O7 0.500000 0.000000 0.500000
O O8 0.190715 0.033747 0.791352
O O9 0.695380 0.221037 0.243035
O O10 0.515779 0.599952 0.757328
O O11 0.667143 0.799980 0.969067
O O12 0.947250 0.853137 0.772647
O O13 0.686063 0.024151 0.852851
#
# Coordination Sequence:
#
# PCOD9077598 Si02
#       6
#     2   2   2   2   2   2
#     4  11  21  36  59  89 119 150 189 243 293 334
#     4   9  18  33  56  84 115 151 191 232 282 343
#     4  10  21  39  60  84 117 156 194 234 287 350
#     4  10  21  37  59  87 117 150 192 243 289 335
#     4  10  22  41  61  84 117 157 194 233 287 351
#     4  10  18  34  61  88 110 152 199 237 279 347
#
# _framework density 25.652629000000001
#
# number of rings (size 3 to 8) (size 9 to 14) (size 15 to 20)
#    0.000    2.000    0.000    5.500    0.000    1.333 
#    0.000    8.333    0.000   24.000    0.000    0.000 
#    0.000    0.000    0.000    0.000    0.000    0.000 
#
# Total GULP energy -66892.767468 kJ/mol
# GULP energy per Si atom -5574.397289 kJ/mol
# Density = 2.559424 g / cm^3
# Si number density = 25.652629 Si / 1000 Ang^3
#
#
#
# Elastic Constant Matrix: (Units=GPa)
#
#
# Indices 1 2 3 4 5 6 
#
# 1 123.1222 59.6066 0.8091 -9.7257 14.3686 -18.4954
# 2 59.6066 143.4341 28.3484 -35.2128 -0.9365 -13.9486
# 3 0.8091 28.3484 59.6024 -7.1800 13.3817 -8.9352
# 4 -9.7257 -35.2128 -7.1800 27.9154 -7.6586 6.0840
# 5 14.3686 -0.9365 13.3817 -7.6586 21.9724 -8.7627
# 6 -18.4954 -13.9486 -8.9352 6.0840 -8.7627 55.2674
#
#
#
# Elastic Compliance Matrix: (Units=1/GPa)
#
#
# Indices 1 2 3 4 5 6 
#
# 1 0.014433 -0.010116 0.007509 -0.011026 -0.017517 0.001927
# 2 -0.010116 0.019684 -0.011372 0.024600 0.023242 0.000721
# 3 0.007509 -0.011372 0.026481 -0.012117 -0.025245 0.001255
# 4 -0.011026 0.024600 -0.012117 0.071082 0.040049 -0.000915
# 5 -0.017517 0.023242 -0.025245 0.040049 0.089571 0.005715
# 6 0.001927 0.000721 0.001255 -0.000915 0.005715 0.020131
#
#
# Mechanical properties :
#
#
# Convention : Reuss Voigt Hill
#
# Bulk Modulus (GPa) = 30.63609 55.96519 43.30064
# Shear Modulus (GPa) = 17.84322 36.85735 27.35028
#
# Velocity S-wave (km/s) = 2.64023 3.79461 3.26878
# Velocity P-wave (km/s) = 4.61118 6.40801 5.58237
#
# Compressibility (1/GPa) = 0.03264124
#
# Stress axis : x y z
#
# Youngs Moduli (GPa) = 69.28681 50.80224 37.76291
#
# Poissons Ratio (x) = 0.51390 -0.28356
# Poissons Ratio (y) = 0.70088 0.42942
# Poissons Ratio (z) = -0.52027 0.57770
#
# Static dielectric constant tensor:
#      x y z
#    x 2.140450 0.017350 -0.059170 
#    y 0.017350 2.070300 -0.027380 
#    z -0.059170 -0.027380 2.014150 
# 
# From -- ./inp_files/173310.got.cif
#   From: 2010.05.17/outbox.cif.g08.bks.cpg/sg2_87_cif.got.tgz:173310.got - 2010.06.03 11:33:40.
