data_PCOD9077273
_publ_section_title
;
Structure prediction by ZEFSAII (Michael W. Deem and Ramdas Pophale) SiO2 
 PCOD9077273
Probable space group: P -1
;
_chemical_formula_sum "Si O2"
_cell_formula_units_Z 14
_cell_length_a 11.828166
_cell_length_b 20.657389
_cell_length_c 9.205396
_cell_angle_alpha 116.470287
_cell_angle_beta 60.936908
_cell_angle_gamma 164.452162
_cell_volume 524.594584
_symmetry_space_group_name_H-M "P -1"
_symmetry_group_IT_number 2
_symmetry_cell_setting 'triclinic'
loop_
_space_group_symop_operation_xyz
x,y,z
-x,-y,-z
loop_
_atom_site_type_symbol
_atom_site_label
_atom_site_fract_x
_atom_site_fract_y
_atom_site_fract_z
Si Si1 0.386178 0.644821 0.587152
Si Si2 0.169715 0.469761 0.850462
Si Si3 0.097717 0.207742 0.097842
Si Si4 0.928584 0.735426 0.363705
Si Si5 0.388863 0.519870 0.242769
Si Si6 0.341705 0.096870 0.528014
Si Si7 0.528358 0.786455 0.111826
O O1 0.150007 0.500411 0.739400
O O2 0.247995 0.514679 0.416653
O O3 0.394286 0.728295 0.596125
O O4 0.871005 0.881016 0.572325
O O5 0.633928 0.677417 0.813786
O O6 0.910731 0.257290 0.775856
O O7 0.184735 0.543093 0.029189
O O8 0.074845 0.282714 0.192372
O O9 0.412248 0.357429 0.915381
O O10 0.649483 0.924628 0.084797
O O11 0.500000 0.500000 0.500000
O O12 0.781690 0.697420 0.271223
O O13 0.273437 0.974535 0.455498
O O14 0.496764 0.209517 0.698062
O O15 0.000000 0.000000 0.000000
#
# Coordination Sequence:
#
# PCOD9077273 Si02
#       7
#     2   2   2   2   2   2   2
#     4  10  16  21  29  36  38  46  53  60  60  70
#     4  10  17  22  30  33  43  43  54  56  67  65
#     4   9  16  22  26  36  40  48  48  60  63  72
#     4  10  15  24  28  35  37  48  51  60  60  72
#     4   9  16  21  29  33  42  44  54  55  66  68
#     4  10  17  21  30  32  42  45  55  54  66  67
#     4  10  15  22  27  34  41  47  50  59  63  71
#
# _framework density 26.687276000000001
#
# number of rings (size 3 to 8) (size 9 to 14) (size 15 to 20)
#    0.000    2.286    5.714    2.571    4.000    0.000 
#    0.000    0.000    0.000    0.000    0.000    0.000 
#    0.000    0.000    0.000    0.000    0.000    0.000 
#
# Total GULP energy -78215.081900 kJ/mol
# GULP energy per Si atom -5586.791564 kJ/mol
# Density = 2.662653 g / cm^3
# Si number density = 26.687276 Si / 1000 Ang^3
#
#
#
# Elastic Constant Matrix: (Units=GPa)
#
#
# Indices 1 2 3 4 5 6 
#
# 1 100.2212 42.2630 44.3588 6.8719 1.1856 -31.5946
# 2 42.2630 187.0550 101.4341 18.7773 -6.1572 -32.9124
# 3 44.3588 101.4341 184.3301 31.0409 7.2075 -32.8975
# 4 6.8719 18.7773 31.0409 45.9464 -13.2353 -2.6580
# 5 1.1856 -6.1572 7.2075 -13.2353 42.0679 9.6870
# 6 -31.5946 -32.9124 -32.8975 -2.6580 9.6870 55.5002
#
#
#
# Elastic Compliance Matrix: (Units=1/GPa)
#
#
# Indices 1 2 3 4 5 6 
#
# 1 0.013084 -0.001209 -0.001092 -0.000971 -0.002140 0.006411
# 2 -0.001209 0.008072 -0.003968 0.000106 0.001589 0.001474
# 3 -0.001092 -0.003968 0.009649 -0.005934 -0.004831 0.003304
# 4 -0.000971 0.000106 -0.005934 0.028833 0.011185 -0.004579
# 5 -0.002140 0.001589 -0.004831 0.011185 0.030225 -0.007880
# 6 0.006411 0.001474 0.003304 -0.004579 -0.007880 0.025656
#
#
# Mechanical properties :
#
#
# Convention : Reuss Voigt Hill
#
# Bulk Modulus (GPa) = 54.74136 94.19091 74.46613
# Shear Modulus (GPa) = 37.27281 47.60626 42.43953
#
# Velocity S-wave (km/s) = 3.74123 4.22815 3.99212
# Velocity P-wave (km/s) = 6.26252 7.69463 7.01521
#
# Compressibility (1/GPa) = 0.01826772
#
# Stress axis : x y z
#
# Youngs Moduli (GPa) = 76.42868 123.88763 103.63681
#
# Poissons Ratio (x) = 0.14978 0.11317
# Poissons Ratio (y) = 0.09240 0.41119
# Poissons Ratio (z) = 0.08346 0.49154
#
# Static dielectric constant tensor:
#      x y z
#    x 2.365710 0.140320 -0.157190 
#    y 0.140320 2.189700 -0.018530 
#    z -0.157190 -0.018530 2.111520 
# 
# From -- ./inp_files/334984.got.cif
#   From: 2010.05.17/outbox.cif.g08.bks.cpg/sg2_168_cif.got.tgz:334984.got - 2010.06.03 11:33:40.
