data_PCOD9077056
_publ_section_title
;
Structure prediction by ZEFSAII (Michael W. Deem and Ramdas Pophale) SiO2 
 PCOD9077056
Probable space group: P -1
;
_chemical_formula_sum "Si O2"
_cell_formula_units_Z 16
_cell_length_a 10.368747
_cell_length_b 20.062654
_cell_length_c 11.468628
_cell_angle_alpha 38.331450
_cell_angle_beta 36.231922
_cell_angle_gamma 21.725371
_cell_volume 515.203639
_symmetry_space_group_name_H-M "P -1"
_symmetry_group_IT_number 2
_symmetry_cell_setting 'triclinic'
loop_
_space_group_symop_operation_xyz
x,y,z
-x,-y,-z
loop_
_atom_site_type_symbol
_atom_site_label
_atom_site_fract_x
_atom_site_fract_y
_atom_site_fract_z
Si Si1 0.067531 0.575325 0.261821
Si Si2 0.929992 0.120188 0.224992
Si Si3 0.586871 0.273223 0.020203
Si Si4 0.535138 0.720600 0.266192
Si Si5 0.478813 0.551374 0.699178
Si Si6 0.429150 0.965675 0.694959
Si Si7 0.238979 0.683024 0.357706
Si Si8 0.395282 0.967859 0.304446
O O1 0.926821 0.593464 0.213361
O O2 0.788167 0.782911 0.213225
O O3 0.000000 0.500000 0.500000
O O4 0.451924 0.459386 0.199906
O O5 0.681384 0.251444 0.116407
O O6 0.720699 0.101865 0.462274
O O7 0.287293 0.924595 0.172019
O O8 0.116209 0.110139 0.209463
O O9 0.480720 0.193708 0.184708
O O10 0.368418 0.469236 0.867016
O O11 0.963813 0.141486 0.845770
O O12 0.353039 0.707911 0.509578
O O13 0.476217 0.695269 0.218141
O O14 0.857037 0.377616 0.587359
O O15 0.420708 0.046432 0.276594
O O16 0.196239 0.126164 0.534390
O O17 0.500000 0.500000 0.500000
#
# Coordination Sequence:
#
# PCOD9077056 Si02
#       8
#     2   2   2   2   2   2   2   2
#     4   9  18  34  56  81 106 144 188 225 268 330
#     4  10  20  34  57  81 107 146 183 229 278 330
#     4  10  21  35  52  85 115 142 185 235 280 320
#     4  10  18  34  55  82 108 149 186 224 273 339
#     4   9  20  34  54  79 113 143 184 229 276 320
#     4  12  20  34  57  83 110 149 187 226 278 335
#     4  10  20  33  53  81 113 141 186 228 276 320
#     4  10  19  35  55  82 108 143 191 227 265 338
#
# _framework density 31.055682000000001
#
# number of rings (size 3 to 8) (size 9 to 14) (size 15 to 20)
#    0.750    1.250    3.750    0.750    0.000    0.000 
#    2.250    1.875    0.000   15.000    6.500    0.000 
#    0.000    0.000    0.000    0.000    0.000    0.000 
#
# Total GULP energy -89332.534772 kJ/mol
# GULP energy per Si atom -5583.283423 kJ/mol
# Density = 3.098500 g / cm^3
# Si number density = 31.055682 Si / 1000 Ang^3
#
#
#
# Elastic Constant Matrix: (Units=GPa)
#
#
# Indices 1 2 3 4 5 6 
#
# 1 307.0418 51.5234 75.5412 -8.6022 29.9470 23.9449
# 2 51.5234 98.6863 27.4833 -17.8538 17.3157 -28.0616
# 3 75.5412 27.4833 199.4183 -9.1227 9.3907 6.2492
# 4 -8.6022 -17.8538 -9.1227 62.8788 3.7466 14.6611
# 5 29.9470 17.3157 9.3907 3.7466 67.7599 -2.1459
# 6 23.9449 -28.0616 6.2492 14.6611 -2.1459 64.3446
#
#
#
# Elastic Compliance Matrix: (Units=1/GPa)
#
#
# Indices 1 2 3 4 5 6 
#
# 1 0.004274 -0.002377 -0.001130 0.000439 -0.001233 -0.002658
# 2 -0.002377 0.014391 -0.001080 0.002187 -0.002387 0.006687
# 3 -0.001130 -0.001080 0.005641 0.000529 -0.000058 -0.000721
# 4 0.000439 0.002187 0.000529 0.017550 -0.001902 -0.003323
# 5 -0.001233 -0.002387 -0.000058 -0.001902 0.016039 0.000392
# 6 -0.002658 0.006687 -0.000721 -0.003323 0.000392 0.020287
#
#
# Mechanical properties :
#
#
# Convention : Reuss Voigt Hill
#
# Bulk Modulus (GPa) = 66.08450 101.58246 83.83348
# Shear Modulus (GPa) = 54.11374 69.03658 61.57516
#
# Velocity S-wave (km/s) = 4.17882 4.71998 4.45762
# Velocity P-wave (km/s) = 6.67900 7.90475 7.31758
#
# Compressibility (1/GPa) = 0.01513214
#
# Stress axis : x y z
#
# Youngs Moduli (GPa) = 233.99661 69.48908 177.27433
#
# Poissons Ratio (x) = 0.16515 0.20029
# Poissons Ratio (y) = 0.55611 0.19148
# Poissons Ratio (z) = 0.26438 0.07506
#
# Static dielectric constant tensor:
#      x y z
#    x 2.340500 -0.034810 -0.010280 
#    y -0.034810 2.970310 0.281270 
#    z -0.010280 0.281270 2.610390 
# 
# From -- ./inp_files/437638.got.cif
#   From: 2010.05.17/outbox.cif.g08.bks.cpg/sg2_219_cif.got.tgz:437638.got - 2010.06.03 11:33:40.
