data_PCOD9077877
_publ_section_title
;
Structure prediction by ZEFSAII (Michael W. Deem and Ramdas Pophale) SiO2 
 PCOD9077877
Probable space group: P -1
;
_chemical_formula_sum "Si O2"
_cell_formula_units_Z 16
_cell_length_a 11.446293
_cell_length_b 14.107469
_cell_length_c 14.577190
_cell_angle_alpha 150.838834
_cell_angle_beta 134.130399
_cell_angle_gamma 65.309666
_cell_volume 690.675212
_symmetry_space_group_name_H-M "P -1"
_symmetry_group_IT_number 2
_symmetry_cell_setting 'triclinic'
loop_
_space_group_symop_operation_xyz
x,y,z
-x,-y,-z
loop_
_atom_site_type_symbol
_atom_site_label
_atom_site_fract_x
_atom_site_fract_y
_atom_site_fract_z
Si Si1 0.339287 0.288840 0.315435
Si Si2 0.224496 0.561852 0.265082
Si Si3 0.122409 0.875269 0.193900
Si Si4 0.394515 0.080056 0.784272
Si Si5 0.473245 0.210734 0.143451
Si Si6 0.700277 0.989037 0.780199
Si Si7 0.310264 0.651055 0.187273
Si Si8 0.711884 0.691472 0.239673
O O1 0.562880 0.380626 0.543548
O O2 0.321684 0.186189 0.117758
O O3 0.343390 0.524618 0.518378
O O4 0.226808 0.101947 0.175015
O O5 0.195186 0.519996 0.104980
O O6 0.247619 0.808338 0.496326
O O7 0.062727 0.348055 0.052452
O O8 0.293868 0.862914 0.326044
O O9 0.140979 0.862739 0.084606
O O10 0.155155 0.115544 0.450244
O O11 0.314248 0.180677 0.752823
O O12 0.583842 0.093414 0.853578
O O13 0.428724 0.200356 0.002853
O O14 0.500000 0.000000 0.000000
O O15 0.533329 0.771811 0.443523
O O16 0.224595 0.470451 0.905525
O O17 0.500000 0.500000 0.000000
#
# Coordination Sequence:
#
# PCOD9077877 Si02
#       8
#     2   2   2   2   2   2   2   2
#     4   9  21  37  59  88 108 134 188 238 279 330
#     4  10  21  38  54  81 119 153 177 235 284 328
#     4  12  22  36  54  79 123 153 185 225 282 331
#     4  10  20  36  61  82 113 144 192 235 277 328
#     4  11  18  36  66  88 101 139 189 244 278 318
#     4  10  18  35  55  80 112 148 184 234 269 325
#     4  10  20  36  53  77 113 152 199 227 263 324
#     4  12  22  34  58  84 112 156 190 229 273 326
#
# _framework density 23.165737
#
# number of rings (size 3 to 8) (size 9 to 14) (size 15 to 20)
#    0.000    1.750    6.250    3.000    0.000    0.500 
#    2.250    0.000    0.000    6.000    0.000    0.000 
#    0.000    0.000    0.000    0.000    0.000    0.000 
#
# Total GULP energy -89304.387871 kJ/mol
# GULP energy per Si atom -5581.524242 kJ/mol
# Density = 2.311301 g / cm^3
# Si number density = 23.165737 Si / 1000 Ang^3
#
#
#
# Elastic Constant Matrix: (Units=GPa)
#
#
# Indices 1 2 3 4 5 6 
#
# 1 78.4361 19.9150 46.4905 -3.2463 -11.3270 44.8896
# 2 19.9150 83.9792 4.9382 5.0819 -3.4886 24.8396
# 3 46.4905 4.9382 81.1507 8.4737 -11.4793 13.2879
# 4 -3.2463 5.0819 8.4737 34.3806 7.1012 -2.6259
# 5 -11.3270 -3.4886 -11.4793 7.1012 49.5172 6.0581
# 6 44.8896 24.8396 13.2879 -2.6259 6.0581 52.0573
#
#
#
# Elastic Compliance Matrix: (Units=1/GPa)
#
#
# Indices 1 2 3 4 5 6 
#
# 1 0.047254 0.001115 -0.020074 0.004312 0.010157 -0.037120
# 2 0.001115 0.014468 0.000664 -0.003464 0.002972 -0.008555
# 3 -0.020074 0.000664 0.022792 -0.006871 0.000405 0.010782
# 4 0.004312 -0.003464 -0.006871 0.033061 -0.005841 0.002036
# 5 0.010157 0.002972 0.000405 -0.005841 0.025313 -0.013520
# 6 -0.037120 -0.008555 0.010782 0.002036 -0.013520 0.054225
#
#
# Mechanical properties :
#
#
# Convention : Reuss Voigt Hill
#
# Bulk Modulus (GPa) = 20.86713 42.91705 31.89209
# Shear Modulus (GPa) = 20.02581 38.67250 29.34916
#
# Velocity S-wave (km/s) = 2.94336 4.09024 3.56324
# Velocity P-wave (km/s) = 4.53635 6.39321 5.54308
#
# Compressibility (1/GPa) = 0.04792227
#
# Stress axis : x y z
#
# Youngs Moduli (GPa) = 21.16228 69.11942 43.87504
#
# Poissons Ratio (x) = -0.07707 0.88076
# Poissons Ratio (y) = -0.02360 -0.02912
# Poissons Ratio (z) = 0.42482 -0.04587
#
# Static dielectric constant tensor:
#      x y z
#    x 1.981070 -0.025710 0.010800 
#    y -0.025710 1.919370 -0.022580 
#    z 0.010800 -0.022580 1.873790 
# 
# From -- ./inp_files/302101.got.cif
#   From: 2010.05.17/outbox.cif.g08.bks.cpg/sg2_152_cif.got.tgz:302101.got - 2010.06.03 11:33:40.
