data_PCOD9077170
_publ_section_title
;
Structure prediction by ZEFSAII (Michael W. Deem and Ramdas Pophale) SiO2 
 PCOD9077170
Probable space group: P -1
;
_chemical_formula_sum "Si O2"
_cell_formula_units_Z 16
_cell_length_a 12.936947
_cell_length_b 21.205954
_cell_length_c 15.977074
_cell_angle_alpha 154.417942
_cell_angle_beta 24.153518
_cell_angle_gamma 152.378393
_cell_volume 723.497380
_symmetry_space_group_name_H-M "P -1"
_symmetry_group_IT_number 2
_symmetry_cell_setting 'triclinic'
loop_
_space_group_symop_operation_xyz
x,y,z
-x,-y,-z
loop_
_atom_site_type_symbol
_atom_site_label
_atom_site_fract_x
_atom_site_fract_y
_atom_site_fract_z
Si Si1 0.456494 0.103295 0.270199
Si Si2 0.262492 0.062839 0.939089
Si Si3 0.736272 0.411951 0.155024
Si Si4 0.744376 0.859541 0.769004
Si Si5 0.963997 0.144619 0.601724
Si Si6 0.690934 0.400975 0.991278
Si Si7 0.394733 0.473286 0.140390
Si Si8 0.187533 0.739423 0.668229
O O1 0.270178 0.165773 0.425884
O O2 0.696562 0.240963 0.300253
O O3 0.237751 0.009049 0.389031
O O4 0.599154 0.980709 0.991019
O O5 0.500588 0.216761 0.913121
O O6 0.321603 0.904521 0.720850
O O7 0.203300 0.107483 0.131046
O O8 0.000000 0.000000 0.000000
O O9 0.644475 0.458428 0.188579
O O10 0.860693 0.278950 0.873034
O O11 0.475734 0.315327 0.284483
O O12 0.980216 0.539411 0.176648
O O13 0.010930 0.877502 0.541930
O O14 0.601227 0.474106 0.063711
O O15 0.277329 0.609934 0.404738
O O16 0.135181 0.314241 0.153193
O O17 0.500000 0.500000 0.000000
#
# Coordination Sequence:
#
# PCOD9077170 Si02
#       8
#     2   2   2   2   2   2   2   2
#     4   9  19  33  56  84 125 157 193 249 302 360
#     4  10  19  39  63  85 118 164 198 250 303 348
#     4   9  20  37  59  86 118 157 194 254 304 356
#     4   9  19  33  57  88 119 155 201 244 299 361
#     4  10  18  34  56  90 119 156 201 243 304 360
#     4  10  20  41  63  86 126 159 200 251 310 352
#     4  11  24  41  61  89 120 161 207 253 297 365
#     4  10  22  41  61  86 118 162 204 244 306 363
#
# _framework density 22.114799000000001
#
# number of rings (size 3 to 8) (size 9 to 14) (size 15 to 20)
#    0.000    2.250    1.250    1.875    0.000    3.000 
#    2.250    6.250    0.000    0.000    0.000    0.000 
#    0.000    0.000    0.000    0.000    0.000    0.000 
#
# Total GULP energy -89138.193012 kJ/mol
# GULP energy per Si atom -5571.137063 kJ/mol
# Density = 2.206446 g / cm^3
# Si number density = 22.114799 Si / 1000 Ang^3
#
#
#
# Elastic Constant Matrix: (Units=GPa)
#
#
# Indices 1 2 3 4 5 6 
#
# 1 145.9610 37.3717 33.3063 -9.7407 -14.1801 13.4235
# 2 37.3717 109.5622 30.9412 -0.2221 13.4253 6.8552
# 3 33.3063 30.9412 78.5279 -16.7941 3.4872 -10.8741
# 4 -9.7407 -0.2221 -16.7941 19.5441 2.3311 -0.2659
# 5 -14.1801 13.4253 3.4872 2.3311 17.7713 -12.4473
# 6 13.4235 6.8552 -10.8741 -0.2659 -12.4473 46.8334
#
#
#
# Elastic Compliance Matrix: (Units=1/GPa)
#
#
# Indices 1 2 3 4 5 6 
#
# 1 0.009612 -0.003839 -0.002828 0.000999 0.011061 0.000096
# 2 -0.003839 0.014396 -0.005119 -0.004198 -0.017126 -0.006771
# 3 -0.002828 -0.005119 0.020259 0.016029 -0.000021 0.006349
# 4 0.000999 -0.004198 0.016029 0.066126 -0.005838 0.002874
# 5 0.011061 -0.017126 -0.000021 -0.005838 0.096226 0.024873
# 6 0.000096 -0.006771 0.006349 0.002874 0.024873 0.030417
#
#
# Mechanical properties :
#
#
# Convention : Reuss Voigt Hill
#
# Bulk Modulus (GPa) = 48.32250 59.69886 54.01068
# Shear Modulus (GPa) = 18.69111 32.32522 25.50817
#
# Velocity S-wave (km/s) = 2.91036 3.82737 3.39992
# Velocity P-wave (km/s) = 5.76123 6.82534 6.31574
#
# Compressibility (1/GPa) = 0.02069429
#
# Stress axis : x y z
#
# Youngs Moduli (GPa) = 104.03732 69.46321 49.36057
#
# Poissons Ratio (x) = 0.26668 0.13961
# Poissons Ratio (y) = 0.39942 0.25267
# Poissons Ratio (z) = 0.29426 0.35557
#
# Static dielectric constant tensor:
#      x y z
#    x 1.962380 -0.017380 -0.019710 
#    y -0.017380 1.862890 0.017950 
#    z -0.019710 0.017950 1.857110 
# 
# From -- ./inp_files/524090.got.cif
#   From: 2010.05.17/outbox.cif.g08.bks.cpg/sg2_263_cif.got.tgz:524090.got - 2010.06.03 11:33:40.
