data_PCOD9077179
_publ_section_title
;
Structure prediction by ZEFSAII (Michael W. Deem and Ramdas Pophale) SiO2 
 PCOD9077179
Probable space group: P -1
;
_chemical_formula_sum "Si O2"
_cell_formula_units_Z 16
_cell_length_a 12.790354
_cell_length_b 21.508563
_cell_length_c 16.561395
_cell_angle_alpha 157.766644
_cell_angle_beta 146.749019
_cell_angle_gamma 25.414743
_cell_volume 739.852739
_symmetry_space_group_name_H-M "P -1"
_symmetry_group_IT_number 2
_symmetry_cell_setting 'triclinic'
loop_
_space_group_symop_operation_xyz
x,y,z
-x,-y,-z
loop_
_atom_site_type_symbol
_atom_site_label
_atom_site_fract_x
_atom_site_fract_y
_atom_site_fract_z
Si Si1 0.029378 0.306577 0.196316
Si Si2 0.407370 0.304921 0.545998
Si Si3 0.782363 0.208393 0.564226
Si Si4 0.416692 0.324009 0.173597
Si Si5 0.244308 0.965888 0.816784
Si Si6 0.013612 0.213374 0.499424
Si Si7 0.937895 0.055517 0.119913
Si Si8 0.796275 0.817415 0.258330
O O1 0.765819 0.529591 0.298489
O O2 0.224420 0.319106 0.380750
O O3 0.115907 0.205971 0.042434
O O4 0.024445 0.142625 0.051031
O O5 0.565806 0.357566 0.665336
O O6 0.600563 0.066785 0.414692
O O7 0.686667 0.128130 0.340251
O O8 0.925324 0.281065 0.703298
O O9 0.000000 0.000000 0.500000
O O10 0.534812 0.164657 0.134296
O O11 0.239545 0.552472 0.373039
O O12 0.654295 0.254454 0.192911
O O13 0.275536 0.285162 0.973173
O O14 0.047273 0.931204 0.672958
O O15 0.076655 0.125340 0.343305
O O16 0.197842 0.207859 0.671450
O O17 0.000000 0.000000 0.000000
#
# Coordination Sequence:
#
# PCOD9077179 Si02
#       8
#     2   2   2   2   2   2   2   2
#     4   9  19  34  56  80 103 146 179 216 266 318
#     4  10  18  35  56  78 110 141 179 216 266 322
#     4   9  20  33  53  79 108 140 173 226 267 311
#     4  10  18  34  57  77 107 146 181 219 270 321
#     4   9  17  34  52  80 107 137 185 219 264 318
#     4   9  19  33  55  79 104 144 178 222 276 320
#     4  10  20  36  56  80 108 138 187 225 262 318
#     4  10  18  35  54  81 114 138 176 224 276 321
#
# _framework density 21.625924999999999
#
# number of rings (size 3 to 8) (size 9 to 14) (size 15 to 20)
#    0.000    2.750    2.500    1.875    0.000    3.500 
#    0.000   10.625    0.000    3.000    0.000    0.000 
#    0.000    0.000    0.000    0.000    0.000    0.000 
#
# Total GULP energy -89136.713772 kJ/mol
# GULP energy per Si atom -5571.044611 kJ/mol
# Density = 2.157670 g / cm^3
# Si number density = 21.625925 Si / 1000 Ang^3
#
#
#
# Elastic Constant Matrix: (Units=GPa)
#
#
# Indices 1 2 3 4 5 6 
#
# 1 38.1098 20.8109 20.0479 -3.7706 -21.6397 -0.4160
# 2 20.8109 78.8155 40.8882 -1.4621 -14.5419 -8.8504
# 3 20.0479 40.8882 93.6763 -24.7623 -26.5493 3.0758
# 4 -3.7706 -1.4621 -24.7623 40.8724 6.8608 -6.7401
# 5 -21.6397 -14.5419 -26.5493 6.8608 30.1573 -2.6285
# 6 -0.4160 -8.8504 3.0758 -6.7401 -2.6285 15.3011
#
#
#
# Elastic Compliance Matrix: (Units=1/GPa)
#
#
# Indices 1 2 3 4 5 6 
#
# 1 0.047859 -0.007559 0.002443 0.000476 0.032940 0.002306
# 2 -0.007559 0.020234 -0.008949 -0.003180 -0.001812 0.011585
# 3 0.002443 -0.008949 0.020354 0.009614 0.012930 -0.002745
# 4 0.000476 -0.003180 0.009614 0.031777 0.000948 0.010401
# 5 0.032940 -0.001812 0.012930 0.000948 0.067903 0.009331
# 6 0.002306 0.011585 -0.002745 0.010401 0.009331 0.078855
#
#
# Mechanical properties :
#
#
# Convention : Reuss Voigt Hill
#
# Bulk Modulus (GPa) = 16.57893 41.56618 29.07255
# Shear Modulus (GPa) = 15.86205 25.85645 20.85925
#
# Velocity S-wave (km/s) = 2.71121 3.46153 3.10909
# Velocity P-wave (km/s) = 4.18136 5.93620 5.13431
#
# Compressibility (1/GPa) = 0.06031751
#
# Stress axis : x y z
#
# Youngs Moduli (GPa) = 20.89464 49.42251 49.12960
#
# Poissons Ratio (x) = 0.37357 -0.12000
# Poissons Ratio (y) = 0.15794 0.43964
# Poissons Ratio (z) = -0.05104 0.44226
#
# Static dielectric constant tensor:
#      x y z
#    x 1.889410 0.041040 -0.001980 
#    y 0.041040 1.830820 -0.022700 
#    z -0.001980 -0.022700 1.832340 
# 
# From -- ./inp_files/444461.got.cif
#   From: 2010.05.17/outbox.cif.g08.bks.cpg/sg2_223_cif.got.tgz:444461.got - 2010.06.03 11:33:40.
