data_PCOD9077731
_publ_section_title
;
Structure prediction by ZEFSAII (Michael W. Deem and Ramdas Pophale) SiO2 
 PCOD9077731
Probable space group: P -1
;
_chemical_formula_sum "Si O2"
_cell_formula_units_Z 16
_cell_length_a 5.400698
_cell_length_b 18.358518
_cell_length_c 21.356586
_cell_angle_alpha 18.286482
_cell_angle_beta 90.430237
_cell_angle_gamma 85.578895
_cell_volume 640.000234
_symmetry_space_group_name_H-M "P -1"
_symmetry_group_IT_number 2
_symmetry_cell_setting 'triclinic'
loop_
_space_group_symop_operation_xyz
x,y,z
-x,-y,-z
loop_
_atom_site_type_symbol
_atom_site_label
_atom_site_fract_x
_atom_site_fract_y
_atom_site_fract_z
Si Si1 0.470513 0.535223 0.123062
Si Si2 0.237582 0.124322 0.821736
Si Si3 0.576921 0.287621 0.524662
Si Si4 0.291376 0.869190 0.633586
Si Si5 0.920902 0.084627 0.120340
Si Si6 0.310480 0.132181 0.537233
Si Si7 0.311740 0.694365 0.274237
Si Si8 0.833237 0.537874 0.228343
O O1 0.602898 0.404531 0.167452
O O2 0.400435 0.321834 0.337383
O O3 0.687031 0.602505 0.110051
O O4 0.219544 0.759147 0.947923
O O5 0.437784 0.277300 0.711754
O O6 0.940452 0.264219 0.717721
O O7 0.271961 0.013771 0.842360
O O8 0.273372 0.910017 0.047471
O O9 0.474896 0.128920 0.602666
O O10 0.362933 0.442335 0.443807
O O11 0.653256 0.505443 0.309991
O O12 0.830752 0.122962 0.691168
O O13 0.500000 0.000000 0.500000
O O14 0.306489 0.907139 0.677276
O O15 0.000000 0.000000 0.500000
O O16 0.007717 0.268919 0.922792
O O17 0.021272 0.271728 0.439243
#
# Coordination Sequence:
#
# PCOD9077731 Si02
#       8
#     2   2   2   2   2   2   2   2
#     4   9  19  36  61  94 126 170 218 270 320 391
#     4  10  23  42  68  95 129 172 220 276 333 391
#     4  11  25  41  63  97 132 172 220 268 329 400
#     4  10  18  34  63  99 129 170 226 271 325 390
#     4  11  25  41  63  97 132 172 220 268 329 400
#     4   9  19  36  61  94 126 170 218 270 320 391
#     4  10  23  42  68  95 129 172 220 276 333 391
#     4  10  20  39  66  86 128 172 218 266 330 375
#
# _framework density 24.999991000000001
#
# number of rings (size 3 to 8) (size 9 to 14) (size 15 to 20)
#    0.000    2.000    1.250    2.250    8.750    2.000 
#    0.000    0.625    0.000    1.500    0.000    0.000 
#    0.000    0.000    0.000    0.000    0.000    0.000 
#
# Total GULP energy -89524.879019 kJ/mol
# GULP energy per Si atom -5595.304939 kJ/mol
# Density = 2.494309 g / cm^3
# Si number density = 24.999991 Si / 1000 Ang^3
#
#
#
# Elastic Constant Matrix: (Units=GPa)
#
#
# Indices 1 2 3 4 5 6 
#
# 1 112.8391 32.9118 41.1315 -15.2510 12.0157 8.8118
# 2 32.9118 141.5016 53.3283 -31.8006 20.6909 7.5610
# 3 41.1315 53.3283 107.8849 -3.4528 12.9172 2.2135
# 4 -15.2510 -31.8006 -3.4528 28.8035 -1.8438 2.0245
# 5 12.0157 20.6909 12.9172 -1.8438 50.2948 9.1292
# 6 8.8118 7.5610 2.2135 2.0245 9.1292 26.2962
#
#
#
# Elastic Compliance Matrix: (Units=1/GPa)
#
#
# Indices 1 2 3 4 5 6 
#
# 1 0.011542 0.000842 -0.004399 0.006723 -0.001019 -0.003903
# 2 0.000842 0.012787 -0.005785 0.013940 -0.002817 -0.003567
# 3 -0.004399 -0.005785 0.013615 -0.007339 -0.000853 0.002853
# 4 0.006723 0.013940 -0.007339 0.053310 -0.001849 -0.009105
# 5 -0.001019 -0.002817 -0.000853 -0.001849 0.022614 -0.006485
# 6 -0.003903 -0.003567 0.002853 -0.009105 -0.006485 0.043074
#
#
# Mechanical properties :
#
#
# Convention : Reuss Voigt Hill
#
# Bulk Modulus (GPa) = 51.92482 68.55210 60.23846
# Shear Modulus (GPa) = 27.46563 36.73583 32.10073
#
# Velocity S-wave (km/s) = 3.31815 3.83748 3.58722
# Velocity P-wave (km/s) = 5.95778 6.86406 6.42692
#
# Compressibility (1/GPa) = 0.01925861
#
# Stress axis : x y z
#
# Youngs Moduli (GPa) = 86.63859 78.20560 73.45056
#
# Poissons Ratio (x) = -0.06583 0.32314
# Poissons Ratio (y) = -0.07293 0.42490
# Poissons Ratio (z) = 0.38115 0.45241
#
# Static dielectric constant tensor:
#      x y z
#    x 2.859410 -0.142780 -0.287350 
#    y -0.142780 2.010680 0.049520 
#    z -0.287350 0.049520 2.077530 
# 
# From -- ./inp_files/54018.got.cif
#   From: 2010.05.17/outbox.cif.g08.bks.cpg/sg2_28_cif.got.tgz:54018.got - 2010.06.03 11:33:40.
