data_PCOD9077885
_publ_section_title
;
Structure prediction by ZEFSAII (Michael W. Deem and Ramdas Pophale) SiO2 
 PCOD9077885
Probable space group: P -1
;
_chemical_formula_sum "Si O2"
_cell_formula_units_Z 14
_cell_length_a 9.972740
_cell_length_b 10.676807
_cell_length_c 15.990436
_cell_angle_alpha 141.655205
_cell_angle_beta 135.513079
_cell_angle_gamma 55.245193
_cell_volume 739.972849
_symmetry_space_group_name_H-M "P -1"
_symmetry_group_IT_number 2
_symmetry_cell_setting 'triclinic'
loop_
_space_group_symop_operation_xyz
x,y,z
-x,-y,-z
loop_
_atom_site_type_symbol
_atom_site_label
_atom_site_fract_x
_atom_site_fract_y
_atom_site_fract_z
Si Si1 0.488819 0.033941 0.134379
Si Si2 0.610973 0.554241 0.661628
Si Si3 0.913270 0.883167 0.978039
Si Si4 0.790180 0.709068 0.106164
Si Si5 0.387822 0.148478 0.737145
Si Si6 0.774059 0.162464 0.620778
Si Si7 0.271013 0.743354 0.172701
O O1 0.511419 0.271119 0.251945
O O2 0.266772 0.990455 0.996585
O O3 0.644431 0.874075 0.086011
O O4 0.515650 0.005048 0.232168
O O5 0.500000 0.500000 0.500000
O O6 0.806845 0.676764 0.796393
O O7 0.664568 0.354260 0.631206
O O8 0.081403 0.829710 0.088494
O O9 0.000000 0.000000 0.000000
O O10 0.725060 0.702084 0.171501
O O11 0.004227 0.785083 0.240827
O O12 0.767353 0.489162 0.943048
O O13 0.551918 0.245136 0.805721
O O14 0.253133 0.025203 0.551175
O O15 0.693481 0.134443 0.663102
#
# Coordination Sequence:
#
# PCOD9077885 Si02
#       7
#     2   2   2   2   2   2   2
#     4   8  19  32  59  78 104 140 200 219 265 313
#     4  10  18  35  55  81 110 149 188 227 268 342
#     4  10  18  35  55  81 110 149 188 227 268 342
#     4  10  20  37  60  82 110 151 194 223 278 338
#     4  10  21  37  58  81 114 149 191 226 276 335
#     4  12  22  36  58  89 115 145 185 240 285 323
#     4  12  22  36  58  89 115 145 185 240 285 323
#
# _framework density 18.919612999999998
#
# number of rings (size 3 to 8) (size 9 to 14) (size 15 to 20)
#    1.714    0.000    4.286    1.714    0.000    0.000 
#    0.000    2.857    0.000    0.000    0.000    6.000 
#    0.000    0.000    0.000    0.000    0.000    0.000 
#
# Total GULP energy -77956.413227 kJ/mol
# GULP energy per Si atom -5568.315230 kJ/mol
# Density = 1.887655 g / cm^3
# Si number density = 18.919613 Si / 1000 Ang^3
#
#
#
# Elastic Constant Matrix: (Units=GPa)
#
#
# Indices 1 2 3 4 5 6 
#
# 1 62.0612 5.0302 23.9969 -17.3560 -2.5361 -4.4509
# 2 5.0302 80.4565 5.0869 -9.7497 2.2460 -18.2758
# 3 23.9969 5.0869 68.7955 -7.4640 0.4417 5.8169
# 4 -17.3560 -9.7497 -7.4640 11.8628 -1.2232 0.1306
# 5 -2.5361 2.2460 0.4417 -1.2232 27.6172 -1.8281
# 6 -4.4509 -18.2758 5.8169 0.1306 -1.8281 22.4113
#
#
#
# Elastic Compliance Matrix: (Units=1/GPa)
#
#
# Indices 1 2 3 4 5 6 
#
# 1 0.034941 0.008252 -0.008439 0.053043 0.006084 0.016046
# 2 0.008252 0.019344 -0.003032 0.026027 0.001589 0.018178
# 3 -0.008439 -0.003032 0.018089 -0.003520 -0.001566 -0.008951
# 4 0.053043 0.026027 -0.003520 0.182063 0.013038 0.032674
# 5 0.006084 0.001589 -0.001566 0.013038 0.037632 0.005904
# 6 0.016046 0.018178 -0.008951 0.032674 0.005904 0.065245
#
#
# Mechanical properties :
#
#
# Convention : Reuss Voigt Hill
#
# Bulk Modulus (GPa) = 15.16653 31.06013 23.11333
# Shear Modulus (GPa) = 12.96246 24.19154 18.57700
#
# Velocity S-wave (km/s) = 2.62035 3.57970 3.13691
# Velocity P-wave (km/s) = 4.14592 5.79122 5.03621
#
# Compressibility (1/GPa) = 0.06593466
#
# Stress axis : x y z
#
# Youngs Moduli (GPa) = 28.61986 51.69689 55.28352
#
# Poissons Ratio (x) = -0.42659 0.46653
# Poissons Ratio (y) = -0.23616 0.16762
# Poissons Ratio (z) = 0.24152 0.15675
#
# Static dielectric constant tensor:
#      x y z
#    x 1.671330 -0.014400 -0.019380 
#    y -0.014400 1.668000 0.003380 
#    z -0.019380 0.003380 1.634650 
# 
# From -- ./inp_files/498558.got.cif
#   From: 2010.05.17/outbox.cif.g08.bks.cpg/sg2_250_cif.got.tgz:498558.got - 2010.06.03 11:33:40.
