data_PCOD9077874
_publ_section_title
;
Structure prediction by ZEFSAII (Michael W. Deem and Ramdas Pophale) SiO2 
 PCOD9077874
Probable space group: P -1
;
_chemical_formula_sum "Si O2"
_cell_formula_units_Z 14
_cell_length_a 15.345304
_cell_length_b 9.543139
_cell_length_c 9.774954
_cell_angle_alpha 69.295026
_cell_angle_beta 55.840975
_cell_angle_gamma 29.490007
_cell_volume 550.053634
_symmetry_space_group_name_H-M "P -1"
_symmetry_group_IT_number 2
_symmetry_cell_setting 'triclinic'
loop_
_space_group_symop_operation_xyz
x,y,z
-x,-y,-z
loop_
_atom_site_type_symbol
_atom_site_label
_atom_site_fract_x
_atom_site_fract_y
_atom_site_fract_z
Si Si1 0.394701 0.282993 0.187612
Si Si2 0.946492 0.759381 0.444246
Si Si3 0.489266 0.400965 0.670593
Si Si4 0.696244 0.153471 0.091964
Si Si5 0.635714 0.729909 0.302223
Si Si6 0.091599 0.837113 0.119329
Si Si7 0.194449 0.241100 0.676772
O O1 0.522371 0.267350 0.133936
O O2 0.550845 0.952831 0.186793
O O3 0.288278 0.473740 0.076399
O O4 0.182274 0.496518 0.387201
O O5 0.951261 0.620066 0.373489
O O6 0.930567 0.936009 0.312681
O O7 0.719876 0.038315 0.621769
O O8 0.500000 0.500000 0.500000
O O9 0.418938 0.588844 0.793659
O O10 0.331642 0.464603 0.736387
O O11 0.830839 0.867955 0.160149
O O12 0.833350 0.099607 0.900203
O O13 0.436626 0.938615 0.508531
O O14 0.810813 0.602226 0.281267
O O15 0.000000 0.000000 0.000000
#
# Coordination Sequence:
#
# PCOD9077874 Si02
#       7
#     2   2   2   2   2   2   2
#     4   9  21  33  54  83 103 141 181 215 259 310
#     4   9  19  33  53  79 106 133 185 211 261 303
#     4  11  19  33  54  83 107 139 172 219 269 311
#     4  11  18  33  56  80 110 136 178 217 262 312
#     4   9  18  32  52  79 108 135 177 216 261 316
#     4  10  18  35  55  79 103 142 181 220 250 315
#     4   9  16  31  53  77  99 146 173 212 253 312
#
# _framework density 25.452062000000002
#
# number of rings (size 3 to 8) (size 9 to 14) (size 15 to 20)
#    0.857    1.429    4.286    0.429    0.000    2.857 
#    0.000    0.714    3.143    0.857    0.000    0.000 
#    0.000    0.000    0.000    0.000    0.000    0.000 
#
# Total GULP energy -78031.330145 kJ/mol
# GULP energy per Si atom -5573.666439 kJ/mol
# Density = 2.539413 g / cm^3
# Si number density = 25.452062 Si / 1000 Ang^3
#
#
#
# Elastic Constant Matrix: (Units=GPa)
#
#
# Indices 1 2 3 4 5 6 
#
# 1 126.0501 46.9506 23.8673 -0.1692 -41.0053 10.4800
# 2 46.9506 74.0673 -3.5028 -9.3402 2.4452 2.1161
# 3 23.8673 -3.5028 55.6330 -18.0745 -23.1577 12.8787
# 4 -0.1692 -9.3402 -18.0745 46.8505 -3.9582 -1.6372
# 5 -41.0053 2.4452 -23.1577 -3.9582 49.8770 -12.2771
# 6 10.4800 2.1161 12.8787 -1.6372 -12.2771 50.4791
#
#
#
# Elastic Compliance Matrix: (Units=1/GPa)
#
#
# Indices 1 2 3 4 5 6 
#
# 1 0.017235 -0.011896 -0.003811 -0.002647 0.013012 0.000972
# 2 -0.011896 0.022328 0.005235 0.005660 -0.008404 -0.001662
# 3 -0.003811 0.005235 0.029426 0.013115 0.010329 -0.003998
# 4 -0.002647 0.005660 0.013115 0.027976 0.005672 -0.000747
# 5 0.013012 -0.008404 0.010329 0.005672 0.037466 0.004312
# 6 0.000972 -0.001662 -0.003998 -0.000747 0.004312 0.021723
#
#
# Mechanical properties :
#
#
# Convention : Reuss Voigt Hill
#
# Bulk Modulus (GPa) = 20.81483 43.37561 32.09522
# Shear Modulus (GPa) = 25.89161 42.00366 33.94764
#
# Velocity S-wave (km/s) = 3.19293 4.06680 3.65607
# Velocity P-wave (km/s) = 4.66785 6.25547 5.51905
#
# Compressibility (1/GPa) = 0.04804268
#
# Stress axis : x y z
#
# Youngs Moduli (GPa) = 58.02287 44.78607 33.98412
#
# Poissons Ratio (x) = 0.53278 0.12953
# Poissons Ratio (y) = 0.69025 -0.17790
# Poissons Ratio (z) = 0.22115 -0.23444
#
# Static dielectric constant tensor:
#      x y z
#    x 2.028910 -0.076700 -0.012560 
#    y -0.076700 2.121840 0.013800 
#    z -0.012560 0.013800 2.158470 
# 
# From -- ./inp_files/435086.got.cif
#   From: 2010.05.17/outbox.cif.g08.bks.cpg/sg2_218_cif.got.tgz:435086.got - 2010.06.03 11:33:40.
