data_PCOD9077988
_publ_section_title
;
Structure prediction by ZEFSAII (Michael W. Deem and Ramdas Pophale) SiO2 
 PCOD9077988
Probable space group: P -1
;
_chemical_formula_sum "Si O2"
_cell_formula_units_Z 16
_cell_length_a 23.271931
_cell_length_b 9.567259
_cell_length_c 9.498065
_cell_angle_alpha 107.899888
_cell_angle_beta 50.159826
_cell_angle_gamma 66.922729
_cell_volume 914.720950
_symmetry_space_group_name_H-M "P -1"
_symmetry_group_IT_number 2
_symmetry_cell_setting 'triclinic'
loop_
_space_group_symop_operation_xyz
x,y,z
-x,-y,-z
loop_
_atom_site_type_symbol
_atom_site_label
_atom_site_fract_x
_atom_site_fract_y
_atom_site_fract_z
Si Si1 0.001857 0.410069 0.324808
Si Si2 0.085113 0.960940 0.151578
Si Si3 0.530518 0.902696 0.649780
Si Si4 0.354947 0.374769 0.909531
Si Si5 0.135902 0.916950 0.386934
Si Si6 0.040094 0.550220 0.071095
Si Si7 0.242828 0.461538 0.610914
Si Si8 0.259120 0.302928 0.234527
O O1 0.858381 0.619404 0.557798
O O2 0.000000 0.500000 0.500000
O O3 0.080344 0.385711 0.087431
O O4 0.052076 0.166313 0.193209
O O5 0.133047 0.915828 0.221095
O O6 0.183710 0.709940 0.828447
O O7 0.962419 0.051377 0.393405
O O8 0.601767 0.719473 0.347480
O O9 0.623021 0.768941 0.594023
O O10 0.473157 0.148341 0.755762
O O11 0.402530 0.015924 0.923655
O O12 0.275654 0.648515 0.133432
O O13 0.260159 0.394359 0.115708
O O14 0.077086 0.161654 0.608647
O O15 0.149461 0.484950 0.826609
O O16 0.000000 0.500000 0.000000
O O17 0.248228 0.427514 0.424796
#
# Coordination Sequence:
#
# PCOD9077988 Si02
#       8
#     2   2   2   2   2   2   2   2
#     4  12  23  37  56  84 119 152 185 228 295 345
#     4  10  20  32  57  84 111 147 193 233 278 340
#     4   9  19  34  59  87 110 146 197 241 272 325
#     4   9  18  33  58  85 109 140 192 242 271 320
#     4  10  18  35  57  82 113 147 191 237 278 330
#     4  11  24  37  56  87 118 152 180 233 296 349
#     4  11  21  36  61  85 116 149 189 237 286 334
#     4  10  21  35  55  87 114 147 189 238 275 333
#
# _framework density 17.491672000000001
#
# number of rings (size 3 to 8) (size 9 to 14) (size 15 to 20)
#    0.750    1.000    5.000    0.375    1.750    1.500 
#    0.000    0.000    0.000    5.250    0.000    0.000 
#    0.000    0.000    0.000    0.000    0.000    0.000 
#
# Total GULP energy -89074.358824 kJ/mol
# GULP energy per Si atom -5567.147426 kJ/mol
# Density = 1.745186 g / cm^3
# Si number density = 17.491672 Si / 1000 Ang^3
#
#
#
# Elastic Constant Matrix: (Units=GPa)
#
#
# Indices 1 2 3 4 5 6 
#
# 1 69.7767 14.4526 28.4432 19.1543 9.8701 -2.8779
# 2 14.4526 77.7911 29.9958 15.7014 4.3323 14.7364
# 3 28.4432 29.9958 86.7269 8.8547 8.9534 -0.6040
# 4 19.1543 15.7014 8.8547 30.4343 -5.3367 -2.3788
# 5 9.8701 4.3323 8.9534 -5.3367 27.8525 2.5510
# 6 -2.8779 14.7364 -0.6040 -2.3788 2.5510 23.1923
#
#
#
# Elastic Compliance Matrix: (Units=1/GPa)
#
#
# Indices 1 2 3 4 5 6 
#
# 1 0.021291 0.000997 -0.004979 -0.013914 -0.008897 0.001430
# 2 0.000997 0.019758 -0.005939 -0.010546 -0.002310 -0.013413
# 3 -0.004979 -0.005939 0.015312 0.001653 -0.002281 0.003975
# 4 -0.013914 -0.010546 0.001653 0.049836 0.014810 0.008500
# 5 -0.008897 -0.002310 -0.002281 0.014810 0.043255 -0.002935
# 6 0.001430 -0.013413 0.003975 0.008500 -0.002935 0.053116
#
#
# Mechanical properties :
#
#
# Convention : Reuss Voigt Hill
#
# Bulk Modulus (GPa) = 27.38203 42.23086 34.80645
# Shear Modulus (GPa) = 21.31450 27.05602 24.18526
#
# Velocity S-wave (km/s) = 3.49456 3.93720 3.72247
# Velocity P-wave (km/s) = 5.65428 6.69810 6.19820
#
# Compressibility (1/GPa) = 0.03652030
#
# Stress axis : x y z
#
# Youngs Moduli (GPa) = 46.96740 50.61295 65.30972
#
# Poissons Ratio (x) = -0.05046 0.32515
# Poissons Ratio (y) = -0.04683 0.38785
# Poissons Ratio (z) = 0.23383 0.30058
#
# Static dielectric constant tensor:
#      x y z
#    x 1.560290 -0.003380 -0.025440 
#    y -0.003380 1.596330 0.011250 
#    z -0.025440 0.011250 1.604870 
# 
# From -- ./inp_files/226349.got.cif
#   From: 2010.05.17/outbox.cif.g08.bks.cpg/sg2_114_cif.got.tgz:226349.got - 2010.06.03 11:33:40.
