data_PCOD9077498
_publ_section_title
;
Structure prediction by ZEFSAII (Michael W. Deem and Ramdas Pophale) SiO2 
 PCOD9077498
Probable space group: P -1
;
_chemical_formula_sum "Si O2"
_cell_formula_units_Z 16
_cell_length_a 13.621630
_cell_length_b 19.581699
_cell_length_c 8.371038
_cell_angle_alpha 75.530739
_cell_angle_beta 88.023194
_cell_angle_gamma 22.380643
_cell_volume 696.475647
_symmetry_space_group_name_H-M "P -1"
_symmetry_group_IT_number 2
_symmetry_cell_setting 'triclinic'
loop_
_space_group_symop_operation_xyz
x,y,z
-x,-y,-z
loop_
_atom_site_type_symbol
_atom_site_label
_atom_site_fract_x
_atom_site_fract_y
_atom_site_fract_z
Si Si1 0.888711 0.716968 0.765868
Si Si2 0.749940 0.881749 0.360949
Si Si3 0.813666 0.249767 0.174781
Si Si4 0.883048 0.500112 0.556234
Si Si5 0.455363 0.683462 0.040586
Si Si6 0.350744 0.885950 0.137135
Si Si7 0.083303 0.439214 0.847623
Si Si8 0.261657 0.629642 0.561750
O O1 0.770168 0.857200 0.568616
O O2 0.213815 0.519239 0.930886
O O3 0.971410 0.594735 0.717972
O O4 0.608059 0.882787 0.792543
O O5 0.910393 0.707310 0.368356
O O6 0.967826 0.800902 0.379469
O O7 0.852279 0.241115 0.364359
O O8 0.500000 0.500000 0.000000
O O9 0.759039 0.206975 0.142528
O O10 0.065842 0.108320 0.120649
O O11 0.559131 0.711514 0.369066
O O12 0.000000 0.500000 0.500000
O O13 0.888485 0.510474 0.738211
O O14 0.303352 0.854807 0.032423
O O15 0.561898 0.554772 0.247437
O O16 0.564898 0.797944 0.088670
O O17 0.000000 0.500000 0.000000
O O18 0.500000 0.500000 0.500000
#
# Coordination Sequence:
#
# PCOD9077498 Si02
#       8
#     2   2   2   2   2   2   2   2
#     4   9  18  34  62  88 115 152 196 243 304 355
#     4  10  18  35  62  87 117 154 201 251 284 366
#     4  10  22  37  60  83 112 166 206 242 295 362
#     4  10  18  34  60  86 113 157 201 239 297 367
#     4   9  18  39  58  84 118 156 204 246 293 362
#     4  10  19  38  62  83 115 163 211 241 290 374
#     4  10  21  37  55  93 130 150 189 253 315 360
#     4  10  21  39  57  86 122 153 201 253 299 347
#
# _framework density 22.972805000000001
#
# number of rings (size 3 to 8) (size 9 to 14) (size 15 to 20)
#    0.000    2.250    5.000    0.375    1.750    5.000 
#    9.000    1.250    0.000    0.000    0.000    0.000 
#    0.000    0.000    0.000    0.000    0.000    0.000 
#
# Total GULP energy -89128.609906 kJ/mol
# GULP energy per Si atom -5570.538119 kJ/mol
# Density = 2.292052 g / cm^3
# Si number density = 22.972805 Si / 1000 Ang^3
#
#
#
# Elastic Constant Matrix: (Units=GPa)
#
#
# Indices 1 2 3 4 5 6 
#
# 1 81.1538 31.1343 21.7196 19.0266 17.4168 -14.9700
# 2 31.1343 141.2892 27.5010 1.4811 2.7545 -26.7254
# 3 21.7196 27.5010 39.0216 20.0923 14.4876 -0.7849
# 4 19.0266 1.4811 20.0923 31.9271 7.6799 3.9599
# 5 17.4168 2.7545 14.4876 7.6799 29.5594 8.0315
# 6 -14.9700 -26.7254 -0.7849 3.9599 8.0315 40.1251
#
#
#
# Elastic Compliance Matrix: (Units=1/GPa)
#
#
# Indices 1 2 3 4 5 6 
#
# 1 0.019618 -0.002365 0.000404 -0.010229 -0.011332 0.009029
# 2 -0.002365 0.010285 -0.009783 0.005925 0.002411 0.004709
# 3 0.000404 -0.009783 0.054648 -0.029845 -0.018737 0.001399
# 4 -0.010229 0.005925 -0.029845 0.054960 0.007847 -0.007448
# 5 -0.011332 0.002411 -0.018737 0.007847 0.051236 -0.014018
# 6 0.009029 0.004709 0.001399 -0.007448 -0.014018 0.034995
#
#
# Mechanical properties :
#
#
# Convention : Reuss Voigt Hill
#
# Bulk Modulus (GPa) = 16.37700 46.90828 31.64264
# Shear Modulus (GPa) = 18.54698 32.39631 25.47164
#
# Velocity S-wave (km/s) = 2.84446 3.75934 3.33344
# Velocity P-wave (km/s) = 4.23466 6.26952 5.34973
#
# Compressibility (1/GPa) = 0.06106125
#
# Stress axis : x y z
#
# Youngs Moduli (GPa) = 50.97472 97.23152 18.29877
#
# Poissons Ratio (x) = 0.23000 -0.00739
# Poissons Ratio (y) = 0.12058 0.17902
# Poissons Ratio (z) = -0.02059 0.95123
#
# Static dielectric constant tensor:
#      x y z
#    x 1.971240 -0.030060 -0.064400 
#    y -0.030060 1.898530 0.027890 
#    z -0.064400 0.027890 2.064500 
# 
# From -- ./inp_files/319364.got.cif
#   From: 2010.05.17/outbox.cif.g08.bks.cpg/sg2_160_cif.got.tgz:319364.got - 2010.06.03 11:33:40.
