data_PCOD9077377
_publ_section_title
;
Structure prediction by ZEFSAII (Michael W. Deem and Ramdas Pophale) SiO2 
 PCOD9077377
Probable space group: P -1
;
_chemical_formula_sum "Si O2"
_cell_formula_units_Z 14
_cell_length_a 11.639395
_cell_length_b 6.272589
_cell_length_c 8.157511
_cell_angle_alpha 72.774368
_cell_angle_beta 98.403589
_cell_angle_gamma 92.759838
_cell_volume 562.743818
_symmetry_space_group_name_H-M "P -1"
_symmetry_group_IT_number 2
_symmetry_cell_setting 'triclinic'
loop_
_space_group_symop_operation_xyz
x,y,z
-x,-y,-z
loop_
_atom_site_type_symbol
_atom_site_label
_atom_site_fract_x
_atom_site_fract_y
_atom_site_fract_z
Si Si1 0.476399 0.004833 0.295582
Si Si2 0.997630 0.852020 0.868155
Si Si3 0.823585 0.482282 0.874016
Si Si4 0.741929 0.218413 0.630236
Si Si5 0.823661 0.998851 0.366303
Si Si6 0.656205 0.626066 0.345368
Si Si7 0.645397 0.338514 0.099440
O O1 0.339940 0.962162 0.256403
O O2 0.549949 0.794585 0.294395
O O3 0.500000 0.000000 0.500000
O O4 0.524157 0.222659 0.157116
O O5 0.875295 0.731144 0.832240
O O6 0.052069 0.983944 0.696359
O O7 0.089541 0.651502 0.958495
O O8 0.000000 0.000000 0.000000
O O9 0.829207 0.349621 0.735284
O O10 0.690877 0.438719 0.915054
O O11 0.804706 0.114693 0.510251
O O12 0.650478 0.402705 0.502418
O O13 0.732029 0.133889 0.202388
O O14 0.770144 0.753003 0.406771
O O15 0.670793 0.536814 0.186314
#
# Coordination Sequence:
#
# PCOD9077377 Si02
#       7
#     2   2   2   2   2   2   2
#     4  11  19  35  58  86 113 154 188 221 273 332
#     4  10  21  42  64  78 108 153 190 228 291 340
#     4  10  23  40  57  84 115 145 185 241 284 327
#     4  11  22  35  56  88 119 143 186 237 276 324
#     4   9  19  35  58  85 108 146 191 231 274 335
#     4  10  18  34  59  81 113 150 189 223 270 333
#     4   9  19  35  57  80 112 152 190 222 275 334
#
# _framework density 24.878108000000001
#
# number of rings (size 3 to 8) (size 9 to 14) (size 15 to 20)
#    0.000    2.000    4.286    1.286    0.000    3.429 
#    0.000    2.143    0.000    0.000    0.000    0.000 
#    0.000    0.000    0.000    0.000    0.000    0.000 
#
# Total GULP energy -78199.198830 kJ/mol
# GULP energy per Si atom -5585.657059 kJ/mol
# Density = 2.482148 g / cm^3
# Si number density = 24.878108 Si / 1000 Ang^3
#
#
#
# Elastic Constant Matrix: (Units=GPa)
#
#
# Indices 1 2 3 4 5 6 
#
# 1 115.4946 60.4849 33.9098 -14.2118 -27.7794 27.8715
# 2 60.4849 129.1821 43.0781 19.7963 -31.0273 43.4074
# 3 33.9098 43.0781 63.2355 13.1688 -30.6013 34.8685
# 4 -14.2118 19.7963 13.1688 25.1045 -1.4826 8.5399
# 5 -27.7794 -31.0273 -30.6013 -1.4826 46.6061 -14.6954
# 6 27.8715 43.4074 34.8685 8.5399 -14.6954 50.1756
#
#
#
# Elastic Compliance Matrix: (Units=1/GPa)
#
#
# Indices 1 2 3 4 5 6 
#
# 1 0.018866 -0.009341 -0.007919 0.022429 0.000348 -0.000611
# 2 -0.009341 0.017660 0.003977 -0.018213 0.005670 -0.008093
# 3 -0.007919 0.003977 0.040846 -0.021714 0.018260 -0.018383
# 4 0.022429 -0.018213 -0.021714 0.076876 -0.009801 0.002432
# 5 0.000348 0.005670 0.018260 -0.009801 0.035292 -0.005783
# 6 -0.000611 -0.008093 -0.018383 0.002432 -0.005783 0.037939
#
#
# Mechanical properties :
#
#
# Convention : Reuss Voigt Hill
#
# Bulk Modulus (GPa) = 19.68217 64.76198 42.22208
# Shear Modulus (GPa) = 18.45147 35.73987 27.09567
#
# Velocity S-wave (km/s) = 2.72633 3.79436 3.30379
# Velocity P-wave (km/s) = 4.22363 6.72937 5.61799
#
# Compressibility (1/GPa) = 0.05080740
#
# Stress axis : x y z
#
# Youngs Moduli (GPa) = 53.00425 56.62380 24.48222
#
# Poissons Ratio (x) = 0.52891 0.19388
# Poissons Ratio (y) = 0.49510 -0.09737
# Poissons Ratio (z) = 0.41975 -0.22521
#
# Static dielectric constant tensor:
#      x y z
#    x 2.025720 0.061840 0.014010 
#    y 0.061840 1.963560 -0.037860 
#    z 0.014010 -0.037860 2.000960 
# 
# From -- ./inp_files/27021.got.cif
#   From: 2010.05.17/outbox.cif.g08.bks.cpg/sg2_14_cif.got.tgz:27021.got - 2010.06.03 11:33:40.
