data_PCOD9077964
_publ_section_title
;
Structure prediction by ZEFSAII (Michael W. Deem and Ramdas Pophale) SiO2 
 PCOD9077964
Probable space group: P -1
;
_chemical_formula_sum "Si O2"
_cell_formula_units_Z 14
_cell_length_a 5.068052
_cell_length_b 13.661666
_cell_length_c 8.957612
_cell_angle_alpha 116.283140
_cell_angle_beta 87.115115
_cell_angle_gamma 82.078112
_cell_volume 546.434189
_symmetry_space_group_name_H-M "P -1"
_symmetry_group_IT_number 2
_symmetry_cell_setting 'triclinic'
loop_
_space_group_symop_operation_xyz
x,y,z
-x,-y,-z
loop_
_atom_site_type_symbol
_atom_site_label
_atom_site_fract_x
_atom_site_fract_y
_atom_site_fract_z
Si Si1 0.558562 0.665872 0.574249
Si Si2 0.801832 0.575066 0.210544
Si Si3 0.663928 0.508675 0.723565
Si Si4 0.123934 0.871397 0.737481
Si Si5 0.288519 0.087014 0.972118
Si Si6 0.492362 0.214903 0.795201
Si Si7 0.048942 0.125096 0.579521
O O1 0.754827 0.645849 0.414630
O O2 0.683868 0.611841 0.687056
O O3 0.344133 0.590562 0.465667
O O4 0.407210 0.789765 0.683898
O O5 0.624147 0.480772 0.181227
O O6 0.666115 0.661541 0.149625
O O7 0.112541 0.525077 0.179613
O O8 0.989080 0.844041 0.570929
O O9 0.152741 0.000647 0.819456
O O10 0.941870 0.854341 0.871997
O O11 0.435327 0.167649 0.925908
O O12 0.500000 0.000000 0.000000
O O13 0.804288 0.198424 0.729843
O O14 0.337309 0.140798 0.641076
O O15 0.000000 0.000000 0.500000
#
# Coordination Sequence:
#
# PCOD9077964 Si02
#       7
#     2   2   2   2   2   2   2
#     4   9  19  33  60  89 122 159 200 255 317 366
#     4  10  18  35  56  92 119 152 197 254 313 361
#     4   9  19  34  58  94 126 147 195 270 314 364
#     4  11  23  43  60  92 128 169 214 256 311 382
#     4  11  27  43  59  88 134 177 209 254 312 384
#     4  12  24  40  66  92 125 166 209 263 318 367
#     4  12  23  39  64  92 121 160 216 268 307 358
#
# _framework density 25.620654999999999
#
# number of rings (size 3 to 8) (size 9 to 14) (size 15 to 20)
#    0.857    0.571    2.857    3.429    4.000    1.143 
#    0.000    0.000    0.000    1.714    0.000    0.000 
#    0.000    0.000    0.000    0.000    0.000    0.000 
#
# Total GULP energy -78360.271529 kJ/mol
# GULP energy per Si atom -5597.162252 kJ/mol
# Density = 2.556234 g / cm^3
# Si number density = 25.620655 Si / 1000 Ang^3
#
#
#
# Elastic Constant Matrix: (Units=GPa)
#
#
# Indices 1 2 3 4 5 6 
#
# 1 78.5762 -9.3405 5.1840 4.5556 -3.1318 -10.4044
# 2 -9.3405 86.4150 28.4876 -10.9057 1.3598 -3.0478
# 3 5.1840 28.4876 80.4666 -4.0544 -19.8669 6.6708
# 4 4.5556 -10.9057 -4.0544 43.1284 -8.3633 0.4765
# 5 -3.1318 1.3598 -19.8669 -8.3633 28.8377 -0.5716
# 6 -10.4044 -3.0478 6.6708 0.4765 -0.5716 34.1496
#
#
#
# Elastic Compliance Matrix: (Units=1/GPa)
#
#
# Indices 1 2 3 4 5 6 
#
# 1 0.013845 0.002266 -0.002266 -0.001239 -0.000427 0.004873
# 2 0.002266 0.014361 -0.006441 0.001928 -0.004247 0.003132
# 3 -0.002266 -0.006441 0.018820 0.003115 0.013832 -0.004754
# 4 -0.001239 0.001928 0.003115 0.025936 0.009422 -0.001018
# 5 -0.000427 -0.004247 0.013832 0.009422 0.047042 -0.002555
# 6 0.004873 0.003132 -0.004754 -0.001018 -0.002555 0.031947
#
#
# Mechanical properties :
#
#
# Convention : Reuss Voigt Hill
#
# Bulk Modulus (GPa) = 29.28836 32.68002 30.98419
# Shear Modulus (GPa) = 28.37417 35.96490 32.16954
#
# Velocity S-wave (km/s) = 3.33148 3.75072 3.54730
# Velocity P-wave (km/s) = 5.12394 5.61607 5.37564
#
# Compressibility (1/GPa) = 0.03414326
#
# Stress axis : x y z
#
# Youngs Moduli (GPa) = 72.22590 69.63242 53.13462
#
# Poissons Ratio (x) = -0.15777 0.12041
# Poissons Ratio (y) = -0.16365 0.34226
# Poissons Ratio (z) = 0.16367 0.44853
#
# Static dielectric constant tensor:
#      x y z
#    x 2.030840 0.034580 0.063870 
#    y 0.034580 1.977970 0.007820 
#    z 0.063870 0.007820 2.077390 
# 
# From -- ./inp_files/135492.got.cif
#   From: 2010.05.17/outbox.cif.g08.bks.cpg/sg2_68_cif.got.tgz:135492.got - 2010.06.03 11:33:40.
