data_PCOD9077723
_publ_section_title
;
Structure prediction by ZEFSAII (Michael W. Deem and Ramdas Pophale) SiO2 
 PCOD9077723
Probable space group: P -1
;
_chemical_formula_sum "Si O2"
_cell_formula_units_Z 16
_cell_length_a 9.106211
_cell_length_b 11.498620
_cell_length_c 12.147638
_cell_angle_alpha 46.086563
_cell_angle_beta 76.193069
_cell_angle_gamma 66.546831
_cell_volume 839.262489
_symmetry_space_group_name_H-M "P -1"
_symmetry_group_IT_number 2
_symmetry_cell_setting 'triclinic'
loop_
_space_group_symop_operation_xyz
x,y,z
-x,-y,-z
loop_
_atom_site_type_symbol
_atom_site_label
_atom_site_fract_x
_atom_site_fract_y
_atom_site_fract_z
Si Si1 0.137888 0.670161 0.436851
Si Si2 0.751251 0.306669 0.368320
Si Si3 0.585421 0.425388 0.707915
Si Si4 0.225077 0.979754 0.297556
Si Si5 0.468201 0.133626 0.817625
Si Si6 0.842010 0.228078 0.967347
Si Si7 0.876419 0.838762 0.218340
Si Si8 0.946265 0.336225 0.101850
O O1 0.161851 0.627184 0.589527
O O2 0.283108 0.550066 0.416680
O O3 0.966246 0.712000 0.383889
O O4 0.165794 0.856747 0.306820
O O5 0.562537 0.408473 0.344903
O O6 0.827630 0.327834 0.226644
O O7 0.778480 0.110349 0.525726
O O8 0.507811 0.297877 0.746069
O O9 0.686087 0.330700 0.857305
O O10 0.104474 0.168785 0.189137
O O11 0.403818 0.954071 0.242946
O O12 0.287729 0.181416 0.777890
O O13 0.500000 0.000000 0.000000
O O14 0.863773 0.327498 0.006089
O O15 0.839115 0.039179 0.121562
O O16 0.994700 0.201864 0.877300
O O17 0.000000 0.500000 0.000000
#
# Coordination Sequence:
#
# PCOD9077723 Si02
#       8
#     2   2   2   2   2   2   2   2
#     4   8  18  37  64  84 117 159 203 238 297 369
#     4  10  22  40  64  81 124 174 199 236 303 383
#     4  10  20  36  61  94 119 156 201 251 308 355
#     4   9  21  40  60  85 116 165 202 235 305 361
#     4  11  20  31  63 100 124 146 195 267 305 349
#     4  10  20  37  57  90 128 156 198 246 317 354
#     4  10  18  34  63  93 122 154 194 261 305 358
#     4  12  25  39  64  90 121 161 212 253 288 362
#
# _framework density 19.064356
#
# number of rings (size 3 to 8) (size 9 to 14) (size 15 to 20)
#    0.750    1.250    2.500    1.500    3.500    0.500 
#    0.000    1.875    0.000    2.250    0.000    0.000 
#    0.000    0.000    0.000    0.000    0.000    0.000 
#
# Total GULP energy -89284.420897 kJ/mol
# GULP energy per Si atom -5580.276306 kJ/mol
# Density = 1.902096 g / cm^3
# Si number density = 19.064356 Si / 1000 Ang^3
#
#
#
# Elastic Constant Matrix: (Units=GPa)
#
#
# Indices 1 2 3 4 5 6 
#
# 1 135.0851 43.4222 23.7296 -1.3185 28.6154 -5.0091
# 2 43.4222 75.3032 29.8695 -0.0074 10.1482 -0.7221
# 3 23.7296 29.8695 48.4278 6.5561 14.2304 5.2047
# 4 -1.3185 -0.0074 6.5561 29.4192 3.2677 7.1979
# 5 28.6154 10.1482 14.2304 3.2677 30.9896 -2.3779
# 6 -5.0091 -0.7221 5.2047 7.1979 -2.3779 26.5716
#
#
#
# Elastic Compliance Matrix: (Units=1/GPa)
#
#
# Indices 1 2 3 4 5 6 
#
# 1 0.010881 -0.005161 0.000088 0.001209 -0.008463 0.000809
# 2 -0.005161 0.020339 -0.011373 0.001529 0.003296 0.001688
# 3 0.000088 -0.011373 0.032182 -0.004361 -0.011167 -0.006414
# 4 0.001209 0.001529 -0.004361 0.037826 -0.004333 -0.009511
# 5 -0.008463 0.003296 -0.011167 -0.004333 0.045040 0.005886
# 6 0.000809 0.001688 -0.006414 -0.009511 0.005886 0.042192
#
#
# Mechanical properties :
#
#
# Convention : Reuss Voigt Hill
#
# Bulk Modulus (GPa) = 32.77618 50.31764 41.54691
# Shear Modulus (GPa) = 21.59631 28.18243 24.88937
#
# Velocity S-wave (km/s) = 3.36938 3.84901 3.61715
# Velocity P-wave (km/s) = 5.68917 6.79736 6.26780
#
# Compressibility (1/GPa) = 0.03050996
#
# Stress axis : x y z
#
# Youngs Moduli (GPa) = 91.90629 49.16744 31.07323
#
# Poissons Ratio (x) = 0.25373 -0.00272
# Poissons Ratio (y) = 0.47428 0.35339
# Poissons Ratio (z) = -0.00805 0.55917
#
# Static dielectric constant tensor:
#      x y z
#    x 1.658870 0.012250 0.006050 
#    y 0.012250 1.653320 -0.014970 
#    z 0.006050 -0.014970 1.684800 
# 
# From -- ./inp_files/389024.got.cif
#   From: 2010.05.17/outbox.cif.g08.bks.cpg/sg2_195_cif.got.tgz:389024.got - 2010.06.03 11:33:40.
