data_PCOD9077968
_publ_section_title
;
Structure prediction by ZEFSAII (Michael W. Deem and Ramdas Pophale) SiO2 
 PCOD9077968
Probable space group: P -1
;
_chemical_formula_sum "Si O2"
_cell_formula_units_Z 12
_cell_length_a 11.572634
_cell_length_b 11.544277
_cell_length_c 4.958282
_cell_angle_alpha 80.072349
_cell_angle_beta 69.130176
_cell_angle_gamma 73.669914
_cell_volume 592.054791
_symmetry_space_group_name_H-M "P -1"
_symmetry_group_IT_number 2
_symmetry_cell_setting 'triclinic'
loop_
_space_group_symop_operation_xyz
x,y,z
-x,-y,-z
loop_
_atom_site_type_symbol
_atom_site_label
_atom_site_fract_x
_atom_site_fract_y
_atom_site_fract_z
Si Si1 0.207704 0.918316 0.327274
Si Si2 0.414761 0.137251 0.488415
Si Si3 0.866819 0.291482 0.795134
Si Si4 0.992794 0.370903 0.170217
Si Si5 0.234642 0.172599 0.125157
Si Si6 0.344015 0.795243 0.791320
O O1 0.115330 0.841686 0.303081
O O2 0.252884 0.869229 0.604640
O O3 0.169167 0.061275 0.280507
O O4 0.329052 0.876969 0.041510
O O5 0.349267 0.157398 0.245722
O O6 0.512090 0.223614 0.413961
O O7 0.500000 0.000000 0.500000
O O8 0.299634 0.161179 0.784699
O O9 0.895061 0.375296 0.497703
O O10 0.952417 0.299332 0.978338
O O11 0.721673 0.311877 0.019726
O O12 0.128954 0.296160 0.191646
O O13 0.000000 0.500000 0.000000
#
# Coordination Sequence:
#
# PCOD9077968 Si02
#       6
#     2   2   2   2   2   2
#     4  10  18  35  56  96 119 152 189 237 314 363
#     4  12  20  36  61  93 136 154 187 242 309 384
#     4  10  21  42  62  88 115 161 204 252 304 360
#     4  12  26  44  63  82 120 168 213 256 285 344
#     4  12  24  36  60  97 126 163 199 238 304 365
#     4  10  19  34  60  92 122 158 181 238 311 369
#
# _framework density 20.268391999999999
#
# number of rings (size 3 to 8) (size 9 to 14) (size 15 to 20)
#    1.000    0.000    5.000    3.000    0.000    1.333 
#    0.000    0.000    0.000    6.000    0.000    0.000 
#    0.000    0.000    0.000    0.000    0.000    0.000 
#
# Total GULP energy -66899.424090 kJ/mol
# GULP energy per Si atom -5574.952008 kJ/mol
# Density = 2.022226 g / cm^3
# Si number density = 20.268392 Si / 1000 Ang^3
#
#
#
# Elastic Constant Matrix: (Units=GPa)
#
#
# Indices 1 2 3 4 5 6 
#
# 1 78.0104 27.0534 9.0458 -7.1580 -6.2669 0.9153
# 2 27.0534 38.3040 0.7359 -21.8858 -0.1847 9.9005
# 3 9.0458 0.7359 104.9354 -14.4110 -5.2275 12.9742
# 4 -7.1580 -21.8858 -14.4110 20.8581 7.9963 5.5699
# 5 -6.2669 -0.1847 -5.2275 7.9963 39.8351 -14.5302
# 6 0.9153 9.9005 12.9742 5.5699 -14.5302 -18.8804
#
#
#
# Elastic Compliance Matrix: (Units=1/GPa)
#
#
# Indices 1 2 3 4 5 6 
#
# 1 0.017172 -0.013546 -0.001134 -0.006765 0.000428 -0.009375
# 2 -0.013546 0.047708 0.001819 0.036368 0.003345 0.033765
# 3 -0.001134 0.001819 0.009597 0.005271 0.002602 0.007047
# 4 -0.006765 0.036368 0.005271 0.075383 0.000729 0.044042
# 5 0.000428 0.003345 0.002602 0.000729 0.020894 -0.012302
# 6 -0.009375 0.033765 0.007047 0.044042 -0.012302 -0.008411
#
#
# Mechanical properties :
#
#
# Convention : Reuss Voigt Hill
#
# Bulk Modulus (GPa) = 20.51058 32.76889 26.63973
# Shear Modulus (GPa) = 24.47204 20.65688 22.56446
#
# Velocity S-wave (km/s) = 3.47853 3.19590 3.34021
# Velocity P-wave (km/s) = 5.12592 5.46086 5.29604
#
# Compressibility (1/GPa) = 0.04875533
#
# Stress axis : x y z
#
# Youngs Moduli (GPa) = 58.23546 20.96102 104.20003
#
# Poissons Ratio (x) = 0.28394 0.11814
# Poissons Ratio (y) = 0.78886 -0.18959
# Poissons Ratio (z) = 0.06603 -0.03814
#
# Static dielectric constant tensor:
#      x y z
#    x 1.744440 0.035520 -0.046370 
#    y 0.035520 1.718390 -0.000620 
#    z -0.046370 -0.000620 1.734670 
# 
# From -- ./inp_files/63346.got.cif
#   From: 2010.05.17/outbox.cif.g08.bks.cpg/sg2_32_cif.got.tgz:63346.got - 2010.06.03 11:33:40.
