data_PCOD9077422
_publ_section_title
;
Structure prediction by ZEFSAII (Michael W. Deem and Ramdas Pophale) SiO2 
 PCOD9077422
Probable space group: P -1
;
_chemical_formula_sum "Si O2"
_cell_formula_units_Z 14
_cell_length_a 17.229837
_cell_length_b 14.199881
_cell_length_c 24.955094
_cell_angle_alpha 19.515777
_cell_angle_beta 162.177879
_cell_angle_gamma 154.270129
_cell_volume 623.891599
_symmetry_space_group_name_H-M "P -1"
_symmetry_group_IT_number 2
_symmetry_cell_setting 'triclinic'
loop_
_space_group_symop_operation_xyz
x,y,z
-x,-y,-z
loop_
_atom_site_type_symbol
_atom_site_label
_atom_site_fract_x
_atom_site_fract_y
_atom_site_fract_z
Si Si1 0.770328 0.417264 0.281857
Si Si2 0.873833 0.794196 0.826332
Si Si3 0.348048 0.562018 0.223885
Si Si4 0.708576 0.391466 0.369436
Si Si5 0.582372 0.073726 0.698631
Si Si6 0.314016 0.253339 0.734419
Si Si7 0.974215 0.979588 0.909651
O O1 0.620432 0.474919 0.207941
O O2 0.571586 0.211184 0.230823
O O3 0.910007 0.707740 0.198531
O O4 0.011154 0.217830 0.558819
O O5 0.777681 0.542765 0.858998
O O6 0.869646 0.816236 0.876057
O O7 0.174929 0.801840 0.005452
O O8 0.720620 0.058533 0.563484
O O9 0.625930 0.653036 0.337039
O O10 0.386881 0.309232 0.426309
O O11 0.610504 0.527687 0.285899
O O12 0.000000 0.500000 0.500000
O O13 0.786983 0.167075 0.827690
O O14 0.756256 0.011963 0.793591
O O15 0.500000 0.000000 0.000000
#
# Coordination Sequence:
#
# PCOD9077422 Si02
#       7
#     2   2   2   2   2   2   2
#     4  11  21  40  65  91 124 167 206 257 314 373
#     4  11  22  38  64  94 126 165 209 260 314 373
#     4  11  23  38  63  95 127 165 209 262 314 364
#     4  10  18  34  59  88 120 155 202 250 312 364
#     4  11  24  42  65  92 125 167 212 260 307 377
#     4  11  23  36  62  98 128 158 204 267 315 372
#     4  11  24  43  64  91 125 169 213 255 315 369
#
# _framework density 22.439793999999999
#
# number of rings (size 3 to 8) (size 9 to 14) (size 15 to 20)
#    0.000    1.143    5.714    2.143    4.000    1.714 
#    0.000    0.000    0.000    0.857    0.000    0.000 
#    0.000    0.000    0.000    0.000    0.000    0.000 
#
# Total GULP energy -78035.543507 kJ/mol
# GULP energy per Si atom -5573.967393 kJ/mol
# Density = 2.238872 g / cm^3
# Si number density = 22.439794 Si / 1000 Ang^3
#
#
#
# Elastic Constant Matrix: (Units=GPa)
#
#
# Indices 1 2 3 4 5 6 
#
# 1 67.3079 3.1234 26.8484 -1.3862 11.3366 7.3598
# 2 3.1234 60.0893 18.4966 4.6607 -10.0711 -3.6593
# 3 26.8484 18.4966 84.4524 -0.8935 14.9510 -5.5611
# 4 -1.3862 4.6607 -0.8935 31.1763 -4.8748 -7.5179
# 5 11.3366 -10.0711 14.9510 -4.8748 36.8463 2.5970
# 6 7.3598 -3.6593 -5.5611 -7.5179 2.5970 32.4356
#
#
#
# Elastic Compliance Matrix: (Units=1/GPa)
#
#
# Indices 1 2 3 4 5 6 
#
# 1 0.018129 0.000026 -0.005566 -0.001062 -0.003096 -0.005063
# 2 0.000026 0.019791 -0.005664 -0.001905 0.007432 0.000219
# 3 -0.005566 -0.005664 0.016308 0.001044 -0.006610 0.004191
# 4 -0.001062 -0.001905 0.001044 0.034807 0.003424 0.007999
# 5 -0.003096 0.007432 -0.006610 0.003424 0.033363 -0.001470
# 6 -0.005063 0.000219 0.004191 0.007999 -0.001470 0.034694
#
#
# Mechanical properties :
#
#
# Convention : Reuss Voigt Hill
#
# Bulk Modulus (GPa) = 31.42644 34.30960 32.86802
# Shear Modulus (GPa) = 26.30092 30.98372 28.64232
#
# Velocity S-wave (km/s) = 3.42726 3.71987 3.57656
# Velocity P-wave (km/s) = 5.44946 5.81143 5.63336
#
# Compressibility (1/GPa) = 0.03182034
#
# Stress axis : x y z
#
# Youngs Moduli (GPa) = 55.15958 50.52826 61.31843
#
# Poissons Ratio (x) = -0.00132 0.34128
# Poissons Ratio (y) = -0.00144 0.34733
# Poissons Ratio (z) = 0.30700 0.28621
#
# Static dielectric constant tensor:
#      x y z
#    x 1.923120 0.044000 -0.043970 
#    y 0.044000 1.909540 0.019050 
#    z -0.043970 0.019050 1.842280 
# 
# From -- ./inp_files/315142.got.cif
#   From: 2010.05.17/outbox.cif.g08.bks.cpg/sg2_158_cif.got.tgz:315142.got - 2010.06.03 11:33:40.
