data_PCOD9077566
_publ_section_title
;
Structure prediction by ZEFSAII (Michael W. Deem and Ramdas Pophale) SiO2 
 PCOD9077566
Probable space group: P -1
;
_chemical_formula_sum "Si O2"
_cell_formula_units_Z 16
_cell_length_a 19.039765
_cell_length_b 11.855818
_cell_length_c 10.838286
_cell_angle_alpha 52.016151
_cell_angle_beta 133.857066
_cell_angle_gamma 156.051854
_cell_volume 714.757011
_symmetry_space_group_name_H-M "P -1"
_symmetry_group_IT_number 2
_symmetry_cell_setting 'triclinic'
loop_
_space_group_symop_operation_xyz
x,y,z
-x,-y,-z
loop_
_atom_site_type_symbol
_atom_site_label
_atom_site_fract_x
_atom_site_fract_y
_atom_site_fract_z
Si Si1 0.043123 0.026404 0.722694
Si Si2 0.237842 0.452188 0.456706
Si Si3 0.649718 0.665641 0.464864
Si Si4 0.222520 0.973418 0.343541
Si Si5 0.771517 0.107318 0.310459
Si Si6 0.788104 0.745988 0.966437
Si Si7 0.225953 0.679192 0.462994
Si Si8 0.237399 0.603755 0.812475
O O1 0.937019 0.756958 0.713235
O O2 0.861903 0.898324 0.622335
O O3 0.154067 0.251290 0.601269
O O4 0.177376 0.175126 0.901140
O O5 0.379151 0.521360 0.514460
O O6 0.302006 0.678503 0.444422
O O7 0.500000 0.500000 0.500000
O O8 0.678505 0.852211 0.302834
O O9 0.257217 0.967541 0.529647
O O10 0.277329 0.910014 0.365967
O O11 0.990986 0.687219 0.252291
O O12 0.295896 0.220203 0.222920
O O13 0.701155 0.183239 0.171753
O O14 0.995904 0.384132 0.371038
O O15 0.696497 0.473609 0.022903
O O16 0.000000 0.000000 0.000000
O O17 0.272663 0.678528 0.658547
#
# Coordination Sequence:
#
# PCOD9077566 Si02
#       8
#     2   2   2   2   2   2   2   2
#     4   9  16  27  43  67  91 115 142 182 219 262
#     4   9  16  27  46  62  91 120 142 183 225 255
#     4  10  18  27  43  67  89 115 151 188 219 252
#     4   8  16  21  41  68  95 113 137 181 228 262
#     4   9  14  26  40  65  91 111 148 182 214 260
#     4  10  15  24  39  72  98 112 136 184 233 257
#     4   9  12  26  42  65  88 116 142 176 227 261
#     4   8  14  21  40  60  90 116 138 178 221 259
#
# _framework density 22.385228999999999
#
# number of rings (size 3 to 8) (size 9 to 14) (size 15 to 20)
#    0.750    2.250    2.500    3.000    0.000    0.000 
#    0.000    0.625    0.000    3.000    0.000   17.500 
#    0.000    0.000    0.000    0.000    0.000    0.000 
#
# Total GULP energy -89107.941235 kJ/mol
# GULP energy per Si atom -5569.246327 kJ/mol
# Density = 2.233428 g / cm^3
# Si number density = 22.385229 Si / 1000 Ang^3
#
#
#
# Elastic Constant Matrix: (Units=GPa)
#
#
# Indices 1 2 3 4 5 6 
#
# 1 158.5688 30.2766 35.9324 -8.6313 22.7326 -24.0967
# 2 30.2766 59.9083 9.6859 -14.9929 15.9532 -19.7532
# 3 35.9324 9.6859 70.9136 -9.8820 27.2146 -9.0389
# 4 -8.6313 -14.9929 -9.8820 23.1384 -10.2510 12.4982
# 5 22.7326 15.9532 27.2146 -10.2510 39.2157 -15.2644
# 6 -24.0967 -19.7532 -9.0389 12.4982 -15.2644 47.3381
#
#
#
# Elastic Compliance Matrix: (Units=1/GPa)
#
#
# Indices 1 2 3 4 5 6 
#
# 1 0.008006 -0.003017 -0.003366 -0.002042 -0.000636 0.002508
# 2 -0.003017 0.023144 0.002211 0.010381 -0.004835 0.004244
# 3 -0.003366 0.002211 0.020888 0.004477 -0.013138 -0.002221
# 4 -0.002042 0.010381 0.004477 0.058694 0.005465 -0.009587
# 5 -0.000636 -0.004835 -0.013138 0.005465 0.041089 0.006957
# 6 0.002508 0.004244 -0.002221 -0.009587 0.006957 0.028523
#
#
# Mechanical properties :
#
#
# Convention : Reuss Voigt Hill
#
# Bulk Modulus (GPa) = 22.88617 49.02007 35.95312
# Shear Modulus (GPa) = 24.59977 36.17149 30.38563
#
# Velocity S-wave (km/s) = 3.31861 4.02414 3.68828
# Velocity P-wave (km/s) = 4.99301 6.59830 5.85097
#
# Compressibility (1/GPa) = 0.04369450
#
# Stress axis : x y z
#
# Youngs Moduli (GPa) = 124.90273 43.20708 47.87448
#
# Poissons Ratio (x) = 0.13035 0.16113
# Poissons Ratio (y) = 0.37681 -0.10583
# Poissons Ratio (z) = 0.42038 -0.09551
#
# Static dielectric constant tensor:
#      x y z
#    x 1.928670 -0.103560 0.018830 
#    y -0.103560 2.001520 0.026880 
#    z 0.018830 0.026880 1.817160 
# 
# From -- ./inp_files/464381.got.cif
#   From: 2010.05.17/outbox.cif.g08.bks.cpg/sg2_233_cif.got.tgz:464381.got - 2010.06.03 11:33:40.
