data_PCOD9077851
_publ_section_title
;
Structure prediction by ZEFSAII (Michael W. Deem and Ramdas Pophale) SiO2 
 PCOD9077851
Probable space group: P -1
;
_chemical_formula_sum "Si O2"
_cell_formula_units_Z 14
_cell_length_a 10.929621
_cell_length_b 11.699037
_cell_length_c 6.551837
_cell_angle_alpha 106.466794
_cell_angle_beta 82.684560
_cell_angle_gamma 46.512526
_cell_volume 516.526762
_symmetry_space_group_name_H-M "P -1"
_symmetry_group_IT_number 2
_symmetry_cell_setting 'triclinic'
loop_
_space_group_symop_operation_xyz
x,y,z
-x,-y,-z
loop_
_atom_site_type_symbol
_atom_site_label
_atom_site_fract_x
_atom_site_fract_y
_atom_site_fract_z
Si Si1 0.157420 0.329972 0.659808
Si Si2 0.728672 0.734297 0.869194
Si Si3 0.078794 0.768964 0.788545
Si Si4 0.999396 0.809026 0.274403
Si Si5 0.707337 0.194515 0.486945
Si Si6 0.313319 0.442120 0.854570
Si Si7 0.653734 0.055827 0.052193
O O1 0.243163 0.269634 0.384953
O O2 0.286329 0.319786 0.771975
O O3 0.941095 0.540878 0.795728
O O4 0.128812 0.216524 0.690311
O O5 0.541542 0.787100 0.951944
O O6 0.663341 0.911825 0.049770
O O7 0.205063 0.751323 0.600634
O O8 0.193051 0.568555 0.736024
O O9 0.042129 0.845078 0.064047
O O10 0.863698 0.909269 0.831474
O O11 0.203165 0.592942 0.136421
O O12 0.864221 0.009755 0.492107
O O13 0.519052 0.345301 0.734293
O O14 0.649496 0.151179 0.287961
#
# Coordination Sequence:
#
# PCOD9077851 Si02
#       7
#     2   2   2   2   2   2   2
#     4  11  19  37  51  80 118 138 183 223 272 325
#     4  10  21  33  55  77 110 154 178 217 265 332
#     4   9  20  36  59  81 111 138 180 232 271 316
#     4   9  21  33  54  83 114 139 174 231 278 316
#     4  11  19  38  59  83 110 141 181 228 272 321
#     4  10  20  33  56  88 107 146 173 227 281 318
#     4  10  18  35  54  83 103 144 190 214 271 318
#
# _framework density 27.104113999999999
#
# number of rings (size 3 to 8) (size 9 to 14) (size 15 to 20)
#    0.857    1.143    2.857    2.571    0.000    0.571 
#    5.143    0.000    0.000    6.857    0.000    0.000 
#    0.000    0.000    0.000    0.000    0.000    0.000 
#
# Total GULP energy -78049.130855 kJ/mol
# GULP energy per Si atom -5574.937918 kJ/mol
# Density = 2.704242 g / cm^3
# Si number density = 27.104114 Si / 1000 Ang^3
#
#
#
# Elastic Constant Matrix: (Units=GPa)
#
#
# Indices 1 2 3 4 5 6 
#
# 1 129.1117 31.3121 32.9357 6.1975 -24.0924 -17.5896
# 2 31.3121 77.0311 19.6268 11.9294 -9.1864 -7.6535
# 3 32.9357 19.6268 70.6236 6.1297 -43.7760 -10.2502
# 4 6.1975 11.9294 6.1297 35.8719 -8.3274 -15.0574
# 5 -24.0924 -9.1864 -43.7760 -8.3274 55.7845 -7.8302
# 6 -17.5896 -7.6535 -10.2502 -15.0574 -7.8302 35.2698
#
#
#
# Elastic Compliance Matrix: (Units=1/GPa)
#
#
# Indices 1 2 3 4 5 6 
#
# 1 0.010420 -0.003521 0.000670 0.003877 0.006096 0.007636
# 2 -0.003521 0.015938 -0.005945 -0.006507 -0.005084 -0.003932
# 3 0.000670 -0.005945 0.040850 0.014003 0.036981 0.025105
# 4 0.003877 -0.006507 0.014003 0.043987 0.022128 0.028282
# 5 0.006096 -0.005084 0.036981 0.022128 0.056926 0.034770
# 6 0.007636 -0.003932 0.025105 0.028282 0.034770 0.058397
#
#
# Mechanical properties :
#
#
# Convention : Reuss Voigt Hill
#
# Bulk Modulus (GPa) = 20.15441 49.39064 34.77253
# Shear Modulus (GPa) = 19.18287 38.24468 28.71377
#
# Velocity S-wave (km/s) = 2.66324 3.76044 3.25836
# Velocity P-wave (km/s) = 4.11208 6.09235 5.19740
#
# Compressibility (1/GPa) = 0.04961693
#
# Stress axis : x y z
#
# Youngs Moduli (GPa) = 95.96879 62.74169 24.47964
#
# Poissons Ratio (x) = 0.22091 -0.01639
# Poissons Ratio (y) = 0.33790 0.14552
# Poissons Ratio (z) = -0.06427 0.37298
#
# Static dielectric constant tensor:
#      x y z
#    x 2.177680 -0.036700 0.056190 
#    y -0.036700 2.243330 -0.057000 
#    z 0.056190 -0.057000 2.171360 
# 
# From -- ./inp_files/262488.got.cif
#   From: 2010.05.17/outbox.cif.g08.bks.cpg/sg2_132_cif.got.tgz:262488.got - 2010.06.03 11:33:40.
