data_PCOD9077017
_publ_section_title
;
Structure prediction by ZEFSAII (Michael W. Deem and Ramdas Pophale) SiO2 
 PCOD9077017
Probable space group: P -1
;
_chemical_formula_sum "Si O2"
_cell_formula_units_Z 14
_cell_length_a 12.161954
_cell_length_b 16.308061
_cell_length_c 5.878336
_cell_angle_alpha 83.790172
_cell_angle_beta 84.509138
_cell_angle_gamma 35.590021
_cell_volume 674.488731
_symmetry_space_group_name_H-M "P -1"
_symmetry_group_IT_number 2
_symmetry_cell_setting 'triclinic'
loop_
_space_group_symop_operation_xyz
x,y,z
-x,-y,-z
loop_
_atom_site_type_symbol
_atom_site_label
_atom_site_fract_x
_atom_site_fract_y
_atom_site_fract_z
Si Si1 0.682464 0.669211 0.079326
Si Si2 0.589373 0.561835 0.387931
Si Si3 0.187277 0.180309 0.484807
Si Si4 0.051337 0.719884 0.873899
Si Si5 0.992607 0.410576 0.788102
Si Si6 0.336193 0.596227 0.189785
Si Si7 0.514206 0.061615 0.168464
O O1 0.600844 0.646912 0.262901
O O2 0.843863 0.620908 0.202084
O O3 0.525710 0.827685 0.976117
O O4 0.794024 0.568732 0.861926
O O5 0.759480 0.413932 0.264280
O O6 0.392977 0.635539 0.337041
O O7 0.633940 0.508714 0.653410
O O8 0.029440 0.338954 0.568606
O O9 0.347419 0.141380 0.355001
O O10 0.103937 0.167441 0.319271
O O11 0.289929 0.068454 0.698955
O O12 0.133173 0.722330 0.068568
O O13 0.977786 0.678135 0.002109
O O14 0.500000 0.500000 0.000000
O O15 0.500000 0.000000 0.000000
#
# Coordination Sequence:
#
# PCOD9077017 Si02
#       7
#     2   2   2   2   2   2   2
#     4  10  20  38  57  87 124 148 195 247 288 346
#     4   9  19  34  57  84 110 155 186 244 301 336
#     4  11  21  35  58  80 117 167 199 226 290 344
#     4  10  18  34  54  84 114 150 193 238 282 351
#     4  10  20  36  55  89 118 153 193 240 294 347
#     4   9  18  35  54  80 116 144 195 241 295 348
#     4  11  22  39  53  81 122 163 201 234 278 352
#
# _framework density 20.756461000000002
#
# number of rings (size 3 to 8) (size 9 to 14) (size 15 to 20)
#    0.000    2.000    2.857    0.857    0.000    0.571 
#    7.714    0.000    0.000    0.857    0.000   17.000 
#    0.000   13.714    0.000    0.000    0.000    0.000 
#
# Total GULP energy -78050.348857 kJ/mol
# GULP energy per Si atom -5575.024918 kJ/mol
# Density = 2.070922 g / cm^3
# Si number density = 20.756461 Si / 1000 Ang^3
#
#
#
# Elastic Constant Matrix: (Units=GPa)
#
#
# Indices 1 2 3 4 5 6 
#
# 1 131.3364 35.4212 48.2175 -26.6538 6.3730 -1.8756
# 2 35.4212 70.5348 36.7704 -12.4376 -3.0622 1.7787
# 3 48.2175 36.7704 94.3652 -17.0736 1.0055 1.4456
# 4 -26.6538 -12.4376 -17.0736 37.3368 -6.6474 1.8823
# 5 6.3730 -3.0622 1.0055 -6.6474 50.1398 -14.5300
# 6 -1.8756 1.7787 1.4456 1.8823 -14.5300 17.3114
#
#
#
# Elastic Compliance Matrix: (Units=1/GPa)
#
#
# Indices 1 2 3 4 5 6 
#
# 1 0.010679 -0.002699 -0.003508 0.004980 -0.000592 0.000689
# 2 -0.002699 0.018930 -0.005619 0.002147 0.001739 -0.000542
# 3 -0.003508 -0.005619 0.015066 0.002536 -0.000331 -0.001614
# 4 0.004980 0.002147 0.002536 0.032891 0.003703 -0.000361
# 5 -0.000592 0.001739 -0.000331 0.003703 0.027015 0.022057
# 6 0.000689 -0.000542 -0.001614 -0.000361 0.022057 0.076583
#
#
# Mechanical properties :
#
#
# Convention : Reuss Voigt Hill
#
# Bulk Modulus (GPa) = 47.56706 59.67273 53.61990
# Shear Modulus (GPa) = 23.60458 32.67943 28.14200
#
# Velocity S-wave (km/s) = 3.37592 3.97220 3.68614
# Velocity P-wave (km/s) = 6.17756 7.06040 6.63369
#
# Compressibility (1/GPa) = 0.02102295
#
# Stress axis : x y z
#
# Youngs Moduli (GPa) = 93.64051 52.82723 66.37349
#
# Poissons Ratio (x) = 0.14258 0.23285
# Poissons Ratio (y) = 0.25273 0.37295
# Poissons Ratio (z) = 0.32851 0.29683
#
# Static dielectric constant tensor:
#      x y z
#    x 1.800170 -0.037000 0.047140 
#    y -0.037000 1.761780 0.015190 
#    z 0.047140 0.015190 1.863210 
# 
# From -- ./inp_files/76107.got.cif
#   From: 2010.05.17/outbox.cif.g08.bks.cpg/sg2_39_cif.got.tgz:76107.got - 2010.06.03 11:33:40.
