data_PCOD9077725
_publ_section_title
;
Structure prediction by ZEFSAII (Michael W. Deem and Ramdas Pophale) SiO2 
 PCOD9077725
Probable space group: P -1
;
_chemical_formula_sum "Si O2"
_cell_formula_units_Z 16
_cell_length_a 7.088762
_cell_length_b 14.025842
_cell_length_c 7.459312
_cell_angle_alpha 100.462537
_cell_angle_beta 58.268539
_cell_angle_gamma 108.157431
_cell_volume 599.234143
_symmetry_space_group_name_H-M "P -1"
_symmetry_group_IT_number 2
_symmetry_cell_setting 'triclinic'
loop_
_space_group_symop_operation_xyz
x,y,z
-x,-y,-z
loop_
_atom_site_type_symbol
_atom_site_label
_atom_site_fract_x
_atom_site_fract_y
_atom_site_fract_z
Si Si1 0.684619 0.159687 0.526805
Si Si2 0.139320 0.319046 0.417385
Si Si3 0.388133 0.693110 0.811297
Si Si4 0.873687 0.611018 0.048794
Si Si5 0.979084 0.013990 0.299759
Si Si6 0.781550 0.794472 0.293655
Si Si7 0.830600 0.477753 0.343405
Si Si8 0.478818 0.109827 0.006225
O O1 0.766391 0.062229 0.392845
O O2 0.457996 0.177257 0.558697
O O3 0.609738 0.147465 0.769795
O O4 0.907893 0.253343 0.422088
O O5 0.388944 0.326322 0.211189
O O6 0.156109 0.253538 0.568471
O O7 0.131201 0.431639 0.507932
O O8 0.136136 0.649700 0.007069
O O9 0.354448 0.630226 0.618065
O O10 0.422407 0.810986 0.860636
O O11 0.931692 0.552632 0.828369
O O12 0.779528 0.707957 0.120498
O O13 0.747875 0.530852 0.227948
O O14 0.951583 0.902206 0.201513
O O15 0.000000 0.000000 0.500000
O O16 0.203757 0.091613 0.136997
O O17 0.500000 0.000000 0.000000
#
# Coordination Sequence:
#
# PCOD9077725 Si02
#       8
#     2   2   2   2   2   2   2   2
#     4  12  26  41  64  94 124 166 204 254 308 367
#     4  11  20  40  64  88 130 159 206 258 304 368
#     4  10  18  34  63  94 118 163 208 251 308 364
#     4   8  17  34  58  89 118 157 208 247 303 363
#     4  12  22  43  63  91 123 161 206 253 307 362
#     4  11  23  43  61  88 128 161 202 258 309 363
#     4   8  17  32  62  91 114 165 206 248 309 363
#     4  12  22  37  65  91 123 163 207 253 304 366
#
# _framework density 26.700745000000001
#
# number of rings (size 3 to 8) (size 9 to 14) (size 15 to 20)
#    0.750    0.750    3.750    3.000    0.000    0.500 
#    2.250    0.625    0.000    3.750    0.000    0.000 
#    0.000    0.000    0.000    0.000    0.000    0.000 
#
# Total GULP energy -89399.208104 kJ/mol
# GULP energy per Si atom -5587.450507 kJ/mol
# Density = 2.663997 g / cm^3
# Si number density = 26.700745 Si / 1000 Ang^3
#
#
#
# Elastic Constant Matrix: (Units=GPa)
#
#
# Indices 1 2 3 4 5 6 
#
# 1 59.0940 32.0954 15.4878 0.6530 -6.7624 -14.0171
# 2 32.0954 204.8338 35.3297 34.8427 -1.7841 5.1178
# 3 15.4878 35.3297 96.9532 14.4171 -17.1831 -16.6776
# 4 0.6530 34.8427 14.4171 60.8799 -1.5011 -15.1454
# 5 -6.7624 -1.7841 -17.1831 -1.5011 50.7314 4.6255
# 6 -14.0171 5.1178 -16.6776 -15.1454 4.6255 23.2026
#
#
#
# Elastic Compliance Matrix: (Units=1/GPa)
#
#
# Indices 1 2 3 4 5 6 
#
# 1 0.025613 -0.006281 0.001169 0.008838 0.001743 0.023120
# 2 -0.006281 0.007813 -0.003024 -0.006667 -0.000699 -0.011903
# 3 0.001169 -0.003024 0.013623 0.001406 0.003670 0.011352
# 4 0.008838 -0.006667 0.001406 0.025979 -0.000072 0.024792
# 5 0.001743 -0.000699 0.003670 -0.000072 0.021199 -0.000428
# 6 0.023120 -0.011903 0.011352 0.024792 -0.000428 0.084119
#
#
# Mechanical properties :
#
#
# Convention : Reuss Voigt Hill
#
# Bulk Modulus (GPa) = 32.49071 58.52299 45.50685
# Shear Modulus (GPa) = 24.40487 45.49399 34.94943
#
# Velocity S-wave (km/s) = 3.02655 4.13225 3.62184
# Velocity P-wave (km/s) = 4.94047 6.68827 5.87968
#
# Compressibility (1/GPa) = 0.03077803
#
# Stress axis : x y z
#
# Youngs Moduli (GPa) = 39.04303 127.99235 73.40275
#
# Poissons Ratio (x) = 0.80387 -0.08579
# Poissons Ratio (y) = 0.24521 0.22195
# Poissons Ratio (z) = -0.04563 0.38702
#
# Static dielectric constant tensor:
#      x y z
#    x 2.137070 -0.005920 0.024920 
#    y -0.005920 2.087670 -0.012380 
#    z 0.024920 -0.012380 2.127700 
# 
# From -- ./inp_files/396056.got.cif
#   From: 2010.05.17/outbox.cif.g08.bks.cpg/sg2_199_cif.got.tgz:396056.got - 2010.06.03 11:33:40.
