data_PCOD9077830
_publ_section_title
;
Structure prediction by ZEFSAII (Michael W. Deem and Ramdas Pophale) SiO2 
 PCOD9077830
Probable space group: P -1
;
_chemical_formula_sum "Si O2"
_cell_formula_units_Z 16
_cell_length_a 9.201513
_cell_length_b 26.648613
_cell_length_c 5.437681
_cell_angle_alpha 64.989975
_cell_angle_beta 98.316327
_cell_angle_gamma 145.924143
_cell_volume 619.065028
_symmetry_space_group_name_H-M "P -1"
_symmetry_group_IT_number 2
_symmetry_cell_setting 'triclinic'
loop_
_space_group_symop_operation_xyz
x,y,z
-x,-y,-z
loop_
_atom_site_type_symbol
_atom_site_label
_atom_site_fract_x
_atom_site_fract_y
_atom_site_fract_z
Si Si1 0.065116 0.070161 0.064858
Si Si2 0.774689 0.288842 0.402767
Si Si3 0.843866 0.115892 0.798706
Si Si4 0.420289 0.110980 0.341403
Si Si5 0.057853 0.787966 0.882769
Si Si6 0.681862 0.428289 0.577756
Si Si7 0.660077 0.375592 0.183705
Si Si8 0.882987 0.613242 0.215738
O O1 0.365215 0.148788 0.091994
O O2 0.871304 0.008906 0.392462
O O3 0.993497 0.104485 0.853247
O O4 0.000000 0.000000 0.000000
O O5 0.566211 0.173531 0.506194
O O6 0.945771 0.332260 0.599091
O O7 0.625251 0.299448 0.368770
O O8 0.969067 0.356941 0.065736
O O9 0.918307 0.168874 0.449186
O O10 0.962188 0.186658 0.918860
O O11 0.500000 0.000000 0.000000
O O12 0.627657 0.138909 0.187999
O O13 0.845377 0.666806 0.053107
O O14 0.543524 0.358238 0.931943
O O15 0.000000 0.500000 0.500000
O O16 0.686096 0.496228 0.451684
O O17 0.546976 0.369040 0.409407
O O18 0.000000 0.500000 0.000000
#
# Coordination Sequence:
#
# PCOD9077830 Si02
#       8
#     2   2   2   2   2   2   2   2
#     4  11  25  42  62  82 113 153 195 244 291 344
#     4  11  19  30  49  75 112 152 180 227 276 346
#     4  12  24  41  62  83 113 147 196 239 291 348
#     4  10  24  38  58  86 114 152 194 235 297 338
#     4  11  24  39  58  88 113 153 188 237 288 341
#     4  10  15  26  41  71 105 154 173 214 275 338
#     4  10  15  25  41  70 107 149 176 211 277 335
#     4  11  19  30  50  74 116 149 183 224 279 343
#
# _framework density 25.845427999999998
#
# number of rings (size 3 to 8) (size 9 to 14) (size 15 to 20)
#    0.000    1.250    6.250    2.625    7.000    0.000 
#    0.000    0.000    0.000    0.000    0.000    0.000 
#    0.000    6.000    0.000    0.000    0.000    0.000 
#
# Total GULP energy -89503.061570 kJ/mol
# GULP energy per Si atom -5593.941348 kJ/mol
# Density = 2.578660 g / cm^3
# Si number density = 25.845428 Si / 1000 Ang^3
#
#
#
# Elastic Constant Matrix: (Units=GPa)
#
#
# Indices 1 2 3 4 5 6 
#
# 1 134.8837 42.0432 71.6077 -1.3606 11.6966 -22.7153
# 2 42.0432 73.7551 41.5711 30.5231 -8.4105 -36.0831
# 3 71.6077 41.5711 209.1811 32.1314 16.0231 -15.5828
# 4 -1.3606 30.5231 32.1314 48.2037 -7.6568 -2.1564
# 5 11.6966 -8.4105 16.0231 -7.6568 53.5769 -10.6310
# 6 -22.7153 -36.0831 -15.5828 -2.1564 -10.6310 47.4821
#
#
#
# Elastic Compliance Matrix: (Units=1/GPa)
#
#
# Indices 1 2 3 4 5 6 
#
# 1 0.012418 -0.011060 -0.003513 0.009069 -0.002864 -0.003846
# 2 -0.011060 0.049825 -0.000260 -0.028085 0.013074 0.034139
# 3 -0.003513 -0.000260 0.006926 -0.004899 -0.002105 -0.000299
# 4 0.009069 -0.028085 -0.004899 0.040876 -0.002518 -0.017319
# 5 -0.002864 0.013074 -0.002105 -0.002518 0.024228 0.013185
# 6 -0.003846 0.034139 -0.000299 -0.017319 0.013185 0.047231
#
#
# Mechanical properties :
#
#
# Convention : Reuss Voigt Hill
#
# Bulk Modulus (GPa) = 25.31476 80.91821 53.11648
# Shear Modulus (GPa) = 22.28770 47.35905 34.82338
#
# Velocity S-wave (km/s) = 2.93976 4.28529 3.67464
# Velocity P-wave (km/s) = 4.61940 7.47405 6.21290
#
# Compressibility (1/GPa) = 0.03950265
#
# Stress axis : x y z
#
# Youngs Moduli (GPa) = 80.52517 20.07032 144.37488
#
# Poissons Ratio (x) = 0.22198 0.50724
# Poissons Ratio (y) = 0.89062 0.03754
# Poissons Ratio (z) = 0.28291 0.00522
#
# Static dielectric constant tensor:
#      x y z
#    x 2.075420 0.118050 -0.028500 
#    y 0.118050 2.077090 -0.020820 
#    z -0.028500 -0.020820 1.980430 
# 
# From -- ./inp_files/55385.got.cif
#   From: 2010.05.17/outbox.cif.g08.bks.cpg/sg2_28_cif.got.tgz:55385.got - 2010.06.03 11:33:40.
