data_PCOD9077752
_publ_section_title
;
Structure prediction by ZEFSAII (Michael W. Deem and Ramdas Pophale) SiO2 
 PCOD9077752
Probable space group: P -1
;
_chemical_formula_sum "Si O2"
_cell_formula_units_Z 13
_cell_length_a 11.203502
_cell_length_b 8.077697
_cell_length_c 7.588976
_cell_angle_alpha 82.955907
_cell_angle_beta 59.808540
_cell_angle_gamma 119.657227
_cell_volume 448.361198
_symmetry_space_group_name_H-M "P -1"
_symmetry_group_IT_number 2
_symmetry_cell_setting 'triclinic'
loop_
_space_group_symop_operation_xyz
x,y,z
-x,-y,-z
loop_
_atom_site_type_symbol
_atom_site_label
_atom_site_fract_x
_atom_site_fract_y
_atom_site_fract_z
Si Si1 0.500000 0.000000 0.500000
Si Si2 0.439320 0.214140 0.760841
Si Si3 0.914515 0.515800 0.889925
Si Si4 0.746149 0.692126 0.331271
Si Si5 0.224146 0.977071 0.492007
Si Si6 0.002944 0.737892 0.362613
Si Si7 0.367921 0.558011 0.093141
O O1 0.371139 0.004332 0.730608
O O2 0.637612 0.060663 0.555394
O O3 0.613109 0.428797 0.493924
O O4 0.298542 0.254199 0.826314
O O5 0.512946 0.233284 0.894894
O O6 0.705800 0.412276 0.034027
O O7 0.034744 0.775213 0.745738
O O8 0.953004 0.412526 0.719158
O O9 0.000000 0.500000 0.000000
O O10 0.945775 0.790901 0.221517
O O11 0.703629 0.799016 0.499047
O O12 0.162419 0.936926 0.338730
O O13 0.819463 0.609906 0.634406
O O14 0.500000 0.500000 0.000000
#
# Coordination Sequence:
#
# PCOD9077752 Si02
#       7
#     1   2   2   2   2   2   2
#     4  10  18  34  64  90 122 160 222 256 316 386
#     4   9  18  33  58  97 122 162 207 268 317 375
#     4  11  24  41  65  95 132 175 219 267 323 386
#     4   9  18  32  61  94 120 159 217 260 315 385
#     4  10  19  36  61  92 124 170 212 268 322 381
#     4  10  20  39  65  92 127 172 217 263 328 384
#     4  10  21  39  65  98 130 168 216 268 324 387
#
# _framework density 28.994479999999999
#
# number of rings (size 3 to 8) (size 9 to 14) (size 15 to 20)
#    0.000    2.154    0.000    5.077    2.154    0.000 
#    5.538    0.769   16.923    4.615    0.000    0.000 
#    0.000    0.000    0.000    0.000    0.000    0.000 
#
# Total GULP energy -72456.040004 kJ/mol
# GULP energy per Si atom -5573.541539 kJ/mol
# Density = 2.892849 g / cm^3
# Si number density = 28.994480 Si / 1000 Ang^3
#
#
#
# Elastic Constant Matrix: (Units=GPa)
#
#
# Indices 1 2 3 4 5 6 
#
# 1 300.8862 41.2639 37.7218 16.9538 -10.4802 48.6452
# 2 41.2639 83.8040 55.4516 14.5997 -4.9899 18.7150
# 3 37.7218 55.4516 96.3770 -1.2489 -26.1044 10.0638
# 4 16.9538 14.5997 -1.2489 60.5286 -8.8138 -6.3425
# 5 -10.4802 -4.9899 -26.1044 -8.8138 38.7961 13.9700
# 6 48.6452 18.7150 10.0638 -6.3425 13.9700 57.6247
#
#
#
# Elastic Compliance Matrix: (Units=1/GPa)
#
#
# Indices 1 2 3 4 5 6 
#
# 1 0.004220 -0.000660 -0.000350 -0.001152 0.001957 -0.003888
# 2 -0.000660 0.024125 -0.015516 -0.007477 -0.007969 -0.003459
# 3 -0.000350 -0.015516 0.024209 0.006510 0.016458 -0.002166
# 4 -0.001152 -0.007477 0.006510 0.020047 0.006631 0.002863
# 5 0.001957 -0.007969 0.016458 0.006631 0.041958 -0.011381
# 6 -0.003888 -0.003459 -0.002166 0.002863 -0.011381 0.025211
#
#
# Mechanical properties :
#
#
# Convention : Reuss Voigt Hill
#
# Bulk Modulus (GPa) = 51.28361 83.32688 67.30524
# Shear Modulus (GPa) = 27.88244 54.49856 41.19050
#
# Velocity S-wave (km/s) = 3.10441 4.34016 3.77322
# Velocity P-wave (km/s) = 5.52952 7.34284 6.49972
#
# Compressibility (1/GPa) = 0.01949941
#
# Stress axis : x y z
#
# Youngs Moduli (GPa) = 236.98583 41.45038 41.30716
#
# Poissons Ratio (x) = 0.02737 0.01448
# Poissons Ratio (y) = 0.15648 0.64094
# Poissons Ratio (z) = 0.08305 0.64316
#
# Static dielectric constant tensor:
#      x y z
#    x 2.332670 -0.073460 0.141680 
#    y -0.073460 2.285730 -0.022830 
#    z 0.141680 -0.022830 2.350770 
# 
# From -- ./inp_files/244410.got.cif
#   From: 2010.05.17/outbox.cif.g08.bks.cpg/sg2_123_cif.got.tgz:244410.got - 2010.06.03 11:33:40.
