data_PCOD9077185
_publ_section_title
;
Structure prediction by ZEFSAII (Michael W. Deem and Ramdas Pophale) SiO2 
 PCOD9077185
Probable space group: P -1
;
_chemical_formula_sum "Si O2"
_cell_formula_units_Z 14
_cell_length_a 18.728147
_cell_length_b 7.918900
_cell_length_c 8.275597
_cell_angle_alpha 65.478849
_cell_angle_beta 53.913386
_cell_angle_gamma 33.645533
_cell_volume 541.700048
_symmetry_space_group_name_H-M "P -1"
_symmetry_group_IT_number 2
_symmetry_cell_setting 'triclinic'
loop_
_space_group_symop_operation_xyz
x,y,z
-x,-y,-z
loop_
_atom_site_type_symbol
_atom_site_label
_atom_site_fract_x
_atom_site_fract_y
_atom_site_fract_z
Si Si1 0.961843 0.623670 0.747451
Si Si2 0.403692 0.190392 0.714448
Si Si3 0.117653 0.976996 0.565844
Si Si4 0.613956 0.586009 0.785603
Si Si5 0.669974 0.266193 0.366800
Si Si6 0.339959 0.821401 0.921428
Si Si7 0.077985 0.651220 0.892728
O O1 0.026157 0.633762 0.807142
O O2 0.989451 0.705611 0.518966
O O3 0.987053 0.362923 0.864810
O O4 0.783807 0.934195 0.877433
O O5 0.339616 0.496323 0.722353
O O6 0.252628 0.338504 0.816592
O O7 0.500000 0.000000 0.500000
O O8 0.524286 0.925211 0.789270
O O9 0.231259 0.675188 0.411760
O O10 0.229840 0.925088 0.533923
O O11 0.049162 0.919369 0.784613
O O12 0.491396 0.674356 0.809962
O O13 0.628259 0.449830 0.984375
O O14 0.500000 0.500000 0.500000
O O15 0.723088 0.066879 0.218362
#
# Coordination Sequence:
#
# PCOD9077185 Si02
#       7
#     2   2   2   2   2   2   2
#     4  10  21  36  58  82 110 149 192 229 272 334
#     4  11  19  34  56  83 112 144 186 234 275 332
#     4  10  20  36  57  80 113 147 186 232 275 332
#     4  10  18  34  57  79 112 148 183 233 282 328
#     4  11  21  32  54  86 113 147 184 229 293 327
#     4  10  20  34  54  86 113 144 187 231 282 333
#     4  10  20  34  59  85 105 148 197 225 271 335
#
# _framework density 25.844560999999999
#
# number of rings (size 3 to 8) (size 9 to 14) (size 15 to 20)
#    0.000    1.714    5.714    0.429    0.000    0.571 
#    0.000    4.286    0.000    3.429    0.000    0.000 
#    0.000    0.000    0.000    0.000    0.000    0.000 
#
# Total GULP energy -78011.145233 kJ/mol
# GULP energy per Si atom -5572.224660 kJ/mol
# Density = 2.578574 g / cm^3
# Si number density = 25.844561 Si / 1000 Ang^3
#
#
#
# Elastic Constant Matrix: (Units=GPa)
#
#
# Indices 1 2 3 4 5 6 
#
# 1 100.5148 9.8787 29.3595 -13.2635 -3.1525 1.5436
# 2 9.8787 84.9538 25.7026 -18.5783 -10.6747 1.5932
# 3 29.3595 25.7026 104.4705 -26.0661 -13.1618 -3.6018
# 4 -13.2635 -18.5783 -26.0661 53.5800 -3.4076 -6.1127
# 5 -3.1525 -10.6747 -13.1618 -3.4076 36.3031 -5.3381
# 6 1.5436 1.5932 -3.6018 -6.1127 -5.3381 36.0844
#
#
#
# Elastic Compliance Matrix: (Units=1/GPa)
#
#
# Indices 1 2 3 4 5 6 
#
# 1 0.010939 -0.000164 -0.002747 0.001250 -0.000055 -0.000531
# 2 -0.000164 0.013710 -0.001795 0.004139 0.003827 0.000490
# 3 -0.002747 -0.001795 0.012927 0.005661 0.004919 0.003174
# 4 0.001250 0.004139 0.005661 0.024186 0.006439 0.005379
# 5 -0.000055 0.003827 0.004919 0.006439 0.031957 0.006143
# 6 -0.000531 0.000490 0.003174 0.005379 0.006143 0.029851
#
#
# Mechanical properties :
#
#
# Convention : Reuss Voigt Hill
#
# Bulk Modulus (GPa) = 35.50726 46.64674 41.07700
# Shear Modulus (GPa) = 35.11961 40.19339 37.65650
#
# Velocity S-wave (km/s) = 3.69030 3.94788 3.82126
# Velocity P-wave (km/s) = 5.65034 6.23451 5.94960
#
# Compressibility (1/GPa) = 0.02816326
#
# Stress axis : x y z
#
# Youngs Moduli (GPa) = 91.41833 72.93859 77.35521
#
# Poissons Ratio (x) = 0.01199 0.21249
# Poissons Ratio (y) = 0.01503 0.13886
# Poissons Ratio (z) = 0.25112 0.13093
#
# Static dielectric constant tensor:
#      x y z
#    x 1.252990 -0.155680 -0.109710 
#    y -0.155680 2.092950 -0.113200 
#    z -0.109710 -0.113200 2.142730 
# 
# From -- ./inp_files/262514.got.cif
#   From: 2010.05.17/outbox.cif.g08.bks.cpg/sg2_132_cif.got.tgz:262514.got - 2010.06.03 11:33:40.
