data_PCOD9077427
_publ_section_title
;
Structure prediction by ZEFSAII (Michael W. Deem and Ramdas Pophale) SiO2 
 PCOD9077427
Probable space group: P -1
;
_chemical_formula_sum "Si O2"
_cell_formula_units_Z 16
_cell_length_a 11.837133
_cell_length_b 22.798077
_cell_length_c 12.041737
_cell_angle_alpha 157.642941
_cell_angle_beta 142.147610
_cell_angle_gamma 29.724803
_cell_volume 611.311457
_symmetry_space_group_name_H-M "P -1"
_symmetry_group_IT_number 2
_symmetry_cell_setting 'triclinic'
loop_
_space_group_symop_operation_xyz
x,y,z
-x,-y,-z
loop_
_atom_site_type_symbol
_atom_site_label
_atom_site_fract_x
_atom_site_fract_y
_atom_site_fract_z
Si Si1 0.941899 0.957915 0.261348
Si Si2 0.665880 0.936206 0.175181
Si Si3 0.998076 0.818279 0.442018
Si Si4 0.069141 0.460721 0.834621
Si Si5 0.756437 0.432318 0.278995
Si Si6 0.241590 0.368342 0.583233
Si Si7 0.704847 0.972564 0.683954
Si Si8 0.438497 0.317534 0.248454
O O1 0.783816 0.900717 0.085246
O O2 0.842714 0.132589 0.405746
O O3 0.165286 0.776822 0.060779
O O4 0.000000 0.000000 0.500000
O O5 0.815406 0.886006 0.316616
O O6 0.452683 0.153358 0.392115
O O7 0.592553 0.797931 0.884802
O O8 0.882206 0.946758 0.685731
O O9 0.079989 0.608297 0.177845
O O10 0.182353 0.484360 0.854307
O O11 0.189783 0.235496 0.544640
O O12 0.799899 0.561649 0.792042
O O13 0.691219 0.551147 0.322734
O O14 0.587901 0.519797 0.407536
O O15 0.000521 0.396037 0.432391
O O16 0.500000 0.000000 0.500000
O O17 0.621229 0.149079 0.011575
#
# Coordination Sequence:
#
# PCOD9077427 Si02
#       8
#     2   2   2   2   2   2   2   2
#     4  10  21  39  57  79 122 163 186 231 295 361
#     4  10  18  35  59  91 116 148 196 241 287 349
#     4  10  21  36  58  85 121 159 191 233 297 347
#     4  10  19  35  58  89 115 146 190 252 291 331
#     4  10  21  35  56  86 122 155 187 242 301 342
#     4  10  18  34  59  89 118 144 194 248 292 337
#     4  12  20  36  61  89 115 148 199 249 289 337
#     4  10  21  35  57  93 114 143 201 247 290 336
#
# _framework density 26.173238000000001
#
# number of rings (size 3 to 8) (size 9 to 14) (size 15 to 20)
#    0.000    1.750    3.750    4.125    0.000    2.000 
#    0.000    7.500    0.000    3.000    0.000    0.000 
#    0.000    0.000    0.000    0.000    0.000    0.000 
#
# Total GULP energy -89291.688265 kJ/mol
# GULP energy per Si atom -5580.730517 kJ/mol
# Density = 2.611367 g / cm^3
# Si number density = 26.173238 Si / 1000 Ang^3
#
#
#
# Elastic Constant Matrix: (Units=GPa)
#
#
# Indices 1 2 3 4 5 6 
#
# 1 96.8026 33.4784 37.3417 -7.3209 -30.1247 28.7703
# 2 33.4784 83.6361 41.8615 30.0492 -0.5002 0.4391
# 3 37.3417 41.8615 167.1460 16.7683 -55.1310 13.4191
# 4 -7.3209 30.0492 16.7683 44.7130 10.6081 2.1739
# 5 -30.1247 -0.5002 -55.1310 10.6081 57.1423 -5.1926
# 6 28.7703 0.4391 13.4191 2.1739 -5.1926 30.5246
#
#
#
# Elastic Compliance Matrix: (Units=1/GPa)
#
#
# Indices 1 2 3 4 5 6 
#
# 1 0.027748 -0.017150 0.002997 0.013234 0.012548 -0.026032
# 2 -0.017150 0.028188 -0.006038 -0.018083 -0.009621 0.018065
# 3 0.002997 -0.006038 0.011790 -0.002662 0.012893 -0.005538
# 4 0.013234 -0.018083 -0.002662 0.039436 -0.004398 -0.014599
# 5 0.012548 -0.009621 0.012893 -0.004398 0.036299 -0.010868
# 6 -0.026032 0.018065 -0.005538 -0.014599 -0.010868 0.058662
#
#
# Mechanical properties :
#
#
# Convention : Reuss Voigt Hill
#
# Bulk Modulus (GPa) = 36.57123 63.66087 50.11605
# Shear Modulus (GPa) = 19.87127 42.13620 31.00374
#
# Velocity S-wave (km/s) = 2.75839 4.01670 3.44548
# Velocity P-wave (km/s) = 4.91406 6.77404 5.91758
#
# Compressibility (1/GPa) = 0.02734389
#
# Stress axis : x y z
#
# Youngs Moduli (GPa) = 36.03877 35.47580 84.81995
#
# Poissons Ratio (x) = 0.60842 -0.25422
# Poissons Ratio (y) = 0.61807 0.51213
# Poissons Ratio (z) = -0.10801 0.21420
#
# Static dielectric constant tensor:
#      x y z
#    x 2.186810 -0.080260 0.055100 
#    y -0.080260 2.193740 -0.097640 
#    z 0.055100 -0.097640 2.264900 
# 
# From -- ./inp_files/438528.got.cif
#   From: 2010.05.17/outbox.cif.g08.bks.cpg/sg2_220_cif.got.tgz:438528.got - 2010.06.03 11:33:40.
