data_PCOD9077912
_publ_section_title
;
Structure prediction by ZEFSAII (Michael W. Deem and Ramdas Pophale) SiO2 
 PCOD9077912
Probable space group: P -1
;
_chemical_formula_sum "Si O2"
_cell_formula_units_Z 12
_cell_length_a 15.337962
_cell_length_b 9.296852
_cell_length_c 8.960776
_cell_angle_alpha 118.522162
_cell_angle_beta 53.677484
_cell_angle_gamma 76.134824
_cell_volume 610.332169
_symmetry_space_group_name_H-M "P -1"
_symmetry_group_IT_number 2
_symmetry_cell_setting 'triclinic'
loop_
_space_group_symop_operation_xyz
x,y,z
-x,-y,-z
loop_
_atom_site_type_symbol
_atom_site_label
_atom_site_fract_x
_atom_site_fract_y
_atom_site_fract_z
Si Si1 0.177655 0.310244 0.382336
Si Si2 0.350129 0.469734 0.735133
Si Si3 0.329068 0.146427 0.452946
Si Si4 0.329778 0.304206 0.967728
Si Si5 0.271464 0.892500 0.889231
Si Si6 0.161712 0.209153 0.911670
O O1 0.310587 0.158581 0.301386
O O2 0.009262 0.526986 0.740536
O O3 0.204376 0.423550 0.289073
O O4 0.195637 0.120063 0.181146
O O5 0.298001 0.367421 0.645648
O O6 0.327253 0.454265 0.926363
O O7 0.258884 0.731742 0.900475
O O8 0.538687 0.285713 0.416782
O O9 0.500790 0.902620 0.223665
O O10 0.200143 0.175241 0.682107
O O11 0.292516 0.186766 0.844058
O O12 0.190010 0.006924 0.866737
#
# Coordination Sequence:
#
# PCOD9077912 Si02
#       6
#     2   2   2   2   2   2
#     4  11  22  33  56  83 110 133 175 225 262 306
#     4  10  19  34  57  79 103 141 178 219 255 315
#     4  11  19  36  56  82 104 139 181 216 258 310
#     4  10  18  35  56  78 102 142 184 207 251 321
#     4  10  19  35  55  80 105 138 180 215 263 308
#     4  10  19  37  55  78 107 146 173 208 266 326
#
# _framework density 19.661425000000001
#
# number of rings (size 3 to 8) (size 9 to 14) (size 15 to 20)
#    0.000    1.667    5.000    4.000    0.000    0.000 
#    0.000   10.833    0.000    0.000    0.000    0.000 
#    0.000    0.000    0.000    0.000    0.000    0.000 
#
# Total GULP energy -66905.944935 kJ/mol
# GULP energy per Si atom -5575.495411 kJ/mol
# Density = 1.961667 g / cm^3
# Si number density = 19.661425 Si / 1000 Ang^3
#
#
#
# Elastic Constant Matrix: (Units=GPa)
#
#
# Indices 1 2 3 4 5 6 
#
# 1 22.5609 21.5794 -7.8416 -4.1510 0.3992 -9.0655
# 2 21.5794 166.4611 10.4083 -6.6436 5.3913 6.1471
# 3 -7.8416 10.4083 43.4480 -2.6910 -7.4436 8.0485
# 4 -4.1510 -6.6436 -2.6910 30.9798 -9.0225 5.1216
# 5 0.3992 5.3913 -7.4436 -9.0225 15.1425 -2.3109
# 6 -9.0655 6.1471 8.0485 5.1216 -2.3109 22.5255
#
#
#
# Elastic Compliance Matrix: (Units=1/GPa)
#
#
# Indices 1 2 3 4 5 6 
#
# 1 0.072902 -0.011618 0.014889 0.009785 0.019479 0.026964
# 2 -0.011618 0.008141 -0.004060 -0.000959 -0.006052 -0.005850
# 3 0.014889 -0.004060 0.032164 0.011360 0.022927 -0.004623
# 4 0.009785 -0.000959 0.011360 0.044579 0.031193 -0.006795
# 5 0.019479 -0.006052 0.022927 0.031193 0.098190 0.004280
# 6 0.026964 -0.005850 -0.004623 -0.006795 0.004280 0.060478
#
#
# Mechanical properties :
#
#
# Convention : Reuss Voigt Hill
#
# Bulk Modulus (GPa) = 8.95817 31.19581 20.07699
# Shear Modulus (GPa) = 14.07497 27.61783 20.84640
#
# Velocity S-wave (km/s) = 2.67847 3.75196 3.25971
# Velocity P-wave (km/s) = 3.75922 5.88817 4.93975
#
# Compressibility (1/GPa) = 0.11162992
#
# Stress axis : x y z
#
# Youngs Moduli (GPa) = 13.71698 122.83366 31.09112
#
# Poissons Ratio (x) = 1.42706 -0.46292
# Poissons Ratio (y) = 0.15936 0.12622
# Poissons Ratio (z) = -0.20423 0.49867
#
# Static dielectric constant tensor:
#      x y z
#    x 1.698320 -0.010550 -0.035470 
#    y -0.010550 1.742590 -0.038550 
#    z -0.035470 -0.038550 1.712540 
# 
# From -- ./inp_files/144737.got.cif
#   From: 2010.05.17/outbox.cif.g08.bks.cpg/sg2_73_cif.got.tgz:144737.got - 2010.06.03 11:33:40.
