data_PCOD9077841
_publ_section_title
;
Structure prediction by ZEFSAII (Michael W. Deem and Ramdas Pophale) SiO2 
 PCOD9077841
Probable space group: P -1
;
_chemical_formula_sum "Si O2"
_cell_formula_units_Z 16
_cell_length_a 14.108653
_cell_length_b 10.878543
_cell_length_c 7.351818
_cell_angle_alpha 64.788004
_cell_angle_beta 46.900734
_cell_angle_gamma 77.586624
_cell_volume 740.454928
_symmetry_space_group_name_H-M "P -1"
_symmetry_group_IT_number 2
_symmetry_cell_setting 'triclinic'
loop_
_space_group_symop_operation_xyz
x,y,z
-x,-y,-z
loop_
_atom_site_type_symbol
_atom_site_label
_atom_site_fract_x
_atom_site_fract_y
_atom_site_fract_z
Si Si1 0.862438 0.729204 0.298396
Si Si2 0.818277 0.977396 0.760720
Si Si3 0.995622 0.199521 0.558295
Si Si4 0.549281 0.857033 0.081861
Si Si5 0.895727 0.436997 0.325994
Si Si6 0.627519 0.167846 0.354078
Si Si7 0.407278 0.162816 0.369632
Si Si8 0.146325 0.794257 0.729620
O O1 0.917875 0.781141 0.388680
O O2 0.839352 0.564980 0.409675
O O3 0.724829 0.786091 0.411316
O O4 0.990926 0.777065 0.978478
O O5 0.817325 0.066290 0.518388
O O6 0.869363 0.084081 0.783913
O O7 0.915081 0.865185 0.667893
O O8 0.675664 0.899799 0.012623
O O9 0.958155 0.345170 0.451784
O O10 0.580750 0.793985 0.886392
O O11 0.444108 0.782885 0.402308
O O12 0.500000 0.000000 0.000000
O O13 0.812471 0.322878 0.385294
O O14 0.000000 0.500000 0.000000
O O15 0.543789 0.208788 0.266618
O O16 0.779037 0.213592 0.171944
O O17 0.612115 0.002355 0.485309
#
# Coordination Sequence:
#
# PCOD9077841 Si02
#       8
#     2   2   2   2   2   2   2   2
#     4  11  21  37  59  85 119 152 196 247 280 349
#     4  10  19  34  53  90 117 144 189 235 299 351
#     4  10  20  33  58  85 115 145 187 243 296 343
#     4  10  18  35  54  78 121 153 186 228 293 353
#     4   9  21  38  57  79 114 155 196 239 290 346
#     4  10  21  36  59  85 118 161 186 240 302 345
#     4  10  21  36  56  88 116 152 197 233 290 364
#     4  10  20  38  57  86 119 151 193 241 295 344
#
# _framework density 21.608339999999998
#
# number of rings (size 3 to 8) (size 9 to 14) (size 15 to 20)
#    0.000    2.000    3.750    0.375    0.000    9.000 
#    0.000    0.625    0.000    0.750    0.000    0.000 
#    0.000    0.000    0.000    0.000    0.000    0.000 
#
# Total GULP energy -89225.366888 kJ/mol
# GULP energy per Si atom -5576.585431 kJ/mol
# Density = 2.155916 g / cm^3
# Si number density = 21.608340 Si / 1000 Ang^3
#
#
#
# Elastic Constant Matrix: (Units=GPa)
#
#
# Indices 1 2 3 4 5 6 
#
# 1 151.0315 54.4151 17.9745 11.6336 -8.7161 9.4277
# 2 54.4151 91.5084 28.4354 18.2862 -0.2696 -1.4497
# 3 17.9745 28.4354 42.7707 13.4049 -6.6826 -6.6729
# 4 11.6336 18.2862 13.4049 17.4923 -4.0826 3.8390
# 5 -8.7161 -0.2696 -6.6826 -4.0826 26.5683 7.4433
# 6 9.4277 -1.4497 -6.6729 3.8390 7.4433 20.2172
#
#
#
# Elastic Compliance Matrix: (Units=1/GPa)
#
#
# Indices 1 2 3 4 5 6 
#
# 1 0.009562 -0.006177 -0.001812 0.004686 0.005718 -0.008495
# 2 -0.006177 0.019563 -0.005316 -0.016008 -0.008011 0.008518
# 3 -0.001812 -0.005316 0.039132 -0.027379 -0.000243 0.018668
# 4 0.004686 -0.016008 -0.027379 0.105848 0.022132 -0.040618
# 5 0.005718 -0.008011 -0.000243 0.022132 0.050043 -0.025948
# 6 -0.008495 0.008518 0.018668 -0.040618 -0.025948 0.077463
#
#
# Mechanical properties :
#
#
# Convention : Reuss Voigt Hill
#
# Bulk Modulus (GPa) = 24.01140 54.10675 39.05907
# Shear Modulus (GPa) = 14.61552 25.15459 19.88505
#
# Velocity S-wave (km/s) = 2.60356 3.41561 3.03685
# Velocity P-wave (km/s) = 4.49157 6.37568 5.51469
#
# Compressibility (1/GPa) = 0.04164689
#
# Stress axis : x y z
#
# Youngs Moduli (GPa) = 104.58574 51.11676 25.55456
#
# Poissons Ratio (x) = 0.31573 0.04631
# Poissons Ratio (y) = 0.64599 0.13585
# Poissons Ratio (z) = 0.18954 0.27173
#
# Static dielectric constant tensor:
#      x y z
#    x 2.102170 -0.098340 -0.047910 
#    y -0.098340 1.865200 0.008730 
#    z -0.047910 0.008730 1.910140 
# 
# From -- ./inp_files/302738.got.cif
#   From: 2010.05.17/outbox.cif.g08.bks.cpg/sg2_152_cif.got.tgz:302738.got - 2010.06.03 11:33:40.
