data_PCOD9077807
_publ_section_title
;
Structure prediction by ZEFSAII (Michael W. Deem and Ramdas Pophale) SiO2 
 PCOD9077807
Probable space group: P -1
;
_chemical_formula_sum "Si O2"
_cell_formula_units_Z 16
_cell_length_a 11.452918
_cell_length_b 11.374600
_cell_length_c 11.507989
_cell_angle_alpha 56.018462
_cell_angle_beta 96.168014
_cell_angle_gamma 51.454977
_cell_volume 691.775896
_symmetry_space_group_name_H-M "P -1"
_symmetry_group_IT_number 2
_symmetry_cell_setting 'triclinic'
loop_
_space_group_symop_operation_xyz
x,y,z
-x,-y,-z
loop_
_atom_site_type_symbol
_atom_site_label
_atom_site_fract_x
_atom_site_fract_y
_atom_site_fract_z
Si Si1 0.272232 0.860324 0.839995
Si Si2 0.249349 0.272027 0.141173
Si Si3 0.703193 0.713150 0.547890
Si Si4 0.999809 0.162701 0.874817
Si Si5 0.261310 0.556702 0.916211
Si Si6 0.678537 0.952127 0.958135
Si Si7 0.242121 0.341370 0.676824
Si Si8 0.081858 0.221357 0.419068
O O1 0.239588 0.726362 0.886316
O O2 0.106668 0.066144 0.810599
O O3 0.515714 0.651259 0.014089
O O4 0.240640 0.964993 0.651643
O O5 0.283439 0.209362 0.041379
O O6 0.452074 0.982563 0.371529
O O7 0.288691 0.398347 0.095433
O O8 0.000000 0.500000 0.000000
O O9 0.794818 0.659579 0.458988
O O10 0.788554 0.467276 0.701781
O O11 0.811089 0.731541 0.625429
O O12 0.157529 0.089115 0.016260
O O13 0.000000 0.000000 0.000000
O O14 0.053803 0.722750 0.725866
O O15 0.446312 0.235956 0.755340
O O16 0.700499 0.858875 0.137403
O O17 0.081421 0.580590 0.606860
#
# Coordination Sequence:
#
# PCOD9077807 Si02
#       8
#     2   2   2   2   2   2   2   2
#     4  11  25  43  67 100 144 174 226 275 345 403
#     4  11  24  43  68  95 139 178 224 277 337 407
#     4  11  22  40  68 103 127 173 231 282 335 394
#     4  12  25  42  65  97 141 180 218 279 342 403
#     4  11  24  43  67 101 137 185 218 281 340 402
#     4  10  21  37  64  99 124 170 222 269 336 397
#     4  10  18  34  69  99 125 153 220 290 328 371
#     4  12  19  39  72 105 129 165 233 287 333 394
#
# _framework density 23.128876999999999
#
# number of rings (size 3 to 8) (size 9 to 14) (size 15 to 20)
#    0.000    1.000    5.000    2.250    3.500    0.000 
#    0.000   10.000    0.000    0.000    0.000    0.000 
#    0.000    0.000    0.000    0.000    0.000    0.000 
#
# Total GULP energy -89234.502915 kJ/mol
# GULP energy per Si atom -5577.156432 kJ/mol
# Density = 2.307623 g / cm^3
# Si number density = 23.128877 Si / 1000 Ang^3
#
#
#
# Elastic Constant Matrix: (Units=GPa)
#
#
# Indices 1 2 3 4 5 6 
#
# 1 98.7426 20.2923 59.9194 -25.0484 1.4417 21.4803
# 2 20.2923 92.5686 31.8724 -21.8282 11.0654 -3.1494
# 3 59.9194 31.8724 119.4736 -19.5269 10.4936 15.2449
# 4 -25.0484 -21.8282 -19.5269 34.5158 6.4809 3.5594
# 5 1.4417 11.0654 10.4936 6.4809 37.4309 -7.7777
# 6 21.4803 -3.1494 15.2449 3.5594 -7.7777 39.8131
#
#
#
# Elastic Compliance Matrix: (Units=1/GPa)
#
#
# Indices 1 2 3 4 5 6 
#
# 1 0.019025 0.001026 -0.006233 0.012568 -0.003459 -0.009596
# 2 0.001026 0.014216 -0.002214 0.009542 -0.005374 -0.000484
# 3 -0.006233 -0.002214 0.013207 0.002564 -0.003844 -0.002850
# 4 0.012568 0.009542 0.002564 0.050028 -0.015709 -0.014549
# 5 -0.003459 -0.005374 -0.003844 -0.015709 0.034534 0.011064
# 6 -0.009596 -0.000484 -0.002850 -0.014549 0.011064 0.034810
#
#
# Mechanical properties :
#
#
# Convention : Reuss Voigt Hill
#
# Bulk Modulus (GPa) = 31.63865 59.43920 45.53893
# Shear Modulus (GPa) = 26.15113 35.59867 30.87490
#
# Velocity S-wave (km/s) = 3.36619 3.92745 3.65760
# Velocity P-wave (km/s) = 5.36818 6.80598 6.12938
#
# Compressibility (1/GPa) = 0.03160691
#
# Stress axis : x y z
#
# Youngs Moduli (GPa) = 52.56240 70.34338 75.71803
#
# Poissons Ratio (x) = -0.07218 0.47194
# Poissons Ratio (y) = -0.05394 0.16762
# Poissons Ratio (z) = 0.32762 0.15573
#
# Static dielectric constant tensor:
#      x y z
#    x 1.902500 -0.038810 -0.006450 
#    y -0.038810 1.920280 0.047620 
#    z -0.006450 0.047620 2.003650 
# 
# From -- ./inp_files/518760.got.cif
#   From: 2010.05.17/outbox.cif.g08.bks.cpg/sg2_260_cif.got.tgz:518760.got - 2010.06.03 11:33:40.
