data_PCOD9077651
_publ_section_title
;
Structure prediction by ZEFSAII (Michael W. Deem and Ramdas Pophale) SiO2 
 PCOD9077651
Probable space group: P -1
;
_chemical_formula_sum "Si O2"
_cell_formula_units_Z 16
_cell_length_a 7.940083
_cell_length_b 8.977745
_cell_length_c 19.989679
_cell_angle_alpha 139.360458
_cell_angle_beta 63.635125
_cell_angle_gamma 101.025588
_cell_volume 805.182461
_symmetry_space_group_name_H-M "P -1"
_symmetry_group_IT_number 2
_symmetry_cell_setting 'triclinic'
loop_
_space_group_symop_operation_xyz
x,y,z
-x,-y,-z
loop_
_atom_site_type_symbol
_atom_site_label
_atom_site_fract_x
_atom_site_fract_y
_atom_site_fract_z
Si Si1 0.194913 0.637041 0.229298
Si Si2 0.089397 0.917890 0.204327
Si Si3 0.431346 0.564682 0.958897
Si Si4 0.601334 0.663866 0.495181
Si Si5 0.333927 0.180822 0.747529
Si Si6 0.794397 0.164296 0.567841
Si Si7 0.747521 0.710450 0.350552
Si Si8 0.029502 0.471624 0.406889
O O1 0.156177 0.818730 0.234452
O O2 0.367448 0.411388 0.102248
O O3 0.281943 0.739866 0.313488
O O4 0.982496 0.601322 0.273104
O O5 0.876060 0.872879 0.219699
O O6 0.241259 0.774953 0.074562
O O7 0.078343 0.192968 0.290941
O O8 0.375465 0.349733 0.856199
O O9 0.500000 0.500000 0.000000
O O10 0.500000 0.500000 0.500000
O O11 0.623042 0.613214 0.394512
O O12 0.825375 0.607072 0.457101
O O13 0.485272 0.927847 0.624288
O O14 0.315592 0.302255 0.718718
O O15 0.818756 0.387819 0.597882
O O16 0.717283 0.983947 0.473405
O O17 0.000000 0.000000 0.500000
O O18 0.000000 0.500000 0.500000
#
# Coordination Sequence:
#
# PCOD9077651 Si02
#       8
#     2   2   2   2   2   2   2   2
#     4   9  18  36  61  82 114 160 209 245 286 350
#     4  10  22  39  57  91 124 158 204 253 304 350
#     4  10  22  38  64  87 113 162 219 254 291 354
#     4  12  24  38  59  95 129 157 194 250 313 366
#     4  11  22  38  62  88 124 162 205 250 298 367
#     4  10  18  34  62  85 121 161 197 237 299 358
#     4  10  21  38  60  92 122 161 201 244 304 362
#     4  12  23  37  60  90 130 157 193 251 309 357
#
# _framework density 19.871272999999999
#
# number of rings (size 3 to 8) (size 9 to 14) (size 15 to 20)
#    0.000    1.500    3.750    3.750    5.250    0.000 
#    0.000    0.625    0.000    3.750    0.000    0.000 
#    0.000    0.000    0.000    0.000    0.000    0.000 
#
# Total GULP energy -89215.832585 kJ/mol
# GULP energy per Si atom -5575.989537 kJ/mol
# Density = 1.982604 g / cm^3
# Si number density = 19.871273 Si / 1000 Ang^3
#
#
#
# Elastic Constant Matrix: (Units=GPa)
#
#
# Indices 1 2 3 4 5 6 
#
# 1 84.8756 33.0601 45.1608 -7.1142 6.3347 -1.4057
# 2 33.0601 108.8895 46.8457 -11.3886 0.0690 16.8443
# 3 45.1608 46.8457 161.2131 -19.1040 -16.0233 4.1324
# 4 -7.1142 -11.3886 -19.1040 26.6225 -2.4896 0.1289
# 5 6.3347 0.0690 -16.0233 -2.4896 42.0574 -6.9702
# 6 -1.4057 16.8443 4.1324 0.1289 -6.9702 26.0094
#
#
#
# Elastic Compliance Matrix: (Units=1/GPa)
#
#
# Indices 1 2 3 4 5 6 
#
# 1 0.015411 -0.003554 -0.003732 -0.000401 -0.003289 0.002848
# 2 -0.003554 0.012908 -0.002372 0.002757 -0.001657 -0.008632
# 3 -0.003732 -0.002372 0.008918 0.004796 0.004427 0.001080
# 4 -0.000401 0.002757 0.004796 0.042469 0.004120 -0.001676
# 5 -0.003289 -0.001657 0.004427 0.004120 0.027453 0.007529
# 6 0.002848 -0.008632 0.001080 -0.001676 0.007529 0.046046
#
#
# Mechanical properties :
#
#
# Convention : Reuss Voigt Hill
#
# Bulk Modulus (GPa) = 55.79855 67.23459 61.51657
# Shear Modulus (GPa) = 28.01194 34.26531 31.13862
#
# Velocity S-wave (km/s) = 3.75863 4.15705 3.96285
# Velocity P-wave (km/s) = 6.85400 7.54652 7.20858
#
# Compressibility (1/GPa) = 0.01792161
#
# Stress axis : x y z
#
# Youngs Moduli (GPa) = 64.88931 77.47251 112.12907
#
# Poissons Ratio (x) = 0.27533 0.41844
# Poissons Ratio (y) = 0.23061 0.26597
# Poissons Ratio (z) = 0.24215 0.18376
#
# Static dielectric constant tensor:
#      x y z
#    x 1.106610 0.316370 -0.100810 
#    y 0.316370 1.621550 -0.021780 
#    z -0.100810 -0.021780 1.735670 
# 
# From -- ./inp_files/588200.got.cif
#   From: 2010.05.17/outbox.cif.g08.bks.cpg/sg2_295_cif.got.tgz:588200.got - 2010.06.03 11:33:40.
