data_PCOD9077804
_publ_section_title
;
Structure prediction by ZEFSAII (Michael W. Deem and Ramdas Pophale) SiO2 
 PCOD9077804
Probable space group: P -1
;
_chemical_formula_sum "Si O2"
_cell_formula_units_Z 16
_cell_length_a 19.413362
_cell_length_b 11.515126
_cell_length_c 22.075772
_cell_angle_alpha 146.582961
_cell_angle_beta 160.643794
_cell_angle_gamma 45.070038
_cell_volume 806.607252
_symmetry_space_group_name_H-M "P -1"
_symmetry_group_IT_number 2
_symmetry_cell_setting 'triclinic'
loop_
_space_group_symop_operation_xyz
x,y,z
-x,-y,-z
loop_
_atom_site_type_symbol
_atom_site_label
_atom_site_fract_x
_atom_site_fract_y
_atom_site_fract_z
Si Si1 0.816850 0.613792 0.152183
Si Si2 0.851871 0.495986 0.932968
Si Si3 0.466808 0.312276 0.941888
Si Si4 0.731833 0.176566 0.187349
Si Si5 0.669847 0.681167 0.572170
Si Si6 0.146460 0.772489 0.065346
Si Si7 0.973150 0.064343 0.643096
Si Si8 0.707969 0.315403 0.360410
O O1 0.644021 0.625017 0.063736
O O2 0.859931 0.803987 0.217904
O O3 0.059885 0.679746 0.416436
O O4 0.760648 0.369540 0.964478
O O5 0.592756 0.449502 0.679223
O O6 0.824150 0.296087 0.872043
O O7 0.000000 0.500000 0.000000
O O8 0.981563 0.737873 0.183510
O O9 0.281867 0.064568 0.652542
O O10 0.500000 0.500000 0.000000
O O11 0.690832 0.291105 0.142938
O O12 0.729838 0.315780 0.306717
O O13 0.953486 0.126418 0.351964
O O14 0.509103 0.921026 0.899714
O O15 0.679962 0.538268 0.459090
O O16 0.733662 0.950763 0.727531
O O17 0.872306 0.681751 0.783679
#
# Coordination Sequence:
#
# PCOD9077804 Si02
#       8
#     2   2   2   2   2   2   2   2
#     4  10  19  39  64  89 121 158 205 248 290 359
#     4  11  24  40  62  93 124 163 202 251 309 362
#     4  12  26  40  57  91 130 158 192 250 317 362
#     4  11  21  36  64  89 115 157 198 251 298 351
#     4  10  20  40  62  94 121 158 211 253 299 356
#     4   9  22  39  65  89 124 160 208 256 297 354
#     4  11  22  42  64  89 117 161 212 244 287 372
#     4  10  18  34  68  93 111 157 210 249 289 345
#
# _framework density 19.836171
#
# number of rings (size 3 to 8) (size 9 to 14) (size 15 to 20)
#    0.000    1.500    3.750    2.250    1.750    2.000 
#    2.250    2.500    0.000    0.000    0.000    0.000 
#    0.000    0.000    0.000    0.000    0.000    0.000 
#
# Total GULP energy -89422.269631 kJ/mol
# GULP energy per Si atom -5588.891852 kJ/mol
# Density = 1.979102 g / cm^3
# Si number density = 19.836171 Si / 1000 Ang^3
#
#
#
# Elastic Constant Matrix: (Units=GPa)
#
#
# Indices 1 2 3 4 5 6 
#
# 1 85.9755 18.5713 32.9307 -2.5505 -15.7889 -2.7513
# 2 18.5713 72.4969 37.8413 -9.4631 -10.9239 2.9976
# 3 32.9307 37.8413 56.3982 -4.8021 -17.4289 -6.5415
# 4 -2.5505 -9.4631 -4.8021 32.6587 1.8084 -4.5483
# 5 -15.7889 -10.9239 -17.4289 1.8084 15.3125 -4.6717
# 6 -2.7513 2.9976 -6.5415 -4.5483 -4.6717 31.0269
#
#
#
# Elastic Compliance Matrix: (Units=1/GPa)
#
#
# Indices 1 2 3 4 5 6 
#
# 1 0.015830 0.000818 -0.006563 0.000164 0.009859 0.001450
# 2 0.000818 0.022824 -0.017966 0.003476 -0.005644 -0.006261
# 3 -0.006563 -0.017966 0.048392 0.001611 0.040714 0.017723
# 4 0.000164 0.003476 0.001611 0.032466 0.002208 0.005110
# 5 0.009859 -0.005644 0.040714 0.002208 0.126487 0.029372
# 6 0.001450 -0.006261 0.017723 0.005110 0.029372 0.041872
#
#
# Mechanical properties :
#
#
# Convention : Reuss Voigt Hill
#
# Bulk Modulus (GPa) = 25.23723 43.72858 34.48291
# Shear Modulus (GPa) = 14.34712 24.16810 19.25761
#
# Velocity S-wave (km/s) = 2.69231 3.49432 3.11920
# Velocity P-wave (km/s) = 4.73446 6.19461 5.51309
#
# Compressibility (1/GPa) = 0.03962400
#
# Stress axis : x y z
#
# Youngs Moduli (GPa) = 63.17058 43.81326 20.66443
#
# Poissons Ratio (x) = -0.03582 0.13562
# Poissons Ratio (y) = -0.05164 0.37126
# Poissons Ratio (z) = 0.41458 0.78715
#
# Static dielectric constant tensor:
#      x y z
#    x 1.648080 0.008200 -0.002530 
#    y 0.008200 1.716870 -0.015590 
#    z -0.002530 -0.015590 1.733190 
# 
# From -- ./inp_files/332556.got.cif
#   From: 2010.05.17/outbox.cif.g08.bks.cpg/sg2_167_cif.got.tgz:332556.got - 2010.06.03 11:33:40.
