data_PCOD9077048
_publ_section_title
;
Structure prediction by ZEFSAII (Michael W. Deem and Ramdas Pophale) SiO2 
 PCOD9077048
Probable space group: P -1
;
_chemical_formula_sum "Si O2"
_cell_formula_units_Z 14
_cell_length_a 17.276466
_cell_length_b 6.703618
_cell_length_c 19.512908
_cell_angle_alpha 143.674027
_cell_angle_beta 155.090493
_cell_angle_gamma 48.546033
_cell_volume 542.052685
_symmetry_space_group_name_H-M "P -1"
_symmetry_group_IT_number 2
_symmetry_cell_setting 'triclinic'
loop_
_space_group_symop_operation_xyz
x,y,z
-x,-y,-z
loop_
_atom_site_type_symbol
_atom_site_label
_atom_site_fract_x
_atom_site_fract_y
_atom_site_fract_z
Si Si1 0.431878 0.774708 0.069348
Si Si2 0.015166 0.669681 0.968221
Si Si3 0.103489 0.074885 0.724621
Si Si4 0.252999 0.147658 0.397533
Si Si5 0.738576 0.274232 0.537368
Si Si6 0.380221 0.464945 0.147308
Si Si7 0.990461 0.449948 0.366247
O O1 0.573317 0.926800 0.288763
O O2 0.444172 0.137346 0.138444
O O3 0.500000 0.500000 0.000000
O O4 0.203908 0.611021 0.850027
O O5 0.187114 0.513823 0.039454
O O6 0.086853 0.831372 0.144503
O O7 0.818440 0.381692 0.708043
O O8 0.000000 0.000000 0.000000
O O9 0.080650 0.837771 0.574087
O O10 0.070625 0.797010 0.684694
O O11 0.926165 0.238454 0.636691
O O12 0.308233 0.340301 0.978833
O O13 0.313653 0.395927 0.447283
O O14 0.457544 0.183392 0.606709
O O15 0.147207 0.326756 0.416960
#
# Coordination Sequence:
#
# PCOD9077048 Si02
#       7
#     2   2   2   2   2   2   2
#     4  10  18  34  55  80 108 148 178 216 276 332
#     4   9  18  36  59  77 109 144 178 227 274 320
#     4   9  18  35  51  73 111 149 173 216 276 326
#     4  10  20  34  55  85 107 139 184 233 261 312
#     4   9  18  35  56  78 103 147 185 213 272 330
#     4   9  19  34  56  81 106 145 184 213 275 336
#     4  10  20  33  54  79 113 142 182 222 271 321
#
# _framework density 25.827746000000001
#
# number of rings (size 3 to 8) (size 9 to 14) (size 15 to 20)
#    0.000    2.571    1.429    0.429    0.000    1.143 
#    0.000   11.429    0.000    0.000    0.000    0.000 
#    0.000    0.000    0.000    0.000    0.000    0.000 
#
# Total GULP energy -78200.705496 kJ/mol
# GULP energy per Si atom -5585.764678 kJ/mol
# Density = 2.576896 g / cm^3
# Si number density = 25.827746 Si / 1000 Ang^3
#
#
#
# Elastic Constant Matrix: (Units=GPa)
#
#
# Indices 1 2 3 4 5 6 
#
# 1 52.0143 11.2568 60.7327 3.4527 -27.9247 3.0294
# 2 11.2568 90.3165 25.7771 3.9820 -8.2582 4.4221
# 3 60.7327 25.7771 271.2478 1.3535 -28.5224 6.2657
# 4 3.4527 3.9820 1.3535 46.3032 1.1305 -2.9150
# 5 -27.9247 -8.2582 -28.5224 1.1305 61.2237 0.0192
# 6 3.0294 4.4221 6.2657 -2.9150 0.0192 31.6852
#
#
#
# Elastic Compliance Matrix: (Units=1/GPa)
#
#
# Indices 1 2 3 4 5 6 
#
# 1 0.033411 -0.001099 -0.006017 -0.002655 0.012337 -0.002103
# 2 -0.001099 0.011604 -0.000740 -0.001004 0.000738 -0.001461
# 3 -0.006017 -0.000740 0.005057 0.000358 -0.000495 -0.000288
# 4 -0.002655 -0.001004 0.000358 0.022058 -0.001587 0.002353
# 5 0.012337 0.000738 -0.000495 -0.001587 0.021859 -0.001344
# 6 -0.002103 -0.001461 -0.000288 0.002353 -0.001344 0.032240
#
#
# Mechanical properties :
#
#
# Convention : Reuss Voigt Hill
#
# Bulk Modulus (GPa) = 29.10420 67.67910 48.39165
# Shear Modulus (GPa) = 32.59563 48.89656 40.74609
#
# Velocity S-wave (km/s) = 3.55637 4.35579 3.97622
# Velocity P-wave (km/s) = 5.30629 7.18040 6.31327
#
# Compressibility (1/GPa) = 0.03435930
#
# Stress axis : x y z
#
# Youngs Moduli (GPa) = 29.92995 86.17923 197.74115
#
# Poissons Ratio (x) = 0.09470 1.18986
# Poissons Ratio (y) = 0.03289 0.14639
# Poissons Ratio (z) = 0.18010 0.06380
#
# Static dielectric constant tensor:
#      x y z
#    x 2.047310 0.137860 -0.011190 
#    y 0.137860 2.059300 0.070590 
#    z -0.011190 0.070590 2.125640 
# 
# From -- ./inp_files/180691.got.cif
#   From: 2010.05.17/outbox.cif.g08.bks.cpg/sg2_91_cif.got.tgz:180691.got - 2010.06.03 11:33:40.
