data_PCOD9077349
_publ_section_title
;
Structure prediction by ZEFSAII (Michael W. Deem and Ramdas Pophale) SiO2 
 PCOD9077349
Probable space group: P -1
;
_chemical_formula_sum "Si O2"
_cell_formula_units_Z 16
_cell_length_a 19.946928
_cell_length_b 11.777976
_cell_length_c 17.318719
_cell_angle_alpha 30.512214
_cell_angle_beta 149.565039
_cell_angle_gamma 157.598966
_cell_volume 740.482868
_symmetry_space_group_name_H-M "P -1"
_symmetry_group_IT_number 2
_symmetry_cell_setting 'triclinic'
loop_
_space_group_symop_operation_xyz
x,y,z
-x,-y,-z
loop_
_atom_site_type_symbol
_atom_site_label
_atom_site_fract_x
_atom_site_fract_y
_atom_site_fract_z
Si Si1 0.133233 0.372293 0.407983
Si Si2 0.705507 0.910481 0.613759
Si Si3 0.436682 0.709113 0.190642
Si Si4 0.810295 0.292955 0.161897
Si Si5 0.450802 0.620620 0.686080
Si Si6 0.503101 0.767722 0.958526
Si Si7 0.454002 0.988863 0.296843
Si Si8 0.076316 0.264289 0.856268
O O1 0.262476 0.510647 0.531726
O O2 0.291470 0.607413 0.363324
O O3 0.988092 0.399927 0.236056
O O4 0.000000 0.000000 0.500000
O O5 0.630392 0.614014 0.661942
O O6 0.596869 0.775479 0.668825
O O7 0.644686 0.075859 0.422425
O O8 0.921217 0.124109 0.720459
O O9 0.637109 0.921779 0.223130
O O10 0.462556 0.948472 0.134000
O O11 0.285690 0.617852 0.031444
O O12 0.887125 0.465704 0.218637
O O13 0.532237 0.862466 0.695929
O O14 0.407189 0.321958 0.849868
O O15 0.282392 0.444236 0.927408
O O16 0.576788 0.877914 0.880915
O O17 0.000000 0.000000 0.000000
#
# Coordination Sequence:
#
# PCOD9077349 Si02
#       8
#     2   2   2   2   2   2   2   2
#     4  11  22  38  64  88 116 157 205 249 285 357
#     4  11  20  38  63  91 114 151 212 248 296 346
#     4  10  20  36  61  88 121 153 190 254 301 352
#     4  10  18  34  58  90 112 144 203 248 292 339
#     4  11  21  41  62  86 122 161 205 244 290 360
#     4  11  24  40  59  88 127 161 195 243 311 352
#     4  11  25  40  59  88 127 164 193 245 303 358
#     4  11  19  34  62  90 110 150 204 252 282 350
#
# _framework density 21.607520999999998
#
# number of rings (size 3 to 8) (size 9 to 14) (size 15 to 20)
#    0.000    1.250    2.500    7.125    0.000    1.000 
#    0.000    3.750    0.000    0.000    0.000    0.000 
#    0.000    0.000    0.000    0.000    0.000    0.000 
#
# Total GULP energy -89298.607329 kJ/mol
# GULP energy per Si atom -5581.162958 kJ/mol
# Density = 2.155834 g / cm^3
# Si number density = 21.607521 Si / 1000 Ang^3
#
#
#
# Elastic Constant Matrix: (Units=GPa)
#
#
# Indices 1 2 3 4 5 6 
#
# 1 30.9267 28.3088 10.5096 -1.9428 -3.0806 -4.2428
# 2 28.3088 92.4164 19.7130 6.5329 4.4573 -4.7601
# 3 10.5096 19.7130 66.5999 5.4197 1.7632 3.9717
# 4 -1.9428 6.5329 5.4197 34.0385 6.4404 9.6787
# 5 -3.0806 4.4573 1.7632 6.4404 31.1795 -1.1060
# 6 -4.2428 -4.7601 3.9717 9.6787 -1.1060 25.2606
#
#
#
# Elastic Compliance Matrix: (Units=1/GPa)
#
#
# Indices 1 2 3 4 5 6 
#
# 1 0.048320 -0.014211 -0.004175 0.003486 0.006501 0.005043
# 2 -0.014211 0.016179 -0.002312 -0.003689 -0.002742 0.002319
# 3 -0.004175 -0.002312 0.016687 -0.001356 -0.000862 -0.003279
# 4 0.003486 -0.003689 -0.001356 0.035767 -0.006933 -0.013904
# 5 0.006501 -0.002742 -0.000862 -0.006933 0.034761 0.004889
# 6 0.005043 0.002319 -0.003279 -0.013904 0.004889 0.046928
#
#
# Mechanical properties :
#
#
# Convention : Reuss Voigt Hill
#
# Bulk Modulus (GPa) = 25.13199 34.11173 29.62186
# Shear Modulus (GPa) = 19.73941 26.85649 23.29795
#
# Velocity S-wave (km/s) = 3.02577 3.52934 3.28721
# Velocity P-wave (km/s) = 4.88502 5.69469 5.30532
#
# Compressibility (1/GPa) = 0.03978993
#
# Stress axis : x y z
#
# Youngs Moduli (GPa) = 20.69554 61.80779 59.92721
#
# Poissons Ratio (x) = 0.87834 0.25021
# Poissons Ratio (y) = 0.29410 0.13855
# Poissons Ratio (z) = 0.08641 0.14289
#
# Static dielectric constant tensor:
#      x y z
#    x 1.794430 -0.012450 0.015020 
#    y -0.012450 1.833290 -0.029270 
#    z 0.015020 -0.029270 1.804420 
# 
# From -- ./inp_files/218865.got.cif
#   From: 2010.05.17/outbox.cif.g08.bks.cpg/sg2_110_cif.got.tgz:218865.got - 2010.06.03 11:33:40.
