data_PCOD9077541
_publ_section_title
;
Structure prediction by ZEFSAII (Michael W. Deem and Ramdas Pophale) SiO2 
 PCOD9077541
Probable space group: P -1
;
_chemical_formula_sum "Si O2"
_cell_formula_units_Z 14
_cell_length_a 17.302341
_cell_length_b 24.676814
_cell_length_c 5.112143
_cell_angle_alpha 102.694491
_cell_angle_beta 112.675131
_cell_angle_gamma 20.578770
_cell_volume 637.348964
_symmetry_space_group_name_H-M "P -1"
_symmetry_group_IT_number 2
_symmetry_cell_setting 'triclinic'
loop_
_space_group_symop_operation_xyz
x,y,z
-x,-y,-z
loop_
_atom_site_type_symbol
_atom_site_label
_atom_site_fract_x
_atom_site_fract_y
_atom_site_fract_z
Si Si1 0.712103 0.687208 0.203573
Si Si2 0.725462 0.966128 0.757037
Si Si3 0.281272 0.655661 0.173384
Si Si4 0.794787 0.848944 0.209846
Si Si5 0.885531 0.673161 0.089257
Si Si6 0.641823 0.502967 0.226375
Si Si7 0.230272 0.466922 0.821228
O O1 0.614725 0.685022 0.047955
O O2 0.000000 0.500000 0.500000
O O3 0.746469 0.702071 0.000816
O O4 0.524448 0.840447 0.303936
O O5 0.733127 0.931765 0.447441
O O6 0.733421 0.910754 0.912577
O O7 0.977497 0.844622 0.036247
O O8 0.500000 0.500000 0.500000
O O9 0.376799 0.654971 0.188360
O O10 0.296416 0.594531 0.929678
O O11 0.717818 0.832355 0.119768
O O12 0.110766 0.644419 0.420925
O O13 0.118617 0.525829 0.447607
O O14 0.997090 0.614290 0.884491
O O15 0.637255 0.556417 0.071138
#
# Coordination Sequence:
#
# PCOD9077541 Si02
#       7
#     2   2   2   2   2   2   2
#     4  10  24  43  61  83 119 169 205 238 283 349
#     4  11  23  37  59  90 124 151 198 246 294 352
#     4  10  18  34  60  90 118 148 189 243 309 353
#     4  10  20  36  58  93 120 147 190 252 304 348
#     4  10  20  37  62  86 117 155 199 244 296 347
#     4   9  19  33  59  89 119 151 186 243 303 355
#     4  10  21  37  60  86 117 161 202 232 286 356
#
# _framework density 21.965989
#
# number of rings (size 3 to 8) (size 9 to 14) (size 15 to 20)
#    0.000    2.000    1.429    3.000    2.000    5.714 
#    0.000    0.714    0.000    0.857    0.000    0.000 
#    0.000    0.000    0.000    0.000    0.000    0.000 
#
# Total GULP energy -78061.935732 kJ/mol
# GULP energy per Si atom -5575.852552 kJ/mol
# Density = 2.191599 g / cm^3
# Si number density = 21.965989 Si / 1000 Ang^3
#
#
#
# Elastic Constant Matrix: (Units=GPa)
#
#
# Indices 1 2 3 4 5 6 
#
# 1 195.2958 48.8056 13.5181 -10.9368 -14.2664 5.1331
# 2 48.8056 82.3698 14.2288 -15.8511 -0.2663 11.7477
# 3 13.5181 14.2288 71.8231 -4.6126 -0.4060 -11.2574
# 4 -10.9368 -15.8511 -4.6126 25.0358 -0.3314 -0.9941
# 5 -14.2664 -0.2663 -0.4060 -0.3314 23.4624 -5.2044
# 6 5.1331 11.7477 -11.2574 -0.9941 -5.2044 40.7829
#
#
#
# Elastic Compliance Matrix: (Units=1/GPa)
#
#
# Indices 1 2 3 4 5 6 
#
# 1 0.006370 -0.003724 -0.000299 0.000451 0.003989 0.000709
# 2 -0.003724 0.017295 -0.003071 0.008494 -0.003236 -0.005567
# 3 -0.000299 -0.003071 0.015504 0.001012 0.001261 0.005387
# 4 0.000451 0.008494 0.001012 0.045675 0.000810 -0.001007
# 5 0.003989 -0.003236 0.001261 0.000810 0.046538 0.006737
# 6 0.000709 -0.005567 0.005387 -0.001007 0.006737 0.028357
#
#
# Mechanical properties :
#
#
# Convention : Reuss Voigt Hill
#
# Bulk Modulus (GPa) = 40.02782 55.84372 47.93577
# Shear Modulus (GPa) = 27.43433 36.05197 31.74315
#
# Velocity S-wave (km/s) = 3.53788 4.05565 3.80558
# Velocity P-wave (km/s) = 5.91193 6.88542 6.41716
#
# Compressibility (1/GPa) = 0.02498263
#
# Stress axis : x y z
#
# Youngs Moduli (GPa) = 156.99050 57.81857 64.49857
#
# Poissons Ratio (x) = 0.21532 0.01926
# Poissons Ratio (y) = 0.58465 0.19806
# Poissons Ratio (z) = 0.04687 0.17755
#
# Static dielectric constant tensor:
#      x y z
#    x 1.942570 -0.042610 0.095810 
#    y -0.042610 1.903970 -0.013840 
#    z 0.095810 -0.013840 1.900500 
# 
# From -- ./inp_files/70847.got.cif
#   From: 2010.05.17/outbox.cif.g08.bks.cpg/sg2_36_cif.got.tgz:70847.got - 2010.06.03 11:33:40.
