data_PCOD9077766
_publ_section_title
;
Structure prediction by ZEFSAII (Michael W. Deem and Ramdas Pophale) SiO2 
 PCOD9077766
Probable space group: P -1
;
_chemical_formula_sum "Si O2"
_cell_formula_units_Z 16
_cell_length_a 8.522069
_cell_length_b 9.467876
_cell_length_c 11.840011
_cell_angle_alpha 86.342485
_cell_angle_beta 89.145026
_cell_angle_gamma 44.576335
_cell_volume 668.500000
_symmetry_space_group_name_H-M "P -1"
_symmetry_group_IT_number 2
_symmetry_cell_setting 'triclinic'
loop_
_space_group_symop_operation_xyz
x,y,z
-x,-y,-z
loop_
_atom_site_type_symbol
_atom_site_label
_atom_site_fract_x
_atom_site_fract_y
_atom_site_fract_z
Si Si1 0.612088 0.778677 0.538415
Si Si2 0.730683 0.810826 0.766204
Si Si3 0.805344 0.346034 0.199078
Si Si4 0.458538 0.877531 0.946365
Si Si5 0.846202 0.064589 0.390760
Si Si6 0.306503 0.296409 0.709561
Si Si7 0.233601 0.766640 0.031897
Si Si8 0.026330 0.224056 0.786547
O O1 0.758707 0.720285 0.648870
O O2 0.404581 0.813249 0.573947
O O3 0.724310 0.661636 0.426609
O O4 0.500000 0.000000 0.500000
O O5 0.657741 0.740417 0.861666
O O6 0.942364 0.758044 0.812329
O O7 0.526464 0.056145 0.739832
O O8 0.825155 0.206225 0.295447
O O9 0.676823 0.560432 0.243885
O O10 0.721199 0.345696 0.079316
O O11 0.238766 0.029345 0.864305
O O12 0.413073 0.777962 0.034899
O O13 0.500000 0.000000 0.000000
O O14 0.957051 0.862952 0.330610
O O15 0.000000 0.000000 0.500000
O O16 0.102321 0.337298 0.763402
O O17 0.185315 0.695110 0.142671
O O18 0.000000 0.000000 0.000000
#
# Coordination Sequence:
#
# PCOD9077766 Si02
#       8
#     2   2   2   2   2   2   2   2
#     4  10  18  40  60  84 128 171 208 266 311 383
#     4  10  20  39  65  90 130 175 216 260 331 389
#     4  12  24  39  70 101 127 170 221 271 329 391
#     4  10  18  34  64  94 122 170 220 262 324 388
#     4  12  22  38  66  98 127 178 219 263 335 387
#     4  10  23  40  64  97 132 172 217 272 322 387
#     4  10  19  38  64  95 130 169 215 272 326 386
#     4  10  20  40  62  93 133 172 219 268 323 395
#
# _framework density 23.934182
#
# number of rings (size 3 to 8) (size 9 to 14) (size 15 to 20)
#    0.000    1.500    6.250    3.000    0.000    1.500 
#    0.000    0.000    2.750    7.500    0.000    0.000 
#    0.000    0.000    0.000    0.000    0.000    0.000 
#
# Total GULP energy -89474.232938 kJ/mol
# GULP energy per Si atom -5592.139559 kJ/mol
# Density = 2.387971 g / cm^3
# Si number density = 23.934182 Si / 1000 Ang^3
#
#
#
# Elastic Constant Matrix: (Units=GPa)
#
#
# Indices 1 2 3 4 5 6 
#
# 1 133.3148 4.7731 43.3775 -3.6986 -23.9572 24.2626
# 2 4.7731 63.7274 5.2985 8.7111 7.0162 0.8101
# 3 43.3775 5.2985 133.1783 23.4746 -0.7887 10.9345
# 4 -3.6986 8.7111 23.4746 35.8681 6.2305 6.7297
# 5 -23.9572 7.0162 -0.7887 6.2305 59.8200 2.3876
# 6 24.2626 0.8101 10.9345 6.7297 2.3876 29.3112
#
#
#
# Elastic Compliance Matrix: (Units=1/GPa)
#
#
# Indices 1 2 3 4 5 6 
#
# 1 0.011494 -0.001622 -0.003751 0.005036 0.004603 -0.009601
# 2 -0.001622 0.016605 0.000490 -0.004498 -0.002199 0.001913
# 3 -0.003751 0.000490 0.009857 -0.007033 -0.000741 0.001090
# 4 0.005036 -0.004498 -0.007033 0.036060 -0.000920 -0.009625
# 5 0.004603 -0.002199 -0.000741 -0.000920 0.019096 -0.004817
# 6 -0.009601 0.001913 0.001090 -0.009625 -0.004817 0.044207
#
#
# Mechanical properties :
#
#
# Convention : Reuss Voigt Hill
#
# Bulk Modulus (GPa) = 35.47346 48.56873 42.02110
# Shear Modulus (GPa) = 31.95267 43.45131 37.70199
#
# Velocity S-wave (km/s) = 3.65776 4.26543 3.97323
# Velocity P-wave (km/s) = 5.71772 6.67797 6.21641
#
# Compressibility (1/GPa) = 0.02819009
#
# Stress axis : x y z
#
# Youngs Moduli (GPa) = 87.00284 60.22229 101.45277
#
# Poissons Ratio (x) = 0.09768 0.38058
# Poissons Ratio (y) = 0.14112 -0.04976
# Poissons Ratio (z) = 0.32637 -0.02954
#
# Static dielectric constant tensor:
#      x y z
#    x 1.987750 -0.036790 -0.125890 
#    y -0.036790 1.959770 0.022930 
#    z -0.125890 0.022930 2.082790 
# 
# From -- ./inp_files/379170.got.cif
#   From: 2010.05.17/outbox.cif.g08.bks.cpg/sg2_190_cif.got.tgz:379170.got - 2010.06.03 11:33:40.
