data_PCOD9077900
_publ_section_title
;
Structure prediction by ZEFSAII (Michael W. Deem and Ramdas Pophale) SiO2 
 PCOD9077900
Probable space group: P -1
;
_chemical_formula_sum "Si O2"
_cell_formula_units_Z 16
_cell_length_a 12.089245
_cell_length_b 14.173939
_cell_length_c 15.944142
_cell_angle_alpha 45.582960
_cell_angle_beta 151.574933
_cell_angle_gamma 116.405030
_cell_volume 803.198669
_symmetry_space_group_name_H-M "P -1"
_symmetry_group_IT_number 2
_symmetry_cell_setting 'triclinic'
loop_
_space_group_symop_operation_xyz
x,y,z
-x,-y,-z
loop_
_atom_site_type_symbol
_atom_site_label
_atom_site_fract_x
_atom_site_fract_y
_atom_site_fract_z
Si Si1 0.896669 0.399090 0.946315
Si Si2 0.453746 0.192663 0.886505
Si Si3 0.924371 0.757414 0.536621
Si Si4 0.227947 0.427485 0.014676
Si Si5 0.403173 0.771656 0.762733
Si Si6 0.874110 0.666202 0.270389
Si Si7 0.588723 0.478718 0.360207
Si Si8 0.962911 0.885922 0.662378
O O1 0.050965 0.367777 0.981231
O O2 0.982800 0.245875 0.152345
O O3 0.000000 0.500000 0.000000
O O4 0.572394 0.501946 0.672867
O O5 0.349900 0.162625 0.748992
O O6 0.258332 0.207224 0.823547
O O7 0.409120 0.363896 0.743657
O O8 0.770618 0.097676 0.174148
O O9 0.918707 0.836724 0.571502
O O10 0.160319 0.744944 0.642199
O O11 0.018877 0.582101 0.731249
O O12 0.449022 0.305028 0.176569
O O13 0.395415 0.471739 0.163949
O O14 0.282587 0.952722 0.574303
O O15 0.626782 0.692776 0.032323
O O16 0.000000 0.500000 0.500000
O O17 0.111932 0.656235 0.377041
#
# Coordination Sequence:
#
# PCOD9077900 Si02
#       8
#     2   2   2   2   2   2   2   2
#     4   9  18  39  69  83 118 170 206 255 304 358
#     4  10  20  36  61  88 123 165 200 250 307 363
#     4  12  21  39  66  90 123 165 211 248 307 378
#     4  11  20  38  66  92 117 169 212 249 306 367
#     4  12  25  37  60  96 130 161 201 256 317 366
#     4  10  18  35  55  85 129 154 196 253 300 356
#     4   9  17  35  58  89 115 151 206 260 286 346
#     4  11  23  44  59  92 133 160 202 258 309 367
#
# _framework density 19.920352000000001
#
# number of rings (size 3 to 8) (size 9 to 14) (size 15 to 20)
#    0.000    1.500    5.000    3.750    0.000    1.000 
#    2.250    5.625    0.000    3.000    0.000    0.000 
#    0.000    0.000    0.000    0.000    0.000    0.000 
#
# Total GULP energy -89272.047941 kJ/mol
# GULP energy per Si atom -5579.502996 kJ/mol
# Density = 1.987501 g / cm^3
# Si number density = 19.920352 Si / 1000 Ang^3
#
#
#
# Elastic Constant Matrix: (Units=GPa)
#
#
# Indices 1 2 3 4 5 6 
#
# 1 132.7716 51.6900 25.9704 -9.1725 4.1430 -3.7620
# 2 51.6900 65.1975 36.5613 -3.7948 4.7773 -15.1445
# 3 25.9704 36.5613 89.1835 3.8613 4.2475 -7.6942
# 4 -9.1725 -3.7948 3.8613 33.0200 -0.9726 -0.9225
# 5 4.1430 4.7773 4.2475 -0.9726 14.7505 1.5235
# 6 -3.7620 -15.1445 -7.6942 -0.9225 1.5235 32.9251
#
#
#
# Elastic Compliance Matrix: (Units=1/GPa)
#
#
# Indices 1 2 3 4 5 6 
#
# 1 0.011310 -0.009802 0.000360 0.001897 0.000339 -0.003095
# 2 -0.009802 0.031261 -0.008773 0.002044 -0.005902 0.011539
# 3 0.000360 -0.008773 0.014856 -0.002709 -0.001662 -0.000522
# 4 0.001897 0.002044 -0.002709 0.031445 0.001521 0.001335
# 5 0.000339 -0.005902 -0.001662 0.001521 0.070840 -0.006300
# 6 -0.003095 0.011539 -0.000522 0.001335 -0.006300 0.035533
#
#
# Mechanical properties :
#
#
# Convention : Reuss Voigt Hill
#
# Bulk Modulus (GPa) = 47.62751 57.28845 52.45798
# Shear Modulus (GPa) = 20.94893 27.66785 24.30839
#
# Velocity S-wave (km/s) = 3.24641 3.73087 3.49704
# Velocity P-wave (km/s) = 6.16548 6.88334 6.53427
#
# Compressibility (1/GPa) = 0.02099627
#
# Stress axis : x y z
#
# Youngs Moduli (GPa) = 88.41556 31.98887 67.31200
#
# Poissons Ratio (x) = 0.31355 -0.02420
# Poissons Ratio (y) = 0.86664 0.59053
# Poissons Ratio (z) = -0.03179 0.28064
#
# Static dielectric constant tensor:
#      x y z
#    x 1.776930 -0.025300 0.017080 
#    y -0.025300 1.721590 0.000470 
#    z 0.017080 0.000470 1.722920 
# 
# From -- ./inp_files/433793.got.cif
#   From: 2010.05.17/outbox.cif.g08.bks.cpg/sg2_217_cif.got.tgz:433793.got - 2010.06.03 11:33:40.
