data_PCOD9077727
_publ_section_title
;
Structure prediction by ZEFSAII (Michael W. Deem and Ramdas Pophale) SiO2 
 PCOD9077727
Probable space group: P -1
;
_chemical_formula_sum "Si O2"
_cell_formula_units_Z 16
_cell_length_a 13.675069
_cell_length_b 11.757786
_cell_length_c 7.945977
_cell_angle_alpha 54.855666
_cell_angle_beta 43.997136
_cell_angle_gamma 41.837605
_cell_volume 589.783798
_symmetry_space_group_name_H-M "P -1"
_symmetry_group_IT_number 2
_symmetry_cell_setting 'triclinic'
loop_
_space_group_symop_operation_xyz
x,y,z
-x,-y,-z
loop_
_atom_site_type_symbol
_atom_site_label
_atom_site_fract_x
_atom_site_fract_y
_atom_site_fract_z
Si Si1 0.295433 0.539025 0.884365
Si Si2 0.210354 0.793867 0.531538
Si Si3 0.076420 0.353528 0.673238
Si Si4 0.062760 0.890234 0.186151
Si Si5 0.319964 0.238785 0.931529
Si Si6 0.411925 0.067689 0.336543
Si Si7 0.949462 0.355538 0.363049
Si Si8 0.582832 0.245266 0.994005
O O1 0.322056 0.398422 0.840252
O O2 0.088527 0.645180 0.077176
O O3 0.323032 0.671231 0.651562
O O4 0.417654 0.433916 0.982202
O O5 0.163755 0.684705 0.572611
O O6 0.317499 0.830505 0.244139
O O7 0.040417 0.963841 0.667951
O O8 0.237629 0.167102 0.576297
O O9 0.124615 0.449775 0.664178
O O10 0.000000 0.500000 0.500000
O O11 0.020997 0.756294 0.410671
O O12 0.269713 0.784449 0.039756
O O13 0.000000 0.000000 0.000000
O O14 0.128554 0.284797 0.105525
O O15 0.362193 0.148181 0.140901
O O16 0.455104 0.128517 0.711114
O O17 0.516911 0.135243 0.228948
#
# Coordination Sequence:
#
# PCOD9077727 Si02
#       8
#     2   2   2   2   2   2   2   2
#     4  10  22  39  68  96 132 176 220 266 326 394
#     4  11  23  41  65  97 133 174 223 269 322 401
#     4  11  20  38  66  98 134 173 215 274 331 382
#     4  11  25  40  66  98 130 174 222 277 330 391
#     4   9  18  32  61  94 125 173 215 262 324 388
#     4  10  18  34  63  94 127 171 218 264 324 386
#     4  10  21  41  66  92 132 177 220 266 335 387
#     4  10  20  42  65  90 130 175 213 268 327 389
#
# _framework density 27.128584
#
# number of rings (size 3 to 8) (size 9 to 14) (size 15 to 20)
#    0.000    1.750    3.750    3.375    1.750    2.000 
#    0.000    6.875    0.000   19.500    0.000    0.000 
#    0.000    0.000    0.000    0.000    0.000    0.000 
#
# Total GULP energy -89538.872808 kJ/mol
# GULP energy per Si atom -5596.179551 kJ/mol
# Density = 2.706684 g / cm^3
# Si number density = 27.128584 Si / 1000 Ang^3
#
#
#
# Elastic Constant Matrix: (Units=GPa)
#
#
# Indices 1 2 3 4 5 6 
#
# 1 88.0285 48.4982 44.4759 9.5868 -5.8158 -19.5250
# 2 48.4982 183.6266 61.1395 33.7842 7.0397 -3.4493
# 3 44.4759 61.1395 114.5243 13.7336 1.8549 -14.7002
# 4 9.5868 33.7842 13.7336 62.1609 -10.7665 10.1859
# 5 -5.8158 7.0397 1.8549 -10.7665 41.2826 12.3815
# 6 -19.5250 -3.4493 -14.7002 10.1859 12.3815 33.3552
#
#
#
# Elastic Compliance Matrix: (Units=1/GPa)
#
#
# Indices 1 2 3 4 5 6 
#
# 1 0.016820 -0.002718 -0.003814 -0.001630 0.000074 0.008354
# 2 -0.002718 0.007825 -0.002605 -0.003746 -0.002635 0.000192
# 3 -0.003814 -0.002605 0.012452 -0.001918 -0.002502 0.004500
# 4 -0.001630 -0.003746 -0.001918 0.022703 0.010298 -0.012942
# 5 0.000074 -0.002635 -0.002502 0.010298 0.032435 -0.016517
# 6 0.008354 0.000192 0.004500 -0.012942 -0.016517 0.046957
#
#
# Mechanical properties :
#
#
# Convention : Reuss Voigt Hill
#
# Bulk Modulus (GPa) = 53.13152 77.15631 65.14392
# Shear Modulus (GPa) = 30.53602 42.83077 36.68340
#
# Velocity S-wave (km/s) = 3.35864 3.97773 3.68122
# Velocity P-wave (km/s) = 5.88797 7.04267 6.49105
#
# Compressibility (1/GPa) = 0.01882122
#
# Stress axis : x y z
#
# Youngs Moduli (GPa) = 59.45229 127.79553 80.30800
#
# Poissons Ratio (x) = 0.34740 0.30632
# Poissons Ratio (y) = 0.16162 0.20922
# Poissons Ratio (z) = 0.22677 0.33294
#
# Static dielectric constant tensor:
#      x y z
#    x 2.211820 -0.030250 0.093200 
#    y -0.030250 2.127210 -0.006050 
#    z 0.093200 -0.006050 2.158650 
# 
# From -- ./inp_files/312492.got.cif
#   From: 2010.05.17/outbox.cif.g08.bks.cpg/sg2_157_cif.got.tgz:312492.got - 2010.06.03 11:33:40.
