data_PCOD9077649
_publ_section_title
;
Structure prediction by ZEFSAII (Michael W. Deem and Ramdas Pophale) SiO2 
 PCOD9077649
Probable space group: P -1
;
_chemical_formula_sum "Si O2"
_cell_formula_units_Z 16
_cell_length_a 17.690489
_cell_length_b 9.328207
_cell_length_c 9.675150
_cell_angle_alpha 109.549282
_cell_angle_beta 137.440362
_cell_angle_gamma 100.507718
_cell_volume 752.835603
_symmetry_space_group_name_H-M "P -1"
_symmetry_group_IT_number 2
_symmetry_cell_setting 'triclinic'
loop_
_space_group_symop_operation_xyz
x,y,z
-x,-y,-z
loop_
_atom_site_type_symbol
_atom_site_label
_atom_site_fract_x
_atom_site_fract_y
_atom_site_fract_z
Si Si1 0.353598 0.252616 0.806877
Si Si2 0.654144 0.582888 0.425688
Si Si3 0.494549 0.905191 0.162949
Si Si4 0.273662 0.694799 0.536643
Si Si5 0.005401 0.561494 0.758293
Si Si6 0.097909 0.981033 0.025045
Si Si7 0.909757 0.872026 0.469385
Si Si8 0.786661 0.433037 0.156942
O O1 0.329785 0.366140 0.700513
O O2 0.421328 0.174522 0.788794
O O3 0.192195 0.081616 0.600880
O O4 0.475048 0.401863 0.136587
O O5 0.729752 0.492056 0.534468
O O6 0.735073 0.796772 0.676005
O O7 0.630316 0.151514 0.412864
O O8 0.378329 0.829493 0.854817
O O9 0.382434 0.778871 0.100949
O O10 0.106058 0.596401 0.320365
O O11 0.891613 0.491100 0.452034
O O12 0.133591 0.572146 0.868998
O O13 0.080652 0.789689 0.978928
O O14 0.000000 0.000000 0.000000
O O15 0.026856 0.933465 0.764245
O O16 0.801392 0.627674 0.220298
O O17 0.000000 0.000000 0.500000
#
# Coordination Sequence:
#
# PCOD9077649 Si02
#       8
#     2   2   2   2   2   2   2   2
#     4  10  19  34  59  88 113 157 198 246 295 352
#     4  10  18  34  62  85 114 146 205 247 286 346
#     4   9  18  30  54  80 114 150 203 241 284 351
#     4   9  16  29  50  86 108 146 196 250 281 341
#     4   9  17  30  56  81 112 149 193 244 295 345
#     4  11  19  37  62  89 116 156 202 248 296 357
#     4  11  23  37  59  90 122 153 196 251 303 354
#     4   9  18  34  52  80 116 153 191 238 296 359
#
# _framework density 21.252981999999999
#
# number of rings (size 3 to 8) (size 9 to 14) (size 15 to 20)
#    0.000    2.250    2.500    3.000    1.750    0.000 
#    6.750    0.625    2.750    3.750    0.000    0.000 
#    0.000    0.000    0.000    0.000    0.000    0.000 
#
# Total GULP energy -89201.067371 kJ/mol
# GULP energy per Si atom -5575.066711 kJ/mol
# Density = 2.120461 g / cm^3
# Si number density = 21.252982 Si / 1000 Ang^3
#
#
#
# Elastic Constant Matrix: (Units=GPa)
#
#
# Indices 1 2 3 4 5 6 
#
# 1 98.5340 47.5262 37.6091 16.9216 33.8041 -2.8087
# 2 47.5262 59.6685 32.7715 24.0414 14.3071 5.3191
# 3 37.6091 32.7715 74.3257 23.2379 14.3003 -1.8935
# 4 16.9216 24.0414 23.2379 28.0914 1.7150 1.3373
# 5 33.8041 14.3071 14.3003 1.7150 35.0509 9.0963
# 6 -2.8087 5.3191 -1.8935 1.3373 9.0963 27.3242
#
#
#
# Elastic Compliance Matrix: (Units=1/GPa)
#
#
# Indices 1 2 3 4 5 6 
#
# 1 0.026190 -0.015890 -0.001823 0.000026 -0.021342 0.012763
# 2 -0.015890 0.040028 -0.004111 -0.021066 0.004320 -0.010118
# 3 -0.001823 -0.004111 0.021535 -0.013060 -0.005936 0.004720
# 4 0.000026 -0.021066 -0.013060 0.063879 0.011775 -0.003848
# 5 -0.021342 0.004320 -0.005936 0.011775 0.054990 -0.022329
# 6 0.012763 -0.010118 0.004720 -0.003848 -0.022329 0.047828
#
#
# Mechanical properties :
#
#
# Convention : Reuss Voigt Hill
#
# Bulk Modulus (GPa) = 22.67344 52.03798 37.35571
# Shear Modulus (GPa) = 15.98467 25.73472 20.85970
#
# Velocity S-wave (km/s) = 2.74545 3.48354 3.13628
# Velocity P-wave (km/s) = 4.55428 6.38108 5.54345
#
# Compressibility (1/GPa) = 0.04410446
#
# Stress axis : x y z
#
# Youngs Moduli (GPa) = 38.18240 24.98260 46.43639
#
# Poissons Ratio (x) = 0.39698 0.08465
# Poissons Ratio (y) = 0.60673 0.19090
# Poissons Ratio (z) = 0.06960 0.10270
#
# Static dielectric constant tensor:
#      x y z
#    x 1.768990 -0.004970 0.018460 
#    y -0.004970 1.823610 0.008040 
#    z 0.018460 0.008040 1.817790 
# 
# From -- ./inp_files/463166.got.cif
#   From: 2010.05.17/outbox.cif.g08.bks.cpg/sg2_232_cif.got.tgz:463166.got - 2010.06.03 11:33:40.
