data_PCOD9077227
_publ_section_title
;
Structure prediction by ZEFSAII (Michael W. Deem and Ramdas Pophale) SiO2 
 PCOD9077227
Probable space group: P -1
;
_chemical_formula_sum "Si O2"
_cell_formula_units_Z 16
_cell_length_a 12.749651
_cell_length_b 7.797473
_cell_length_c 14.745086
_cell_angle_alpha 92.466744
_cell_angle_beta 151.341969
_cell_angle_gamma 81.404877
_cell_volume 683.011178
_symmetry_space_group_name_H-M "P -1"
_symmetry_group_IT_number 2
_symmetry_cell_setting 'triclinic'
loop_
_space_group_symop_operation_xyz
x,y,z
-x,-y,-z
loop_
_atom_site_type_symbol
_atom_site_label
_atom_site_fract_x
_atom_site_fract_y
_atom_site_fract_z
Si Si1 0.547175 0.076233 0.193902
Si Si2 0.384992 0.102523 0.272641
Si Si3 0.427199 0.226408 0.917502
Si Si4 0.248756 0.473444 0.648826
Si Si5 0.276413 0.676212 0.407840
Si Si6 0.915862 0.320227 0.936906
Si Si7 0.072097 0.826940 0.432382
Si Si8 0.547922 0.695843 0.373061
O O1 0.404532 0.129366 0.178699
O O2 0.806102 0.030315 0.428417
O O3 0.459417 0.920457 0.073191
O O4 0.526490 0.203902 0.092573
O O5 0.509567 0.240237 0.415728
O O6 0.506220 0.898187 0.378959
O O7 0.128458 0.159603 0.111091
O O8 0.404844 0.407054 0.851123
O O9 0.178258 0.183544 0.733980
O O10 0.246620 0.653367 0.600202
O O11 0.307064 0.330967 0.609369
O O12 0.000000 0.500000 0.500000
O O13 0.814244 0.301315 0.760777
O O14 0.099943 0.795757 0.345875
O O15 0.337721 0.469192 0.479153
O O16 0.702807 0.329892 0.840471
O O17 0.000000 0.500000 0.000000
#
# Coordination Sequence:
#
# PCOD9077227 Si02
#       8
#     2   2   2   2   2   2   2   2
#     4  10  20  33  59  85 118 162 199 253 314 371
#     4  11  23  43  67  97 133 171 221 275 328 392
#     4  10  18  34  57  84 121 157 201 252 311 373
#     4   9  19  37  63  89 124 166 207 263 322 380
#     4  10  23  44  66  95 130 173 219 273 335 394
#     4  12  25  44  70  95 135 173 219 274 338 392
#     4   9  19  35  58  83 118 157 204 251 313 374
#     4  11  22  43  69  96 134 172 222 274 325 394
#
# _framework density 23.425678000000001
#
# number of rings (size 3 to 8) (size 9 to 14) (size 15 to 20)
#    0.000    1.750    2.500    1.875    0.000    1.000 
#    2.250    0.000    5.500    0.000    0.000    0.000 
#    0.000    0.000    0.000    0.000    0.000    0.000 
#
# Total GULP energy -89248.526713 kJ/mol
# GULP energy per Si atom -5578.032920 kJ/mol
# Density = 2.337236 g / cm^3
# Si number density = 23.425678 Si / 1000 Ang^3
#
#
#
# Elastic Constant Matrix: (Units=GPa)
#
#
# Indices 1 2 3 4 5 6 
#
# 1 81.5535 21.3849 18.7300 3.2008 0.9733 -11.4183
# 2 21.3849 99.0892 27.9979 -4.5819 -15.8446 0.9835
# 3 18.7300 27.9979 57.0139 -2.1630 -15.6454 -17.0375
# 4 3.2008 -4.5819 -2.1630 32.3102 -4.1451 -6.7499
# 5 0.9733 -15.8446 -15.6454 -4.1451 43.4841 -3.0217
# 6 -11.4183 0.9835 -17.0375 -6.7499 -3.0217 34.4623
#
#
#
# Elastic Compliance Matrix: (Units=1/GPa)
#
#
# Indices 1 2 3 4 5 6 
#
# 1 0.014174 -0.002613 -0.003359 -0.001785 -0.002471 0.002544
# 2 -0.002613 0.012779 -0.005760 0.001253 0.002511 -0.003612
# 3 -0.003359 -0.005760 0.029101 0.005997 0.010095 0.015498
# 4 -0.001785 0.001253 0.005997 0.034580 0.006624 0.009691
# 5 -0.002471 0.002511 0.010095 0.006624 0.028781 0.007921
# 6 0.002544 -0.003612 0.015498 0.009691 0.007921 0.040218
#
#
# Mechanical properties :
#
#
# Convention : Reuss Voigt Hill
#
# Bulk Modulus (GPa) = 30.68428 41.54248 36.11338
# Shear Modulus (GPa) = 25.77856 33.35421 29.56638
#
# Velocity S-wave (km/s) = 3.32089 3.77746 3.55651
# Velocity P-wave (km/s) = 5.27555 6.06612 5.68460
#
# Compressibility (1/GPa) = 0.03258998
#
# Stress axis : x y z
#
# Youngs Moduli (GPa) = 70.55061 78.25635 34.36349
#
# Poissons Ratio (x) = 0.20447 0.11543
# Poissons Ratio (y) = 0.18434 0.19793
# Poissons Ratio (z) = 0.23698 0.45074
#
# Static dielectric constant tensor:
#      x y z
#    x 1.946250 0.000120 0.040520 
#    y 0.000120 1.989960 -0.061080 
#    z 0.040520 -0.061080 1.893480 
# 
# From -- ./inp_files/340987.got.cif
#   From: 2010.05.17/outbox.cif.g08.bks.cpg/sg2_171_cif.got.tgz:340987.got - 2010.06.03 11:33:40.
