data_PCOD9077136
_publ_section_title
;
Structure prediction by ZEFSAII (Michael W. Deem and Ramdas Pophale) SiO2 
 PCOD9077136
Probable space group: P -1
;
_chemical_formula_sum "Si O2"
_cell_formula_units_Z 14
_cell_length_a 7.906590
_cell_length_b 18.761328
_cell_length_c 8.127763
_cell_angle_alpha 124.233874
_cell_angle_beta 61.623387
_cell_angle_gamma 74.455368
_cell_volume 593.732626
_symmetry_space_group_name_H-M "P -1"
_symmetry_group_IT_number 2
_symmetry_cell_setting 'triclinic'
loop_
_space_group_symop_operation_xyz
x,y,z
-x,-y,-z
loop_
_atom_site_type_symbol
_atom_site_label
_atom_site_fract_x
_atom_site_fract_y
_atom_site_fract_z
Si Si1 0.620958 0.075656 0.450018
Si Si2 0.917321 0.857381 0.239699
Si Si3 0.190901 0.649012 0.597206
Si Si4 0.236126 0.027171 0.202446
Si Si5 0.404838 0.219186 0.087520
Si Si6 0.664351 0.588379 0.766369
Si Si7 0.315731 0.766873 0.477164
O O1 0.403014 0.073755 0.499130
O O2 0.601821 0.160024 0.439816
O O3 0.901008 0.933418 0.199419
O O4 0.522429 0.149816 0.765480
O O5 0.960224 0.881546 0.430702
O O6 0.081919 0.721508 0.916039
O O7 0.365633 0.504016 0.356073
O O8 0.335612 0.683047 0.488459
O O9 0.920225 0.709174 0.684108
O O10 0.011302 0.109352 0.266907
O O11 0.500000 0.000000 0.000000
O O12 0.398092 0.888509 0.007666
O O13 0.430325 0.314088 0.205657
O O14 0.000000 0.500000 0.500000
O O15 0.509526 0.668363 0.108740
#
# Coordination Sequence:
#
# PCOD9077136 Si02
#       7
#     2   2   2   2   2   2   2
#     4   8  17  32  54  78 110 148 186 224 266 336
#     4   9  19  36  55  76 119 154 179 222 290 332
#     4  10  18  34  56  84 110 148 190 231 268 326
#     4  11  21  36  57  88 119 144 176 240 291 334
#     4   8  16  33  54  81 109 149 181 221 281 328
#     4   9  19  35  58  81 109 150 195 233 262 327
#     4  11  21  33  60  91 111 140 195 233 277 330
#
# _framework density 23.579635
#
# number of rings (size 3 to 8) (size 9 to 14) (size 15 to 20)
#    0.000    2.571    1.429    2.143    0.000    5.714 
#    0.000    0.714    0.000    0.857    0.000    0.000 
#    0.000    0.000    0.000    0.000    0.000    0.000 
#
# Total GULP energy -78078.944500 kJ/mol
# GULP energy per Si atom -5577.067464 kJ/mol
# Density = 2.352597 g / cm^3
# Si number density = 23.579635 Si / 1000 Ang^3
#
#
#
# Elastic Constant Matrix: (Units=GPa)
#
#
# Indices 1 2 3 4 5 6 
#
# 1 39.4277 36.7079 3.0449 -2.2347 -7.9798 4.8342
# 2 36.7079 177.7220 33.3282 12.2821 19.7110 37.1401
# 3 3.0449 33.3282 81.1213 5.3185 4.5674 5.5528
# 4 -2.2347 12.2821 5.3185 37.2354 7.6576 9.4622
# 5 -7.9798 19.7110 4.5674 7.6576 35.1428 1.7874
# 6 4.8342 37.1401 5.5528 9.4622 1.7874 38.4652
#
#
#
# Elastic Compliance Matrix: (Units=1/GPa)
#
#
# Indices 1 2 3 4 5 6 
#
# 1 0.037382 -0.010554 0.001773 0.001602 0.013614 0.004210
# 2 -0.010554 0.011028 -0.003113 -0.000079 -0.007728 -0.008494
# 3 0.001773 -0.003113 0.013509 -0.001199 0.000598 0.001100
# 4 0.001602 -0.000079 -0.001199 0.030112 -0.005637 -0.007098
# 5 0.013614 -0.007728 0.000598 -0.005637 0.036760 0.005343
# 6 0.004210 -0.008494 0.001100 -0.007098 0.005343 0.035009
#
#
# Mechanical properties :
#
#
# Convention : Reuss Voigt Hill
#
# Bulk Modulus (GPa) = 26.22489 49.38146 37.80318
# Shear Modulus (GPa) = 24.96269 37.18135 31.07202
#
# Velocity S-wave (km/s) = 3.25723 3.97525 3.63402
# Velocity P-wave (km/s) = 5.02912 6.48522 5.80302
#
# Compressibility (1/GPa) = 0.03813171
#
# Stress axis : x y z
#
# Youngs Moduli (GPa) = 26.75077 90.67770 74.02342
#
# Poissons Ratio (x) = 0.95702 -0.13126
# Poissons Ratio (y) = 0.28233 0.23043
# Poissons Ratio (z) = -0.04743 0.28228
#
# Static dielectric constant tensor:
#      x y z
#    x 1.932880 0.005400 -0.027230 
#    y 0.005400 1.930180 -0.007420 
#    z -0.027230 -0.007420 1.964680 
# 
# From -- ./inp_files/168381.got.cif
#   From: 2010.05.17/outbox.cif.g08.bks.cpg/sg2_85_cif.got.tgz:168381.got - 2010.06.03 11:33:40.
