data_PCOD9077197
_publ_section_title
;
Structure prediction by ZEFSAII (Michael W. Deem and Ramdas Pophale) SiO2 
 PCOD9077197
Probable space group: P -1
;
_chemical_formula_sum "Si O2"
_cell_formula_units_Z 16
_cell_length_a 28.329268
_cell_length_b 18.790462
_cell_length_c 5.314146
_cell_angle_alpha 85.620896
_cell_angle_beta 108.355581
_cell_angle_gamma 159.898310
_cell_volume 682.923780
_symmetry_space_group_name_H-M "P -1"
_symmetry_group_IT_number 2
_symmetry_cell_setting 'triclinic'
loop_
_space_group_symop_operation_xyz
x,y,z
-x,-y,-z
loop_
_atom_site_type_symbol
_atom_site_label
_atom_site_fract_x
_atom_site_fract_y
_atom_site_fract_z
Si Si1 0.206300 0.938839 0.556450
Si Si2 0.865817 0.272437 0.139600
Si Si3 0.929598 0.977092 0.274857
Si Si4 0.751131 0.406677 0.592923
Si Si5 0.998225 0.216535 0.587532
Si Si6 0.823397 0.356940 0.818161
Si Si7 0.667647 0.441715 0.412071
Si Si8 0.437417 0.616206 0.254807
O O1 0.261776 0.961229 0.863253
O O2 0.190652 0.997755 0.605774
O O3 0.979930 0.605814 0.211572
O O4 0.347419 0.116278 0.514633
O O5 0.000000 0.500000 0.500000
O O6 0.756743 0.185354 0.833817
O O7 0.025796 0.452864 0.199665
O O8 0.712453 0.658202 0.907833
O O9 0.939580 0.054337 0.472109
O O10 0.000000 0.000000 0.500000
O O11 0.094537 0.226093 0.282026
O O12 0.856871 0.574979 0.987562
O O13 0.685200 0.232104 0.555921
O O14 0.607949 0.275013 0.342160
O O15 0.896963 0.610193 0.540805
O O16 0.609477 0.399911 0.065323
O O17 0.603765 0.393669 0.567502
#
# Coordination Sequence:
#
# PCOD9077197 Si02
#       8
#     2   2   2   2   2   2   2   2
#     4  10  21  34  53  81 120 140 178 220 283 338
#     4   9  17  33  54  85 106 140 175 218 275 333
#     4   9  19  37  56  78 108 145 197 232 260 311
#     4  10  18  34  57  81 108 137 187 234 265 312
#     4  10  20  32  55  81 109 144 177 233 278 313
#     4   9  18  32  58  83 108 138 178 224 278 320
#     4  10  21  37  56  79 105 150 195 229 262 313
#     4  11  23  35  56  79 111 154 182 226 276 321
#
# _framework density 23.428674000000001
#
# number of rings (size 3 to 8) (size 9 to 14) (size 15 to 20)
#    0.000    2.250    1.250    2.625    1.750    3.500 
#    0.000    0.000    0.000   12.000    0.000    0.000 
#    0.000    0.000    0.000    0.000    0.000    0.000 
#
# Total GULP energy -89225.018540 kJ/mol
# GULP energy per Si atom -5576.563659 kJ/mol
# Density = 2.337535 g / cm^3
# Si number density = 23.428674 Si / 1000 Ang^3
#
#
#
# Elastic Constant Matrix: (Units=GPa)
#
#
# Indices 1 2 3 4 5 6 
#
# 1 175.9221 40.8830 13.4039 -23.4946 -16.5904 6.6539
# 2 40.8830 58.5533 18.3372 -17.7366 -1.8029 23.1477
# 3 13.4039 18.3372 50.2579 -20.9804 -15.4379 12.1313
# 4 -23.4946 -17.7366 -20.9804 28.8936 11.3467 -1.9829
# 5 -16.5904 -1.8029 -15.4379 11.3467 18.5436 -2.6428
# 6 6.6539 23.1477 12.1313 -1.9829 -2.6428 38.7595
#
#
#
# Elastic Compliance Matrix: (Units=1/GPa)
#
#
# Indices 1 2 3 4 5 6 
#
# 1 0.007893 -0.006717 0.002859 0.001250 0.008365 0.002396
# 2 -0.006717 0.036719 -0.004964 0.020805 -0.022105 -0.019665
# 3 0.002859 -0.004964 0.035876 0.016719 0.020788 -0.006482
# 4 0.001250 0.020805 0.016719 0.070597 -0.028447 -0.016200
# 5 0.008365 -0.022105 0.020788 -0.028447 0.095445 0.010312
# 6 0.002396 -0.019665 -0.006482 -0.016200 0.010312 0.039036
#
#
# Mechanical properties :
#
#
# Convention : Reuss Voigt Hill
#
# Bulk Modulus (GPa) = 15.91300 47.77572 31.84436
# Shear Modulus (GPa) = 15.42460 31.37995 23.40228
#
# Velocity S-wave (km/s) = 2.56864 3.66373 3.16392
# Velocity P-wave (km/s) = 3.95020 6.19140 5.19315
#
# Compressibility (1/GPa) = 0.06284172
#
# Stress axis : x y z
#
# Youngs Moduli (GPa) = 126.69925 27.23410 27.87378
#
# Poissons Ratio (x) = 0.18294 -0.07968
# Poissons Ratio (y) = 0.85108 0.13837
# Poissons Ratio (z) = -0.36219 0.13520
#
# Static dielectric constant tensor:
#      x y z
#    x 1.958950 -0.088620 -0.097020 
#    y -0.088620 2.104030 0.566180 
#    z -0.097020 0.566180 3.632630 
# 
# From -- ./inp_files/45552.got.cif
#   From: 2010.05.17/outbox.cif.g08.bks.cpg/sg2_23_cif.got.tgz:45552.got - 2010.06.03 11:33:40.
