data_PCOD9077795
_publ_section_title
;
Structure prediction by ZEFSAII (Michael W. Deem and Ramdas Pophale) SiO2 
 PCOD9077795
Probable space group: P -1
;
_chemical_formula_sum "Si O2"
_cell_formula_units_Z 13
_cell_length_a 8.982901
_cell_length_b 8.858980
_cell_length_c 9.505083
_cell_angle_alpha 134.452322
_cell_angle_beta 97.403924
_cell_angle_gamma 70.480252
_cell_volume 502.664941
_symmetry_space_group_name_H-M "P -1"
_symmetry_group_IT_number 2
_symmetry_cell_setting 'triclinic'
loop_
_space_group_symop_operation_xyz
x,y,z
-x,-y,-z
loop_
_atom_site_type_symbol
_atom_site_label
_atom_site_fract_x
_atom_site_fract_y
_atom_site_fract_z
Si Si1 0.725821 0.796282 0.826564
Si Si2 0.280524 0.669226 0.486060
Si Si3 0.000247 0.877939 0.772390
Si Si4 0.253027 0.268247 0.665478
Si Si5 0.000000 0.000000 0.500000
Si Si6 0.495606 0.978213 0.705606
Si Si7 0.000725 0.681818 0.003213
O O1 0.655569 0.596298 0.694754
O O2 0.584454 0.003492 0.876455
O O3 0.868823 0.764736 0.707876
O O4 0.827237 0.780242 0.971050
O O5 0.170718 0.715694 0.642211
O O6 0.397088 0.809275 0.600847
O O7 0.153337 0.770840 0.414101
O O8 0.000000 0.000000 0.000000
O O9 0.967954 0.088973 0.792766
O O10 0.367946 0.152592 0.475326
O O11 0.145541 0.532697 0.823704
O O12 0.376254 0.205818 0.771631
O O13 0.126976 0.141207 0.587053
O O14 0.000000 0.500000 0.000000
#
# Coordination Sequence:
#
# PCOD9077795 Si02
#       7
#     2   2   2   2   1   2   2
#     4  11  23  41  68  97 125 171 223 268 319 374
#     4  11  21  39  67  97 127 165 220 267 319 381
#     4  10  24  40  64  95 129 168 216 267 317 385
#     4  10  21  40  64  94 135 162 215 267 322 373
#     4  10  18  34  66  96 114 166 218 266 294 366
#     4  10  23  38  64 101 132 161 212 278 321 378
#     4  11  23  43  67  96 127 170 218 268 322 386
#
# _framework density 25.862158000000001
#
# number of rings (size 3 to 8) (size 9 to 14) (size 15 to 20)
#    0.000    1.538    1.538    3.692    4.308    0.000 
#    0.000    7.692    0.000    0.000    0.000    0.000 
#    0.000    0.000    0.000    0.000    0.000    0.000 
#
# Total GULP energy -72468.035867 kJ/mol
# GULP energy per Si atom -5574.464297 kJ/mol
# Density = 2.580329 g / cm^3
# Si number density = 25.862158 Si / 1000 Ang^3
#
#
#
# Elastic Constant Matrix: (Units=GPa)
#
#
# Indices 1 2 3 4 5 6 
#
# 1 102.6262 31.8396 9.6774 -14.8074 -5.6065 -6.9289
# 2 31.8396 136.0668 17.7603 -10.1931 12.2466 -30.9931
# 3 9.6774 17.7603 70.9352 15.0481 -16.9614 -14.1885
# 4 -14.8074 -10.1931 15.0481 36.9774 2.5084 6.6892
# 5 -5.6065 12.2466 -16.9614 2.5084 24.0738 -10.8014
# 6 -6.9289 -30.9931 -14.1885 6.6892 -10.8014 76.4598
#
#
#
# Elastic Compliance Matrix: (Units=1/GPa)
#
#
# Indices 1 2 3 4 5 6 
#
# 1 0.011359 -0.002432 -0.001331 0.004302 0.002388 -0.000242
# 2 -0.002432 0.009975 -0.004945 0.004168 -0.008989 0.001271
# 3 -0.001331 -0.004945 0.026815 -0.016039 0.026348 0.007976
# 4 0.004302 0.004168 -0.016039 0.039059 -0.019671 -0.007093
# 5 0.002388 -0.008989 0.026348 -0.019671 0.073359 0.013547
# 6 -0.000242 0.001271 0.007976 -0.007093 0.013547 0.017586
#
#
# Mechanical properties :
#
#
# Convention : Reuss Voigt Hill
#
# Bulk Modulus (GPa) = 32.53817 47.57587 40.05702
# Shear Modulus (GPa) = 24.29387 44.19227 34.24307
#
# Velocity S-wave (km/s) = 3.06822 4.13820 3.64271
# Velocity P-wave (km/s) = 5.01604 6.42408 5.76322
#
# Compressibility (1/GPa) = 0.03073313
#
# Stress axis : x y z
#
# Youngs Moduli (GPa) = 88.03657 100.25482 37.29259
#
# Poissons Ratio (x) = 0.24384 0.04962
# Poissons Ratio (y) = 0.21412 0.18440
# Poissons Ratio (z) = 0.11715 0.49574
#
# Static dielectric constant tensor:
#      x y z
#    x 1.989660 0.021980 -0.015380 
#    y 0.021980 2.099300 -0.062130 
#    z -0.015380 -0.062130 2.026060 
# 
# From -- ./inp_files/380639.got.cif
#   From: 2010.05.17/outbox.cif.g08.bks.cpg/sg2_191_cif.got.tgz:380639.got - 2010.06.03 11:33:40.
