data_PCOD9077021
_publ_section_title
;
Structure prediction by ZEFSAII (Michael W. Deem and Ramdas Pophale) SiO2 
 PCOD9077021
Probable space group: P -1
;
_chemical_formula_sum "Si O2"
_cell_formula_units_Z 16
_cell_length_a 9.351600
_cell_length_b 10.250424
_cell_length_c 9.520613
_cell_angle_alpha 109.196966
_cell_angle_beta 77.419546
_cell_angle_gamma 128.617261
_cell_volume 673.315220
_symmetry_space_group_name_H-M "P -1"
_symmetry_group_IT_number 2
_symmetry_cell_setting 'triclinic'
loop_
_space_group_symop_operation_xyz
x,y,z
-x,-y,-z
loop_
_atom_site_type_symbol
_atom_site_label
_atom_site_fract_x
_atom_site_fract_y
_atom_site_fract_z
Si Si1 0.676216 0.237268 0.501525
Si Si2 0.798152 0.611302 0.671635
Si Si3 0.690791 0.789001 0.914295
Si Si4 0.367176 0.968979 0.306232
Si Si5 0.964926 0.624208 0.922775
Si Si6 0.910280 0.107381 0.455976
Si Si7 0.074325 0.126928 0.832278
Si Si8 0.683436 0.264290 0.991318
O O1 0.761867 0.434035 0.576363
O O2 0.592852 0.138394 0.634018
O O3 0.809793 0.182210 0.428057
O O4 0.525860 0.161334 0.385723
O O5 0.646312 0.622510 0.779461
O O6 0.881535 0.736307 0.563860
O O7 0.932523 0.682995 0.804687
O O8 0.872353 0.957945 0.863126
O O9 0.504036 0.767126 0.946979
O O10 0.766294 0.813425 0.065151
O O11 0.363961 0.907360 0.132250
O O12 0.175390 0.925209 0.383404
O O13 0.808266 0.421924 0.909060
O O14 0.943422 0.717887 0.091489
O O15 0.167647 0.676518 0.898763
O O16 0.873224 0.938105 0.335196
#
# Coordination Sequence:
#
# PCOD9077021 Si02
#       8
#     2   2   2   2   2   2   2   2
#     4   9  17  30  51  80 103 132 171 220 260 301
#     4  10  18  34  54  86  99 132 178 218 269 303
#     4   9  20  32  55  76 111 134 174 227 258 308
#     4   9  19  31  50  77 103 138 170 218 257 306
#     4  10  22  34  54  76 113 142 174 211 263 327
#     4   9  17  30  54  75 106 127 169 225 255 301
#     4   9  18  35  51  82 101 139 179 217 266 303
#     4  11  21  38  50  79 112 145 172 210 266 324
#
# _framework density 23.763017000000001
#
# number of rings (size 3 to 8) (size 9 to 14) (size 15 to 20)
#    0.750    1.750    1.250    1.875    0.000    3.500 
#    0.000    0.625    0.000    1.500    0.000   18.375 
#    0.000    0.000    0.000    0.000    0.000    0.000 
#
# Total GULP energy -89203.245294 kJ/mol
# GULP energy per Si atom -5575.202831 kJ/mol
# Density = 2.370893 g / cm^3
# Si number density = 23.763017 Si / 1000 Ang^3
#
#
#
# Elastic Constant Matrix: (Units=GPa)
#
#
# Indices 1 2 3 4 5 6 
#
# 1 143.4131 30.9329 52.5011 2.7561 -25.1978 22.8727
# 2 30.9329 36.2986 25.6171 10.6383 -0.2431 -0.6776
# 3 52.5011 25.6171 74.1541 12.6263 -22.9397 13.0825
# 4 2.7561 10.6383 12.6263 35.1255 -1.7335 -4.0911
# 5 -25.1978 -0.2431 -22.9397 -1.7335 24.8602 -2.0556
# 6 22.8727 -0.6776 13.0825 -4.0911 -2.0556 27.5158
#
#
#
# Elastic Compliance Matrix: (Units=1/GPa)
#
#
# Indices 1 2 3 4 5 6 
#
# 1 0.013431 -0.012317 0.000242 0.002031 0.013006 -0.010310
# 2 -0.012317 0.056330 -0.022674 -0.007306 -0.031799 0.018945
# 3 0.000242 -0.022674 0.034096 -0.005755 0.029795 -0.015601
# 4 0.002031 -0.007306 -0.005755 0.033237 -0.000529 0.005771
# 5 0.013006 -0.031799 0.029795 -0.000529 0.078903 -0.019944
# 6 -0.010310 0.018945 -0.015601 0.005771 -0.019944 0.052165
#
#
# Mechanical properties :
#
#
# Convention : Reuss Voigt Hill
#
# Bulk Modulus (GPa) = 29.10492 52.44088 40.77290
# Shear Modulus (GPa) = 14.32195 27.15462 20.73828
#
# Velocity S-wave (km/s) = 2.45766 3.38409 2.95738
# Velocity P-wave (km/s) = 4.50866 6.11438 5.37185
#
# Compressibility (1/GPa) = 0.03435845
#
# Stress axis : x y z
#
# Youngs Moduli (GPa) = 74.45273 17.75261 29.32887
#
# Poissons Ratio (x) = 0.21867 -0.00711
# Poissons Ratio (y) = 0.91706 0.66501
# Poissons Ratio (z) = -0.01804 0.40253
#
# Static dielectric constant tensor:
#      x y z
#    x 1.936630 -0.012360 0.010360 
#    y -0.012360 1.952980 -0.029860 
#    z 0.010360 -0.029860 1.909980 
# 
# From -- ./inp_files/391049.got.cif
#   From: 2010.05.17/outbox.cif.g08.bks.cpg/sg2_196_cif.got.tgz:391049.got - 2010.06.03 11:33:40.
