data_PCOD9077834
_publ_section_title
;
Structure prediction by ZEFSAII (Michael W. Deem and Ramdas Pophale) SiO2 
 PCOD9077834
Probable space group: P -1
;
_chemical_formula_sum "Si O2"
_cell_formula_units_Z 16
_cell_length_a 22.896698
_cell_length_b 7.913979
_cell_length_c 14.227986
_cell_angle_alpha 111.836907
_cell_angle_beta 160.091608
_cell_angle_gamma 77.432981
_cell_volume 740.271353
_symmetry_space_group_name_H-M "P -1"
_symmetry_group_IT_number 2
_symmetry_cell_setting 'triclinic'
loop_
_space_group_symop_operation_xyz
x,y,z
-x,-y,-z
loop_
_atom_site_type_symbol
_atom_site_label
_atom_site_fract_x
_atom_site_fract_y
_atom_site_fract_z
Si Si1 0.671688 0.047698 0.695265
Si Si2 0.912504 0.203903 0.361194
Si Si3 0.548021 0.212367 0.852528
Si Si4 0.320005 0.345111 0.318873
Si Si5 0.755851 0.482684 0.949705
Si Si6 0.665284 0.184679 0.238264
Si Si7 0.181676 0.072940 0.662757
Si Si8 0.414068 0.558289 0.685338
O O1 0.755704 0.887672 0.815484
O O2 0.500000 0.000000 0.500000
O O3 0.784544 0.284954 0.923860
O O4 0.590331 0.985505 0.453520
O O5 0.744570 0.270469 0.105112
O O6 0.013621 0.143517 0.417448
O O7 0.825023 0.010298 0.258074
O O8 0.078830 0.376044 0.704304
O O9 0.596146 0.197844 0.030872
O O10 0.464381 0.376051 0.754338
O O11 0.548303 0.417607 0.667983
O O12 0.249560 0.393364 0.124869
O O13 0.299198 0.480570 0.399332
O O14 0.692639 0.374166 0.382132
O O15 0.830330 0.109768 0.459154
O O16 0.500000 0.000000 0.000000
O O17 0.383788 0.255850 0.990031
#
# Coordination Sequence:
#
# PCOD9077834 Si02
#       8
#     2   2   2   2   2   2   2   2
#     4   9  20  35  51  82 114 143 190 226 275 339
#     4  10  20  34  52  83 117 145 180 220 295 347
#     4  10  21  35  56  84 115 145 176 237 286 333
#     4   9  19  32  53  78 109 145 195 226 275 325
#     4  10  19  33  55  74 116 152 179 228 279 338
#     4   9  19  32  56  79 106 142 194 235 267 317
#     4   9  19  32  50  77 111 140 181 227 271 333
#     4  10  18  35  53  84 108 142 193 235 273 322
#
# _framework density 21.613696000000001
#
# number of rings (size 3 to 8) (size 9 to 14) (size 15 to 20)
#    0.000    2.500    1.250    0.375    5.250    4.500 
#    2.250    0.000    0.000    3.000    0.000    9.625 
#    0.000    0.000    0.000    0.000    0.000    0.000 
#
# Total GULP energy -89310.233347 kJ/mol
# GULP energy per Si atom -5581.889584 kJ/mol
# Density = 2.156450 g / cm^3
# Si number density = 21.613696 Si / 1000 Ang^3
#
#
#
# Elastic Constant Matrix: (Units=GPa)
#
#
# Indices 1 2 3 4 5 6 
#
# 1 94.5618 46.5478 22.9071 2.8590 -19.4011 -34.1026
# 2 46.5478 113.7873 31.0069 9.1141 -12.9549 -34.9669
# 3 22.9071 31.0069 64.9876 12.4448 -17.2651 -10.3979
# 4 2.8590 9.1141 12.4448 25.5786 -5.7658 -0.8496
# 5 -19.4011 -12.9549 -17.2651 -5.7658 27.7693 5.1261
# 6 -34.1026 -34.9669 -10.3979 -0.8496 5.1261 50.7974
#
#
#
# Elastic Compliance Matrix: (Units=1/GPa)
#
#
# Indices 1 2 3 4 5 6 
#
# 1 0.017163 -0.003377 -0.001268 0.002102 0.008567 0.008109
# 2 -0.003377 0.013217 -0.003731 -0.002342 -0.000114 0.006040
# 3 -0.001268 -0.003731 0.021369 -0.006842 0.009256 -0.000094
# 4 0.002102 -0.002342 -0.006842 0.044232 0.005569 -0.001423
# 5 0.008567 -0.000114 0.009256 0.005569 0.048341 0.002782
# 6 0.008109 0.006040 -0.000094 -0.001423 0.002782 0.028964
#
#
# Mechanical properties :
#
#
# Convention : Reuss Voigt Hill
#
# Bulk Modulus (GPa) = 28.57364 52.69557 40.63460
# Shear Modulus (GPa) = 24.78904 32.35405 28.57154
#
# Velocity S-wave (km/s) = 3.39029 3.87321 3.63976
# Velocity P-wave (km/s) = 5.34549 6.66602 6.04194
#
# Compressibility (1/GPa) = 0.03499729
#
# Stress axis : x y z
#
# Youngs Moduli (GPa) = 58.26535 75.66008 46.79678
#
# Poissons Ratio (x) = 0.25547 0.05933
# Poissons Ratio (y) = 0.19674 0.17462
# Poissons Ratio (z) = 0.07387 0.28232
#
# Static dielectric constant tensor:
#      x y z
#    x 1.822630 -0.006480 -0.010950 
#    y -0.006480 1.845760 -0.016870 
#    z -0.010950 -0.016870 1.784720 
# 
# From -- ./inp_files/217323.got.cif
#   From: 2010.05.17/outbox.cif.g08.bks.cpg/sg2_109_cif.got.tgz:217323.got - 2010.06.03 11:33:40.
