data_PCOD9077818
_publ_section_title
;
Structure prediction by ZEFSAII (Michael W. Deem and Ramdas Pophale) SiO2 
 PCOD9077818
Probable space group: P -1
;
_chemical_formula_sum "Si O2"
_cell_formula_units_Z 14
_cell_length_a 10.988226
_cell_length_b 7.151841
_cell_length_c 9.271339
_cell_angle_alpha 46.727451
_cell_angle_beta 95.150095
_cell_angle_gamma 90.164668
_cell_volume 526.620076
_symmetry_space_group_name_H-M "P -1"
_symmetry_group_IT_number 2
_symmetry_cell_setting 'triclinic'
loop_
_space_group_symop_operation_xyz
x,y,z
-x,-y,-z
loop_
_atom_site_type_symbol
_atom_site_label
_atom_site_fract_x
_atom_site_fract_y
_atom_site_fract_z
Si Si1 0.508270 0.685289 0.038980
Si Si2 0.914219 0.853566 0.176170
Si Si3 0.416041 0.169048 0.594061
Si Si4 0.035337 0.364926 0.388609
Si Si5 0.654848 0.397452 0.418625
Si Si6 0.752298 0.357937 0.875537
Si Si7 0.216533 0.109082 0.362783
O O1 0.634748 0.596582 0.178418
O O2 0.391918 0.661521 0.145869
O O3 0.500000 0.500000 0.000000
O O4 0.479543 0.965445 0.820425
O O5 0.958463 0.770387 0.384962
O O6 0.916110 0.566660 0.256674
O O7 0.803160 0.070230 0.075311
O O8 0.000000 0.000000 0.000000
O O9 0.531807 0.244672 0.474969
O O10 0.359152 0.413652 0.547803
O O11 0.308542 0.078333 0.528298
O O12 0.150888 0.548038 0.282280
O O13 0.077540 0.169049 0.369019
O O14 0.757865 0.161394 0.569796
O O15 0.755494 0.612258 0.846800
#
# Coordination Sequence:
#
# PCOD9077818 Si02
#       7
#     2   2   2   2   2   2   2
#     4  12  21  33  55  76 107 146 183 224 264 314
#     4   9  15  29  48  82 110 130 175 229 260 326
#     4  11  22  35  54  73 110 147 185 224 264 316
#     4   8  17  29  51  77 109 136 175 220 272 317
#     4  11  22  37  50  77 110 144 186 224 266 316
#     4   9  19  29  51  77 107 139 181 215 269 319
#     4  10  18  35  52  76 107 142 174 219 270 316
#
# _framework density 26.584631999999999
#
# number of rings (size 3 to 8) (size 9 to 14) (size 15 to 20)
#    0.857    1.143    2.857    2.571    0.000    0.000 
#    0.000    0.000    0.000    0.000    0.000   13.000 
#    0.000    0.000    0.000    0.000    0.000    0.000 
#
# Total GULP energy -78001.305813 kJ/mol
# GULP energy per Si atom -5571.521844 kJ/mol
# Density = 2.652412 g / cm^3
# Si number density = 26.584632 Si / 1000 Ang^3
#
#
#
# Elastic Constant Matrix: (Units=GPa)
#
#
# Indices 1 2 3 4 5 6 
#
# 1 76.1208 24.2796 51.3133 -24.0002 8.7559 -6.0452
# 2 24.2796 157.2960 45.8714 -47.3157 27.7568 -38.1298
# 3 51.3133 45.8714 151.9038 -35.5148 16.3859 -36.8729
# 4 -24.0002 -47.3157 -35.5148 61.6016 -20.4575 21.5583
# 5 8.7559 27.7568 16.3859 -20.4575 35.5596 -18.5553
# 6 -6.0452 -38.1298 -36.8729 21.5583 -18.5553 35.1437
#
#
#
# Elastic Compliance Matrix: (Units=1/GPa)
#
#
# Indices 1 2 3 4 5 6 
#
# 1 0.019532 -0.001390 -0.007190 0.005046 -0.002889 -0.010314
# 2 -0.001390 0.009744 0.000494 0.004169 -0.001056 0.007735
# 3 -0.007190 0.000494 0.011862 0.000985 0.003173 0.012815
# 4 0.005046 0.004169 0.000985 0.026446 0.007110 -0.006044
# 5 -0.002889 -0.001056 0.003173 0.007110 0.042637 0.019837
# 6 -0.010314 0.007735 0.012815 -0.006044 0.019837 0.062699
#
#
# Mechanical properties :
#
#
# Convention : Reuss Voigt Hill
#
# Bulk Modulus (GPa) = 40.05849 69.80545 54.93197
# Shear Modulus (GPa) = 25.32760 44.05139 34.68949
#
# Velocity S-wave (km/s) = 3.08996 4.07507 3.61622
# Velocity P-wave (km/s) = 5.27555 6.96107 6.17608
#
# Compressibility (1/GPa) = 0.02496350
#
# Stress axis : x y z
#
# Youngs Moduli (GPa) = 51.19901 102.63109 84.30554
#
# Poissons Ratio (x) = 0.14269 0.60615
# Poissons Ratio (y) = 0.07118 -0.04161
# Poissons Ratio (z) = 0.36812 -0.05066
#
# Static dielectric constant tensor:
#      x y z
#    x 2.130220 -0.037680 -0.023030 
#    y -0.037680 2.141090 -0.069530 
#    z -0.023030 -0.069530 2.217960 
# 
# From -- ./inp_files/443902.got.cif
#   From: 2010.05.17/outbox.cif.g08.bks.cpg/sg2_222_cif.got.tgz:443902.got - 2010.06.03 11:33:40.
