data_PCOD9077292
_publ_section_title
;
Structure prediction by ZEFSAII (Michael W. Deem and Ramdas Pophale) SiO2 
 PCOD9077292
Probable space group: P -1
;
_chemical_formula_sum "Si O2"
_cell_formula_units_Z 14
_cell_length_a 8.739313
_cell_length_b 8.803091
_cell_length_c 10.688484
_cell_angle_alpha 77.146084
_cell_angle_beta 93.469464
_cell_angle_gamma 48.942259
_cell_volume 580.141722
_symmetry_space_group_name_H-M "P -1"
_symmetry_group_IT_number 2
_symmetry_cell_setting 'triclinic'
loop_
_space_group_symop_operation_xyz
x,y,z
-x,-y,-z
loop_
_atom_site_type_symbol
_atom_site_label
_atom_site_fract_x
_atom_site_fract_y
_atom_site_fract_z
Si Si1 0.709289 0.121326 0.411402
Si Si2 0.133338 0.032363 0.270913
Si Si3 0.453654 0.084319 0.270514
Si Si4 0.983969 0.844796 0.225784
Si Si5 0.554888 0.139525 0.019460
Si Si6 0.711314 0.437877 0.229486
Si Si7 0.894757 0.596507 0.345252
O O1 0.643316 0.343239 0.332206
O O2 0.816994 0.035363 0.567367
O O3 0.512251 0.139618 0.387835
O O4 0.870447 0.954088 0.338235
O O5 0.889298 0.237349 0.186141
O O6 0.266588 0.093717 0.242456
O O7 0.167343 0.844701 0.235293
O O8 0.660748 0.832565 0.302421
O O9 0.448566 0.217712 0.137233
O O10 0.031553 0.627410 0.269971
O O11 0.803633 0.986745 0.085269
O O12 0.457100 0.340233 0.891456
O O13 0.500000 0.000000 0.000000
O O14 0.857150 0.457184 0.308314
O O15 0.000000 0.500000 0.500000
#
# Coordination Sequence:
#
# PCOD9077292 Si02
#       7
#     2   2   2   2   2   2   2
#     4   9  19  35  55  83 112 145 183 221 276 337
#     4  11  21  36  55  87 119 138 178 238 288 317
#     4  10  22  37  56  81 119 147 172 240 283 313
#     4   9  19  34  56  80 110 149 182 228 269 329
#     4  10  19  39  59  77 110 147 199 221 263 331
#     4  11  19  34  64  79 104 152 189 226 264 333
#     4  10  18  34  58  81 103 149 195 214 266 337
#
# _framework density 24.132033
#
# number of rings (size 3 to 8) (size 9 to 14) (size 15 to 20)
#    0.000    2.286    2.857    4.714    0.000    5.714 
#    0.000    5.000    0.000    0.000    0.000    0.000 
#    0.000    0.000    0.000    0.000    0.000    0.000 
#
# Total GULP energy -78096.891783 kJ/mol
# GULP energy per Si atom -5578.349413 kJ/mol
# Density = 2.407711 g / cm^3
# Si number density = 24.132033 Si / 1000 Ang^3
#
#
#
# Elastic Constant Matrix: (Units=GPa)
#
#
# Indices 1 2 3 4 5 6 
#
# 1 122.3341 25.7634 28.4239 -8.2559 0.6812 40.3708
# 2 25.7634 54.9184 18.2925 -17.4035 -1.8040 27.9247
# 3 28.4239 18.2925 128.2921 -30.0657 3.4601 5.7514
# 4 -8.2559 -17.4035 -30.0657 36.7616 15.4182 2.2727
# 5 0.6812 -1.8040 3.4601 15.4182 33.9807 0.8299
# 6 40.3708 27.9247 5.7514 2.2727 0.8299 53.7362
#
#
#
# Elastic Compliance Matrix: (Units=1/GPa)
#
#
# Indices 1 2 3 4 5 6 
#
# 1 0.011533 0.000251 -0.001648 0.002261 -0.000864 -0.008701
# 2 0.000251 0.033625 0.001158 0.021221 -0.007513 -0.018567
# 3 -0.001648 0.001158 0.011006 0.011929 -0.006415 -0.000947
# 4 0.002261 0.021221 0.011929 0.059775 -0.026862 -0.016117
# 5 -0.000864 -0.007513 -0.006415 -0.026862 0.041748 0.005731
# 6 -0.008701 -0.018567 -0.000947 -0.016117 0.005731 0.035490
#
#
# Mechanical properties :
#
#
# Convention : Reuss Voigt Hill
#
# Bulk Modulus (GPa) = 17.95775 50.05602 34.00688
# Shear Modulus (GPa) = 23.56100 40.43335 31.99718
#
# Velocity S-wave (km/s) = 3.12803 4.09773 3.64527
# Velocity P-wave (km/s) = 4.52810 6.57086 5.64269
#
# Compressibility (1/GPa) = 0.05568628
#
# Stress axis : x y z
#
# Youngs Moduli (GPa) = 86.70705 29.74021 90.86268
#
# Poissons Ratio (x) = -0.00746 0.14971
# Poissons Ratio (y) = -0.02175 -0.10525
# Poissons Ratio (z) = 0.14286 -0.03445
#
# Static dielectric constant tensor:
#      x y z
#    x 2.057690 0.009560 -0.045490 
#    y 0.009560 2.040650 0.034850 
#    z -0.045490 0.034850 1.936010 
# 
# From -- ./inp_files/175441.got.cif
#   From: 2010.05.17/outbox.cif.g08.bks.cpg/sg2_88_cif.got.tgz:175441.got - 2010.06.03 11:33:40.
