data_PCOD9077329
_publ_section_title
;
Structure prediction by ZEFSAII (Michael W. Deem and Ramdas Pophale) SiO2 
 PCOD9077329
Probable space group: P -1
;
_chemical_formula_sum "Si O2"
_cell_formula_units_Z 16
_cell_length_a 9.300880
_cell_length_b 11.126658
_cell_length_c 11.797693
_cell_angle_alpha 55.875239
_cell_angle_beta 60.985474
_cell_angle_gamma 36.019627
_cell_volume 593.123615
_symmetry_space_group_name_H-M "P -1"
_symmetry_group_IT_number 2
_symmetry_cell_setting 'triclinic'
loop_
_space_group_symop_operation_xyz
x,y,z
-x,-y,-z
loop_
_atom_site_type_symbol
_atom_site_label
_atom_site_fract_x
_atom_site_fract_y
_atom_site_fract_z
Si Si1 0.570404 0.301446 0.133484
Si Si2 0.545041 0.689708 0.428648
Si Si3 0.421857 0.013771 0.702037
Si Si4 0.240761 0.154027 0.953754
Si Si5 0.757078 0.152740 0.913175
Si Si6 0.037859 0.765132 0.383063
Si Si7 0.829055 0.185358 0.331747
Si Si8 0.253262 0.449437 0.825985
O O1 0.658888 0.273801 0.239675
O O2 0.431398 0.235929 0.224119
O O3 0.500000 0.500000 0.000000
O O4 0.780796 0.127753 0.052843
O O5 0.463216 0.902267 0.392990
O O6 0.802022 0.465573 0.500888
O O7 0.346522 0.714501 0.545938
O O8 0.584827 0.660605 0.294183
O O9 0.290406 0.116042 0.820791
O O10 0.219480 0.127089 0.621398
O O11 0.111526 0.388909 0.909594
O O12 0.500000 0.000000 0.000000
O O13 0.133191 0.066578 0.067809
O O14 0.829996 0.250734 0.769286
O O15 0.461820 0.325521 0.908877
O O16 0.001255 0.932061 0.387314
O O17 0.912955 0.298099 0.243177
#
# Coordination Sequence:
#
# PCOD9077329 Si02
#       8
#     2   2   2   2   2   2   2   2
#     4  10  18  34  58  86 116 141 187 241 287 343
#     4  11  22  42  59  80 124 159 193 243 287 339
#     4   9  21  35  58  87 114 155 196 236 293 347
#     4   8  17  33  60  85 112 155 195 234 289 354
#     4  10  19  37  60  86 117 154 191 240 302 338
#     4  11  23  37  60  89 117 154 196 244 290 343
#     4  11  23  36  60  93 113 155 200 236 292 352
#     4  10  19  38  61  84 115 158 197 235 291 350
#
# _framework density 26.975826999999999
#
# number of rings (size 3 to 8) (size 9 to 14) (size 15 to 20)
#    0.000    2.000    2.500    0.750    0.000    7.000 
#    0.000    1.875    0.000    0.000    0.000    0.000 
#    0.000    0.000    0.000    0.000    0.000    0.000 
#
# Total GULP energy -89396.067657 kJ/mol
# GULP energy per Si atom -5587.254229 kJ/mol
# Density = 2.691443 g / cm^3
# Si number density = 26.975827 Si / 1000 Ang^3
#
#
#
# Elastic Constant Matrix: (Units=GPa)
#
#
# Indices 1 2 3 4 5 6 
#
# 1 86.8170 34.7460 26.7959 -24.1069 2.7935 37.9632
# 2 34.7460 97.8520 30.9075 -19.0181 0.7430 41.5933
# 3 26.7959 30.9075 100.4549 -19.6726 15.0954 14.0044
# 4 -24.1069 -19.0181 -19.6726 52.6290 24.4281 -16.1589
# 5 2.7935 0.7430 15.0954 24.4281 52.9797 -16.7612
# 6 37.9632 41.5933 14.0044 -16.1589 -16.7612 51.7620
#
#
#
# Elastic Compliance Matrix: (Units=1/GPa)
#
#
# Indices 1 2 3 4 5 6 
#
# 1 0.022140 0.002232 -0.000088 0.010804 -0.012016 -0.018526
# 2 0.002232 0.018061 -0.001655 0.005399 -0.007602 -0.016478
# 3 -0.000088 -0.001655 0.013482 0.007330 -0.008002 -0.002555
# 4 0.010804 0.005399 0.007330 0.035948 -0.022579 -0.010335
# 5 -0.012016 -0.007602 -0.008002 -0.022579 0.039531 0.022839
# 6 -0.018526 -0.016478 -0.002555 -0.010335 0.022839 0.051008
#
#
# Mechanical properties :
#
#
# Convention : Reuss Voigt Hill
#
# Bulk Modulus (GPa) = 18.29503 52.22475 35.25989
# Shear Modulus (GPa) = 25.32753 44.31911 34.82332
#
# Velocity S-wave (km/s) = 3.06747 4.05769 3.59682
# Velocity P-wave (km/s) = 4.39802 6.43079 5.50897
#
# Compressibility (1/GPa) = 0.05465964
#
# Stress axis : x y z
#
# Youngs Moduli (GPa) = 45.16709 55.36688 74.17411
#
# Poissons Ratio (x) = -0.12357 0.00655
# Poissons Ratio (y) = -0.10081 0.12279
# Poissons Ratio (z) = 0.00399 0.09165
#
# Static dielectric constant tensor:
#      x y z
#    x 2.101360 -0.008100 -0.044070 
#    y -0.008100 2.246780 -0.059730 
#    z -0.044070 -0.059730 2.129520 
# 
# From -- ./inp_files/427525.got.cif
#   From: 2010.05.17/outbox.cif.g08.bks.cpg/sg2_214_cif.got.tgz:427525.got - 2010.06.03 11:33:40.
