data_PCOD9077876
_publ_section_title
;
Structure prediction by ZEFSAII (Michael W. Deem and Ramdas Pophale) SiO2 
 PCOD9077876
Probable space group: P -1
;
_chemical_formula_sum "Si O2"
_cell_formula_units_Z 16
_cell_length_a 10.683691
_cell_length_b 14.620531
_cell_length_c 16.082091
_cell_angle_alpha 25.251092
_cell_angle_beta 123.629875
_cell_angle_gamma 132.345739
_cell_volume 779.686174
_symmetry_space_group_name_H-M "P -1"
_symmetry_group_IT_number 2
_symmetry_cell_setting 'triclinic'
loop_
_space_group_symop_operation_xyz
x,y,z
-x,-y,-z
loop_
_atom_site_type_symbol
_atom_site_label
_atom_site_fract_x
_atom_site_fract_y
_atom_site_fract_z
Si Si1 0.877301 0.491675 0.336345
Si Si2 0.271020 0.418056 0.413901
Si Si3 0.911082 0.151993 0.213560
Si Si4 0.328100 0.280336 0.711840
Si Si5 0.127676 0.908234 0.215704
Si Si6 0.783114 0.518172 0.839395
Si Si7 0.603519 0.619199 0.157894
Si Si8 0.033231 0.785365 0.004428
O O1 0.850636 0.257779 0.570243
O O2 0.692633 0.476869 0.264818
O O3 0.001961 0.727230 0.246604
O O4 0.972289 0.549640 0.234354
O O5 0.235483 0.380371 0.531232
O O6 0.473708 0.605755 0.332417
O O7 0.203094 0.496002 0.243996
O O8 0.215798 0.136971 0.599923
O O9 0.057424 0.239014 0.265171
O O10 0.007217 0.243164 0.084488
O O11 0.804296 0.295697 0.067794
O O12 0.330265 0.361335 0.739440
O O13 0.234559 0.986172 0.917043
O O14 0.049232 0.062405 0.105750
O O15 0.303310 0.109912 0.071079
O O16 0.600496 0.493140 0.818354
#
# Coordination Sequence:
#
# PCOD9077876 Si02
#       8
#     2   2   2   2   2   2   2   2
#     4  10  19  33  56  82 112 146 175 213 277 336
#     4   9  19  34  54  76 111 143 174 228 268 315
#     4  10  22  39  57  78 106 149 193 225 267 317
#     4   9  16  31  52  80 112 135 173 215 269 330
#     4  10  19  33  56  82 112 146 175 213 277 336
#     4  10  22  39  57  78 106 149 193 225 267 317
#     4  10  18  35  55  79 117 140 176 230 266 323
#     4  10  18  35  55  79 117 140 176 230 266 323
#
# _framework density 20.521076000000001
#
# number of rings (size 3 to 8) (size 9 to 14) (size 15 to 20)
#    0.000    2.250    2.500    1.125    0.000    4.000 
#    0.000   18.125    0.000    1.500    0.000    0.000 
#    0.000    0.000    0.000    0.000    0.000    0.000 
#
# Total GULP energy -89146.359583 kJ/mol
# GULP energy per Si atom -5571.647474 kJ/mol
# Density = 2.047437 g / cm^3
# Si number density = 20.521076 Si / 1000 Ang^3
#
#
#
# Elastic Constant Matrix: (Units=GPa)
#
#
# Indices 1 2 3 4 5 6 
#
# 1 69.4631 32.6065 36.0833 7.4323 -18.0649 13.8310
# 2 32.6065 82.6960 25.9655 19.3465 -1.6904 11.3089
# 3 36.0833 25.9655 111.4553 9.5566 -16.1335 19.3398
# 4 7.4323 19.3465 9.5566 25.9089 -7.0504 1.0164
# 5 -18.0649 -1.6904 -16.1335 -7.0504 29.9137 4.6688
# 6 13.8310 11.3089 19.3398 1.0164 4.6688 19.9789
#
#
#
# Elastic Compliance Matrix: (Units=1/GPa)
#
#
# Indices 1 2 3 4 5 6 
#
# 1 0.026965 -0.008642 -0.001469 0.005057 0.018852 -0.017017
# 2 -0.008642 0.019035 -0.001513 -0.013316 -0.007975 -0.000786
# 3 -0.001469 -0.001513 0.013230 -0.000650 0.008003 -0.012771
# 4 0.005057 -0.013316 -0.000650 0.051250 0.014227 -0.001266
# 5 0.018852 -0.007975 0.008003 0.014227 0.056758 -0.030271
# 6 -0.017017 -0.000786 -0.012771 -0.001266 -0.030271 0.081780
#
#
# Mechanical properties :
#
#
# Convention : Reuss Voigt Hill
#
# Bulk Modulus (GPa) = 27.79020 50.32499 39.05759
# Shear Modulus (GPa) = 17.58959 26.42424 22.00691
#
# Velocity S-wave (km/s) = 2.93088 3.59230 3.27831
# Velocity P-wave (km/s) = 5.00251 6.46397 5.77962
#
# Compressibility (1/GPa) = 0.03598391
#
# Stress axis : x y z
#
# Youngs Moduli (GPa) = 37.08455 52.53605 75.58307
#
# Poissons Ratio (x) = 0.45400 0.11101
# Poissons Ratio (y) = 0.32047 0.11435
# Poissons Ratio (z) = 0.05446 0.07948
#
# Static dielectric constant tensor:
#      x y z
#    x 1.795730 -0.010470 -0.004440 
#    y -0.010470 1.717350 0.020660 
#    z -0.004440 0.020660 1.789580 
# 
# From -- ./inp_files/454973.got.cif
#   From: 2010.05.17/outbox.cif.g08.bks.cpg/sg2_228_cif.got.tgz:454973.got - 2010.06.03 11:33:40.
