data_PCOD9077516
_publ_section_title
;
Structure prediction by ZEFSAII (Michael W. Deem and Ramdas Pophale) SiO2 
 PCOD9077516
Probable space group: P -1
;
_chemical_formula_sum "Si O2"
_cell_formula_units_Z 16
_cell_length_a 21.047201
_cell_length_b 5.268043
_cell_length_c 8.697075
_cell_angle_alpha 67.138936
_cell_angle_beta 136.685895
_cell_angle_gamma 106.498603
_cell_volume 609.551012
_symmetry_space_group_name_H-M "P -1"
_symmetry_group_IT_number 2
_symmetry_cell_setting 'triclinic'
loop_
_space_group_symop_operation_xyz
x,y,z
-x,-y,-z
loop_
_atom_site_type_symbol
_atom_site_label
_atom_site_fract_x
_atom_site_fract_y
_atom_site_fract_z
Si Si1 0.630478 0.997613 0.386399
Si Si2 0.234830 0.744046 0.240721
Si Si3 0.927078 0.862094 0.203026
Si Si4 0.044967 0.530716 0.907224
Si Si5 0.730437 0.868052 0.278732
Si Si6 0.456417 0.980556 0.252239
Si Si7 0.814474 0.464424 0.301796
Si Si8 0.653695 0.494401 0.774308
O O1 0.672601 0.877119 0.333651
O O2 0.525764 0.088828 0.215550
O O3 0.636100 0.761539 0.581336
O O4 0.698920 0.240184 0.501546
O O5 0.156170 0.513903 0.134263
O O6 0.301638 0.717546 0.219685
O O7 0.170216 0.013621 0.061174
O O8 0.981295 0.715390 0.194620
O O9 0.970582 0.157395 0.258328
O O10 0.898830 0.620085 0.327420
O O11 0.000000 0.500000 0.000000
O O12 0.794821 0.619964 0.390195
O O13 0.800811 0.133654 0.352755
O O14 0.644610 0.896134 0.998886
O O15 0.432719 0.656707 0.264439
O O16 0.500000 0.000000 0.500000
O O17 0.729228 0.540329 0.023784
#
# Coordination Sequence:
#
# PCOD9077516 Si02
#       8
#     2   2   2   2   2   2   2   2
#     4  12  23  39  55  89 121 158 198 256 308 349
#     4  10  20  34  62  85 121 153 197 242 297 352
#     4  10  18  34  60  87 120 154 194 241 287 354
#     4  10  19  32  56  99 128 145 183 251 305 339
#     4  11  27  38  59  85 125 154 205 253 302 347
#     4  11  22  39  61  83 114 161 208 252 300 357
#     4  11  20  42  60  86 113 161 204 244 285 358
#     4  11  20  38  63  83 113 158 211 246 296 357
#
# _framework density 26.248826999999999
#
# number of rings (size 3 to 8) (size 9 to 14) (size 15 to 20)
#    0.750    0.500    3.750    4.125    1.750    1.000 
#    0.000    3.750    0.000    0.000    0.000    5.250 
#    0.000    0.000    0.000    0.000    0.000    0.000 
#
# Total GULP energy -89280.985769 kJ/mol
# GULP energy per Si atom -5580.061611 kJ/mol
# Density = 2.618908 g / cm^3
# Si number density = 26.248827 Si / 1000 Ang^3
#
#
#
# Elastic Constant Matrix: (Units=GPa)
#
#
# Indices 1 2 3 4 5 6 
#
# 1 106.7597 38.3617 6.9920 6.2208 -23.2195 -6.7792
# 2 38.3617 127.5747 16.6853 17.2269 -9.6036 -12.3019
# 3 6.9920 16.6853 43.6265 25.3737 4.1457 3.7621
# 4 6.2208 17.2269 25.3737 34.4042 -0.3892 -3.9712
# 5 -23.2195 -9.6036 4.1457 -0.3892 35.7621 9.1107
# 6 -6.7792 -12.3019 3.7621 -3.9712 9.1107 56.5841
#
#
#
# Elastic Compliance Matrix: (Units=1/GPa)
#
#
# Indices 1 2 3 4 5 6 
#
# 1 0.012095 -0.002954 -0.001951 0.000792 0.007343 -0.000190
# 2 -0.002954 0.009508 -0.001727 -0.002767 0.000406 0.001569
# 3 -0.001951 -0.001727 0.042906 -0.031035 -0.005845 -0.004699
# 4 0.000792 -0.002767 -0.031035 0.053793 0.002707 0.004896
# 5 0.007343 0.000406 -0.005845 0.002707 0.034570 -0.004020
# 6 -0.000190 0.001569 -0.004699 0.004896 -0.004020 0.019294
#
#
# Mechanical properties :
#
#
# Convention : Reuss Voigt Hill
#
# Bulk Modulus (GPa) = 19.51431 44.67100 32.09265
# Shear Modulus (GPa) = 24.68980 39.74486 32.21733
#
# Velocity S-wave (km/s) = 3.07026 3.89544 3.50720
# Velocity P-wave (km/s) = 4.47427 6.10638 5.35289
#
# Compressibility (1/GPa) = 0.05124444
#
# Stress axis : x y z
#
# Youngs Moduli (GPa) = 82.67919 105.17119 23.30680
#
# Poissons Ratio (x) = 0.31072 0.04546
# Poissons Ratio (y) = 0.24427 0.04026
# Poissons Ratio (z) = 0.16127 0.18167
#
# Static dielectric constant tensor:
#      x y z
#    x 2.080540 0.017680 0.064970 
#    y 0.017680 2.106040 -0.014280 
#    z 0.064970 -0.014280 2.144200 
# 
# From -- ./inp_files/122868.got.cif
#   From: 2010.05.17/outbox.cif.g08.bks.cpg/sg2_62_cif.got.tgz:122868.got - 2010.06.03 11:33:40.
