data_PCOD9077779
_publ_section_title
;
Structure prediction by ZEFSAII (Michael W. Deem and Ramdas Pophale) SiO2 
 PCOD9077779
Probable space group: P -1
;
_chemical_formula_sum "Si O2"
_cell_formula_units_Z 16
_cell_length_a 10.373899
_cell_length_b 6.492541
_cell_length_c 14.173744
_cell_angle_alpha 81.662086
_cell_angle_beta 76.489522
_cell_angle_gamma 42.771875
_cell_volume 629.833490
_symmetry_space_group_name_H-M "P -1"
_symmetry_group_IT_number 2
_symmetry_cell_setting 'triclinic'
loop_
_space_group_symop_operation_xyz
x,y,z
-x,-y,-z
loop_
_atom_site_type_symbol
_atom_site_label
_atom_site_fract_x
_atom_site_fract_y
_atom_site_fract_z
Si Si1 0.722031 0.248259 0.570281
Si Si2 0.885598 0.690949 0.268659
Si Si3 0.576767 0.953852 0.857301
Si Si4 0.575513 0.726463 0.321526
Si Si5 0.958400 0.329534 0.566479
Si Si6 0.184155 0.440078 0.991042
Si Si7 0.171073 0.999608 0.217601
Si Si8 0.847007 0.158155 0.166937
O O1 0.869199 0.014076 0.478879
O O2 0.796209 0.098365 0.673020
O O3 0.534130 0.314175 0.591023
O O4 0.754727 0.458840 0.561983
O O5 0.715109 0.742865 0.338119
O O6 0.002857 0.672678 0.331237
O O7 0.022931 0.363120 0.220260
O O8 0.809591 0.955639 0.193406
O O9 0.638019 0.126167 0.854626
O O10 0.565606 0.979175 0.743916
O O11 0.366664 0.143629 0.920025
O O12 0.731632 0.650052 0.911443
O O13 0.703615 0.434776 0.248586
O O14 0.000000 0.500000 0.500000
O O15 0.160484 0.698571 0.936126
O O16 0.000000 0.500000 0.000000
O O17 0.062910 0.950625 0.181570
#
# Coordination Sequence:
#
# PCOD9077779 Si02
#       8
#     2   2   2   2   2   2   2   2
#     4  10  21  38  60  86 116 158 198 252 308 354
#     4  11  22  38  61  88 119 160 205 250 302 370
#     4   9  19  36  60  90 122 157 206 250 294 361
#     4   9  22  39  60  85 123 159 200 255 302 358
#     4  11  22  37  60  90 119 154 206 251 307 368
#     4  10  18  34  65  92 119 165 202 247 309 362
#     4  10  18  37  61  83 121 157 198 250 295 355
#     4  10  20  37  59  88 117 160 203 244 306 363
#
# _framework density 25.403538000000001
#
# number of rings (size 3 to 8) (size 9 to 14) (size 15 to 20)
#    0.000    2.000    3.750    0.000    0.000    1.500 
#    0.000    2.500    0.000    0.000    0.000    0.000 
#    0.000    0.000    0.000    0.000    0.000    0.000 
#
# Total GULP energy -89307.642491 kJ/mol
# GULP energy per Si atom -5581.727656 kJ/mol
# Density = 2.534572 g / cm^3
# Si number density = 25.403538 Si / 1000 Ang^3
#
#
#
# Elastic Constant Matrix: (Units=GPa)
#
#
# Indices 1 2 3 4 5 6 
#
# 1 154.2960 37.6174 39.0289 1.0947 -44.9085 4.4545
# 2 37.6174 66.8533 31.8180 -12.8266 -8.5850 13.6526
# 3 39.0289 31.8180 105.7979 -23.0869 -29.9012 5.3895
# 4 1.0947 -12.8266 -23.0869 46.6847 0.1679 -8.6600
# 5 -44.9085 -8.5850 -29.9012 0.1679 51.5793 -0.6697
# 6 4.4545 13.6526 5.3895 -8.6600 -0.6697 33.4041
#
#
#
# Elastic Compliance Matrix: (Units=1/GPa)
#
#
# Indices 1 2 3 4 5 6 
#
# 1 0.010007 -0.004844 -0.000479 -0.001752 0.007640 0.000422
# 2 -0.004844 0.021334 -0.004761 0.002380 -0.003522 -0.006759
# 3 -0.000479 -0.004761 0.014302 0.006010 0.007080 0.001402
# 4 -0.001752 0.002380 0.006010 0.026022 0.002336 0.005084
# 5 0.007640 -0.003522 0.007080 0.002336 0.029556 0.000477
# 6 0.000422 -0.006759 0.001402 0.005084 0.000477 0.033744
#
#
# Mechanical properties :
#
#
# Convention : Reuss Voigt Hill
#
# Bulk Modulus (GPa) = 39.25496 60.43065 49.84280
# Shear Modulus (GPa) = 30.55756 40.89916 35.72836
#
# Velocity S-wave (km/s) = 3.47203 4.01681 3.75431
# Velocity P-wave (km/s) = 5.61778 6.73446 6.20130
#
# Compressibility (1/GPa) = 0.02547449
#
# Stress axis : x y z
#
# Youngs Moduli (GPa) = 99.92869 46.87297 69.92168
#
# Poissons Ratio (x) = 0.22705 0.03352
# Poissons Ratio (y) = 0.48404 0.33290
# Poissons Ratio (z) = 0.04791 0.22317
#
# Static dielectric constant tensor:
#      x y z
#    x 2.015150 -0.128440 -0.084530 
#    y -0.128440 1.949610 -0.090010 
#    z -0.084530 -0.090010 2.022710 
# 
# From -- ./inp_files/553336.got.cif
#   From: 2010.05.17/outbox.cif.g08.bks.cpg/sg2_277_cif.got.tgz:553336.got - 2010.06.03 11:33:40.
