data_PCOD9077466
_publ_section_title
;
Structure prediction by ZEFSAII (Michael W. Deem and Ramdas Pophale) SiO2 
 PCOD9077466
Probable space group: P -1
;
_chemical_formula_sum "Si O2"
_cell_formula_units_Z 16
_cell_length_a 17.182499
_cell_length_b 9.080738
_cell_length_c 6.975549
_cell_angle_alpha 130.227273
_cell_angle_beta 73.069551
_cell_angle_gamma 123.764711
_cell_volume 686.868735
_symmetry_space_group_name_H-M "P -1"
_symmetry_group_IT_number 2
_symmetry_cell_setting 'triclinic'
loop_
_space_group_symop_operation_xyz
x,y,z
-x,-y,-z
loop_
_atom_site_type_symbol
_atom_site_label
_atom_site_fract_x
_atom_site_fract_y
_atom_site_fract_z
Si Si1 0.898182 0.324729 0.167111
Si Si2 0.766749 0.614703 0.220689
Si Si3 0.970624 0.747491 0.275758
Si Si4 0.775740 0.980729 0.232599
Si Si5 0.329288 0.269255 0.293146
Si Si6 0.532559 0.362027 0.728623
Si Si7 0.366394 0.875554 0.512929
Si Si8 0.315356 0.841027 0.955765
O O1 0.953358 0.593697 0.346947
O O2 0.793083 0.253637 0.111719
O O3 0.876903 0.170027 0.238559
O O4 0.951863 0.261749 0.918848
O O5 0.869323 0.641121 0.155951
O O6 0.768372 0.795669 0.227069
O O7 0.745133 0.692488 0.505778
O O8 0.690725 0.349725 0.062504
O O9 0.000000 0.000000 0.500000
O O10 0.728931 0.123197 0.463010
O O11 0.713960 0.835127 0.971730
O O12 0.425166 0.496686 0.375270
O O13 0.347086 0.083476 0.221126
O O14 0.616343 0.325790 0.719690
O O15 0.447370 0.110103 0.570353
O O16 0.500000 0.500000 0.000000
O O17 0.370847 0.875375 0.745057
#
# Coordination Sequence:
#
# PCOD9077466 Si02
#       8
#     2   2   2   2   2   2   2   2
#     4   8  18  34  54  80 114 142 182 237 269 324
#     4  11  22  37  58  84 116 151 187 235 281 333
#     4  10  18  34  60  82 108 150 190 224 283 331
#     4  10  21  40  56  85 119 148 189 231 281 336
#     4  10  20  37  59  80 113 151 190 230 282 338
#     4  11  17  32  63  85 104 152 194 227 284 338
#     4   9  19  33  58  83 112 148 185 234 283 328
#     4   9  17  35  55  82 111 148 187 229 278 331
#
# _framework density 23.294117
#
# number of rings (size 3 to 8) (size 9 to 14) (size 15 to 20)
#    0.000    2.500    3.750    1.500    0.000    0.500 
#    2.250    1.250    0.000    2.250    0.000    0.000 
#    0.000    0.000    0.000    0.000    0.000    0.000 
#
# Total GULP energy -89205.810935 kJ/mol
# GULP energy per Si atom -5575.363183 kJ/mol
# Density = 2.324110 g / cm^3
# Si number density = 23.294117 Si / 1000 Ang^3
#
#
#
# Elastic Constant Matrix: (Units=GPa)
#
#
# Indices 1 2 3 4 5 6 
#
# 1 35.9584 30.1646 21.8916 -13.3555 -8.8998 -9.0300
# 2 30.1646 207.9012 25.9703 23.8099 -2.1596 0.4013
# 3 21.8916 25.9703 60.1280 9.8506 -23.9399 -0.8000
# 4 -13.3555 23.8099 9.8506 48.0306 -1.9877 -12.0520
# 5 -8.8998 -2.1596 -23.9399 -1.9877 20.2854 -3.7554
# 6 -9.0300 0.4013 -0.8000 -12.0520 -3.7554 34.5509
#
#
#
# Elastic Compliance Matrix: (Units=1/GPa)
#
#
# Indices 1 2 3 4 5 6 
#
# 1 0.091202 -0.015610 -0.025824 0.050080 0.020770 0.043145
# 2 -0.015610 0.008193 0.000713 -0.011103 -0.007868 -0.008887
# 3 -0.025824 0.000713 0.042755 -0.016733 0.036143 -0.007676
# 4 0.050080 -0.011103 -0.016733 0.052315 0.012167 0.032401
# 5 0.020770 -0.007868 0.036143 0.012167 0.105503 0.022068
# 6 0.043145 -0.008887 -0.007676 0.032401 0.022068 0.053845
#
#
# Mechanical properties :
#
#
# Convention : Reuss Voigt Hill
#
# Bulk Modulus (GPa) = 16.47242 51.11560 33.79401
# Shear Modulus (GPa) = 10.97720 35.63745 23.30732
#
# Velocity S-wave (km/s) = 2.17317 3.91563 3.16661
# Velocity P-wave (km/s) = 3.65838 6.51414 5.28289
#
# Compressibility (1/GPa) = 0.06070752
#
# Stress axis : x y z
#
# Youngs Moduli (GPa) = 10.96471 122.05830 23.38921
#
# Poissons Ratio (x) = 1.90528 0.60400
# Poissons Ratio (y) = 0.17115 -0.01667
# Poissons Ratio (z) = 0.28315 -0.08698
#
# Static dielectric constant tensor:
#      x y z
#    x 1.940080 -0.028280 0.030150 
#    y -0.028280 1.951330 0.013900 
#    z 0.030150 0.013900 1.889680 
# 
# From -- ./inp_files/342223.got.cif
#   From: 2010.05.17/outbox.cif.g08.bks.cpg/sg2_172_cif.got.tgz:342223.got - 2010.06.03 11:33:40.
