data_PCOD9077939
_publ_section_title
;
Structure prediction by ZEFSAII (Michael W. Deem and Ramdas Pophale) SiO2 
 PCOD9077939
Probable space group: P -1
;
_chemical_formula_sum "Si O2"
_cell_formula_units_Z 14
_cell_length_a 9.344599
_cell_length_b 20.679044
_cell_length_c 8.403450
_cell_angle_alpha 37.807739
_cell_angle_beta 97.500606
_cell_angle_gamma 128.988075
_cell_volume 494.358284
_symmetry_space_group_name_H-M "P -1"
_symmetry_group_IT_number 2
_symmetry_cell_setting 'triclinic'
loop_
_space_group_symop_operation_xyz
x,y,z
-x,-y,-z
loop_
_atom_site_type_symbol
_atom_site_label
_atom_site_fract_x
_atom_site_fract_y
_atom_site_fract_z
Si Si1 0.964093 0.555505 0.629285
Si Si2 0.288845 0.321926 0.674430
Si Si3 0.251999 0.841683 0.399731
Si Si4 0.945559 0.139196 0.447518
Si Si5 0.632369 0.389154 0.404366
Si Si6 0.267746 0.940440 0.756199
Si Si7 0.476028 0.336305 0.131856
O O1 0.020908 0.630655 0.675412
O O2 0.158350 0.575697 0.596356
O O3 0.094077 0.721525 0.199439
O O4 0.617594 0.351764 0.986055
O O5 0.500000 0.500000 0.500000
O O6 0.399600 0.278238 0.717694
O O7 0.347080 0.440786 0.306165
O O8 0.956319 0.122281 0.065390
O O9 0.207150 0.934747 0.263839
O O10 0.410103 0.876249 0.493138
O O11 0.500000 0.000000 0.000000
O O12 0.739838 0.033994 0.477057
O O13 0.152473 0.173534 0.378381
O O14 0.150922 0.373486 0.030925
O O15 0.492225 0.300072 0.382088
#
# Coordination Sequence:
#
# PCOD9077939 Si02
#       7
#     2   2   2   2   2   2   2
#     4  10  22  37  55  90 115 146 183 235 291 319
#     4  10  18  35  56  86 110 143 189 227 276 330
#     4  10  22  37  59  79 114 154 194 226 266 346
#     4  11  20  36  60  88 106 149 193 231 284 322
#     4  11  21  34  59  89 117 140 182 245 284 326
#     4  10  21  38  59  80 117 151 189 226 272 345
#     4  10  20  33  59  84 113 142 189 235 275 333
#
# _framework density 28.31954
#
# number of rings (size 3 to 8) (size 9 to 14) (size 15 to 20)
#    0.000    1.714    4.286    2.571    4.000    0.571 
#    0.000    0.714    0.000    0.857    0.000    0.000 
#    0.000    0.000    0.000    0.000    0.000    0.000 
#
# Total GULP energy -78326.374091 kJ/mol
# GULP energy per Si atom -5594.741006 kJ/mol
# Density = 2.825508 g / cm^3
# Si number density = 28.319540 Si / 1000 Ang^3
#
#
#
# Elastic Constant Matrix: (Units=GPa)
#
#
# Indices 1 2 3 4 5 6 
#
# 1 254.0958 26.6266 36.1096 16.5249 -18.1927 11.5385
# 2 26.6266 115.4875 16.4180 6.0154 -0.6376 13.0052
# 3 36.1096 16.4180 69.0602 12.4665 -27.3925 -0.4553
# 4 16.5249 6.0154 12.4665 31.8510 2.1805 -1.4680
# 5 -18.1927 -0.6376 -27.3925 2.1805 53.8368 0.4238
# 6 11.5385 13.0052 -0.4553 -1.4680 0.4238 39.6085
#
#
#
# Elastic Compliance Matrix: (Units=1/GPa)
#
#
# Indices 1 2 3 4 5 6 
#
# 1 0.004439 -0.000572 -0.001587 -0.001681 0.000763 -0.001194
# 2 -0.000572 0.009487 -0.002349 -0.000629 -0.001227 -0.002986
# 3 -0.001587 -0.002349 0.021537 -0.007846 0.010704 0.001076
# 4 -0.001681 -0.000629 -0.007846 0.035964 -0.006040 0.002004
# 5 0.000763 -0.001227 0.010704 -0.006040 0.024510 -0.000183
# 6 -0.001194 -0.002986 0.001076 0.002004 -0.000183 0.026664
#
#
# Mechanical properties :
#
#
# Convention : Reuss Voigt Hill
#
# Bulk Modulus (GPa) = 37.81015 66.32801 52.06908
# Shear Modulus (GPa) = 35.60415 49.02521 42.31468
#
# Velocity S-wave (km/s) = 3.54959 4.16522 3.86966
# Velocity P-wave (km/s) = 5.49360 6.82672 6.19612
#
# Compressibility (1/GPa) = 0.02644792
#
# Stress axis : x y z
#
# Youngs Moduli (GPa) = 225.26789 105.40798 46.43118
#
# Poissons Ratio (x) = 0.06025 0.07367
# Poissons Ratio (y) = 0.12877 0.10908
# Poissons Ratio (z) = 0.35744 0.24764
#
# Static dielectric constant tensor:
#      x y z
#    x 2.370380 -0.073010 -0.067540 
#    y -0.073010 2.405380 -0.011540 
#    z -0.067540 -0.011540 2.605530 
# 
# From -- ./inp_files/172181.got.cif
#   From: 2010.05.17/outbox.cif.g08.bks.cpg/sg2_87_cif.got.tgz:172181.got - 2010.06.03 11:33:40.
