data_PCOD9077067
_publ_section_title
;
Structure prediction by ZEFSAII (Michael W. Deem and Ramdas Pophale) SiO2 
 PCOD9077067
Probable space group: P -1
;
_chemical_formula_sum "Si O2"
_cell_formula_units_Z 16
_cell_length_a 11.081502
_cell_length_b 15.418667
_cell_length_c 11.155619
_cell_angle_alpha 29.948316
_cell_angle_beta 131.318836
_cell_angle_gamma 132.204697
_cell_volume 688.930951
_symmetry_space_group_name_H-M "P -1"
_symmetry_group_IT_number 2
_symmetry_cell_setting 'triclinic'
loop_
_space_group_symop_operation_xyz
x,y,z
-x,-y,-z
loop_
_atom_site_type_symbol
_atom_site_label
_atom_site_fract_x
_atom_site_fract_y
_atom_site_fract_z
Si Si1 0.327588 0.176446 0.213370
Si Si2 0.931097 0.717777 0.681539
Si Si3 0.442441 0.010383 0.087997
Si Si4 0.311565 0.853743 0.424296
Si Si5 0.205542 0.625173 0.847296
Si Si6 0.276906 0.122790 0.494484
Si Si7 0.464068 0.482474 0.783252
Si Si8 0.329294 0.370722 0.589599
O O1 0.500955 0.144821 0.413962
O O2 0.212927 0.138958 0.299579
O O3 0.275190 0.034783 0.240176
O O4 0.366600 0.384979 0.951668
O O5 0.858297 0.876408 0.493684
O O6 0.816740 0.631699 0.595815
O O7 0.116000 0.748867 0.717321
O O8 0.898227 0.574085 0.941252
O O9 0.318266 0.864163 0.271486
O O10 0.622330 0.025529 0.246858
O O11 0.362304 0.175605 0.846344
O O12 0.500000 0.000000 0.000000
O O13 0.205481 0.688178 0.633759
O O14 0.394516 0.629160 0.004489
O O15 0.422516 0.313657 0.383042
O O16 0.328338 0.442991 0.636678
O O17 0.500000 0.500000 0.500000
#
# Coordination Sequence:
#
# PCOD9077067 Si02
#       8
#     2   2   2   2   2   2   2   2
#     4   9  17  29  52  81 109 137 179 241 268 318
#     4  10  20  35  53  84 111 150 186 225 272 333
#     4  11  20  34  55  83 115 140 177 238 279 323
#     4   9  18  32  53  80 105 147 186 222 280 326
#     4   9  19  35  56  78 113 149 189 221 271 335
#     4  10  19  30  52  83 112 138 183 232 276 316
#     4  10  18  34  55  84 105 145 187 223 278 328
#     4  12  20  34  57  84 109 141 188 227 274 330
#
# _framework density 23.224388000000001
#
# number of rings (size 3 to 8) (size 9 to 14) (size 15 to 20)
#    0.000    2.000    5.000    0.375    1.750    1.000 
#    0.000    1.250    0.000    0.000    0.000   13.125 
#    0.000    0.000    0.000    0.000    0.000    0.000 
#
# Total GULP energy -89090.011233 kJ/mol
# GULP energy per Si atom -5568.125702 kJ/mol
# Density = 2.317153 g / cm^3
# Si number density = 23.224388 Si / 1000 Ang^3
#
#
#
# Elastic Constant Matrix: (Units=GPa)
#
#
# Indices 1 2 3 4 5 6 
#
# 1 105.9723 13.2309 26.8276 7.9836 -18.0720 -12.9509
# 2 13.2309 81.1644 27.9711 5.7075 -13.7251 -4.8602
# 3 26.8276 27.9711 98.2894 1.9109 -29.7701 5.5304
# 4 7.9836 5.7075 1.9109 18.3111 -8.4733 -3.9656
# 5 -18.0720 -13.7251 -29.7701 -8.4733 48.3257 8.1343
# 6 -12.9509 -4.8602 5.5304 -3.9656 8.1343 20.9678
#
#
#
# Elastic Compliance Matrix: (Units=1/GPa)
#
#
# Indices 1 2 3 4 5 6 
#
# 1 0.011463 -0.000004 -0.003318 -0.002844 0.000529 0.007211
# 2 -0.000004 0.014223 -0.004078 -0.003041 0.000379 0.003648
# 3 -0.003318 -0.004078 0.015634 0.003286 0.009524 -0.010191
# 4 -0.002844 -0.003041 0.003286 0.062163 0.010247 0.004453
# 5 0.000529 0.000379 0.009524 0.010247 0.030693 -0.012066
# 6 0.007211 0.003648 -0.010191 0.004453 -0.012066 0.061203
#
#
# Mechanical properties :
#
#
# Convention : Reuss Voigt Hill
#
# Bulk Modulus (GPa) = 37.70633 46.83168 42.26901
# Shear Modulus (GPa) = 22.82924 32.01404 27.42164
#
# Velocity S-wave (km/s) = 3.13866 3.71680 3.43990
# Velocity P-wave (km/s) = 5.42271 6.21515 5.83241
#
# Compressibility (1/GPa) = 0.02652074
#
# Stress axis : x y z
#
# Youngs Moduli (GPa) = 87.24067 70.30888 63.96235
#
# Poissons Ratio (x) = 0.00028 0.21220
# Poissons Ratio (y) = 0.00034 0.26083
# Poissons Ratio (z) = 0.28943 0.28671
#
# Static dielectric constant tensor:
#      x y z
#    x 1.991620 -0.120340 -0.040730 
#    y -0.120340 2.033390 -0.028970 
#    z -0.040730 -0.028970 1.979600 
# 
# From -- ./inp_files/435378.got.cif
#   From: 2010.05.17/outbox.cif.g08.bks.cpg/sg2_218_cif.got.tgz:435378.got - 2010.06.03 11:33:40.
