data_PCOD9077444
_publ_section_title
;
Structure prediction by ZEFSAII (Michael W. Deem and Ramdas Pophale) SiO2 
 PCOD9077444
Probable space group: P -1
;
_chemical_formula_sum "Si O2"
_cell_formula_units_Z 16
_cell_length_a 14.078538
_cell_length_b 11.200954
_cell_length_c 14.559017
_cell_angle_alpha 69.592105
_cell_angle_beta 47.443669
_cell_angle_gamma 31.778708
_cell_volume 723.508558
_symmetry_space_group_name_H-M "P -1"
_symmetry_group_IT_number 2
_symmetry_cell_setting 'triclinic'
loop_
_space_group_symop_operation_xyz
x,y,z
-x,-y,-z
loop_
_atom_site_type_symbol
_atom_site_label
_atom_site_fract_x
_atom_site_fract_y
_atom_site_fract_z
Si Si1 0.659004 0.764731 0.890877
Si Si2 0.624241 0.138823 0.172666
Si Si3 0.844640 0.851102 0.280138
Si Si4 0.257729 0.048282 0.302570
Si Si5 0.012563 0.342750 0.565954
Si Si6 0.805108 0.198230 0.919686
Si Si7 0.894195 0.898460 0.809999
Si Si8 0.103447 0.552987 0.915700
O O1 0.949793 0.441342 0.813935
O O2 0.723901 0.813759 0.758871
O O3 0.500000 0.000000 0.000000
O O4 0.422731 0.863012 0.013759
O O5 0.310792 0.406740 0.264547
O O6 0.744529 0.172375 0.059846
O O7 0.599852 0.104521 0.301349
O O8 0.866463 0.838693 0.049413
O O9 0.795983 0.850503 0.417146
O O10 0.020158 0.828103 0.173189
O O11 0.106531 0.115946 0.295600
O O12 0.111023 0.165818 0.465512
O O13 0.579816 0.715804 0.182340
O O14 0.000000 0.500000 0.500000
O O15 0.949465 0.981361 0.805212
O O16 0.500000 0.500000 0.000000
O O17 0.092343 0.618478 0.802357
O O18 0.000000 0.500000 0.000000
#
# Coordination Sequence:
#
# PCOD9077444 Si02
#       8
#     2   2   2   2   2   2   2   2
#     4  10  18  34  59  91 124 164 202 260 321 373
#     4  11  25  41  67  99 126 169 220 272 323 378
#     4  12  23  42  65  93 134 172 217 270 317 383
#     4  11  23  39  61  91 134 169 208 256 328 390
#     4  12  25  42  61  96 139 176 209 254 330 404
#     4  11  21  41  70  95 124 167 225 275 318 371
#     4  10  21  37  60  92 124 159 215 268 316 371
#     4  11  21  34  62  94 122 161 212 266 320 374
#
# _framework density 22.114459
#
# number of rings (size 3 to 8) (size 9 to 14) (size 15 to 20)
#    0.000    1.000    5.000    3.375    1.750    1.500 
#    0.000    0.625    0.000    3.750    0.000    0.000 
#    0.000    0.000    0.000    0.000    0.000    0.000 
#
# Total GULP energy -89248.095378 kJ/mol
# GULP energy per Si atom -5578.005961 kJ/mol
# Density = 2.206413 g / cm^3
# Si number density = 22.114459 Si / 1000 Ang^3
#
#
#
# Elastic Constant Matrix: (Units=GPa)
#
#
# Indices 1 2 3 4 5 6 
#
# 1 51.4620 18.7288 16.5325 -1.0630 16.7649 -0.6850
# 2 18.7288 104.8223 5.6532 -14.3951 17.4778 -11.8998
# 3 16.5325 5.6532 65.5704 -8.2065 29.5376 5.6733
# 4 -1.0630 -14.3951 -8.2065 29.7790 -5.6673 7.6861
# 5 16.7649 17.4778 29.5376 -5.6673 38.8026 -11.0094
# 6 -0.6850 -11.8998 5.6733 7.6861 -11.0094 42.3398
#
#
#
# Elastic Compliance Matrix: (Units=1/GPa)
#
#
# Indices 1 2 3 4 5 6 
#
# 1 0.023912 -0.003371 -0.002299 -0.002438 -0.007952 -0.001877
# 2 -0.003371 0.011580 0.002591 0.005103 -0.004793 0.000680
# 3 -0.002299 0.002591 0.027907 0.007106 -0.023331 -0.010405
# 4 -0.002438 0.005103 0.007106 0.039270 -0.003041 -0.007477
# 5 -0.007952 -0.004793 -0.023331 -0.003041 0.053235 0.016045
# 6 -0.001877 0.000680 -0.010405 -0.007477 0.016045 0.030703
#
#
# Mechanical properties :
#
#
# Convention : Reuss Voigt Hill
#
# Bulk Modulus (GPa) = 17.47002 33.74263 25.60632
# Shear Modulus (GPa) = 23.60218 34.24696 28.92457
#
# Velocity S-wave (km/s) = 3.27046 3.93952 3.62048
# Velocity P-wave (km/s) = 4.70937 5.99870 5.39271
#
# Compressibility (1/GPa) = 0.05724092
#
# Stress axis : x y z
#
# Youngs Moduli (GPa) = 41.81967 86.35776 35.83348
#
# Poissons Ratio (x) = 0.29107 0.08238
# Poissons Ratio (y) = 0.14095 -0.09283
# Poissons Ratio (z) = 0.09614 -0.22372
#
# Static dielectric constant tensor:
#      x y z
#    x 1.915490 -0.047290 0.074210 
#    y -0.047290 1.853380 -0.070060 
#    z 0.074210 -0.070060 1.871000 
# 
# From -- ./inp_files/531802.got.cif
#   From: 2010.05.17/outbox.cif.g08.bks.cpg/sg2_266_cif.got.tgz:531802.got - 2010.06.03 11:33:40.
