data_PCOD9077590
_publ_section_title
;
Structure prediction by ZEFSAII (Michael W. Deem and Ramdas Pophale) SiO2 
 PCOD9077590
Probable space group: P -1
;
_chemical_formula_sum "Si O2"
_cell_formula_units_Z 16
_cell_length_a 9.731816
_cell_length_b 12.608591
_cell_length_c 8.029774
_cell_angle_alpha 67.958204
_cell_angle_beta 127.123848
_cell_angle_gamma 79.750183
_cell_volume 609.473885
_symmetry_space_group_name_H-M "P -1"
_symmetry_group_IT_number 2
_symmetry_cell_setting 'triclinic'
loop_
_space_group_symop_operation_xyz
x,y,z
-x,-y,-z
loop_
_atom_site_type_symbol
_atom_site_label
_atom_site_fract_x
_atom_site_fract_y
_atom_site_fract_z
Si Si1 0.154103 0.231690 0.996283
Si Si2 0.255600 0.666342 0.586920
Si Si3 0.360623 0.493251 0.261352
Si Si4 0.104827 0.953065 0.380523
Si Si5 0.022230 0.223062 0.277865
Si Si6 0.302873 0.306265 0.542596
Si Si7 0.305190 0.949001 0.183744
Si Si8 0.761205 0.580718 0.225030
O O1 0.242715 0.324918 0.977093
O O2 0.933948 0.285787 0.711416
O O3 0.121158 0.219181 0.172030
O O4 0.309301 0.084600 0.114128
O O5 0.465061 0.616242 0.671662
O O6 0.187518 0.796312 0.577296
O O7 0.286889 0.532741 0.773864
O O8 0.500000 0.500000 0.500000
O O9 0.237617 0.436487 0.300616
O O10 0.208109 0.645609 0.991487
O O11 0.250679 0.933024 0.341762
O O12 0.082033 0.067088 0.423706
O O13 0.883231 0.020290 0.090195
O O14 0.133750 0.267985 0.461044
O O15 0.495174 0.179840 0.668314
O O16 0.357473 0.334265 0.747787
O O17 0.000000 0.500000 0.500000
#
# Coordination Sequence:
#
# PCOD9077590 Si02
#       8
#     2   2   2   2   2   2   2   2
#     4   9  19  37  58  87 121 156 197 237 293 360
#     4  10  18  34  61  86 111 153 205 244 280 339
#     4  12  19  34  58  92 115 149 205 253 283 342
#     4   9  18  35  58  90 121 147 198 250 292 343
#     4  11  23  36  60  95 123 150 187 258 310 342
#     4  12  23  35  60  94 123 151 194 253 309 341
#     4   9  18  33  59  89 116 155 200 245 287 348
#     4  10  21  37  60  85 118 161 201 238 291 356
#
# _framework density 26.252151000000001
#
# number of rings (size 3 to 8) (size 9 to 14) (size 15 to 20)
#    0.000    1.750    3.750    2.625    0.000    2.500 
#    0.000    0.000    0.000   13.500    0.000    0.000 
#    0.000    0.000    0.000    0.000    0.000    0.000 
#
# Total GULP energy -89667.915030 kJ/mol
# GULP energy per Si atom -5604.244689 kJ/mol
# Density = 2.619240 g / cm^3
# Si number density = 26.252151 Si / 1000 Ang^3
#
#
#
# Elastic Constant Matrix: (Units=GPa)
#
#
# Indices 1 2 3 4 5 6 
#
# 1 73.3994 52.3384 21.1050 -9.4356 5.2432 2.9880
# 2 52.3384 194.9081 52.8492 -23.0521 6.8174 8.6005
# 3 21.1050 52.8492 82.0835 -11.2088 12.6293 -1.9789
# 4 -9.4356 -23.0521 -11.2088 39.4821 -3.3039 -0.1044
# 5 5.2432 6.8174 12.6293 -3.3039 36.1155 -11.2406
# 6 2.9880 8.6005 -1.9789 -0.1044 -11.2406 64.0098
#
#
#
# Elastic Compliance Matrix: (Units=1/GPa)
#
#
# Indices 1 2 3 4 5 6 
#
# 1 0.017172 -0.003991 -0.001493 0.001242 -0.001269 -0.000532
# 2 -0.003991 0.007473 -0.003528 0.002435 0.000358 -0.000860
# 3 -0.001493 -0.003528 0.015750 0.001688 -0.004389 0.000263
# 4 0.001242 0.002435 0.001688 0.027632 0.001278 -0.000064
# 5 -0.001269 0.000358 -0.004389 0.001278 0.031120 0.005343
# 6 -0.000532 -0.000860 0.000263 -0.000064 0.005343 0.016709
#
#
# Mechanical properties :
#
#
# Convention : Reuss Voigt Hill
#
# Bulk Modulus (GPa) = 44.70497 66.99735 55.85116
# Shear Modulus (GPa) = 35.37620 42.86137 39.11879
#
# Velocity S-wave (km/s) = 3.67489 4.04503 3.86439
# Velocity P-wave (km/s) = 5.92220 6.88422 6.42125
#
# Compressibility (1/GPa) = 0.02236888
#
# Stress axis : x y z
#
# Youngs Moduli (GPa) = 58.23587 133.82361 63.49074
#
# Poissons Ratio (x) = 0.53415 0.09480
# Poissons Ratio (y) = 0.23244 0.22401
# Poissons Ratio (z) = 0.08696 0.47215
#
# Static dielectric constant tensor:
#      x y z
#    x 2.150080 0.026530 -0.051880 
#    y 0.026530 2.076670 0.022740 
#    z -0.051880 0.022740 2.041060 
# 
# From -- ./inp_files/425716.got.cif
#   From: 2010.05.17/outbox.cif.g08.bks.cpg/sg2_213_cif.got.tgz:425716.got - 2010.06.03 11:33:40.
