data_PCOD9077740
_publ_section_title
;
Structure prediction by ZEFSAII (Michael W. Deem and Ramdas Pophale) SiO2 
 PCOD9077740
Probable space group: P -1
;
_chemical_formula_sum "Si O2"
_cell_formula_units_Z 16
_cell_length_a 24.085383
_cell_length_b 10.235134
_cell_length_c 7.039558
_cell_angle_alpha 99.174812
_cell_angle_beta 81.603163
_cell_angle_gamma 155.524638
_cell_volume 709.767858
_symmetry_space_group_name_H-M "P -1"
_symmetry_group_IT_number 2
_symmetry_cell_setting 'triclinic'
loop_
_space_group_symop_operation_xyz
x,y,z
-x,-y,-z
loop_
_atom_site_type_symbol
_atom_site_label
_atom_site_fract_x
_atom_site_fract_y
_atom_site_fract_z
Si Si1 0.363212 0.908831 0.572860
Si Si2 0.442269 0.763739 0.114221
Si Si3 0.494554 0.293967 0.255854
Si Si4 0.280666 0.036960 0.701350
Si Si5 0.855540 0.849631 0.951448
Si Si6 0.752278 0.122054 0.904654
Si Si7 0.031819 0.640916 0.818689
Si Si8 0.139136 0.383695 0.819379
O O1 0.220371 0.542581 0.620163
O O2 0.430334 0.044604 0.365259
O O3 0.333106 0.002437 0.623609
O O4 0.467517 0.072147 0.709647
O O5 0.455074 0.662556 0.952417
O O6 0.284978 0.447743 0.155630
O O7 0.500000 0.000000 0.000000
O O8 0.618216 0.639282 0.359395
O O9 0.376671 0.140137 0.220065
O O10 0.126998 0.750213 0.673482
O O11 0.280873 0.039313 0.934269
O O12 0.849368 0.721313 0.082524
O O13 0.887605 0.053836 0.095016
O O14 0.984520 0.094551 0.813419
O O15 0.881118 0.357142 0.771139
O O16 0.790706 0.346710 0.032895
O O17 0.000000 0.500000 0.000000
#
# Coordination Sequence:
#
# PCOD9077740 Si02
#       8
#     2   2   2   2   2   2   2   2
#     4  11  24  38  58  90 123 153 203 245 294 358
#     4  12  23  41  62  89 116 157 200 245 297 358
#     4  12  22  37  61  88 123 162 188 248 303 347
#     4  10  19  37  55  86 122 156 201 242 290 358
#     4  10  18  34  64  83 112 159 197 241 301 341
#     4   9  18  34  58  84 116 158 198 240 295 348
#     4   9  18  31  57  89 112 151 204 243 285 352
#     4   9  18  37  59  84 112 153 200 242 290 357
#
# _framework density 22.542581999999999
#
# number of rings (size 3 to 8) (size 9 to 14) (size 15 to 20)
#    0.000    1.750    5.000    1.500    0.000    0.500 
#    0.000    1.875    0.000    4.500    0.000    0.000 
#    0.000    0.000    0.000    0.000    0.000    0.000 
#
# Total GULP energy -89316.245135 kJ/mol
# GULP energy per Si atom -5582.265321 kJ/mol
# Density = 2.249127 g / cm^3
# Si number density = 22.542582 Si / 1000 Ang^3
#
#
#
# Elastic Constant Matrix: (Units=GPa)
#
#
# Indices 1 2 3 4 5 6 
#
# 1 78.5127 31.9228 12.3426 1.5474 9.7430 15.8335
# 2 31.9228 110.3483 8.8018 -30.6065 -9.5343 24.7086
# 3 12.3426 8.8018 57.2374 -25.6944 -6.8996 -0.4040
# 4 1.5474 -30.6065 -25.6944 15.9804 -9.5204 5.4772
# 5 9.7430 -9.5343 -6.8996 -9.5204 6.1675 -5.3621
# 6 15.8335 24.7086 -0.4040 5.4772 -5.3621 42.5140
#
#
#
# Elastic Compliance Matrix: (Units=1/GPa)
#
#
# Indices 1 2 3 4 5 6 
#
# 1 0.011847 0.002039 0.003881 0.013958 0.004411 -0.006802
# 2 0.002039 0.006660 -0.007188 -0.007776 -0.018176 -0.005989
# 3 0.003881 -0.007188 0.010227 -0.011001 -0.021442 0.001542
# 4 0.013958 -0.007776 -0.011001 -0.004295 -0.059760 -0.007768
# 5 0.004411 -0.018176 -0.021442 -0.059760 0.028203 0.019973
# 6 -0.006802 -0.005989 0.001542 -0.007768 0.019973 0.033070
#
#
# Mechanical properties :
#
#
# Convention : Reuss Voigt Hill
#
# Bulk Modulus (GPa) = 38.16962 39.13697 38.65329
# Shear Modulus (GPa) = 51.55725 25.80113 38.67919
#
# Velocity S-wave (km/s) = 4.78756 3.38679 4.14675
# Velocity P-wave (km/s) = 6.89419 5.71777 6.33336
#
# Compressibility (1/GPa) = 0.02619885
#
# Stress axis : x y z
#
# Youngs Moduli (GPa) = 84.41025 150.16135 97.77735
#
# Poissons Ratio (x) = -0.30615 -0.37951
# Poissons Ratio (y) = -0.17210 0.70279
# Poissons Ratio (z) = -0.32763 1.07931
#
# Static dielectric constant tensor:
#      x y z
#    x 1.883420 0.038200 -0.044050 
#    y 0.038200 1.854620 -0.030650 
#    z -0.044050 -0.030650 1.828950 
# 
# From -- ./inp_files/356973.got.cif
#   From: 2010.05.17/outbox.cif.g08.bks.cpg/sg2_179_cif.got.tgz:356973.got - 2010.06.03 11:33:40.
