data_PCOD9077479
_publ_section_title
;
Structure prediction by ZEFSAII (Michael W. Deem and Ramdas Pophale) SiO2 
 PCOD9077479
Probable space group: P -1
;
_chemical_formula_sum "Si O2"
_cell_formula_units_Z 16
_cell_length_a 14.661585
_cell_length_b 13.227072
_cell_length_c 16.761204
_cell_angle_alpha 24.338442
_cell_angle_beta 147.411267
_cell_angle_gamma 147.720305
_cell_volume 675.785481
_symmetry_space_group_name_H-M "P -1"
_symmetry_group_IT_number 2
_symmetry_cell_setting 'triclinic'
loop_
_space_group_symop_operation_xyz
x,y,z
-x,-y,-z
loop_
_atom_site_type_symbol
_atom_site_label
_atom_site_fract_x
_atom_site_fract_y
_atom_site_fract_z
Si Si1 0.287295 0.188678 0.692201
Si Si2 0.301805 0.430641 0.824269
Si Si3 0.453708 0.847680 0.955572
Si Si4 0.326696 0.660316 0.842106
Si Si5 0.963401 0.939559 0.886872
Si Si6 0.948326 0.145130 0.566214
Si Si7 0.771393 0.277704 0.584386
Si Si8 0.727978 0.265605 0.736724
O O1 0.342590 0.995875 0.814553
O O2 0.090936 0.066626 0.675358
O O3 0.284016 0.451435 0.458905
O O4 0.432527 0.254661 0.824460
O O5 0.242761 0.480541 0.832864
O O6 0.145949 0.188008 0.848655
O O7 0.321842 0.661059 0.608682
O O8 0.473766 0.346436 0.018522
O O9 0.600772 0.061816 0.852788
O O10 0.323543 0.630099 0.956932
O O11 0.226755 0.865648 0.605366
O O12 0.885653 0.957154 0.730545
O O13 0.840151 0.037126 0.786838
O O14 0.060979 0.722653 0.119312
O O15 0.072140 0.439637 0.480270
O O16 0.663675 0.204862 0.640377
#
# Coordination Sequence:
#
# PCOD9077479 Si02
#       8
#     2   2   2   2   2   2   2   2
#     4  10  23  41  64  83 107 148 201 247 277 332
#     4  10  19  33  57  85 122 156 185 225 279 343
#     4  11  22  41  63  85 109 150 195 240 293 328
#     4  11  19  32  60  85 119 153 183 234 288 341
#     4  11  17  35  56  87 116 152 193 222 277 344
#     4  10  18  34  60  84 114 153 190 233 282 333
#     4  10  19  34  56  88 115 154 193 225 271 346
#     4  11  21  35  63  87 113 144 200 236 276 336
#
# _framework density 23.676151999999998
#
# number of rings (size 3 to 8) (size 9 to 14) (size 15 to 20)
#    0.000    1.500    5.000    3.000    0.000    0.500 
#    0.000    0.625   13.750    0.750    0.000    0.000 
#    0.000    0.000    0.000    0.000    0.000    0.000 
#
# Total GULP energy -89088.453270 kJ/mol
# GULP energy per Si atom -5568.028329 kJ/mol
# Density = 2.362226 g / cm^3
# Si number density = 23.676152 Si / 1000 Ang^3
#
#
#
# Elastic Constant Matrix: (Units=GPa)
#
#
# Indices 1 2 3 4 5 6 
#
# 1 116.5373 12.1114 29.2721 17.5937 21.4728 -35.7949
# 2 12.1114 60.7543 34.5040 -11.8553 5.5947 10.5936
# 3 29.2721 34.5040 103.5686 -0.9848 22.4644 -0.0945
# 4 17.5937 -11.8553 -0.9848 56.5020 -8.1360 -17.8181
# 5 21.4728 5.5947 22.4644 -8.1360 54.6747 3.8524
# 6 -35.7949 10.5936 -0.0945 -17.8181 3.8524 37.5663
#
#
#
# Elastic Compliance Matrix: (Units=1/GPa)
#
#
# Indices 1 2 3 4 5 6 
#
# 1 0.016018 -0.005003 -0.001426 -0.001817 -0.006625 0.016488
# 2 -0.005003 0.023745 -0.007295 0.003783 0.003806 -0.010078
# 3 -0.001426 -0.007295 0.013443 -0.001315 -0.004452 0.000565
# 4 -0.001817 0.003783 -0.001315 0.021818 0.003608 0.007177
# 5 -0.006625 0.003806 -0.004452 0.003608 0.023439 -0.008090
# 6 0.016488 -0.010078 0.000565 0.007177 -0.008090 0.049407
#
#
# Mechanical properties :
#
#
# Convention : Reuss Voigt Hill
#
# Bulk Modulus (GPa) = 38.82287 48.07058 43.44672
# Shear Modulus (GPa) = 27.18800 43.41345 35.30073
#
# Velocity S-wave (km/s) = 3.39238 4.28674 3.86551
# Velocity P-wave (km/s) = 5.63714 6.69694 6.18976
#
# Compressibility (1/GPa) = 0.02575802
#
# Stress axis : x y z
#
# Youngs Moduli (GPa) = 62.42796 42.11363 74.39026
#
# Poissons Ratio (x) = 0.21069 0.10606
# Poissons Ratio (y) = 0.31232 0.54271
# Poissons Ratio (z) = 0.08901 0.30724
#
# Static dielectric constant tensor:
#      x y z
#    x 1.963190 0.079720 -0.060510 
#    y 0.079720 2.004240 -0.055490 
#    z -0.060510 -0.055490 1.983880 
# 
# From -- ./inp_files/505416.got.cif
#   From: 2010.05.17/outbox.cif.g08.bks.cpg/sg2_253_cif.got.tgz:505416.got - 2010.06.03 11:33:40.
