data_PCOD9077824
_publ_section_title
;
Structure prediction by ZEFSAII (Michael W. Deem and Ramdas Pophale) SiO2 
 PCOD9077824
Probable space group: P -1
;
_chemical_formula_sum "Si O2"
_cell_formula_units_Z 16
_cell_length_a 15.844011
_cell_length_b 13.764672
_cell_length_c 10.112612
_cell_angle_alpha 119.454795
_cell_angle_beta 27.633980
_cell_angle_gamma 137.438704
_cell_volume 594.092353
_symmetry_space_group_name_H-M "P -1"
_symmetry_group_IT_number 2
_symmetry_cell_setting 'triclinic'
loop_
_space_group_symop_operation_xyz
x,y,z
-x,-y,-z
loop_
_atom_site_type_symbol
_atom_site_label
_atom_site_fract_x
_atom_site_fract_y
_atom_site_fract_z
Si Si1 0.002422 0.551902 0.764906
Si Si2 0.447394 0.287526 0.978561
Si Si3 0.179750 0.274320 0.859968
Si Si4 0.309206 0.760462 0.704997
Si Si5 0.189200 0.876127 0.510258
Si Si6 0.662075 0.988753 0.108200
Si Si7 0.405394 0.440131 0.901881
Si Si8 0.448850 0.201539 0.322957
O O1 0.251242 0.629094 0.379776
O O2 0.117320 0.586723 0.776954
O O3 0.934398 0.652470 0.942103
O O4 0.730900 0.365237 0.975018
O O5 0.244902 0.090160 0.122999
O O6 0.424151 0.372877 0.176274
O O7 0.447021 0.359694 0.892698
O O8 0.252028 0.218355 0.612924
O O9 0.442380 0.417124 0.685041
O O10 0.964292 0.122609 0.160056
O O11 0.527477 0.894865 0.375546
O O12 0.450991 0.778749 0.651673
O O13 0.179186 0.822442 0.965641
O O14 0.432641 0.924015 0.276905
O O15 0.923962 0.686570 0.704035
O O16 0.312971 0.025953 0.342581
#
# Coordination Sequence:
#
# PCOD9077824 Si02
#       8
#     2   2   2   2   2   2   2   2
#     4  11  21  33  50  77 109 134 162 202 257 303
#     4  10  18  35  52  78  98 127 171 215 250 290
#     4  10  19  34  51  75 102 134 168 207 243 295
#     4   9  17  30  47  73 101 133 164 199 245 294
#     4   9  19  34  51  77  99 134 171 206 246 290
#     4   9  16  29  51  73 101 125 171 207 242 287
#     4   9  20  32  56  74  96 130 175 214 245 286
#     4  11  21  32  51  77 108 137 160 201 255 306
#
# _framework density 26.931840000000001
#
# number of rings (size 3 to 8) (size 9 to 14) (size 15 to 20)
#    0.750    1.500    2.500    2.625    0.000    3.000 
#    0.000    0.625    0.000    0.000    0.000    9.625 
#    0.000    0.000    0.000    0.000    0.000    0.000 
#
# Total GULP energy -89188.114074 kJ/mol
# GULP energy per Si atom -5574.257130 kJ/mol
# Density = 2.687054 g / cm^3
# Si number density = 26.931840 Si / 1000 Ang^3
#
#
#
# Elastic Constant Matrix: (Units=GPa)
#
#
# Indices 1 2 3 4 5 6 
#
# 1 66.9776 0.1506 20.5708 22.0326 -9.5711 -8.0034
# 2 0.1506 101.0078 11.6524 26.8277 -1.9527 16.4733
# 3 20.5708 11.6524 55.1687 13.5155 -0.6261 -5.6967
# 4 22.0326 26.8277 13.5155 37.2722 -5.5959 -8.0507
# 5 -9.5711 -1.9527 -0.6261 -5.5959 20.5050 2.3540
# 6 -8.0034 16.4733 -5.6967 -8.0507 2.3540 23.8998
#
#
#
# Elastic Compliance Matrix: (Units=1/GPa)
#
#
# Indices 1 2 3 4 5 6 
#
# 1 0.022054 0.005000 -0.006071 -0.013999 0.007100 -0.002923
# 2 0.005000 0.018127 -0.002960 -0.018656 0.000933 -0.017902
# 3 -0.006071 -0.002960 0.021900 -0.001661 -0.003476 0.005010
# 4 -0.013999 -0.018656 -0.001661 0.055323 0.003746 0.026042
# 5 0.007100 0.000933 -0.003476 0.003746 0.053443 -0.003096
# 6 -0.002923 -0.017902 0.005010 0.026042 -0.003096 0.063473
#
#
# Mechanical properties :
#
#
# Convention : Reuss Voigt Hill
#
# Bulk Modulus (GPa) = 18.51237 31.98908 25.25073
# Shear Modulus (GPa) = 19.20194 29.05408 24.12801
#
# Velocity S-wave (km/s) = 2.67307 3.28807 2.99639
# Velocity P-wave (km/s) = 4.05164 5.13019 4.62248
#
# Compressibility (1/GPa) = 0.05401794
#
# Stress axis : x y z
#
# Youngs Moduli (GPa) = 45.34280 55.16638 45.66186
#
# Poissons Ratio (x) = -0.27582 0.27721
# Poissons Ratio (y) = -0.22670 0.13518
# Poissons Ratio (z) = 0.27527 0.16332
#
# Static dielectric constant tensor:
#      x y z
#    x 2.227560 -0.013090 -0.042340 
#    y -0.013090 2.175880 -0.058740 
#    z -0.042340 -0.058740 2.101590 
# 
# From -- ./inp_files/401093.got.cif
#   From: 2010.05.17/outbox.cif.g08.bks.cpg/sg2_201_cif.got.tgz:401093.got - 2010.06.03 11:33:40.
