data_PCOD9077747
_publ_section_title
;
Structure prediction by ZEFSAII (Michael W. Deem and Ramdas Pophale) SiO2 
 PCOD9077747
Probable space group: P -1
;
_chemical_formula_sum "Si O2"
_cell_formula_units_Z 16
_cell_length_a 8.650072
_cell_length_b 17.307724
_cell_length_c 10.376274
_cell_angle_alpha 38.018364
_cell_angle_beta 54.450521
_cell_angle_gamma 70.038856
_cell_volume 757.078300
_symmetry_space_group_name_H-M "P -1"
_symmetry_group_IT_number 2
_symmetry_cell_setting 'triclinic'
loop_
_space_group_symop_operation_xyz
x,y,z
-x,-y,-z
loop_
_atom_site_type_symbol
_atom_site_label
_atom_site_fract_x
_atom_site_fract_y
_atom_site_fract_z
Si Si1 0.247341 0.510245 0.159871
Si Si2 0.799225 0.725375 0.719648
Si Si3 0.426070 0.916890 0.015927
Si Si4 0.464671 0.334577 0.381309
Si Si5 0.572329 0.694549 0.126275
Si Si6 0.811234 0.308170 0.425075
Si Si7 0.209084 0.081715 0.747942
Si Si8 0.820243 0.512002 0.349729
O O1 0.219621 0.391704 0.222572
O O2 0.364574 0.454659 0.287271
O O3 0.039100 0.534540 0.270659
O O4 0.393741 0.628931 0.861577
O O5 0.798911 0.857026 0.470086
O O6 0.004066 0.722943 0.693489
O O7 0.639089 0.703500 0.935322
O O8 0.364239 0.998899 0.822035
O O9 0.572021 0.833564 0.002647
O O10 0.237428 0.805544 0.295985
O O11 0.500000 0.000000 0.000000
O O12 0.612763 0.304106 0.452889
O O13 0.287173 0.211474 0.621161
O O14 0.719896 0.629974 0.221764
O O15 0.354536 0.602033 0.361615
O O16 0.857474 0.451052 0.273183
O O17 0.000000 0.000000 0.000000
#
# Coordination Sequence:
#
# PCOD9077747 Si02
#       8
#     2   2   2   2   2   2   2   2
#     4   9  19  35  59  91 123 157 194 243 305 372
#     4  10  20  36  62  95 121 156 202 251 302 357
#     4  11  22  40  61  83 115 164 211 246 298 359
#     4  10  19  31  59  92 117 152 202 251 288 350
#     4  10  21  35  61  94 124 156 201 253 300 355
#     4  10  18  34  64  89 116 160 199 243 296 367
#     4  11  22  38  62  85 117 162 213 248 293 363
#     4   9  19  37  61  91 124 161 194 241 310 369
#
# _framework density 21.133879
#
# number of rings (size 3 to 8) (size 9 to 14) (size 15 to 20)
#    0.000    2.000    2.500    1.500    1.750    2.500 
#    0.000    0.625    0.000   37.500    0.000    0.000 
#    0.000    0.000    0.000    0.000    0.000    0.000 
#
# Total GULP energy -89134.343422 kJ/mol
# GULP energy per Si atom -5570.896464 kJ/mol
# Density = 2.108578 g / cm^3
# Si number density = 21.133879 Si / 1000 Ang^3
#
#
#
# Elastic Constant Matrix: (Units=GPa)
#
#
# Indices 1 2 3 4 5 6 
#
# 1 108.1470 44.2501 39.0602 0.6135 -0.7966 -34.1034
# 2 44.2501 116.9538 44.1341 -7.1991 3.8455 -25.2758
# 3 39.0602 44.1341 111.8985 -3.1822 6.5120 -20.4069
# 4 0.6135 -7.1991 -3.1822 30.0226 -3.3256 -6.1900
# 5 -0.7966 3.8455 6.5120 -3.3256 28.8653 0.4903
# 6 -34.1034 -25.2758 -20.4069 -6.1900 0.4903 34.4199
#
#
#
# Elastic Compliance Matrix: (Units=1/GPa)
#
#
# Indices 1 2 3 4 5 6 
#
# 1 0.014648 -0.002091 -0.002124 0.001571 0.001140 0.011985
# 2 -0.002091 0.011861 -0.002770 0.003686 -0.000685 0.005669
# 3 -0.002124 -0.002770 0.011445 0.000934 -0.002212 0.002846
# 4 0.001571 0.003686 0.000934 0.036992 0.003409 0.011422
# 5 0.001140 -0.000685 -0.002212 0.003409 0.035668 -0.000580
# 6 0.011985 0.005669 0.002846 0.011422 -0.000580 0.048840
#
#
# Mechanical properties :
#
#
# Convention : Reuss Voigt Hill
#
# Bulk Modulus (GPa) = 41.69448 65.76532 53.72990
# Shear Modulus (GPa) = 27.56027 32.63189 30.09608
#
# Velocity S-wave (km/s) = 3.61512 3.93371 3.77778
# Velocity P-wave (km/s) = 6.09894 7.19848 6.67140
#
# Compressibility (1/GPa) = 0.02398399
#
# Stress axis : x y z
#
# Youngs Moduli (GPa) = 68.26641 84.30711 87.37390
#
# Poissons Ratio (x) = 0.17631 0.18562
# Poissons Ratio (y) = 0.14276 0.24201
# Poissons Ratio (z) = 0.14503 0.23351
#
# Static dielectric constant tensor:
#      x y z
#    x 1.895940 0.016870 0.019350 
#    y 0.016870 1.771790 0.000960 
#    z 0.019350 0.000960 1.785030 
# 
# From -- ./inp_files/382569.got.cif
#   From: 2010.05.17/outbox.cif.g08.bks.cpg/sg2_192_cif.got.tgz:382569.got - 2010.06.03 11:33:40.
