data_PCOD9077879
_publ_section_title
;
Structure prediction by ZEFSAII (Michael W. Deem and Ramdas Pophale) SiO2 
 PCOD9077879
Probable space group: P -1
;
_chemical_formula_sum "Si O2"
_cell_formula_units_Z 10
_cell_length_a 10.925050
_cell_length_b 14.340310
_cell_length_c 14.650041
_cell_angle_alpha 159.680580
_cell_angle_beta 148.163650
_cell_angle_gamma 40.256648
_cell_volume 413.317073
_symmetry_space_group_name_H-M "P -1"
_symmetry_group_IT_number 2
_symmetry_cell_setting 'triclinic'
loop_
_space_group_symop_operation_xyz
x,y,z
-x,-y,-z
loop_
_atom_site_type_symbol
_atom_site_label
_atom_site_fract_x
_atom_site_fract_y
_atom_site_fract_z
Si Si1 0.224965 0.886592 0.313541
Si Si2 0.469389 0.964049 0.839071
Si Si3 0.343393 0.903956 0.104037
Si Si4 0.688878 0.689674 0.396934
Si Si5 0.822887 0.605601 0.916746
O O1 0.406233 0.699657 0.216900
O O2 0.376625 0.012549 0.613549
O O3 0.204846 0.129612 0.454940
O O4 0.974700 0.718786 0.028617
O O5 0.670227 0.079325 0.997988
O O6 0.381093 0.647423 0.469589
O O7 0.273550 0.151517 0.872535
O O8 0.500000 0.000000 0.000000
O O9 0.240457 0.133661 0.304666
O O10 0.264395 0.609086 0.828557
O O11 0.000000 0.500000 0.000000
#
# Coordination Sequence:
#
# PCOD9077879 Si02
#       5
#     2   2   2   2   2
#     4   9  20  31  59  88 116 141 196 253 291 335
#     4  12  26  41  59  87 128 166 191 241 312 362
#     4  10  18  35  55  80 115 153 192 232 289 355
#     4   9  19  31  55  90 115 144 185 255 301 330
#     4  12  23  39  65  91 119 153 209 255 287 344
#
# _framework density 24.194499
#
# number of rings (size 3 to 8) (size 9 to 14) (size 15 to 20)
#    1.200    0.400    2.000    4.200    2.800    0.000 
#    0.000    0.000    0.000    7.200    0.000    0.000 
#    0.000    0.000    0.000    0.000    0.000    0.000 
#
# Total GULP energy -55872.453010 kJ/mol
# GULP energy per Si atom -5587.245301 kJ/mol
# Density = 2.413943 g / cm^3
# Si number density = 24.194499 Si / 1000 Ang^3
#
#
#
# Elastic Constant Matrix: (Units=GPa)
#
#
# Indices 1 2 3 4 5 6 
#
# 1 77.4074 9.0146 10.6468 5.4206 -5.9795 37.9022
# 2 9.0146 55.0584 21.3064 12.5236 -6.7083 9.7987
# 3 10.6468 21.3064 45.5979 18.4693 7.7676 5.1568
# 4 5.4206 12.5236 18.4693 44.0177 11.3111 -1.6647
# 5 -5.9795 -6.7083 7.7676 11.3111 25.4400 -2.1199
# 6 37.9022 9.7987 5.1568 -1.6647 -2.1199 39.9253
#
#
#
# Elastic Compliance Matrix: (Units=1/GPa)
#
#
# Indices 1 2 3 4 5 6 
#
# 1 0.026729 0.004483 -0.004600 -0.006025 0.009412 -0.025632
# 2 0.004483 0.027142 -0.012281 -0.007158 0.014404 -0.008864
# 3 -0.004600 -0.012281 0.033199 -0.006908 -0.011201 0.002210
# 4 -0.006025 -0.007158 -0.006908 0.032570 -0.014931 0.008934
# 5 0.009412 0.014404 -0.011201 -0.014931 0.054649 -0.008744
# 6 -0.025632 -0.008864 0.002210 0.008934 -0.008744 0.051178
#
#
# Mechanical properties :
#
#
# Convention : Reuss Voigt Hill
#
# Bulk Modulus (GPa) = 16.05818 28.88881 22.47349
# Shear Modulus (GPa) = 18.44876 31.01634 24.73255
#
# Velocity S-wave (km/s) = 2.76437 3.58433 3.20072
# Velocity P-wave (km/s) = 4.10372 5.39407 4.79252
#
# Compressibility (1/GPa) = 0.06227355
#
# Stress axis : x y z
#
# Youngs Moduli (GPa) = 37.41284 36.84341 30.12101
#
# Poissons Ratio (x) = -0.16515 0.13855
# Poissons Ratio (y) = -0.16771 0.36992
# Poissons Ratio (z) = 0.17209 0.45248
#
# Static dielectric constant tensor:
#      x y z
#    x 1.940510 -0.004580 0.000520 
#    y -0.004580 1.966150 -0.078360 
#    z 0.000520 -0.078360 1.931990 
# 
# From -- ./inp_files/558.got.cif
#   From: 2010.05.17/outbox.cif.g08.bks.cpg/sg2_1_cif.got.tgz:558.got - 2010.06.03 11:33:40.
