data_PCOD9077708
_publ_section_title
;
Structure prediction by ZEFSAII (Michael W. Deem and Ramdas Pophale) SiO2 
 PCOD9077708
Probable space group: P -1
;
_chemical_formula_sum "Si O2"
_cell_formula_units_Z 14
_cell_length_a 13.331317
_cell_length_b 9.294302
_cell_length_c 11.261233
_cell_angle_alpha 55.397050
_cell_angle_beta 142.583460
_cell_angle_gamma 138.038570
_cell_volume 565.983572
_symmetry_space_group_name_H-M "P -1"
_symmetry_group_IT_number 2
_symmetry_cell_setting 'triclinic'
loop_
_space_group_symop_operation_xyz
x,y,z
-x,-y,-z
loop_
_atom_site_type_symbol
_atom_site_label
_atom_site_fract_x
_atom_site_fract_y
_atom_site_fract_z
Si Si1 0.479792 0.742573 0.198636
Si Si2 0.144984 0.339559 0.210873
Si Si3 0.844245 0.740836 0.475454
Si Si4 0.811656 0.961444 0.757985
Si Si5 0.649705 0.191351 0.198604
Si Si6 0.906509 0.664484 0.307232
Si Si7 0.722366 0.927473 0.935197
O O1 0.303233 0.576756 0.199357
O O2 0.613267 0.670311 0.300161
O O3 0.643313 0.978292 0.296301
O O4 0.367022 0.769223 0.973156
O O5 0.126332 0.337028 0.335414
O O6 0.241097 0.218525 0.303856
O O7 0.916083 0.176310 0.022336
O O8 0.894334 0.671823 0.434341
O O9 0.000000 0.000000 0.500000
O O10 0.892042 0.173831 0.658255
O O11 0.656979 0.899491 0.748650
O O12 0.000000 0.000000 0.000000
O O13 0.815215 0.424291 0.296408
O O14 0.447228 0.119872 0.111210
O O15 0.778794 0.760926 0.100969
#
# Coordination Sequence:
#
# PCOD9077708 Si02
#       7
#     2   2   2   2   2   2   2
#     4  11  24  38  58  87 123 151 185 250 290 342
#     4  10  20  37  58  87 116 151 196 234 286 338
#     4  12  21  40  63  85 113 156 204 231 282 350
#     4   8  16  30  57  86 108 136 192 247 275 315
#     4  11  22  38  58  90 120 149 191 239 303 332
#     4  10  19  35  61  87 110 152 196 241 280 340
#     4  10  18  34  63  88 113 148 196 245 277 347
#
# _framework density 24.735700999999999
#
# number of rings (size 3 to 8) (size 9 to 14) (size 15 to 20)
#    0.000    2.000    4.286    3.429    2.000    0.571 
#    0.000    2.857    0.000    0.000    0.000    0.000 
#    0.000    0.000    0.000    0.000    0.000    0.000 
#
# Total GULP energy -78229.351921 kJ/mol
# GULP energy per Si atom -5587.810852 kJ/mol
# Density = 2.467940 g / cm^3
# Si number density = 24.735701 Si / 1000 Ang^3
#
#
#
# Elastic Constant Matrix: (Units=GPa)
#
#
# Indices 1 2 3 4 5 6 
#
# 1 140.8657 75.0352 54.3338 -21.5840 -52.5286 18.0963
# 2 75.0352 159.5598 43.8253 10.3393 -27.7234 9.0230
# 3 54.3338 43.8253 70.4473 4.4473 -37.3605 2.0680
# 4 -21.5840 10.3393 4.4473 21.2966 -0.1948 -8.3789
# 5 -52.5286 -27.7234 -37.3605 -0.1948 58.7133 -1.8200
# 6 18.0963 9.0230 2.0680 -8.3789 -1.8200 46.3851
#
#
#
# Elastic Compliance Matrix: (Units=1/GPa)
#
#
# Indices 1 2 3 4 5 6 
#
# 1 0.024955 -0.009051 -0.008953 0.031090 0.012413 -0.001473
# 2 -0.009051 0.011212 -0.000812 -0.015055 -0.003416 -0.001467
# 3 -0.008953 -0.000812 0.027201 -0.014191 0.008876 0.000223
# 4 0.031090 -0.015055 -0.014191 0.092222 0.012248 0.008572
# 5 0.012413 -0.003416 0.008876 0.012248 0.032179 -0.001099
# 6 -0.001473 -0.001467 0.000223 0.008572 -0.001099 0.023914
#
#
# Mechanical properties :
#
#
# Convention : Reuss Voigt Hill
#
# Bulk Modulus (GPa) = 38.85482 79.69572 59.27527
# Shear Modulus (GPa) = 19.38779 38.45756 28.92268
#
# Velocity S-wave (km/s) = 2.80268 3.94730 3.42317
# Velocity P-wave (km/s) = 5.12010 7.28448 6.29600
#
# Compressibility (1/GPa) = 0.02573683
#
# Stress axis : x y z
#
# Youngs Moduli (GPa) = 40.07174 89.19263 36.76281
#
# Poissons Ratio (x) = 0.80728 0.32913
# Poissons Ratio (y) = 0.36269 0.02985
# Poissons Ratio (z) = 0.35875 0.07243
#
# Static dielectric constant tensor:
#      x y z
#    x 2.002950 -0.000380 0.084250 
#    y -0.000380 1.930840 0.032600 
#    z 0.084250 0.032600 2.112800 
# 
# From -- ./inp_files/444231.got.cif
#   From: 2010.05.17/outbox.cif.g08.bks.cpg/sg2_223_cif.got.tgz:444231.got - 2010.06.03 11:33:40.
