data_PCOD9077161
_publ_section_title
;
Structure prediction by ZEFSAII (Michael W. Deem and Ramdas Pophale) SiO2 
 PCOD9077161
Probable space group: P -1
;
_chemical_formula_sum "Si O2"
_cell_formula_units_Z 15
_cell_length_a 7.718104
_cell_length_b 15.558508
_cell_length_c 12.841783
_cell_angle_alpha 151.483709
_cell_angle_beta 88.239290
_cell_angle_gamma 76.402461
_cell_volume 614.913322
_symmetry_space_group_name_H-M "P -1"
_symmetry_group_IT_number 2
_symmetry_cell_setting 'triclinic'
loop_
_space_group_symop_operation_xyz
x,y,z
-x,-y,-z
loop_
_atom_site_type_symbol
_atom_site_label
_atom_site_fract_x
_atom_site_fract_y
_atom_site_fract_z
Si Si1 0.643995 0.102431 0.240914
Si Si2 0.467729 0.142294 0.876389
Si Si3 0.042642 0.858524 0.626851
Si Si4 0.500000 0.000000 0.500000
Si Si5 0.934762 0.376070 0.295621
Si Si6 0.989495 0.491119 0.202706
Si Si7 0.065887 0.103486 0.694766
Si Si8 0.326252 0.807228 0.883570
O O1 0.725795 0.240428 0.438955
O O2 0.510041 0.058042 0.273555
O O3 0.568957 0.172191 0.199042
O O4 0.858480 0.864684 0.973586
O O5 0.552671 0.238701 0.059888
O O6 0.564979 0.066939 0.680495
O O7 0.228628 0.326554 0.057438
O O8 0.984965 0.704622 0.408360
O O9 0.018023 0.033664 0.730830
O O10 0.885936 0.964342 0.839376
O O11 0.691156 0.991329 0.425127
O O12 0.870438 0.495473 0.312313
O O13 0.000000 0.500000 0.500000
O O14 0.752602 0.347768 0.304702
O O15 0.955565 0.363766 0.976757
O O16 0.000000 0.000000 0.500000
#
# Coordination Sequence:
#
# PCOD9077161 Si02
#       8
#     2   2   2   1   2   2   2   2
#     4  10  19  36  57  88 122 165 197 249 316 376
#     4  10  21  39  58  87 122 164 203 257 319 361
#     4  11  20  40  63  89 122 162 205 250 318 373
#     4  10  20  40  66  82 124 164 204 262 314 362
#     4  10  18  34  56  87 123 161 201 247 311 370
#     4  10  21  39  60  87 126 158 203 258 306 384
#     4  11  22  41  67  90 124 168 214 264 319 367
#     4  11  20  34  63  92 122 161 206 255 308 378
#
# _framework density 24.393681999999998
#
# number of rings (size 3 to 8) (size 9 to 14) (size 15 to 20)
#    0.000    1.600    5.333    4.400    0.000    0.533 
#    0.000   11.333    0.000    0.000    0.000    0.000 
#    0.000    0.000    0.000    0.000    0.000    0.000 
#
# Total GULP energy -83551.504975 kJ/mol
# GULP energy per Si atom -5570.100332 kJ/mol
# Density = 2.433816 g / cm^3
# Si number density = 24.393682 Si / 1000 Ang^3
#
#
#
# Elastic Constant Matrix: (Units=GPa)
#
#
# Indices 1 2 3 4 5 6 
#
# 1 66.9213 5.3663 20.7827 0.8408 25.7346 9.7895
# 2 5.3663 64.6180 29.9814 -16.6517 -9.7158 16.3462
# 3 20.7827 29.9814 111.8272 -5.5174 46.3754 6.5761
# 4 0.8408 -16.6517 -5.5174 42.8473 -3.0793 6.0560
# 5 25.7346 -9.7158 46.3754 -3.0793 47.3027 -8.3980
# 6 9.7895 16.3462 6.5761 6.0560 -8.3980 44.4253
#
#
#
# Elastic Compliance Matrix: (Units=1/GPa)
#
#
# Indices 1 2 3 4 5 6 
#
# 1 0.023360 -0.008179 0.007951 -0.003278 -0.023702 -0.007349
# 2 -0.008179 0.034545 -0.019697 0.013847 0.031045 -0.004012
# 3 0.007951 -0.019697 0.028185 -0.006170 -0.037273 -0.004881
# 4 -0.003278 0.013847 -0.006170 0.029575 0.011663 -0.005286
# 5 -0.023702 0.031045 -0.037273 0.011663 0.079995 0.012849
# 6 -0.007349 -0.004012 -0.004881 -0.005286 0.012849 0.029477
#
#
# Mechanical properties :
#
#
# Convention : Reuss Voigt Hill
#
# Bulk Modulus (GPa) = 21.62550 39.51416 30.56983
# Shear Modulus (GPa) = 17.83158 39.39746 28.61452
#
# Velocity S-wave (km/s) = 2.70662 4.02315 3.42867
# Velocity P-wave (km/s) = 4.31882 6.14936 5.31351
#
# Compressibility (1/GPa) = 0.04624171
#
# Stress axis : x y z
#
# Youngs Moduli (GPa) = 42.80739 28.94769 35.47938
#
# Poissons Ratio (x) = 0.23675 -0.28210
# Poissons Ratio (y) = 0.35010 0.69884
# Poissons Ratio (z) = -0.34037 0.57019
#
# Static dielectric constant tensor:
#      x y z
#    x 2.006800 -0.056090 0.050270 
#    y -0.056090 1.936000 0.034120 
#    z 0.050270 0.034120 1.981450 
# 
# From -- ./inp_files/297379.got.cif
#   From: 2010.05.17/outbox.cif.g08.bks.cpg/sg2_149_cif.got.tgz:297379.got - 2010.06.03 11:33:40.
