data_PCOD9077813
_publ_section_title
;
Structure prediction by ZEFSAII (Michael W. Deem and Ramdas Pophale) SiO2 
 PCOD9077813
Probable space group: P -1
;
_chemical_formula_sum "Si O2"
_cell_formula_units_Z 16
_cell_length_a 12.361977
_cell_length_b 14.359900
_cell_length_c 8.353760
_cell_angle_alpha 60.622865
_cell_angle_beta 102.543396
_cell_angle_gamma 150.299472
_cell_volume 560.304460
_symmetry_space_group_name_H-M "P -1"
_symmetry_group_IT_number 2
_symmetry_cell_setting 'triclinic'
loop_
_space_group_symop_operation_xyz
x,y,z
-x,-y,-z
loop_
_atom_site_type_symbol
_atom_site_label
_atom_site_fract_x
_atom_site_fract_y
_atom_site_fract_z
Si Si1 0.327072 0.771889 0.526207
Si Si2 0.187024 0.529371 0.986774
Si Si3 0.907518 0.802015 0.179257
Si Si4 0.601932 0.014462 0.881902
Si Si5 0.567652 0.827236 0.280453
Si Si6 0.920697 0.705929 0.576549
Si Si7 0.329906 0.290030 0.458079
Si Si8 0.565164 0.437229 0.121313
O O1 0.152711 0.555421 0.777805
O O2 0.476329 0.817498 0.416502
O O3 0.500000 0.000000 0.500000
O O4 0.226261 0.773177 0.366396
O O5 0.342295 0.754350 0.935688
O O6 0.392788 0.614617 0.950863
O O7 0.001021 0.305861 0.239291
O O8 0.044589 0.856182 0.321324
O O9 0.619852 0.572162 0.344622
O O10 0.819120 0.659912 0.116640
O O11 0.000000 0.000000 0.000000
O O12 0.699105 0.003260 0.030676
O O13 0.500000 0.000000 0.000000
O O14 0.306972 0.559383 0.348330
O O15 0.733362 0.863462 0.321543
O O16 0.822176 0.733999 0.591812
O O17 0.346072 0.232066 0.349757
O O18 0.500000 0.500000 0.000000
#
# Coordination Sequence:
#
# PCOD9077813 Si02
#       8
#     2   2   2   2   2   2   2   2
#     4   9  15  23  33  53  82 116 140 178 225 263
#     4  10  15  25  41  58  84 119 154 176 213 269
#     4   9  18  30  43  61  91 122 154 188 219 250
#     4   8  16  23  34  54  84 116 148 174 224 267
#     4   9  14  24  37  56  80 118 150 175 209 271
#     4  10  17  27  45  66  85 123 153 177 212 275
#     4   9  17  26  46  63  89 117 156 169 217 259
#     4  10  18  28  45  66  90 122 153 178 216 268
#
# _framework density 28.555903000000001
#
# number of rings (size 3 to 8) (size 9 to 14) (size 15 to 20)
#    0.750    2.000    2.500    1.500    0.000    0.000 
#    0.000    0.625    0.000    0.000    0.000    0.000 
#    0.000    0.000    0.000 2124.000    0.000    0.000 
#
# Total GULP energy -89117.506904 kJ/mol
# GULP energy per Si atom -5569.844182 kJ/mol
# Density = 2.849091 g / cm^3
# Si number density = 28.555903 Si / 1000 Ang^3
#
#
#
# Elastic Constant Matrix: (Units=GPa)
#
#
# Indices 1 2 3 4 5 6 
#
# 1 72.1329 44.4186 40.2807 -3.3202 5.4257 -9.1193
# 2 44.4186 108.8828 43.2698 8.0765 -11.8246 -16.9188
# 3 40.2807 43.2698 290.5099 -4.1601 55.6801 7.5823
# 4 -3.3202 8.0765 -4.1601 42.4996 -8.7297 -10.5078
# 5 5.4257 -11.8246 55.6801 -8.7297 49.2791 -6.4633
# 6 -9.1193 -16.9188 7.5823 -10.5078 -6.4633 42.5546
#
#
#
# Elastic Compliance Matrix: (Units=1/GPa)
#
#
# Indices 1 2 3 4 5 6 
#
# 1 0.019830 -0.007728 -0.001248 0.002971 -0.001858 0.001851
# 2 -0.007728 0.015546 -0.003108 -0.000491 0.008833 0.006299
# 3 -0.001248 -0.003108 0.005661 -0.001569 -0.007819 -0.004087
# 4 0.002971 -0.000491 -0.001569 0.027319 0.007292 0.008575
# 5 -0.001858 0.008833 -0.007819 0.007292 0.034252 0.011509
# 6 0.001851 0.006299 -0.004087 0.008575 0.011509 0.030994
#
#
# Mechanical properties :
#
#
# Convention : Reuss Voigt Hill
#
# Bulk Modulus (GPa) = 59.28323 80.82931 70.05627
# Shear Modulus (GPa) = 30.60087 49.77042 40.18564
#
# Velocity S-wave (km/s) = 3.27710 4.17935 3.75542
# Velocity P-wave (km/s) = 5.92661 7.18724 6.58715
#
# Compressibility (1/GPa) = 0.01686818
#
# Stress axis : x y z
#
# Youngs Moduli (GPa) = 50.42956 64.32316 176.64774
#
# Poissons Ratio (x) = 0.49710 0.22045
# Poissons Ratio (y) = 0.38973 0.54908
# Poissons Ratio (z) = 0.06293 0.19994
#
# Static dielectric constant tensor:
#      x y z
#    x 39.478690 2.038280 24.230860 
#    y 2.038280 2.449440 1.533740 
#    z 24.230860 1.533740 18.410130 
# 
# From -- ./inp_files/334195.got.cif
#   From: 2010.05.17/outbox.cif.g08.bks.cpg/sg2_168_cif.got.tgz:334195.got - 2010.06.03 11:33:40.
