data_PCOD9077452
_publ_section_title
;
Structure prediction by ZEFSAII (Michael W. Deem and Ramdas Pophale) SiO2 
 PCOD9077452
Probable space group: P -1
;
_chemical_formula_sum "Si O2"
_cell_formula_units_Z 16
_cell_length_a 8.028917
_cell_length_b 13.105398
_cell_length_c 12.088896
_cell_angle_alpha 54.566299
_cell_angle_beta 51.191438
_cell_angle_gamma 37.204382
_cell_volume 590.516099
_symmetry_space_group_name_H-M "P -1"
_symmetry_group_IT_number 2
_symmetry_cell_setting 'triclinic'
loop_
_space_group_symop_operation_xyz
x,y,z
-x,-y,-z
loop_
_atom_site_type_symbol
_atom_site_label
_atom_site_fract_x
_atom_site_fract_y
_atom_site_fract_z
Si Si1 0.061134 0.968027 0.829834
Si Si2 0.034131 0.347515 0.461779
Si Si3 0.120472 0.748337 0.619581
Si Si4 0.167202 0.278527 0.061495
Si Si5 0.579659 0.287054 0.982959
Si Si6 0.650995 0.096793 0.478132
Si Si7 0.129214 0.595435 0.263868
Si Si8 0.709235 0.870894 0.109355
O O1 0.124196 0.975109 0.674015
O O2 0.349277 0.834371 0.868187
O O3 0.826430 0.149330 0.875055
O O4 0.932613 0.881322 0.955668
O O5 0.864469 0.345577 0.435691
O O6 0.351603 0.179472 0.487356
O O7 0.107181 0.460171 0.325700
O O8 0.841692 0.415815 0.609802
O O9 0.092392 0.677238 0.787134
O O10 0.341383 0.773851 0.539775
O O11 0.812506 0.938574 0.593260
O O12 0.416188 0.067806 0.109111
O O13 0.270244 0.365483 0.020947
O O14 0.232475 0.267120 0.910986
O O15 0.628967 0.415298 0.889451
O O16 0.824494 0.780557 0.235627
#
# Coordination Sequence:
#
# PCOD9077452 Si02
#       8
#     2   2   2   2   2   2   2   2
#     4   9  16  32  55  86 119 143 189 247 281 346
#     4  11  24  43  61  82 120 159 198 245 290 353
#     4  11  23  38  62  94 119 152 194 243 301 352
#     4  10  18  34  59  93 118 146 191 248 292 341
#     4   9  18  32  60  86 111 156 195 235 295 335
#     4  11  22  38  62  90 121 152 190 245 304 350
#     4  10  22  43  58  81 113 160 203 239 289 352
#     4   9  18  34  59  84 120 150 187 239 292 337
#
# _framework density 27.094943000000001
#
# number of rings (size 3 to 8) (size 9 to 14) (size 15 to 20)
#    0.000    2.000    1.250    3.375    0.000    0.000 
#    4.500    7.500    0.000    0.000    0.000    0.000 
#    0.000    0.000    0.000    0.000    0.000    0.000 
#
# Total GULP energy -89379.528549 kJ/mol
# GULP energy per Si atom -5586.220534 kJ/mol
# Density = 2.703327 g / cm^3
# Si number density = 27.094943 Si / 1000 Ang^3
#
#
#
# Elastic Constant Matrix: (Units=GPa)
#
#
# Indices 1 2 3 4 5 6 
#
# 1 87.0551 21.6132 16.1749 1.5583 12.8334 14.9854
# 2 21.6132 58.0255 33.2788 -0.4591 4.8654 6.9969
# 3 16.1749 33.2788 114.2384 -1.6875 22.5555 10.2419
# 4 1.5583 -0.4591 -1.6875 42.6312 8.5648 9.4110
# 5 12.8334 4.8654 22.5555 8.5648 39.9381 -5.8513
# 6 14.9854 6.9969 10.2419 9.4110 -5.8513 53.4945
#
#
#
# Elastic Compliance Matrix: (Units=1/GPa)
#
#
# Indices 1 2 3 4 5 6 
#
# 1 0.014010 -0.004731 0.000864 0.001504 -0.005370 -0.004323
# 2 -0.004731 0.022437 -0.006342 -0.000307 0.002423 -0.000076
# 3 0.000864 -0.006342 0.012250 0.002539 -0.007409 -0.003015
# 4 0.001504 -0.000307 0.002539 0.026649 -0.008546 -0.006490
# 5 -0.005370 0.002423 -0.007409 -0.008546 0.033627 0.007787
# 6 -0.004323 -0.000076 -0.003015 -0.006490 0.007787 0.022485
#
#
# Mechanical properties :
#
#
# Convention : Reuss Voigt Hill
#
# Bulk Modulus (GPa) = 35.36186 44.60587 39.98386
# Shear Modulus (GPa) = 30.99788 39.76290 35.38039
#
# Velocity S-wave (km/s) = 3.38605 3.83500 3.61750
# Velocity P-wave (km/s) = 5.32602 6.00901 5.67779
#
# Compressibility (1/GPa) = 0.02827906
#
# Stress axis : x y z
#
# Youngs Moduli (GPa) = 71.37919 44.56928 81.63535
#
# Poissons Ratio (x) = 0.21084 -0.07057
# Poissons Ratio (y) = 0.33767 0.51777
# Poissons Ratio (z) = -0.06171 0.28268
#
# Static dielectric constant tensor:
#      x y z
#    x 2.334670 0.058350 0.078480 
#    y 0.058350 2.272100 0.040230 
#    z 0.078480 0.040230 2.055270 
# 
# From -- ./inp_files/243500.got.cif
#   From: 2010.05.17/outbox.cif.g08.bks.cpg/sg2_122_cif.got.tgz:243500.got - 2010.06.03 11:33:40.
