data_PCOD9077134
_publ_section_title
;
Structure prediction by ZEFSAII (Michael W. Deem and Ramdas Pophale) SiO2 
 PCOD9077134
Probable space group: P -1
;
_chemical_formula_sum "Si O2"
_cell_formula_units_Z 16
_cell_length_a 11.398447
_cell_length_b 16.421985
_cell_length_c 15.504866
_cell_angle_alpha 154.805167
_cell_angle_beta 119.089865
_cell_angle_gamma 77.065969
_cell_volume 878.795539
_symmetry_space_group_name_H-M "P -1"
_symmetry_group_IT_number 2
_symmetry_cell_setting 'triclinic'
loop_
_space_group_symop_operation_xyz
x,y,z
-x,-y,-z
loop_
_atom_site_type_symbol
_atom_site_label
_atom_site_fract_x
_atom_site_fract_y
_atom_site_fract_z
Si Si1 0.487153 0.581591 0.387354
Si Si2 0.777913 0.932762 0.137654
Si Si3 0.685342 0.632162 0.655550
Si Si4 0.242088 0.634401 0.462219
Si Si5 0.665938 0.431930 0.995760
Si Si6 0.871163 0.215685 0.876283
Si Si7 0.617547 0.731771 0.388041
Si Si8 0.924480 0.934314 0.503949
O O1 0.656956 0.680311 0.595118
O O2 0.378195 0.656409 0.466932
O O3 0.529336 0.660656 0.380081
O O4 0.370340 0.298828 0.087455
O O5 0.940860 0.028616 0.343332
O O6 0.743567 0.127356 0.301480
O O7 0.790687 0.847680 0.965800
O O8 0.500000 0.500000 0.500000
O O9 0.732481 0.452785 0.520766
O O10 0.059112 0.425696 0.165723
O O11 0.642940 0.536422 0.175013
O O12 0.773263 0.663786 0.196761
O O13 0.763159 0.317403 0.934146
O O14 0.495968 0.266018 0.724729
O O15 0.872600 0.102036 0.677513
O O16 0.786640 0.992474 0.696692
O O17 0.000000 0.000000 0.500000
#
# Coordination Sequence:
#
# PCOD9077134 Si02
#       8
#     2   2   2   2   2   2   2   2
#     4  10  21  37  58  86 112 146 187 237 275 325
#     4  10  18  34  56  83 116 140 181 233 280 326
#     4   8  18  34  56  82 113 147 181 229 285 325
#     4  10  19  34  61  85 110 147 185 231 281 330
#     4  10  22  38  58  79 112 159 182 219 283 335
#     4  11  21  38  59  82 114 151 186 223 281 336
#     4  10  23  40  56  79 118 149 190 225 272 339
#     4  11  21  33  56  87 114 140 180 234 276 323
#
# _framework density 18.206738000000001
#
# number of rings (size 3 to 8) (size 9 to 14) (size 15 to 20)
#    0.000    2.250    3.750    1.125    0.000    7.000 
#    0.000    0.625    0.000    1.500    0.000    0.000 
#    0.000    0.000    0.000    0.000    0.000    0.000 
#
# Total GULP energy -89168.726955 kJ/mol
# GULP energy per Si atom -5573.045435 kJ/mol
# Density = 1.816530 g / cm^3
# Si number density = 18.206738 Si / 1000 Ang^3
#
#
#
# Elastic Constant Matrix: (Units=GPa)
#
#
# Indices 1 2 3 4 5 6 
#
# 1 90.0683 40.2472 3.6871 2.9967 -11.9415 -17.8612
# 2 40.2472 47.3692 0.3669 -6.7282 -9.6420 -10.5080
# 3 3.6871 0.3669 29.2358 7.0193 0.0927 -3.5431
# 4 2.9967 -6.7282 7.0193 21.0931 -7.3092 -0.3872
# 5 -11.9415 -9.6420 0.0927 -7.3092 23.9992 12.1673
# 6 -17.8612 -10.5080 -3.5431 -0.3872 12.1673 34.1945
#
#
#
# Elastic Compliance Matrix: (Units=1/GPa)
#
#
# Indices 1 2 3 4 5 6 
#
# 1 0.020152 -0.017817 0.000802 -0.009830 -0.003263 0.006184
# 2 -0.017817 0.042380 -0.004146 0.023052 0.016348 -0.002269
# 3 0.000802 -0.004146 0.039306 -0.017952 -0.010266 0.006667
# 4 -0.009830 0.023052 -0.017952 0.073024 0.031985 -0.010465
# 5 -0.003263 0.016348 -0.010266 0.031985 0.067187 -0.021289
# 6 0.006184 -0.002269 0.006667 -0.010465 -0.021289 0.039925
#
#
# Mechanical properties :
#
#
# Convention : Reuss Voigt Hill
#
# Bulk Modulus (GPa) = 16.80242 28.36396 22.58319
# Shear Modulus (GPa) = 14.52917 24.01552 19.27235
#
# Velocity S-wave (km/s) = 2.82797 3.63581 3.25703
# Velocity P-wave (km/s) = 4.46228 5.76525 5.15510
#
# Compressibility (1/GPa) = 0.05951525
#
# Stress axis : x y z
#
# Youngs Moduli (GPa) = 49.62215 23.59610 25.44131
#
# Poissons Ratio (x) = 0.42042 -0.02040
# Poissons Ratio (y) = 0.88413 0.10549
# Poissons Ratio (z) = -0.03980 0.09784
#
# Static dielectric constant tensor:
#      x y z
#    x 1.628990 -0.016470 0.006420 
#    y -0.016470 1.643800 -0.038930 
#    z 0.006420 -0.038930 1.666900 
# 
# From -- ./inp_files/521129.got.cif
#   From: 2010.05.17/outbox.cif.g08.bks.cpg/sg2_261_cif.got.tgz:521129.got - 2010.06.03 11:33:40.
