data_PCOD9077310
_publ_section_title
;
Structure prediction by ZEFSAII (Michael W. Deem and Ramdas Pophale) SiO2 
 PCOD9077310
Probable space group: P -1
;
_chemical_formula_sum "Si O2"
_cell_formula_units_Z 12
_cell_length_a 8.167241
_cell_length_b 7.822860
_cell_length_c 15.804373
_cell_angle_alpha 128.565504
_cell_angle_beta 133.624456
_cell_angle_gamma 62.877232
_cell_volume 570.927360
_symmetry_space_group_name_H-M "P -1"
_symmetry_group_IT_number 2
_symmetry_cell_setting 'triclinic'
loop_
_space_group_symop_operation_xyz
x,y,z
-x,-y,-z
loop_
_atom_site_type_symbol
_atom_site_label
_atom_site_fract_x
_atom_site_fract_y
_atom_site_fract_z
Si Si1 0.903528 0.495452 0.561102
Si Si2 0.582359 0.246405 0.942638
Si Si3 0.214887 0.912868 0.681941
Si Si4 0.253063 0.031427 0.382361
Si Si5 0.208487 0.653731 0.113703
Si Si6 0.658730 0.341623 0.178983
O O1 0.775620 0.270722 0.444923
O O2 0.000000 0.500000 0.500000
O O3 0.121351 0.510251 0.702762
O O4 0.765327 0.725460 0.590151
O O5 0.780867 0.241499 0.943603
O O6 0.380836 0.108382 0.791314
O O7 0.500000 0.500000 0.000000
O O8 0.646185 0.191021 0.044885
O O9 0.299972 0.800356 0.765897
O O10 0.951457 0.979874 0.625730
O O11 0.208244 0.845076 0.240961
O O12 0.500000 0.000000 0.500000
O O13 0.435844 0.498267 0.157535
O O14 0.000000 0.500000 0.000000
#
# Coordination Sequence:
#
# PCOD9077310 Si02
#       6
#     2   2   2   2   2   2
#     4   8  17  33  56  82 108 146 180 213 270 334
#     4  10  21  36  55  82 111 146 186 221 270 334
#     4  10  19  37  60  81 109 150 184 217 270 336
#     4  10  18  34  58  84 110 141 182 231 272 313
#     4  11  22  37  55  83 112 142 184 236 275 311
#     4   9  18  37  58  80 111 149 181 214 270 340
#
# _framework density 21.018436000000001
#
# number of rings (size 3 to 8) (size 9 to 14) (size 15 to 20)
#    0.000    2.667    0.000    5.500    0.000    1.333 
#    0.000   17.500    0.000    2.000    0.000    1.167 
#    0.000    0.000    0.000    0.000    0.000    0.000 
#
# Total GULP energy -66932.592807 kJ/mol
# GULP energy per Si atom -5577.716067 kJ/mol
# Density = 2.097060 g / cm^3
# Si number density = 21.018436 Si / 1000 Ang^3
#
#
#
# Elastic Constant Matrix: (Units=GPa)
#
#
# Indices 1 2 3 4 5 6 
#
# 1 62.5511 35.2409 52.3897 14.2068 14.8105 -8.5507
# 2 35.2409 83.0497 62.6756 1.9189 12.9249 -19.9736
# 3 52.3897 62.6756 197.1800 36.1272 32.1500 -18.0048
# 4 14.2068 1.9189 36.1272 43.9386 1.5980 3.2864
# 5 14.8105 12.9249 32.1500 1.5980 28.8270 4.7868
# 6 -8.5507 -19.9736 -18.0048 3.2864 4.7868 21.4994
#
#
#
# Elastic Compliance Matrix: (Units=1/GPa)
#
#
# Indices 1 2 3 4 5 6 
#
# 1 0.025472 -0.006861 -0.001291 -0.006975 -0.009144 0.005778
# 2 -0.006861 0.022066 -0.003505 0.003166 -0.005211 0.015512
# 3 -0.001291 -0.003505 0.010587 -0.008403 -0.010557 0.008731
# 4 -0.006975 0.003166 -0.008403 0.032430 0.012152 -0.014533
# 5 -0.009144 -0.005211 -0.010557 0.012152 0.058159 -0.032125
# 6 0.005778 0.015512 0.008731 -0.014533 -0.032125 0.079909
#
#
# Mechanical properties :
#
#
# Convention : Reuss Voigt Hill
#
# Bulk Modulus (GPa) = 28.72541 71.48814 50.10677
# Shear Modulus (GPa) = 18.97246 31.68464 25.32855
#
# Velocity S-wave (km/s) = 3.00769 3.88683 3.47517
# Velocity P-wave (km/s) = 5.07523 7.36405 6.32405
#
# Compressibility (1/GPa) = 0.03481239
#
# Stress axis : x y z
#
# Youngs Moduli (GPa) = 39.25809 45.31873 94.45886
#
# Poissons Ratio (x) = 0.31093 0.12190
# Poissons Ratio (y) = 0.26935 0.33107
# Poissons Ratio (z) = 0.05066 0.15884
#
# Static dielectric constant tensor:
#      x y z
#    x 1.803760 0.049990 0.000880 
#    y 0.049990 1.812010 0.014850 
#    z 0.000880 0.014850 1.800900 
# 
# From -- ./inp_files/184521.got.cif
#   From: 2010.05.17/outbox.cif.g08.bks.cpg/sg2_93_cif.got.tgz:184521.got - 2010.06.03 11:33:40.
