data_PCOD9077268
_publ_section_title
;
Structure prediction by ZEFSAII (Michael W. Deem and Ramdas Pophale) SiO2 
 PCOD9077268
Probable space group: P -1
;
_chemical_formula_sum "Si O2"
_cell_formula_units_Z 14
_cell_length_a 11.543208
_cell_length_b 14.538182
_cell_length_c 25.633570
_cell_angle_alpha 159.885924
_cell_angle_beta 152.505489
_cell_angle_gamma 26.733281
_cell_volume 632.027687
_symmetry_space_group_name_H-M "P -1"
_symmetry_group_IT_number 2
_symmetry_cell_setting 'triclinic'
loop_
_space_group_symop_operation_xyz
x,y,z
-x,-y,-z
loop_
_atom_site_type_symbol
_atom_site_label
_atom_site_fract_x
_atom_site_fract_y
_atom_site_fract_z
Si Si1 0.283574 0.219070 0.110598
Si Si2 0.447589 0.674755 0.266229
Si Si3 0.948463 0.718661 0.547539
Si Si4 0.491972 0.476036 0.569010
Si Si5 0.352729 0.145580 0.252574
Si Si6 0.225237 0.273049 0.003879
Si Si7 0.263714 0.742235 0.927571
O O1 0.285025 0.511794 0.293285
O O2 0.127924 0.255673 0.013741
O O3 0.590515 0.018888 0.107126
O O4 0.203109 0.023019 0.015059
O O5 0.705810 0.734464 0.420201
O O6 0.429295 0.446432 0.180206
O O7 0.522217 0.518687 0.157409
O O8 0.173061 0.956708 0.305367
O O9 0.000000 0.500000 0.500000
O O10 0.211513 0.613381 0.560722
O O11 0.481122 0.196807 0.385659
O O12 0.521827 0.697512 0.655524
O O13 0.022012 0.297004 0.201695
O O14 0.383986 0.832084 0.075549
O O15 0.000000 0.500000 0.000000
#
# Coordination Sequence:
#
# PCOD9077268 Si02
#       7
#     2   2   2   2   2   2   2
#     4   9  19  32  56  86 119 149 202 235 293 357
#     4  10  21  35  56  88 117 155 197 241 307 358
#     4  11  22  36  57  89 123 152 192 252 311 358
#     4  10  18  34  57  92 116 163 200 249 296 362
#     4   9  18  32  60  89 118 159 214 239 298 351
#     4  10  19  34  53  83 120 159 188 238 298 361
#     4   9  17  35  56  90 119 160 203 255 288 359
#
# _framework density 22.150929000000001
#
# number of rings (size 3 to 8) (size 9 to 14) (size 15 to 20)
#    0.000    2.286    1.429    1.714    0.000    2.286 
#    0.000    0.000    0.000    1.714   44.571    0.000 
#    0.000    0.000    0.000    0.000    0.000    0.000 
#
# Total GULP energy -77976.807182 kJ/mol
# GULP energy per Si atom -5569.771942 kJ/mol
# Density = 2.210051 g / cm^3
# Si number density = 22.150929 Si / 1000 Ang^3
#
#
#
# Elastic Constant Matrix: (Units=GPa)
#
#
# Indices 1 2 3 4 5 6 
#
# 1 124.3927 26.7905 37.2376 0.7163 -6.2889 -10.9263
# 2 26.7905 50.5423 9.3329 2.1487 -5.6892 8.2946
# 3 37.2376 9.3329 101.6162 -0.6355 -27.3543 7.5045
# 4 0.7163 2.1487 -0.6355 28.2529 -5.4431 -4.4785
# 5 -6.2889 -5.6892 -27.3543 -5.4431 42.9988 -10.9653
# 6 -10.9263 8.2946 7.5045 -4.4785 -10.9653 20.0922
#
#
#
# Elastic Compliance Matrix: (Units=1/GPa)
#
#
# Indices 1 2 3 4 5 6 
#
# 1 0.012161 -0.007693 -0.004235 0.002538 0.001664 0.012845
# 2 -0.007693 0.026563 0.001101 -0.005029 -0.002092 -0.017823
# 3 -0.004235 0.001101 0.013551 0.001198 0.007403 -0.003512
# 4 0.002538 -0.005029 0.001198 0.040453 0.010055 0.017513
# 5 0.001664 -0.002092 0.007403 0.010055 0.034296 0.019961
# 6 0.012845 -0.017823 -0.003512 0.017513 0.019961 0.080222
#
#
# Mechanical properties :
#
#
# Convention : Reuss Voigt Hill
#
# Bulk Modulus (GPa) = 32.65564 47.03035 39.84299
# Shear Modulus (GPa) = 20.91106 31.81479 26.36293
#
# Velocity S-wave (km/s) = 3.07583 3.79393 3.45360
# Velocity P-wave (km/s) = 5.23342 6.36158 5.82488
#
# Compressibility (1/GPa) = 0.03062258
#
# Stress axis : x y z
#
# Youngs Moduli (GPa) = 82.22776 37.64634 73.79262
#
# Poissons Ratio (x) = 0.28961 0.31250
# Poissons Ratio (y) = 0.63256 -0.08125
# Poissons Ratio (z) = 0.34823 -0.04145
#
# Static dielectric constant tensor:
#      x y z
#    x 1.823940 -0.000900 -0.007500 
#    y -0.000900 1.798660 -0.062360 
#    z -0.007500 -0.062360 1.978380 
# 
# From -- ./inp_files/270733.got.cif
#   From: 2010.05.17/outbox.cif.g08.bks.cpg/sg2_136_cif.got.tgz:270733.got - 2010.06.03 11:33:40.
