data_PCOD9077854
_publ_section_title
;
Structure prediction by ZEFSAII (Michael W. Deem and Ramdas Pophale) SiO2 
 PCOD9077854
Probable space group: P -1
;
_chemical_formula_sum "Si O2"
_cell_formula_units_Z 16
_cell_length_a 19.841772
_cell_length_b 6.869735
_cell_length_c 11.516776
_cell_angle_alpha 121.140308
_cell_angle_beta 148.756645
_cell_angle_gamma 60.517590
_cell_volume 692.462567
_symmetry_space_group_name_H-M "P -1"
_symmetry_group_IT_number 2
_symmetry_cell_setting 'triclinic'
loop_
_space_group_symop_operation_xyz
x,y,z
-x,-y,-z
loop_
_atom_site_type_symbol
_atom_site_label
_atom_site_fract_x
_atom_site_fract_y
_atom_site_fract_z
Si Si1 0.055192 0.228794 0.484016
Si Si2 0.488516 0.850463 0.323468
Si Si3 0.325893 0.248672 0.905372
Si Si4 0.176012 0.783880 0.141895
Si Si5 0.103092 0.271227 0.298212
Si Si6 0.385943 0.324326 0.765714
Si Si7 0.452013 0.602432 0.584912
Si Si8 0.217727 0.778805 0.924402
O O1 0.194654 0.145192 0.718818
O O2 0.083904 0.193147 0.378781
O O3 0.000000 0.500000 0.500000
O O4 0.925721 0.120223 0.295279
O O5 0.573161 0.847334 0.332446
O O6 0.530799 0.595832 0.355236
O O7 0.500000 0.000000 0.500000
O O8 0.335743 0.899293 0.086097
O O9 0.379767 0.192507 0.838486
O O10 0.263439 0.514648 0.878726
O O11 0.440793 0.240314 0.163550
O O12 0.301423 0.692913 0.374114
O O13 0.137728 0.047710 0.201476
O O14 0.215315 0.776357 0.061272
O O15 0.049001 0.644705 0.931236
O O16 0.231296 0.410591 0.534810
O O17 0.500000 0.500000 0.000000
O O18 0.500000 0.500000 0.500000
#
# Coordination Sequence:
#
# PCOD9077854 Si02
#       8
#     2   2   2   2   2   2   2   2
#     4   8  15  28  50  75 105 133 190 230 272 321
#     4  11  22  35  57  85 113 152 191 230 284 347
#     4   9  17  31  50  81 105 142 183 227 278 324
#     4  10  18  35  54  84 115 140 190 244 286 327
#     4   9  20  32  56  82 109 149 190 238 279 334
#     4  11  19  35  55  80 115 150 196 222 276 353
#     4  11  20  34  57  84 117 144 185 241 287 331
#     4   9  15  29  51  79 104 137 180 233 266 320
#
# _framework density 23.105941999999999
#
# number of rings (size 3 to 8) (size 9 to 14) (size 15 to 20)
#    0.000    2.250    5.000    0.750    0.000    0.000 
#    0.000    3.125    0.000    0.000    0.000    1.750 
#    0.000    0.000    0.000    0.000    0.000    0.000 
#
# Total GULP energy -89082.324360 kJ/mol
# GULP energy per Si atom -5567.645273 kJ/mol
# Density = 2.305335 g / cm^3
# Si number density = 23.105942 Si / 1000 Ang^3
#
#
#
# Elastic Constant Matrix: (Units=GPa)
#
#
# Indices 1 2 3 4 5 6 
#
# 1 126.7221 21.4583 61.3892 -5.2918 8.3322 -30.1511
# 2 21.4583 25.1031 17.6035 -9.7410 0.5283 -4.2860
# 3 61.3892 17.6035 222.0439 -32.8229 49.9432 -4.1259
# 4 -5.2918 -9.7410 -32.8229 28.8208 -13.0246 -4.1254
# 5 8.3322 0.5283 49.9432 -13.0246 56.8309 8.2825
# 6 -30.1511 -4.2860 -4.1259 -4.1254 8.2825 29.7763
#
#
#
# Elastic Compliance Matrix: (Units=1/GPa)
#
#
# Indices 1 2 3 4 5 6 
#
# 1 0.013677 -0.008590 -0.002859 -0.002709 -0.001834 0.012351
# 2 -0.008590 0.054728 -0.000365 0.018974 0.005382 0.000261
# 3 -0.002859 -0.000365 0.007174 0.005434 -0.004650 0.000093
# 4 -0.002709 0.018974 0.005434 0.050431 0.006126 0.006024
# 5 -0.001834 0.005382 -0.004650 0.006126 0.024423 -0.007672
# 6 0.012351 0.000261 0.000093 0.006024 -0.007672 0.049110
#
#
# Mechanical properties :
#
#
# Convention : Reuss Voigt Hill
#
# Bulk Modulus (GPa) = 19.24860 63.86345 41.55602
# Shear Modulus (GPa) = 20.79107 41.31348 31.05228
#
# Velocity S-wave (km/s) = 3.00295 4.23307 3.66991
# Velocity P-wave (km/s) = 4.51356 7.18270 5.99848
#
# Compressibility (1/GPa) = 0.05195184
#
# Stress axis : x y z
#
# Youngs Moduli (GPa) = 73.11538 18.27211 139.39751
#
# Poissons Ratio (x) = 0.15696 0.39849
# Poissons Ratio (y) = 0.62807 0.05084
# Poissons Ratio (z) = 0.20901 0.00666
#
# Static dielectric constant tensor:
#      x y z
#    x 1.928560 -0.000620 0.030100 
#    y -0.000620 1.928020 0.082700 
#    z 0.030100 0.082700 2.111000 
# 
# From -- ./inp_files/417098.got.cif
#   From: 2010.05.17/outbox.cif.g08.bks.cpg/sg2_209_cif.got.tgz:417098.got - 2010.06.03 11:33:40.
