data_PCOD9077565
_publ_section_title
;
Structure prediction by ZEFSAII (Michael W. Deem and Ramdas Pophale) SiO2 
 PCOD9077565
Probable space group: P -1
;
_chemical_formula_sum "Si O2"
_cell_formula_units_Z 15
_cell_length_a 16.452928
_cell_length_b 9.084680
_cell_length_c 8.829686
_cell_angle_alpha 85.492566
_cell_angle_beta 75.113967
_cell_angle_gamma 146.890832
_cell_volume 578.864980
_symmetry_space_group_name_H-M "P -1"
_symmetry_group_IT_number 2
_symmetry_cell_setting 'triclinic'
loop_
_space_group_symop_operation_xyz
x,y,z
-x,-y,-z
loop_
_atom_site_type_symbol
_atom_site_label
_atom_site_fract_x
_atom_site_fract_y
_atom_site_fract_z
Si Si1 0.188108 0.571499 0.389140
Si Si2 0.782042 0.703189 0.621757
Si Si3 0.790147 0.122620 0.090207
Si Si4 0.130964 0.984719 0.191119
Si Si5 0.474621 0.828475 0.650297
Si Si6 0.734215 0.772115 0.336903
Si Si7 0.000000 0.000000 0.000000
Si Si8 0.674943 0.238362 0.006140
O O1 0.285278 0.562788 0.372325
O O2 0.172565 0.549801 0.216656
O O3 0.000195 0.289517 0.594752
O O4 0.337883 0.909540 0.368366
O O5 0.742131 0.760757 0.511280
O O6 0.732042 0.691545 0.809446
O O7 0.000000 0.000000 0.500000
O O8 0.706466 0.893432 0.282816
O O9 0.787167 0.012894 0.953191
O O10 0.674063 0.085039 0.110146
O O11 0.000000 0.500000 0.000000
O O12 0.009442 0.900757 0.150392
O O13 0.402400 0.565388 0.635924
O O14 0.500000 0.000000 0.500000
O O15 0.322551 0.635876 0.869901
O O16 0.922519 0.012328 0.147076
O O17 0.500000 0.000000 0.000000
#
# Coordination Sequence:
#
# PCOD9077565 Si02
#       8
#     2   2   2   2   2   2   1   2
#     4  10  21  40  68 103 135 190 235 283 352 432
#     4  10  19  35  62 103 137 177 227 284 352 429
#     4  11  28  44  69 109 144 183 238 311 361 410
#     4  10  22  37  68 103 141 180 235 293 365 415
#     4  11  22  42  74  99 135 187 248 278 351 447
#     4  11  23  39  66 106 136 181 234 302 354 418
#     4  10  18  34  60  98 132 178 222 292 350 416
#     4  10  26  47  69  96 143 196 237 289 356 441
#
# _framework density 25.912779
#
# number of rings (size 3 to 8) (size 9 to 14) (size 15 to 20)
#    0.000    1.600    4.000    0.000   13.067    0.533 
#    0.000    3.333    0.000    0.000    0.000    0.000 
#    0.000    0.000    0.000    0.000    0.000    0.000 
#
# Total GULP energy -83699.654479 kJ/mol
# GULP energy per Si atom -5579.976965 kJ/mol
# Density = 2.585380 g / cm^3
# Si number density = 25.912779 Si / 1000 Ang^3
#
#
#
# Elastic Constant Matrix: (Units=GPa)
#
#
# Indices 1 2 3 4 5 6 
#
# 1 112.7838 21.6626 28.9324 2.3097 22.2264 -12.7336
# 2 21.6626 120.7647 29.3898 23.0143 13.8317 1.0344
# 3 28.9324 29.3898 137.7678 16.1464 29.5584 -4.2524
# 4 2.3097 23.0143 16.1464 48.6180 -7.4203 1.9956
# 5 22.2264 13.8317 29.5584 -7.4203 48.4504 -4.5822
# 6 -12.7336 1.0344 -4.2524 1.9956 -4.5822 28.5868
#
#
#
# Elastic Compliance Matrix: (Units=1/GPa)
#
#
# Indices 1 2 3 4 5 6 
#
# 1 0.010518 -0.001213 -0.001041 -0.000280 -0.003506 0.004032
# 2 -0.001213 0.009897 -0.000774 -0.004726 -0.002625 -0.001104
# 3 -0.001041 -0.000774 0.009227 -0.003491 -0.005437 0.000309
# 4 -0.000280 -0.004726 -0.003491 0.025145 0.007359 -0.001049
# 5 -0.003506 -0.002625 -0.005437 0.007359 0.027596 0.001634
# 6 0.004032 -0.001104 0.000309 -0.001049 0.001634 0.037198
#
#
# Mechanical properties :
#
#
# Convention : Reuss Voigt Hill
#
# Bulk Modulus (GPa) = 42.39419 59.03177 50.71298
# Shear Modulus (GPa) = 37.45350 44.55314 41.00332
#
# Velocity S-wave (km/s) = 3.80592 4.15100 3.98220
# Velocity P-wave (km/s) = 5.97572 6.76793 6.38413
#
# Compressibility (1/GPa) = 0.02358814
#
# Stress axis : x y z
#
# Youngs Moduli (GPa) = 95.07228 101.03889 108.37386
#
# Poissons Ratio (x) = 0.12257 0.11278
# Poissons Ratio (y) = 0.11533 0.08383
# Poissons Ratio (z) = 0.09894 0.07816
#
# Static dielectric constant tensor:
#      x y z
#    x 1.905490 -0.180510 0.003040 
#    y -0.180510 1.846070 -0.030100 
#    z 0.003040 -0.030100 2.069800 
# 
# From -- ./inp_files/326071.got.cif
#   From: 2010.05.17/outbox.cif.g08.bks.cpg/sg2_164_cif.got.tgz:326071.got - 2010.06.03 11:33:40.
