data_PCOD9077922
_publ_section_title
;
Structure prediction by ZEFSAII (Michael W. Deem and Ramdas Pophale) SiO2 
 PCOD9077922
Probable space group: P -1
;
_chemical_formula_sum "Si O2"
_cell_formula_units_Z 16
_cell_length_a 6.779790
_cell_length_b 8.747864
_cell_length_c 13.607465
_cell_angle_alpha 83.167294
_cell_angle_beta 117.974692
_cell_angle_gamma 78.186549
_cell_volume 675.722859
_symmetry_space_group_name_H-M "P -1"
_symmetry_group_IT_number 2
_symmetry_cell_setting 'triclinic'
loop_
_space_group_symop_operation_xyz
x,y,z
-x,-y,-z
loop_
_atom_site_type_symbol
_atom_site_label
_atom_site_fract_x
_atom_site_fract_y
_atom_site_fract_z
Si Si1 0.955743 0.595154 0.626368
Si Si2 0.708321 0.633362 0.044391
Si Si3 0.845846 0.740476 0.377277
Si Si4 0.396366 0.729244 0.159475
Si Si5 0.517490 0.392535 0.217900
Si Si6 0.721057 0.071713 0.241126
Si Si7 0.977193 0.729397 0.810619
Si Si8 0.769110 0.919955 0.942674
O O1 0.971830 0.409447 0.625144
O O2 0.230034 0.580307 0.708313
O O3 0.835210 0.686452 0.688438
O O4 0.872257 0.694863 0.500862
O O5 0.568959 0.627526 0.911638
O O6 0.824491 0.778950 0.048875
O O7 0.533658 0.678537 0.092092
O O8 0.875785 0.451639 0.108318
O O9 0.580994 0.755060 0.280064
O O10 0.874643 0.910286 0.340383
O O11 0.341541 0.565387 0.193952
O O12 0.204408 0.899148 0.076131
O O13 0.586514 0.205510 0.280104
O O14 0.877697 0.156561 0.208146
O O15 0.518999 0.035008 0.130593
O O16 0.857103 0.823038 0.870564
#
# Coordination Sequence:
#
# PCOD9077922 Si02
#       8
#     2   2   2   2   2   2   2   2
#     4   9  18  33  59  84 114 145 194 235 282 341
#     4  11  19  36  57  79 116 156 190 232 288 341
#     4   9  17  34  57  87 109 149 192 234 284 344
#     4  10  18  35  56  81 113 154 187 235 287 335
#     4   9  18  31  56  78 107 151 184 227 283 332
#     4   9  19  35  58  79 115 149 185 233 286 337
#     4  11  21  38  56  87 118 150 191 241 281 342
#     4  10  23  35  57  85 117 150 198 231 285 345
#
# _framework density 23.678346000000001
#
# number of rings (size 3 to 8) (size 9 to 14) (size 15 to 20)
#    0.000    2.250    3.750    1.125    1.750    2.000 
#    0.000    5.625    0.000    0.000    0.000   28.000 
#    0.000    0.000    0.000    0.000    0.000    0.000 
#
# Total GULP energy -89103.486895 kJ/mol
# GULP energy per Si atom -5568.967931 kJ/mol
# Density = 2.362445 g / cm^3
# Si number density = 23.678346 Si / 1000 Ang^3
#
#
#
# Elastic Constant Matrix: (Units=GPa)
#
#
# Indices 1 2 3 4 5 6 
#
# 1 9.3066 3.1351 7.8057 -2.2690 -7.8623 -15.5051
# 2 3.1351 145.2248 46.1756 -25.3960 -10.2375 -9.5819
# 3 7.8057 46.1756 117.0456 -11.1407 9.7572 -12.6954
# 4 -2.2690 -25.3960 -11.1407 45.8330 -3.0189 -7.9150
# 5 -7.8623 -10.2375 9.7572 -3.0189 22.0129 0.1817
# 6 -15.5051 -9.5819 -12.6954 -7.9150 0.1817 29.6999
#
#
#
# Elastic Compliance Matrix: (Units=1/GPa)
#
#
# Indices 1 2 3 4 5 6 
#
# 1 -0.243305 -0.026649 0.015343 -0.055200 -0.112484 -0.143081
# 2 -0.026649 0.006714 -0.001838 -0.000598 -0.005558 -0.012657
# 3 0.015343 -0.001838 0.010007 0.004442 0.000692 0.012874
# 4 -0.055200 -0.000598 0.004442 0.014540 -0.019778 -0.023115
# 5 -0.112484 -0.005558 0.000692 -0.019778 0.000189 -0.065492
# 6 -0.143081 -0.012657 0.012874 -0.023115 -0.065492 -0.045366
#
#
# Mechanical properties :
#
#
# Convention : Reuss Voigt Hill
#
# Bulk Modulus (GPa) = -3.95458 42.86775 19.45659
# Shear Modulus (GPa) = -15.86175 33.80654 8.97239
#
# Velocity S-wave (km/s) = -2.59102 3.78264 1.94872
# Velocity P-wave (km/s) = 3.25959 6.10093 3.64667
#
# Compressibility (1/GPa) = -0.25287153
#
# Stress axis : x y z
#
# Youngs Moduli (GPa) = -4.11008 148.94033 99.92935
#
# Poissons Ratio (x) = 3.96909 -1.53319
# Poissons Ratio (y) = -0.10953 0.18366
# Poissons Ratio (z) = 0.06306 0.27374
#
# Static dielectric constant tensor:
#      x y z
#    x 2.118990 0.046690 -0.022270 
#    y 0.046690 2.034760 -0.019130 
#    z -0.022270 -0.019130 1.903800 
# 
# From -- ./inp_files/382023.got.cif
#   From: 2010.05.17/outbox.cif.g08.bks.cpg/sg2_192_cif.got.tgz:382023.got - 2010.06.03 11:33:40.
