data_PCOD9077451
_publ_section_title
;
Structure prediction by ZEFSAII (Michael W. Deem and Ramdas Pophale) SiO2 
 PCOD9077451
Probable space group: P -1
;
_chemical_formula_sum "Si O2"
_cell_formula_units_Z 16
_cell_length_a 5.117968
_cell_length_b 8.503015
_cell_length_c 17.971900
_cell_angle_alpha 58.474238
_cell_angle_beta 79.256575
_cell_angle_gamma 79.270170
_cell_volume 651.299200
_symmetry_space_group_name_H-M "P -1"
_symmetry_group_IT_number 2
_symmetry_cell_setting 'triclinic'
loop_
_space_group_symop_operation_xyz
x,y,z
-x,-y,-z
loop_
_atom_site_type_symbol
_atom_site_label
_atom_site_fract_x
_atom_site_fract_y
_atom_site_fract_z
Si Si1 0.826543 0.605282 0.096032
Si Si2 0.691787 0.659608 0.935077
Si Si3 0.938694 0.669101 0.235429
Si Si4 0.252646 0.374180 0.483973
Si Si5 0.104395 0.038640 0.643587
Si Si6 0.926463 0.742144 0.637550
Si Si7 0.390645 0.722272 0.319026
Si Si8 0.456313 0.743457 0.780576
O O1 0.929154 0.703578 0.138972
O O2 0.597251 0.473616 0.162344
O O3 0.049564 0.449088 0.090278
O O4 0.751504 0.732081 0.996179
O O5 0.555706 0.789020 0.846451
O O6 0.500000 0.500000 0.000000
O O7 0.676381 0.770731 0.263707
O O8 0.909404 0.449252 0.298136
O O9 0.204712 0.694285 0.262374
O O10 0.300588 0.197638 0.579218
O O11 0.164059 0.286900 0.433445
O O12 0.443075 0.527143 0.410903
O O13 0.000000 0.500000 0.500000
O O14 0.815618 0.139747 0.656635
O O15 0.204844 0.884950 0.736613
O O16 0.085757 0.916342 0.600839
O O17 0.675620 0.765036 0.700978
#
# Coordination Sequence:
#
# PCOD9077451 Si02
#       8
#     2   2   2   2   2   2   2   2
#     4  10  18  34  59  92 124 161 207 260 315 374
#     4   9  19  31  56  95 125 156 200 267 313 372
#     4  11  21  41  66  91 127 169 215 262 315 383
#     4   9  21  43  58  90 125 167 215 262 319 377
#     4  11  23  40  61  90 124 169 212 268 320 372
#     4  11  22  37  66  89 123 164 215 270 312 374
#     4  10  25  42  63  89 130 174 217 259 319 382
#     4  11  20  36  59  93 128 156 212 264 322 367
#
# _framework density 24.566282000000001
#
# number of rings (size 3 to 8) (size 9 to 14) (size 15 to 20)
#    0.000    1.750    2.500    1.875    3.500    0.500 
#    4.500    5.625    0.000    1.500    0.000    0.000 
#    0.000    0.000    0.000    0.000    0.000    0.000 
#
# Total GULP energy -89455.265474 kJ/mol
# GULP energy per Si atom -5590.954092 kJ/mol
# Density = 2.451037 g / cm^3
# Si number density = 24.566282 Si / 1000 Ang^3
#
#
#
# Elastic Constant Matrix: (Units=GPa)
#
#
# Indices 1 2 3 4 5 6 
#
# 1 62.4247 11.2948 20.7669 2.3544 0.2333 -4.9880
# 2 11.2948 84.5421 24.1626 3.5484 7.8530 9.9522
# 3 20.7669 24.1626 116.2361 21.6242 26.0829 -2.1939
# 4 2.3544 3.5484 21.6242 26.6666 -0.2756 8.2288
# 5 0.2333 7.8530 26.0829 -0.2756 36.2697 0.1299
# 6 -4.9880 9.9522 -2.1939 8.2288 0.1299 37.1041
#
#
#
# Elastic Compliance Matrix: (Units=1/GPa)
#
#
# Indices 1 2 3 4 5 6 
#
# 1 0.017693 -0.001959 -0.003481 0.000774 0.002810 0.002517
# 2 -0.001959 0.013378 -0.002657 0.001904 -0.000943 -0.004428
# 3 -0.003481 -0.002657 0.014331 -0.012247 -0.009815 0.003843
# 4 0.000774 0.001904 -0.012247 0.051054 0.008823 -0.012484
# 5 0.002810 -0.000943 -0.009815 0.008823 0.034890 -0.002029
# 6 0.002517 -0.004428 0.003843 -0.012484 -0.002029 0.031480
#
#
# Mechanical properties :
#
#
# Convention : Reuss Voigt Hill
#
# Bulk Modulus (GPa) = 34.23679 41.73902 37.98791
# Shear Modulus (GPa) = 26.48915 33.80666 30.14790
#
# Velocity S-wave (km/s) = 3.28727 3.71366 3.50695
# Velocity P-wave (km/s) = 5.32681 5.95110 5.64759
#
# Compressibility (1/GPa) = 0.02920834
#
# Stress axis : x y z
#
# Youngs Moduli (GPa) = 56.51906 74.74683 69.77899
#
# Poissons Ratio (x) = 0.14641 0.24290
# Poissons Ratio (y) = 0.11070 0.18543
# Poissons Ratio (z) = 0.19674 0.19863
#
# Static dielectric constant tensor:
#      x y z
#    x 2.066730 0.039690 -0.001650 
#    y 0.039690 1.931730 -0.012750 
#    z -0.001650 -0.012750 2.159340 
# 
# From -- ./inp_files/485329.got.cif
#   From: 2010.05.17/outbox.cif.g08.bks.cpg/sg2_243_cif.got.tgz:485329.got - 2010.06.03 11:33:40.
