data_PCOD9077825
_publ_section_title
;
Structure prediction by ZEFSAII (Michael W. Deem and Ramdas Pophale) SiO2 
 PCOD9077825
Probable space group: P -1
;
_chemical_formula_sum "Si O2"
_cell_formula_units_Z 16
_cell_length_a 7.507101
_cell_length_b 7.460276
_cell_length_c 16.606447
_cell_angle_alpha 82.338749
_cell_angle_beta 112.053832
_cell_angle_gamma 121.893013
_cell_volume 729.358950
_symmetry_space_group_name_H-M "P -1"
_symmetry_group_IT_number 2
_symmetry_cell_setting 'triclinic'
loop_
_space_group_symop_operation_xyz
x,y,z
-x,-y,-z
loop_
_atom_site_type_symbol
_atom_site_label
_atom_site_fract_x
_atom_site_fract_y
_atom_site_fract_z
Si Si1 0.061440 0.537773 0.327138
Si Si2 0.662659 0.049401 0.098914
Si Si3 0.865027 0.544348 0.818247
Si Si4 0.587516 0.661319 0.184430
Si Si5 0.791898 0.529025 0.489819
Si Si6 0.421853 0.776403 0.769535
Si Si7 0.923161 0.844263 0.368398
Si Si8 0.668250 0.775598 0.664331
O O1 0.110018 0.593129 0.238285
O O2 0.232497 0.518069 0.416455
O O3 0.828782 0.309986 0.301851
O O4 0.009906 0.702148 0.349422
O O5 0.549345 0.080888 0.158010
O O6 0.899044 0.271520 0.118984
O O7 0.707096 0.856700 0.131546
O O8 0.500000 0.000000 0.000000
O O9 0.674795 0.413931 0.858355
O O10 0.759396 0.650992 0.737975
O O11 0.593345 0.445180 0.192134
O O12 0.698814 0.771943 0.282636
O O13 0.861676 0.759351 0.453656
O O14 0.563263 0.367165 0.414494
O O15 0.000000 0.500000 0.500000
O O16 0.596019 0.874593 0.719592
O O17 0.130333 0.073220 0.369698
#
# Coordination Sequence:
#
# PCOD9077825 Si02
#       8
#     2   2   2   2   2   2   2   2
#     4   9  19  35  55  82 118 154 196 245 282 334
#     4  11  24  41  64  92 117 145 194 251 296 358
#     4  10  21  39  60  83 115 156 195 240 296 352
#     4  10  20  41  62  84 121 157 192 241 294 356
#     4  10  18  35  52  83 122 149 203 243 278 333
#     4   9  20  40  60  86 119 157 193 234 301 356
#     4  10  19  34  57  80 111 164 190 233 295 334
#     4  11  19  35  58  81 113 157 196 234 286 352
#
# _framework density 21.937073999999999
#
# number of rings (size 3 to 8) (size 9 to 14) (size 15 to 20)
#    0.000    2.000    6.250    0.000    1.750    3.500 
#    0.000    3.125    0.000    0.000    0.000    0.000 
#    0.000    0.000    0.000    0.000    0.000    0.000 
#
# Total GULP energy -89171.831718 kJ/mol
# GULP energy per Si atom -5573.239482 kJ/mol
# Density = 2.188714 g / cm^3
# Si number density = 21.937074 Si / 1000 Ang^3
#
#
#
# Elastic Constant Matrix: (Units=GPa)
#
#
# Indices 1 2 3 4 5 6 
#
# 1 57.2331 13.8640 11.9524 17.7448 2.8052 5.4267
# 2 13.8640 88.1507 25.5320 12.9024 1.7958 6.9284
# 3 11.9524 25.5320 98.5885 20.9623 11.0962 -9.9809
# 4 17.7448 12.9024 20.9623 25.3324 1.0209 3.2401
# 5 2.8052 1.7958 11.0962 1.0209 20.9322 4.0663
# 6 5.4267 6.9284 -9.9809 3.2401 4.0663 22.3204
#
#
#
# Elastic Compliance Matrix: (Units=1/GPa)
#
#
# Indices 1 2 3 4 5 6 
#
# 1 0.022774 -0.001367 0.001003 -0.015743 -0.002319 -0.001956
# 2 -0.001367 0.013316 -0.003602 -0.002229 0.002122 -0.005475
# 3 0.001003 -0.003602 0.016109 -0.013308 -0.010015 0.011834
# 4 -0.015743 -0.002229 -0.013308 0.063873 0.008625 -0.012275
# 5 -0.002319 0.002122 -0.010015 0.008625 0.055900 -0.016009
# 6 -0.001956 -0.005475 0.011834 -0.012275 -0.016009 0.056967
#
#
# Mechanical properties :
#
#
# Convention : Reuss Voigt Hill
#
# Bulk Modulus (GPa) = 22.58971 38.51878 30.55424
# Shear Modulus (GPa) = 19.87067 26.55859 23.21463
#
# Velocity S-wave (km/s) = 3.01292 3.48325 3.25658
# Velocity P-wave (km/s) = 4.73534 5.81156 5.30083
#
# Compressibility (1/GPa) = 0.04426795
#
# Stress axis : x y z
#
# Youngs Moduli (GPa) = 43.90918 75.09869 62.07628
#
# Poissons Ratio (x) = 0.10267 -0.06228
# Poissons Ratio (y) = 0.06003 0.22359
# Poissons Ratio (z) = -0.04405 0.27049
#
# Static dielectric constant tensor:
#      x y z
#    x 1.924570 -0.004440 -0.020250 
#    y -0.004440 1.867740 -0.029280 
#    z -0.020250 -0.029280 1.801940 
# 
# From -- ./inp_files/215304.got.cif
#   From: 2010.05.17/outbox.cif.g08.bks.cpg/sg2_108_cif.got.tgz:215304.got - 2010.06.03 11:33:40.
