data_PCOD9077633
_publ_section_title
;
Structure prediction by ZEFSAII (Michael W. Deem and Ramdas Pophale) SiO2 
 PCOD9077633
Probable space group: P -1
;
_chemical_formula_sum "Si O2"
_cell_formula_units_Z 16
_cell_length_a 12.653428
_cell_length_b 9.391860
_cell_length_c 11.503238
_cell_angle_alpha 44.319563
_cell_angle_beta 96.856763
_cell_angle_gamma 122.221060
_cell_volume 724.231099
_symmetry_space_group_name_H-M "P -1"
_symmetry_group_IT_number 2
_symmetry_cell_setting 'triclinic'
loop_
_space_group_symop_operation_xyz
x,y,z
-x,-y,-z
loop_
_atom_site_type_symbol
_atom_site_label
_atom_site_fract_x
_atom_site_fract_y
_atom_site_fract_z
Si Si1 0.930793 0.110220 0.160022
Si Si2 0.330042 0.725688 0.935982
Si Si3 0.472342 0.663970 0.321655
Si Si4 0.711100 0.877683 0.071006
Si Si5 0.792885 0.446703 0.727385
Si Si6 0.117984 0.689044 0.764105
Si Si7 0.223591 0.236486 0.090074
Si Si8 0.927439 0.292335 0.504006
O O1 0.898827 0.112578 0.290412
O O2 0.067686 0.144020 0.134927
O O3 0.797603 0.908402 0.178297
O O4 0.981178 0.391862 0.952487
O O5 0.243369 0.744295 0.818593
O O6 0.452392 0.031668 0.806650
O O7 0.239105 0.568069 0.131566
O O8 0.342060 0.521302 0.997573
O O9 0.500000 0.500000 0.500000
O O10 0.550941 0.706213 0.187169
O O11 0.314191 0.535053 0.360331
O O12 0.741130 0.762598 0.038470
O O13 0.760230 0.164812 0.869946
O O14 0.945714 0.670810 0.564997
O O15 0.134176 0.675377 0.637153
O O16 0.196917 0.994150 0.294360
O O17 0.000000 0.500000 0.500000
#
# Coordination Sequence:
#
# PCOD9077633 Si02
#       8
#     2   2   2   2   2   2   2   2
#     4  10  18  34  61  94 131 170 214 258 328 392
#     4  10  22  44  68  98 131 173 226 267 328 392
#     4  11  26  46  71  93 122 177 235 272 314 391
#     4  11  20  43  64  94 131 175 220 261 332 395
#     4  11  22  44  70  91 132 184 221 261 321 401
#     4  10  18  36  63  94 133 171 214 270 319 381
#     4  11  24  35  64 104 134 172 201 277 344 381
#     4  12  23  38  62 103 144 167 210 269 334 392
#
# _framework density 22.092396000000001
#
# number of rings (size 3 to 8) (size 9 to 14) (size 15 to 20)
#    0.000    1.250    5.000    3.375    1.750    4.000 
#    0.000    3.125    0.000    0.000    0.000    0.000 
#    0.000    0.000    0.000    0.000    0.000    0.000 
#
# Total GULP energy -89221.481695 kJ/mol
# GULP energy per Si atom -5576.342606 kJ/mol
# Density = 2.204211 g / cm^3
# Si number density = 22.092396 Si / 1000 Ang^3
#
#
#
# Elastic Constant Matrix: (Units=GPa)
#
#
# Indices 1 2 3 4 5 6 
#
# 1 25.0559 11.8461 -0.5987 5.0437 8.2323 6.4168
# 2 11.8461 122.0259 38.5498 25.6836 6.2962 -24.5164
# 3 -0.5987 38.5498 74.0628 7.6069 2.5426 -6.7400
# 4 5.0437 25.6836 7.6069 32.0276 3.4349 0.6445
# 5 8.2323 6.2962 2.5426 3.4349 22.5915 1.6668
# 6 6.4168 -24.5164 -6.7400 0.6445 1.6668 39.5847
#
#
#
# Elastic Compliance Matrix: (Units=1/GPa)
#
#
# Indices 1 2 3 4 5 6 
#
# 1 0.052216 -0.007639 0.003992 -0.001058 -0.016315 -0.011812
# 2 -0.007639 0.014658 -0.005872 -0.009357 0.000083 0.009466
# 3 0.003992 -0.005872 0.016480 0.000369 -0.001625 -0.001415
# 4 -0.001058 -0.009357 0.000369 0.039203 -0.002559 -0.006091
# 5 -0.016315 0.000083 -0.001625 -0.002559 0.050734 0.000325
# 6 -0.011812 0.009466 -0.001415 -0.006091 0.000325 0.032884
#
#
# Mechanical properties :
#
#
# Convention : Reuss Voigt Hill
#
# Bulk Modulus (GPa) = 15.54801 35.63768 25.59285
# Shear Modulus (GPa) = 20.27149 30.26390 25.26770
#
# Velocity S-wave (km/s) = 3.03244 3.70520 3.38557
# Velocity P-wave (km/s) = 4.39476 5.87119 5.18579
#
# Compressibility (1/GPa) = 0.06431690
#
# Stress axis : x y z
#
# Youngs Moduli (GPa) = 19.15117 68.22009 60.68056
#
# Poissons Ratio (x) = 0.52112 -0.24223
# Poissons Ratio (y) = 0.14629 0.35631
# Poissons Ratio (z) = -0.07645 0.40058
#
# Static dielectric constant tensor:
#      x y z
#    x 1.859170 -0.001390 0.065420 
#    y -0.001390 1.879590 -0.008310 
#    z 0.065420 -0.008310 1.877180 
# 
# From -- ./inp_files/189442.got.cif
#   From: 2010.05.17/outbox.cif.g08.bks.cpg/sg2_95_cif.got.tgz:189442.got - 2010.06.03 11:33:40.
