data_PCOD9077887
_publ_section_title
;
Structure prediction by ZEFSAII (Michael W. Deem and Ramdas Pophale) SiO2 
 PCOD9077887
Probable space group: P -1
;
_chemical_formula_sum "Si O2"
_cell_formula_units_Z 16
_cell_length_a 13.983754
_cell_length_b 6.951545
_cell_length_c 11.800956
_cell_angle_alpha 71.980833
_cell_angle_beta 113.631068
_cell_angle_gamma 56.949042
_cell_volume 639.675929
_symmetry_space_group_name_H-M "P -1"
_symmetry_group_IT_number 2
_symmetry_cell_setting 'triclinic'
loop_
_space_group_symop_operation_xyz
x,y,z
-x,-y,-z
loop_
_atom_site_type_symbol
_atom_site_label
_atom_site_fract_x
_atom_site_fract_y
_atom_site_fract_z
Si Si1 0.311402 0.321002 0.339959
Si Si2 0.532770 0.673044 0.031968
Si Si3 0.941939 0.341825 0.664472
Si Si4 0.876981 0.006309 0.408809
Si Si5 0.323950 0.769922 0.307898
Si Si6 0.940014 0.857972 0.710806
Si Si7 0.288450 0.411848 0.053564
Si Si8 0.260186 0.939591 0.000353
O O1 0.226684 0.357363 0.406122
O O2 0.277680 0.610061 0.281779
O O3 0.281233 0.326340 0.190726
O O4 0.500000 0.000000 0.500000
O O5 0.704037 0.372958 0.233306
O O6 0.366486 0.934080 0.976324
O O7 0.500000 0.500000 0.000000
O O8 0.559500 0.801076 0.923829
O O9 0.919894 0.132560 0.669145
O O10 0.046105 0.229867 0.618078
O O11 0.067261 0.235300 0.839226
O O12 0.882490 0.881050 0.553326
O O13 0.000000 0.000000 0.500000
O O14 0.500000 0.500000 0.500000
O O15 0.325545 0.875422 0.168979
O O16 0.183756 0.053782 0.273916
O O17 0.130860 0.560508 0.885752
O O18 0.279182 0.671557 0.023676
#
# Coordination Sequence:
#
# PCOD9077887 Si02
#       8
#     2   2   2   2   2   2   2   2
#     4  10  21  35  53  71 101 142 176 212 251 304
#     4  10  15  25  42  74 106 129 156 208 266 303
#     4   9  16  29  47  72  97 132 174 207 253 307
#     4  10  15  25  42  74 106 129 156 208 266 303
#     4  10  19  31  49  81 103 128 168 216 260 303
#     4   9  16  27  47  76 104 126 162 217 264 299
#     4   9  16  29  47  72  97 132 174 207 253 307
#     4   9  16  27  47  76 104 126 162 217 264 299
#
# _framework density 25.012667
#
# number of rings (size 3 to 8) (size 9 to 14) (size 15 to 20)
#    0.000    2.500    5.000    1.500    0.000    3.000 
#    0.000    0.000    0.000    4.500    0.000    0.000 
#    0.000    0.000    0.000    0.000    0.000    0.000 
#
# Total GULP energy -89077.765065 kJ/mol
# GULP energy per Si atom -5567.360317 kJ/mol
# Density = 2.495574 g / cm^3
# Si number density = 25.012667 Si / 1000 Ang^3
#
#
#
# Elastic Constant Matrix: (Units=GPa)
#
#
# Indices 1 2 3 4 5 6 
#
# 1 83.9972 34.4863 -3.4401 9.2071 5.0058 -14.7997
# 2 34.4863 122.2256 30.5781 8.5159 4.5756 -43.2343
# 3 -3.4401 30.5781 100.1178 15.6790 18.8313 -27.2957
# 4 9.2071 8.5159 15.6790 41.5473 -4.8734 6.3686
# 5 5.0058 4.5756 18.8313 -4.8734 34.9338 1.5026
# 6 -14.7997 -43.2343 -27.2957 6.3686 1.5026 62.0116
#
#
#
# Elastic Compliance Matrix: (Units=1/GPa)
#
#
# Indices 1 2 3 4 5 6 
#
# 1 0.015068 -0.003431 0.004411 -0.005476 -0.005016 0.003829
# 2 -0.003431 0.012350 -0.001199 -0.002615 -0.001169 0.007560
# 3 0.004411 -0.001199 0.016462 -0.009577 -0.011060 0.008714
# 4 -0.005476 -0.002615 -0.009577 0.032435 0.011285 -0.010950
# 5 -0.005016 -0.001169 -0.011060 0.011285 0.037419 -0.008946
# 6 0.003829 0.007560 0.008714 -0.010950 -0.008946 0.027488
#
#
# Mechanical properties :
#
#
# Convention : Reuss Voigt Hill
#
# Bulk Modulus (GPa) = 23.01964 47.73212 35.37588
# Shear Modulus (GPa) = 32.02227 44.01296 38.01762
#
# Velocity S-wave (km/s) = 3.58193 4.19934 3.90286
# Velocity P-wave (km/s) = 5.13129 6.52972 5.87228
#
# Compressibility (1/GPa) = 0.04344116
#
# Stress axis : x y z
#
# Youngs Moduli (GPa) = 66.36403 80.97167 60.74624
#
# Poissons Ratio (x) = 0.27783 -0.26794
# Poissons Ratio (y) = 0.22771 0.07285
# Poissons Ratio (z) = -0.29272 0.09710
#
# Static dielectric constant tensor:
#      x y z
#    x 2.031910 0.021430 -0.088590 
#    y 0.021430 2.138280 0.059300 
#    z -0.088590 0.059300 1.943660 
# 
# From -- ./inp_files/463723.got.cif
#   From: 2010.05.17/outbox.cif.g08.bks.cpg/sg2_232_cif.got.tgz:463723.got - 2010.06.03 11:33:40.
