data_PCOD9077615
_publ_section_title
;
Structure prediction by ZEFSAII (Michael W. Deem and Ramdas Pophale) SiO2 
 PCOD9077615
Probable space group: P -1
;
_chemical_formula_sum "Si O2"
_cell_formula_units_Z 14
_cell_length_a 5.268645
_cell_length_b 12.649749
_cell_length_c 18.582444
_cell_angle_alpha 30.917242
_cell_angle_beta 79.896073
_cell_angle_gamma 70.050507
_cell_volume 580.236702
_symmetry_space_group_name_H-M "P -1"
_symmetry_group_IT_number 2
_symmetry_cell_setting 'triclinic'
loop_
_space_group_symop_operation_xyz
x,y,z
-x,-y,-z
loop_
_atom_site_type_symbol
_atom_site_label
_atom_site_fract_x
_atom_site_fract_y
_atom_site_fract_z
Si Si1 0.152204 0.500134 0.378703
Si Si2 0.617168 0.141701 0.052291
Si Si3 0.329046 0.261962 0.369248
Si Si4 0.234174 0.931362 0.138460
Si Si5 0.258758 0.542128 0.929342
Si Si6 0.880377 0.233772 0.326402
Si Si7 0.601355 0.748995 0.350478
O O1 0.167603 0.339059 0.406126
O O2 0.221582 0.714473 0.226241
O O3 0.369287 0.362421 0.509323
O O4 0.848028 0.591621 0.377860
O O5 0.473669 0.034670 0.062312
O O6 0.660811 0.974056 0.216375
O O7 0.396135 0.365513 0.962532
O O8 0.928780 0.118410 0.033431
O O9 0.575077 0.352742 0.305205
O O10 0.106398 0.339845 0.271138
O O11 0.500000 0.000000 0.500000
O O12 0.308209 0.829390 0.276254
O O13 0.155897 0.771273 0.754822
O O14 0.500000 0.500000 0.000000
O O15 0.000000 0.500000 0.000000
O O16 0.000000 0.000000 0.500000
#
# Coordination Sequence:
#
# PCOD9077615 Si02
#       7
#     2   2   2   2   2   2   2
#     4  10  18  34  61  90 128 175 228 273 344 390
#     4   9  20  35  54  88 125 155 205 280 339 390
#     4  10  23  41  61  94 133 182 221 270 336 423
#     4   9  18  35  53  85 130 160 214 278 338 385
#     4  12  25  43  72 100 130 181 235 287 343 402
#     4  10  24  46  65  93 139 177 225 275 337 416
#     4   8  19  33  57  92 127 166 224 292 328 386
#
# _framework density 24.128083
#
# number of rings (size 3 to 8) (size 9 to 14) (size 15 to 20)
#    0.857    1.429    0.000    2.143    2.000    4.571 
#    0.000    1.429    0.000   12.000    0.000    0.000 
#    0.000    0.000    0.000    0.000    0.000    0.000 
#
# Total GULP energy -77959.634490 kJ/mol
# GULP energy per Si atom -5568.545321 kJ/mol
# Density = 2.407317 g / cm^3
# Si number density = 24.128083 Si / 1000 Ang^3
#
#
#
# Elastic Constant Matrix: (Units=GPa)
#
#
# Indices 1 2 3 4 5 6 
#
# 1 158.8723 12.4110 30.2981 7.3073 44.4313 7.2569
# 2 12.4110 87.1465 41.0008 -1.6909 14.8189 10.9385
# 3 30.2981 41.0008 92.5232 17.8059 12.8188 -3.0522
# 4 7.3073 -1.6909 17.8059 28.0841 5.7699 5.0966
# 5 44.4313 14.8189 12.8188 5.7699 31.8860 0.5723
# 6 7.2569 10.9385 -3.0522 5.0966 0.5723 22.6697
#
#
#
# Elastic Compliance Matrix: (Units=1/GPa)
#
#
# Indices 1 2 3 4 5 6 
#
# 1 0.011812 0.004482 -0.004647 0.005047 -0.017458 -0.007264
# 2 0.004482 0.021000 -0.012019 0.013327 -0.013301 -0.015846
# 3 -0.004647 -0.012019 0.020304 -0.016189 0.006585 0.013494
# 4 0.005047 0.013327 -0.016189 0.052541 -0.015837 -0.021638
# 5 -0.017458 -0.013301 0.006585 -0.015837 0.061821 0.014893
# 6 -0.007264 -0.015846 0.013494 -0.021638 0.014893 0.060389
#
#
# Mechanical properties :
#
#
# Convention : Reuss Voigt Hill
#
# Bulk Modulus (GPa) = 34.78143 56.21797 45.49970
# Shear Modulus (GPa) = 19.09727 33.51678 26.30703
#
# Velocity S-wave (km/s) = 2.81641 3.73113 3.30556
# Velocity P-wave (km/s) = 5.00228 6.47396 5.78511
#
# Compressibility (1/GPa) = 0.02875097
#
# Stress axis : x y z
#
# Youngs Moduli (GPa) = 84.65688 47.61800 49.25135
#
# Poissons Ratio (x) = -0.21343 0.22885
# Poissons Ratio (y) = -0.37945 0.59193
# Poissons Ratio (z) = 0.39337 0.57230
#
# Static dielectric constant tensor:
#      x y z
#    x 1.964440 -0.024910 0.028120 
#    y -0.024910 1.864640 0.086380 
#    z 0.028120 0.086380 2.032690 
# 
# From -- ./inp_files/549042.got.cif
#   From: 2010.05.17/outbox.cif.g08.bks.cpg/sg2_275_cif.got.tgz:549042.got - 2010.06.03 11:33:40.
